MODEL 1
REMARK VINA RESULT:     -11.8      0.000      0.000
REMARK SMILES Cc1ccc(S(=O)(=O)Nc2ccc(C(=O)CCC(=O)OCCOC(=O)c3ccc(-c4c5nc(c(-c6c(F)cccc6F)c6ccc([nH]6)c(-c6c(F)cccc6F)c6nc(c(-c7c(F)cccc7F)c7ccc4[nH]7)C=C6)C=C5)cc3)cc2)c(C)c1
REMARK SMILES IDX 18 1 19 2 17 3 16 4 14 5 15 6 13 7 10 8 11 9 81 10 12 11
REMARK SMILES IDX 80 12 9 13 6 15 7 16 8 17 5 18 1 19 2 20 3 21 84 22 4 23
REMARK SMILES IDX 82 24 83 25 20 26 21 27 22 28 23 29 24 30 25 31 26 32 27 33
REMARK SMILES IDX 79 34 28 35 78 36 29 37 30 38 31 39 72 40 32 41 77 42 71 43
REMARK SMILES IDX 73 44 33 45 76 46 70 47 69 48 34 50 60 51 43 52 59 53 44 54
REMARK SMILES IDX 47 55 58 56 74 57 45 58 46 59 57 61 75 62 48 63 35 64 36 65
REMARK SMILES IDX 41 66 37 67 38 68 40 69 42 70 39 71 61 72 62 73 67 74 63 75
REMARK SMILES IDX 64 76 66 77 68 78 65 79 49 80 50 81 55 82 51 83 52 84 54 85
REMARK SMILES IDX 56 86 53 87
REMARK H PARENT 9 14 73 49 47 60
REMARK Flexibility Score: inf
ROOT
ATOM      1  C   UNL A   1      42.918  18.937  25.841  1.00  0.00     0.306 C 
ATOM      2  O   UNL A   1      42.968  17.722  25.705  1.00  0.00    -0.252 OA
ENDROOT
BRANCH   1   3
ATOM      3  C   UNL A   1      42.022  19.624  26.849  1.00  0.00     0.131 C 
BRANCH   3   4
ATOM      4  C   UNL A   1      40.627  20.009  26.349  1.00  0.00     0.093 C 
BRANCH   4   5
ATOM      5  C   UNL A   1      40.218  21.386  26.844  1.00  0.00     0.163 C 
ATOM      6  O   UNL A   1      40.715  21.868  27.860  1.00  0.00    -0.294 OA
BRANCH   5   7
ATOM      7  C   UNL A   1      39.077  22.093  26.195  1.00  0.00     0.018 A 
ATOM      8  C   UNL A   1      36.707  23.422  25.489  1.00  0.00     0.049 A 
ATOM      9  C   UNL A   1      37.739  24.108  26.132  1.00  0.00     0.027 A 
ATOM     10  C   UNL A   1      36.950  22.132  25.024  1.00  0.00     0.027 A 
ATOM     11  C   UNL A   1      38.915  23.448  26.493  1.00  0.00     0.014 A 
ATOM     12  C   UNL A   1      38.130  21.454  25.393  1.00  0.00     0.014 A 
BRANCH   8  13
ATOM     13  N   UNL A   1      35.494  24.133  25.293  1.00  0.00    -0.280 N 
ATOM     14  H   UNL A   1      35.514  24.873  24.643  1.00  0.00     0.180 HD
BRANCH  13  15
ATOM     15  S   UNL A   1      34.027  23.841  26.055  1.00  0.00     0.262 S 
ATOM     16  O   UNL A   1      33.245  25.060  26.009  1.00  0.00    -0.201 OA
ATOM     17  O   UNL A   1      34.379  23.219  27.314  1.00  0.00    -0.201 OA
BRANCH  15  18
ATOM     18  C   UNL A   1      33.101  22.607  25.129  1.00  0.00     0.090 A 
ATOM     19  C   UNL A   1      32.347  19.019  22.880  1.00  0.00     0.044 C 
ATOM     20  C   UNL A   1      32.454  20.306  23.647  1.00  0.00    -0.051 A 
ATOM     21  C   UNL A   1      32.235  20.343  25.028  1.00  0.00     0.005 A 
ATOM     22  C   UNL A   1      32.804  21.490  22.993  1.00  0.00     0.008 A 
ATOM     23  C   UNL A   1      32.556  21.490  25.771  1.00  0.00     0.023 A 
ATOM     24  C   UNL A   1      33.121  22.655  23.718  1.00  0.00    -0.030 A 
ATOM     25  C   UNL A   1      33.369  23.909  22.921  1.00  0.00     0.046 C 
ENDBRANCH  15  18
ENDBRANCH  13  15
ENDBRANCH   8  13
ENDBRANCH   5   7
ENDBRANCH   4   5
ENDBRANCH   3   4
ENDBRANCH   1   3
BRANCH   1  26
ATOM     26  O   UNL A   1      43.653  19.823  25.136  1.00  0.00    -0.462 OA
BRANCH  26  27
ATOM     27  C   UNL A   1      43.786  21.146  25.674  1.00  0.00     0.274 C 
BRANCH  27  28
ATOM     28  C   UNL A   1      43.574  22.214  24.604  1.00  0.00     0.275 C 
BRANCH  28  29
ATOM     29  O   UNL A   1      43.040  23.377  25.224  1.00  0.00    -0.458 OA
BRANCH  29  30
ATOM     30  C   UNL A   1      43.912  24.403  25.293  1.00  0.00     0.338 C 
ATOM     31  O   UNL A   1      44.889  24.644  24.604  1.00  0.00    -0.246 OA
BRANCH  30  32
ATOM     32  C   UNL A   1      43.308  25.325  26.236  1.00  0.00     0.060 A 
ATOM     33  C   UNL A   1      43.580  26.692  26.116  1.00  0.00     0.016 A 
ATOM     34  C   UNL A   1      42.431  24.812  27.190  1.00  0.00     0.016 A 
ATOM     35  C   UNL A   1      43.009  27.565  27.023  1.00  0.00     0.010 A 
ATOM     36  C   UNL A   1      41.848  25.685  28.083  1.00  0.00     0.010 A 
ATOM     37  C   UNL A   1      42.176  27.050  28.023  1.00  0.00    -0.014 A 
BRANCH  37  38
ATOM     38  C   UNL A   1      41.755  27.903  29.138  1.00  0.00     0.031 A 
ATOM     39  C   UNL A   1      42.507  27.780  30.425  1.00  0.00     0.074 A 
ATOM     40  C   UNL A   1      40.690  28.698  28.983  1.00  0.00     0.049 A 
ATOM     41  N   UNL A   1      42.243  28.303  31.588  1.00  0.00    -0.248 NA
ATOM     42  C   UNL A   1      43.705  26.921  30.401  1.00  0.00     0.031 C 
ATOM     43  C   UNL A   1      39.923  28.849  27.746  1.00  0.00     0.029 A 
ATOM     44  N   UNL A   1      40.055  29.506  29.880  1.00  0.00    -0.354 N 
ATOM     45  C   UNL A   1      43.229  27.822  32.441  1.00  0.00     0.074 A 
ATOM     46  C   UNL A   1      44.069  26.933  31.673  1.00  0.00     0.031 C 
ATOM     47  C   UNL A   1      38.901  29.689  27.969  1.00  0.00     0.029 A 
ATOM     48  C   UNL A   1      38.929  30.100  29.369  1.00  0.00     0.049 A 
ATOM     49  H   UNL A   1      40.372  29.648  30.801  1.00  0.00     0.167 HD
ATOM     50  C   UNL A   1      43.411  28.116  33.748  1.00  0.00     0.037 A 
ATOM     51  C   UNL A   1      38.017  30.866  29.989  1.00  0.00     0.037 A 
ATOM     52  C   UNL A   1      42.539  29.000  34.473  1.00  0.00     0.049 A 
ATOM     53  C   UNL A   1      38.232  31.174  31.442  1.00  0.00     0.074 A 
ATOM     54  C   UNL A   1      42.602  29.396  35.795  1.00  0.00     0.029 A 
ATOM     55  N   UNL A   1      41.427  29.626  33.916  1.00  0.00    -0.354 N 
ATOM     56  N   UNL A   1      39.176  30.740  32.247  1.00  0.00    -0.248 NA
ATOM     57  C   UNL A   1      37.273  32.085  32.073  1.00  0.00     0.031 C 
ATOM     58  C   UNL A   1      41.507  30.230  36.047  1.00  0.00     0.029 A 
ATOM     59  C   UNL A   1      40.789  30.398  34.870  1.00  0.00     0.049 A 
ATOM     60  H   UNL A   1      41.138  29.534  32.980  1.00  0.00     0.167 HD
ATOM     61  C   UNL A   1      38.939  31.338  33.475  1.00  0.00     0.074 A 
ATOM     62  C   UNL A   1      37.768  32.179  33.299  1.00  0.00     0.031 C 
ATOM     63  C   UNL A   1      39.618  31.210  34.643  1.00  0.00     0.037 A 
BRANCH  50  64
ATOM     64  C   UNL A   1      44.561  27.448  34.446  1.00  0.00     0.057 A 
ATOM     65  C   UNL A   1      45.835  28.034  34.508  1.00  0.00     0.134 A 
ATOM     66  C   UNL A   1      44.410  26.182  35.024  1.00  0.00     0.134 A 
ATOM     67  F   UNL A   1      46.058  29.234  33.953  1.00  0.00    -0.206 F 
ATOM     68  C   UNL A   1      46.920  27.370  35.084  1.00  0.00     0.040 A 
ATOM     69  C   UNL A   1      45.481  25.520  35.630  1.00  0.00     0.040 A 
ATOM     70  F   UNL A   1      43.222  25.558  34.999  1.00  0.00    -0.206 F 
ATOM     71  C   UNL A   1      46.744  26.109  35.649  1.00  0.00     0.006 A 
ENDBRANCH  50  64
BRANCH  51  72
ATOM     72  C   UNL A   1      36.860  31.384  29.223  1.00  0.00     0.057 A 
ATOM     73  C   UNL A   1      36.833  32.702  28.757  1.00  0.00     0.134 A 
ATOM     74  C   UNL A   1      35.789  30.553  28.870  1.00  0.00     0.134 A 
ATOM     75  F   UNL A   1      37.827  33.547  29.065  1.00  0.00    -0.206 F 
ATOM     76  C   UNL A   1      35.781  33.179  27.973  1.00  0.00     0.040 A 
ATOM     77  C   UNL A   1      34.741  31.010  28.068  1.00  0.00     0.040 A 
ATOM     78  F   UNL A   1      35.764  29.272  29.269  1.00  0.00    -0.206 F 
ATOM     79  C   UNL A   1      34.734  32.328  27.618  1.00  0.00     0.006 A 
ENDBRANCH  51  72
BRANCH  63  80
ATOM     80  C   UNL A   1      39.114  32.021  35.798  1.00  0.00     0.057 A 
ATOM     81  C   UNL A   1      38.250  31.480  36.757  1.00  0.00     0.134 A 
ATOM     82  C   UNL A   1      39.529  33.348  35.967  1.00  0.00     0.134 A 
ATOM     83  F   UNL A   1      37.809  30.218  36.641  1.00  0.00    -0.206 F 
ATOM     84  C   UNL A   1      37.790  32.243  37.830  1.00  0.00     0.040 A 
ATOM     85  C   UNL A   1      39.099  34.111  37.050  1.00  0.00     0.040 A 
ATOM     86  F   UNL A   1      40.366  33.918  35.087  1.00  0.00    -0.206 F 
ATOM     87  C   UNL A   1      38.220  33.561  37.981  1.00  0.00     0.006 A 
ENDBRANCH  63  80
ENDBRANCH  37  38
ENDBRANCH  30  32
ENDBRANCH  29  30
ENDBRANCH  28  29
ENDBRANCH  27  28
ENDBRANCH  26  27
ENDBRANCH   1  26
TORSDOF 17
ENDMDL
MODEL 2
REMARK VINA RESULT:     -11.6      1.483      2.652
REMARK SMILES Cc1ccc(S(=O)(=O)Nc2ccc(C(=O)CCC(=O)OCCOC(=O)c3ccc(-c4c5nc(c(-c6c(F)cccc6F)c6ccc([nH]6)c(-c6c(F)cccc6F)c6nc(c(-c7c(F)cccc7F)c7ccc4[nH]7)C=C6)C=C5)cc3)cc2)c(C)c1
REMARK SMILES IDX 18 1 19 2 17 3 16 4 14 5 15 6 13 7 10 8 11 9 81 10 12 11
REMARK SMILES IDX 80 12 9 13 6 15 7 16 8 17 5 18 1 19 2 20 3 21 84 22 4 23
REMARK SMILES IDX 82 24 83 25 20 26 21 27 22 28 23 29 24 30 25 31 26 32 27 33
REMARK SMILES IDX 79 34 28 35 78 36 29 37 30 38 31 39 72 40 32 41 77 42 71 43
REMARK SMILES IDX 73 44 33 45 76 46 70 47 69 48 34 50 60 51 43 52 59 53 44 54
REMARK SMILES IDX 47 55 58 56 74 57 45 58 46 59 57 61 75 62 48 63 35 64 36 65
REMARK SMILES IDX 41 66 37 67 38 68 40 69 42 70 39 71 61 72 62 73 67 74 63 75
REMARK SMILES IDX 64 76 66 77 68 78 65 79 49 80 50 81 55 82 51 83 52 84 54 85
REMARK SMILES IDX 56 86 53 87
REMARK H PARENT 9 14 73 49 47 60
REMARK Flexibility Score: inf
ROOT
ATOM      1  C   UNL A   1      41.971  20.300  26.546  1.00  0.00     0.306 C 
ATOM      2  O   UNL A   1      42.243  19.145  26.842  1.00  0.00    -0.252 OA
ENDROOT
BRANCH   1   3
ATOM      3  C   UNL A   1      40.895  21.105  27.244  1.00  0.00     0.131 C 
BRANCH   3   4
ATOM      4  C   UNL A   1      40.037  21.996  26.340  1.00  0.00     0.093 C 
BRANCH   4   5
ATOM      5  C   UNL A   1      38.882  21.220  25.729  1.00  0.00     0.163 C 
ATOM      6  O   UNL A   1      39.006  20.036  25.420  1.00  0.00    -0.294 OA
BRANCH   5   7
ATOM      7  C   UNL A   1      37.639  21.941  25.333  1.00  0.00     0.018 A 
ATOM      8  C   UNL A   1      35.158  23.242  25.127  1.00  0.00     0.049 A 
ATOM      9  C   UNL A   1      36.263  23.904  25.665  1.00  0.00     0.027 A 
ATOM     10  C   UNL A   1      35.355  22.007  24.511  1.00  0.00     0.027 A 
ATOM     11  C   UNL A   1      37.496  23.258  25.778  1.00  0.00     0.014 A 
ATOM     12  C   UNL A   1      36.592  21.342  24.629  1.00  0.00     0.014 A 
BRANCH   8  13
ATOM     13  N   UNL A   1      33.914  23.923  25.187  1.00  0.00    -0.280 N 
ATOM     14  H   UNL A   1      33.369  23.779  25.994  1.00  0.00     0.180 HD
BRANCH  13  15
ATOM     15  S   UNL A   1      33.277  24.949  24.022  1.00  0.00     0.262 S 
ATOM     16  O   UNL A   1      31.899  24.566  23.789  1.00  0.00    -0.201 OA
ATOM     17  O   UNL A   1      34.251  24.946  22.951  1.00  0.00    -0.201 OA
BRANCH  15  18
ATOM     18  C   UNL A   1      33.237  26.632  24.657  1.00  0.00     0.090 A 
ATOM     19  C   UNL A   1      31.801  30.069  26.806  1.00  0.00     0.044 C 
ATOM     20  C   UNL A   1      32.426  28.960  26.009  1.00  0.00    -0.051 A 
ATOM     21  C   UNL A   1      33.367  28.100  26.583  1.00  0.00     0.005 A 
ATOM     22  C   UNL A   1      32.054  28.753  24.678  1.00  0.00     0.008 A 
ATOM     23  C   UNL A   1      33.775  26.937  25.911  1.00  0.00     0.023 A 
ATOM     24  C   UNL A   1      32.459  27.598  23.981  1.00  0.00    -0.030 A 
ATOM     25  C   UNL A   1      32.106  27.524  22.519  1.00  0.00     0.046 C 
ENDBRANCH  15  18
ENDBRANCH  13  15
ENDBRANCH   8  13
ENDBRANCH   5   7
ENDBRANCH   4   5
ENDBRANCH   3   4
ENDBRANCH   1   3
BRANCH   1  26
ATOM     26  O   UNL A   1      42.590  21.017  25.583  1.00  0.00    -0.462 OA
BRANCH  26  27
ATOM     27  C   UNL A   1      43.974  20.736  25.339  1.00  0.00     0.274 C 
BRANCH  27  28
ATOM     28  C   UNL A   1      44.871  21.889  25.784  1.00  0.00     0.275 C 
BRANCH  28  29
ATOM     29  O   UNL A   1      44.055  22.908  26.347  1.00  0.00    -0.458 OA
BRANCH  29  30
ATOM     30  C   UNL A   1      44.066  24.059  25.644  1.00  0.00     0.338 C 
ATOM     31  O   UNL A   1      44.320  24.253  24.467  1.00  0.00    -0.246 OA
BRANCH  30  32
ATOM     32  C   UNL A   1      43.468  25.032  26.540  1.00  0.00     0.060 A 
ATOM     33  C   UNL A   1      43.871  26.368  26.454  1.00  0.00     0.016 A 
ATOM     34  C   UNL A   1      42.470  24.599  27.411  1.00  0.00     0.016 A 
ATOM     35  C   UNL A   1      43.304  27.289  27.316  1.00  0.00     0.010 A 
ATOM     36  C   UNL A   1      41.893  25.521  28.257  1.00  0.00     0.010 A 
ATOM     37  C   UNL A   1      42.346  26.851  28.238  1.00  0.00    -0.014 A 
BRANCH  37  38
ATOM     38  C   UNL A   1      41.908  27.737  29.319  1.00  0.00     0.031 A 
ATOM     39  C   UNL A   1      42.616  27.628  30.632  1.00  0.00     0.074 A 
ATOM     40  C   UNL A   1      40.867  28.552  29.112  1.00  0.00     0.049 A 
ATOM     41  N   UNL A   1      42.327  28.182  31.775  1.00  0.00    -0.248 NA
ATOM     42  C   UNL A   1      43.795  26.743  30.666  1.00  0.00     0.031 C 
ATOM     43  C   UNL A   1      40.143  28.691  27.848  1.00  0.00     0.029 A 
ATOM     44  N   UNL A   1      40.221  29.394  29.971  1.00  0.00    -0.354 N 
ATOM     45  C   UNL A   1      43.274  27.700  32.669  1.00  0.00     0.074 A 
ATOM     46  C   UNL A   1      44.119  26.776  31.948  1.00  0.00     0.031 C 
ATOM     47  C   UNL A   1      39.133  29.558  28.020  1.00  0.00     0.029 A 
ATOM     48  C   UNL A   1      39.127  30.000  29.410  1.00  0.00     0.049 A 
ATOM     49  H   UNL A   1      40.512  29.549  30.898  1.00  0.00     0.167 HD
ATOM     50  C   UNL A   1      43.422  28.020  33.974  1.00  0.00     0.037 A 
ATOM     51  C   UNL A   1      38.212  30.799  29.983  1.00  0.00     0.037 A 
ATOM     52  C   UNL A   1      42.546  28.938  34.651  1.00  0.00     0.049 A 
ATOM     53  C   UNL A   1      38.388  31.136  31.436  1.00  0.00     0.074 A 
ATOM     54  C   UNL A   1      42.577  29.362  35.965  1.00  0.00     0.029 A 
ATOM     55  N   UNL A   1      41.467  29.576  34.045  1.00  0.00    -0.354 N 
ATOM     56  N   UNL A   1      39.296  30.700  32.280  1.00  0.00    -0.248 NA
ATOM     57  C   UNL A   1      37.430  32.081  32.015  1.00  0.00     0.031 C 
ATOM     58  C   UNL A   1      41.493  30.226  36.164  1.00  0.00     0.029 A 
ATOM     59  C   UNL A   1      40.817  30.382  34.961  1.00  0.00     0.049 A 
ATOM     60  H   UNL A   1      41.206  29.468  33.102  1.00  0.00     0.167 HD
ATOM     61  C   UNL A   1      39.033  31.330  33.486  1.00  0.00     0.074 A 
ATOM     62  C   UNL A   1      37.887  32.192  33.254  1.00  0.00     0.031 C 
ATOM     63  C   UNL A   1      39.672  31.214  34.678  1.00  0.00     0.037 A 
BRANCH  50  64
ATOM     64  C   UNL A   1      44.533  27.343  34.723  1.00  0.00     0.057 A 
ATOM     65  C   UNL A   1      45.804  27.925  34.854  1.00  0.00     0.134 A 
ATOM     66  C   UNL A   1      44.351  26.073  35.283  1.00  0.00     0.134 A 
ATOM     67  F   UNL A   1      46.058  29.129  34.320  1.00  0.00    -0.206 F 
ATOM     68  C   UNL A   1      46.857  27.253  35.478  1.00  0.00     0.040 A 
ATOM     69  C   UNL A   1      45.388  25.404  35.936  1.00  0.00     0.040 A 
ATOM     70  F   UNL A   1      43.164  25.452  35.193  1.00  0.00    -0.206 F 
ATOM     71  C   UNL A   1      46.650  25.988  36.024  1.00  0.00     0.006 A 
ENDBRANCH  50  64
BRANCH  51  72
ATOM     72  C   UNL A   1      37.092  31.325  29.169  1.00  0.00     0.057 A 
ATOM     73  C   UNL A   1      35.954  30.552  28.918  1.00  0.00     0.134 A 
ATOM     74  C   UNL A   1      37.097  32.640  28.687  1.00  0.00     0.134 A 
ATOM     75  F   UNL A   1      35.892  29.284  29.350  1.00  0.00    -0.206 F 
ATOM     76  C   UNL A   1      34.864  31.063  28.213  1.00  0.00     0.040 A 
ATOM     77  C   UNL A   1      36.004  33.173  28.000  1.00  0.00     0.040 A 
ATOM     78  F   UNL A   1      38.150  33.440  28.911  1.00  0.00    -0.206 F 
ATOM     79  C   UNL A   1      34.883  32.382  27.760  1.00  0.00     0.006 A 
ENDBRANCH  51  72
BRANCH  63  80
ATOM     80  C   UNL A   1      39.150  32.062  35.798  1.00  0.00     0.057 A 
ATOM     81  C   UNL A   1      38.254  31.558  36.748  1.00  0.00     0.134 A 
ATOM     82  C   UNL A   1      39.578  33.387  35.943  1.00  0.00     0.134 A 
ATOM     83  F   UNL A   1      37.798  30.299  36.653  1.00  0.00    -0.206 F 
ATOM     84  C   UNL A   1      37.776  32.354  37.788  1.00  0.00     0.040 A 
ATOM     85  C   UNL A   1      39.131  34.184  36.995  1.00  0.00     0.040 A 
ATOM     86  F   UNL A   1      40.445  33.923  35.070  1.00  0.00    -0.206 F 
ATOM     87  C   UNL A   1      38.221  33.670  37.917  1.00  0.00     0.006 A 
ENDBRANCH  63  80
ENDBRANCH  37  38
ENDBRANCH  30  32
ENDBRANCH  29  30
ENDBRANCH  28  29
ENDBRANCH  27  28
ENDBRANCH  26  27
ENDBRANCH   1  26
TORSDOF 17
ENDMDL
MODEL 3
REMARK VINA RESULT:     -11.4      4.174      9.241
REMARK SMILES Cc1ccc(S(=O)(=O)Nc2ccc(C(=O)CCC(=O)OCCOC(=O)c3ccc(-c4c5nc(c(-c6c(F)cccc6F)c6ccc([nH]6)c(-c6c(F)cccc6F)c6nc(c(-c7c(F)cccc7F)c7ccc4[nH]7)C=C6)C=C5)cc3)cc2)c(C)c1
REMARK SMILES IDX 18 1 19 2 17 3 16 4 14 5 15 6 13 7 10 8 11 9 81 10 12 11
REMARK SMILES IDX 80 12 9 13 6 15 7 16 8 17 5 18 1 19 2 20 3 21 84 22 4 23
REMARK SMILES IDX 82 24 83 25 20 26 21 27 22 28 23 29 24 30 25 31 26 32 27 33
REMARK SMILES IDX 79 34 28 35 78 36 29 37 30 38 31 39 72 40 32 41 77 42 71 43
REMARK SMILES IDX 73 44 33 45 76 46 70 47 69 48 34 50 60 51 43 52 59 53 44 54
REMARK SMILES IDX 47 55 58 56 74 57 45 58 46 59 57 61 75 62 48 63 35 64 36 65
REMARK SMILES IDX 41 66 37 67 38 68 40 69 42 70 39 71 61 72 62 73 67 74 63 75
REMARK SMILES IDX 64 76 66 77 68 78 65 79 49 80 50 81 55 82 51 83 52 84 54 85
REMARK SMILES IDX 56 86 53 87
REMARK H PARENT 9 14 73 49 47 60
REMARK Flexibility Score: inf
ROOT
ATOM      1  C   UNL A   1      34.702  32.988  29.251  1.00  0.00     0.306 C 
ATOM      2  O   UNL A   1      34.337  32.400  30.259  1.00  0.00    -0.252 OA
ENDROOT
BRANCH   1   3
ATOM      3  C   UNL A   1      35.223  32.279  28.018  1.00  0.00     0.131 C 
BRANCH   3   4
ATOM      4  C   UNL A   1      34.734  30.841  27.820  1.00  0.00     0.093 C 
BRANCH   4   5
ATOM      5  C   UNL A   1      33.422  30.800  27.054  1.00  0.00     0.163 C 
ATOM      6  O   UNL A   1      32.546  31.640  27.251  1.00  0.00    -0.294 OA
BRANCH   5   7
ATOM      7  C   UNL A   1      33.116  29.632  26.179  1.00  0.00     0.018 A 
ATOM      8  C   UNL A   1      32.193  27.284  24.947  1.00  0.00     0.049 A 
ATOM      9  C   UNL A   1      31.406  28.437  24.953  1.00  0.00     0.027 A 
ATOM     10  C   UNL A   1      33.515  27.376  25.378  1.00  0.00     0.027 A 
ATOM     11  C   UNL A   1      31.858  29.604  25.572  1.00  0.00     0.014 A 
ATOM     12  C   UNL A   1      33.976  28.545  26.015  1.00  0.00     0.014 A 
BRANCH   8  13
ATOM     13  N   UNL A   1      31.597  26.106  24.426  1.00  0.00    -0.280 N 
ATOM     14  H   UNL A   1      31.204  26.170  23.526  1.00  0.00     0.180 HD
BRANCH  13  15
ATOM     15  S   UNL A   1      31.492  24.614  25.189  1.00  0.00     0.262 S 
ATOM     16  O   UNL A   1      30.686  23.740  24.360  1.00  0.00    -0.201 OA
ATOM     17  O   UNL A   1      31.115  24.919  26.553  1.00  0.00    -0.201 OA
BRANCH  15  18
ATOM     18  C   UNL A   1      33.126  23.866  25.277  1.00  0.00     0.090 A 
ATOM     19  C   UNL A   1      37.392  23.606  25.757  1.00  0.00     0.044 C 
ATOM     20  C   UNL A   1      35.904  23.538  25.565  1.00  0.00    -0.051 A 
ATOM     21  C   UNL A   1      35.048  23.292  26.642  1.00  0.00     0.005 A 
ATOM     22  C   UNL A   1      35.347  23.747  24.301  1.00  0.00     0.008 A 
ATOM     23  C   UNL A   1      33.660  23.455  26.503  1.00  0.00     0.023 A 
ATOM     24  C   UNL A   1      33.957  23.904  24.136  1.00  0.00    -0.030 A 
ATOM     25  C   UNL A   1      33.444  24.006  22.724  1.00  0.00     0.046 C 
ENDBRANCH  15  18
ENDBRANCH  13  15
ENDBRANCH   8  13
ENDBRANCH   5   7
ENDBRANCH   4   5
ENDBRANCH   3   4
ENDBRANCH   1   3
BRANCH   1  26
ATOM     26  O   UNL A   1      34.679  34.328  29.087  1.00  0.00    -0.462 OA
BRANCH  26  27
ATOM     27  C   UNL A   1      33.435  34.922  28.692  1.00  0.00     0.274 C 
BRANCH  27  28
ATOM     28  C   UNL A   1      32.902  35.877  29.757  1.00  0.00     0.275 C 
BRANCH  28  29
ATOM     29  O   UNL A   1      32.528  35.119  30.900  1.00  0.00    -0.458 OA
BRANCH  29  30
ATOM     30  C   UNL A   1      32.787  35.741  32.069  1.00  0.00     0.338 C 
ATOM     31  O   UNL A   1      32.128  36.567  32.676  1.00  0.00    -0.246 OA
BRANCH  30  32
ATOM     32  C   UNL A   1      33.940  35.038  32.602  1.00  0.00     0.060 A 
ATOM     33  C   UNL A   1      35.202  35.631  32.498  1.00  0.00     0.016 A 
ATOM     34  C   UNL A   1      33.729  33.822  33.248  1.00  0.00     0.016 A 
ATOM     35  C   UNL A   1      36.298  34.953  32.999  1.00  0.00     0.010 A 
ATOM     36  C   UNL A   1      34.819  33.155  33.763  1.00  0.00     0.010 A 
ATOM     37  C   UNL A   1      36.102  33.701  33.595  1.00  0.00    -0.014 A 
BRANCH  37  38
ATOM     38  C   UNL A   1      37.254  32.853  33.912  1.00  0.00     0.031 A 
ATOM     39  C   UNL A   1      38.002  33.145  35.174  1.00  0.00     0.074 A 
ATOM     40  C   UNL A   1      37.624  31.905  33.042  1.00  0.00     0.049 A 
ATOM     41  N   UNL A   1      39.128  32.648  35.601  1.00  0.00    -0.248 NA
ATOM     42  C   UNL A   1      37.412  34.165  36.061  1.00  0.00     0.031 C 
ATOM     43  C   UNL A   1      36.926  31.586  31.797  1.00  0.00     0.029 A 
ATOM     44  N   UNL A   1      38.695  31.060  33.062  1.00  0.00    -0.354 N 
ATOM     45  C   UNL A   1      39.393  33.307  36.795  1.00  0.00     0.074 A 
ATOM     46  C   UNL A   1      38.336  34.269  37.002  1.00  0.00     0.031 C 
ATOM     47  C   UNL A   1      37.602  30.618  31.157  1.00  0.00     0.029 A 
ATOM     48  C   UNL A   1      38.791  30.286  31.934  1.00  0.00     0.049 A 
ATOM     49  H   UNL A   1      39.333  31.011  33.810  1.00  0.00     0.167 HD
ATOM     50  C   UNL A   1      40.429  33.107  37.641  1.00  0.00     0.037 A 
ATOM     51  C   UNL A   1      39.760  29.428  31.573  1.00  0.00     0.037 A 
ATOM     52  C   UNL A   1      41.464  32.144  37.383  1.00  0.00     0.049 A 
ATOM     53  C   UNL A   1      40.906  29.226  32.522  1.00  0.00     0.074 A 
ATOM     54  C   UNL A   1      42.569  31.827  38.150  1.00  0.00     0.029 A 
ATOM     55  N   UNL A   1      41.514  31.338  36.250  1.00  0.00    -0.354 N 
ATOM     56  N   UNL A   1      41.149  29.830  33.663  1.00  0.00    -0.248 NA
ATOM     57  C   UNL A   1      41.902  28.219  32.148  1.00  0.00     0.031 C 
ATOM     58  C   UNL A   1      43.307  30.857  37.461  1.00  0.00     0.029 A 
ATOM     59  C   UNL A   1      42.636  30.530  36.290  1.00  0.00     0.049 A 
ATOM     60  H   UNL A   1      40.847  31.341  35.525  1.00  0.00     0.167 HD
ATOM     61  C   UNL A   1      42.315  29.266  34.156  1.00  0.00     0.074 A 
ATOM     62  C   UNL A   1      42.719  28.257  33.192  1.00  0.00     0.031 C 
ATOM     63  C   UNL A   1      42.996  29.547  35.296  1.00  0.00     0.037 A 
BRANCH  50  64
ATOM     64  C   UNL A   1      40.484  33.967  38.870  1.00  0.00     0.057 A 
ATOM     65  C   UNL A   1      41.205  35.171  38.904  1.00  0.00     0.134 A 
ATOM     66  C   UNL A   1      39.847  33.570  40.052  1.00  0.00     0.134 A 
ATOM     67  F   UNL A   1      41.861  35.600  37.816  1.00  0.00    -0.206 F 
ATOM     68  C   UNL A   1      41.322  35.923  40.075  1.00  0.00     0.040 A 
ATOM     69  C   UNL A   1      39.931  34.329  41.221  1.00  0.00     0.040 A 
ATOM     70  F   UNL A   1      39.143  32.428  40.096  1.00  0.00    -0.206 F 
ATOM     71  C   UNL A   1      40.682  35.503  41.239  1.00  0.00     0.006 A 
ENDBRANCH  50  64
BRANCH  51  72
ATOM     72  C   UNL A   1      39.653  28.712  30.282  1.00  0.00     0.057 A 
ATOM     73  C   UNL A   1      40.208  29.240  29.113  1.00  0.00     0.134 A 
ATOM     74  C   UNL A   1      39.062  27.444  30.199  1.00  0.00     0.134 A 
ATOM     75  F   UNL A   1      40.784  30.451  29.128  1.00  0.00    -0.206 F 
ATOM     76  C   UNL A   1      40.176  28.540  27.906  1.00  0.00     0.040 A 
ATOM     77  C   UNL A   1      39.042  26.722  29.004  1.00  0.00     0.040 A 
ATOM     78  F   UNL A   1      38.528  26.872  31.289  1.00  0.00    -0.206 F 
ATOM     79  C   UNL A   1      39.599  27.271  27.851  1.00  0.00     0.006 A 
ENDBRANCH  51  72
BRANCH  63  80
ATOM     80  C   UNL A   1      44.225  28.731  35.556  1.00  0.00     0.057 A 
ATOM     81  C   UNL A   1      45.487  29.134  35.106  1.00  0.00     0.134 A 
ATOM     82  C   UNL A   1      44.144  27.544  36.295  1.00  0.00     0.134 A 
ATOM     83  F   UNL A   1      45.625  30.255  34.381  1.00  0.00    -0.206 F 
ATOM     84  C   UNL A   1      46.625  28.368  35.356  1.00  0.00     0.040 A 
ATOM     85  C   UNL A   1      45.278  26.785  36.577  1.00  0.00     0.040 A 
ATOM     86  F   UNL A   1      42.963  27.112  36.763  1.00  0.00    -0.206 F 
ATOM     87  C   UNL A   1      46.522  27.192  36.099  1.00  0.00     0.006 A 
ENDBRANCH  63  80
ENDBRANCH  37  38
ENDBRANCH  30  32
ENDBRANCH  29  30
ENDBRANCH  28  29
ENDBRANCH  27  28
ENDBRANCH  26  27
ENDBRANCH   1  26
TORSDOF 17
ENDMDL
