MODEL 1
REMARK VINA RESULT:     -12.4      0.000      0.000
REMARK SMILES Cc1ccc(CNc2ccc(C(=O)OCCOC(=O)c3ccc(-c4c5nc(c(-c6c(F)cccc6F)c6ccc([nH]6)c(-c6c(F)cccc6F)c6nc(c(-c7c(F)cccc7F)c7ccc4[nH]7)C=C6)C=C5)cc3)cc2Br)cc1
REMARK SMILES IDX 15 1 14 2 12 3 13 4 11 5 8 6 9 7 75 8 10 9 74 10 76 11 7 12
REMARK SMILES IDX 6 14 5 15 1 16 2 17 3 18 78 19 4 20 77 21 16 22 17 23 18 24
REMARK SMILES IDX 19 25 20 26 21 27 73 28 22 29 72 30 23 31 24 32 25 33 66 34
REMARK SMILES IDX 26 35 71 36 65 37 67 38 27 39 70 40 64 41 63 42 28 44 54 45
REMARK SMILES IDX 37 46 53 47 38 48 41 49 52 50 68 51 39 52 40 53 51 55 69 56
REMARK SMILES IDX 42 57 29 58 30 59 35 60 31 61 32 62 34 63 36 64 33 65 55 66
REMARK SMILES IDX 56 67 61 68 57 69 58 70 60 71 62 72 59 73 43 74 44 75 49 76
REMARK SMILES IDX 45 77 46 78 48 79 50 80 47 81
REMARK H PARENT 7 13 67 43 41 54
REMARK Flexibility Score: inf
ROOT
ATOM      1  C   UNL A   1      33.129  37.197  30.369  1.00  0.00     0.275 C 
ENDROOT
BRANCH   1   2
ATOM      2  O   UNL A   1      32.502  36.135  29.626  1.00  0.00    -0.458 OA
BRANCH   2   3
ATOM      3  C   UNL A   1      33.342  35.409  28.622  1.00  0.00     0.338 C 
ATOM      4  O   UNL A   1      34.211  36.301  28.403  1.00  0.00    -0.246 OA
BRANCH   3   5
ATOM      5  C   UNL A   1      33.036  33.407  27.867  1.00  0.00     0.061 A 
ATOM      6  C   UNL A   1      32.726  30.471  26.643  1.00  0.00     0.049 A 
ATOM      7  C   UNL A   1      31.748  31.436  26.525  1.00  0.00     0.028 A 
ATOM      8  C   UNL A   1      33.845  30.868  27.344  1.00  0.00     0.042 A 
ATOM      9  C   UNL A   1      31.876  32.748  27.114  1.00  0.00     0.018 A 
ATOM     10  C   UNL A   1      33.984  32.193  27.866  1.00  0.00     0.033 A 
ATOM     11  Br  UNL A   1      35.295  29.651  27.626  1.00  0.00    -0.049 Br
BRANCH   6  12
ATOM     12  N   UNL A   1      32.628  29.219  26.056  1.00  0.00    -0.380 N 
ATOM     13  H   UNL A   1      32.372  28.445  26.609  1.00  0.00     0.160 HD
BRANCH  12  14
ATOM     14  C   UNL A   1      32.896  29.028  24.639  1.00  0.00     0.148 C 
BRANCH  14  15
ATOM     15  C   UNL A   1      33.319  27.597  24.365  1.00  0.00    -0.029 A 
ATOM     16  C   UNL A   1      34.337  23.460  23.583  1.00  0.00     0.044 C 
ATOM     17  C   UNL A   1      34.010  24.899  23.861  1.00  0.00    -0.051 A 
ATOM     18  C   UNL A   1      33.654  25.750  22.810  1.00  0.00     0.004 A 
ATOM     19  C   UNL A   1      34.045  25.411  25.161  1.00  0.00     0.004 A 
ATOM     20  C   UNL A   1      33.306  27.083  23.061  1.00  0.00     0.006 A 
ATOM     21  C   UNL A   1      33.708  26.748  25.411  1.00  0.00     0.006 A 
ENDBRANCH  14  15
ENDBRANCH  12  14
ENDBRANCH   6  12
ENDBRANCH   3   5
ENDBRANCH   2   3
ENDBRANCH   1   2
BRANCH   1  22
ATOM     22  C   UNL A   1      33.234  36.769  31.838  1.00  0.00     0.275 C 
BRANCH  22  23
ATOM     23  O   UNL A   1      33.538  35.363  32.049  1.00  0.00    -0.458 OA
BRANCH  23  24
ATOM     24  C   UNL A   1      34.810  34.957  32.331  1.00  0.00     0.338 C 
ATOM     25  O   UNL A   1      35.659  35.643  32.873  1.00  0.00    -0.246 OA
BRANCH  24  26
ATOM     26  C   UNL A   1      35.173  33.749  31.564  1.00  0.00     0.060 A 
ATOM     27  C   UNL A   1      35.140  32.232  32.547  1.00  0.00     0.016 A 
ATOM     28  C   UNL A   1      36.400  33.977  30.266  1.00  0.00     0.016 A 
ATOM     29  C   UNL A   1      36.410  30.925  32.248  1.00  0.00     0.010 A 
ATOM     30  C   UNL A   1      37.699  32.698  30.007  1.00  0.00     0.010 A 
ATOM     31  C   UNL A   1      37.692  31.188  31.012  1.00  0.00    -0.014 A 
BRANCH  31  32
ATOM     32  C   UNL A   1      39.019  30.620  31.162  1.00  0.00     0.031 A 
ATOM     33  C   UNL A   1      39.300  29.400  30.399  1.00  0.00     0.074 A 
ATOM     34  C   UNL A   1      39.977  31.376  31.751  1.00  0.00     0.049 A 
ATOM     35  N   UNL A   1      40.439  28.827  30.392  1.00  0.00    -0.248 NA
ATOM     36  C   UNL A   1      38.313  28.692  29.585  1.00  0.00     0.031 C 
ATOM     37  C   UNL A   1      41.429  31.277  31.638  1.00  0.00     0.029 A 
ATOM     38  N   UNL A   1      39.799  32.346  32.741  1.00  0.00    -0.354 N 
ATOM     39  C   UNL A   1      40.428  27.830  29.448  1.00  0.00     0.074 A 
ATOM     40  C   UNL A   1      39.070  27.768  28.984  1.00  0.00     0.031 C 
ATOM     41  C   UNL A   1      42.002  31.915  32.675  1.00  0.00     0.029 A 
ATOM     42  C   UNL A   1      40.940  32.360  33.558  1.00  0.00     0.049 A 
ATOM     43  H   UNL A   1      39.008  32.922  32.847  1.00  0.00     0.167 HD
ATOM     44  C   UNL A   1      41.629  27.262  29.165  1.00  0.00     0.037 A 
ATOM     45  C   UNL A   1      40.824  31.991  34.870  1.00  0.00     0.037 A 
ATOM     46  C   UNL A   1      42.567  27.604  30.239  1.00  0.00     0.049 A 
ATOM     47  C   UNL A   1      41.425  30.621  35.113  1.00  0.00     0.074 A 
ATOM     48  C   UNL A   1      43.545  28.574  30.381  1.00  0.00     0.029 A 
ATOM     49  N   UNL A   1      42.246  27.180  31.525  1.00  0.00    -0.354 N 
ATOM     50  N   UNL A   1      41.651  29.743  34.168  1.00  0.00    -0.248 NA
ATOM     51  C   UNL A   1      41.909  30.164  36.413  1.00  0.00     0.031 C 
ATOM     52  C   UNL A   1      43.745  28.780  31.780  1.00  0.00     0.029 A 
ATOM     53  C   UNL A   1      42.922  27.910  32.481  1.00  0.00     0.049 A 
ATOM     54  H   UNL A   1      41.616  26.451  31.729  1.00  0.00     0.167 HD
ATOM     55  C   UNL A   1      42.325  28.664  34.678  1.00  0.00     0.074 A 
ATOM     56  C   UNL A   1      42.459  28.980  36.090  1.00  0.00     0.031 C 
ATOM     57  C   UNL A   1      42.741  27.612  33.902  1.00  0.00     0.037 A 
BRANCH  44  58
ATOM     58  C   UNL A   1      42.010  26.539  27.898  1.00  0.00     0.057 A 
ATOM     59  C   UNL A   1      42.222  27.281  26.718  1.00  0.00     0.134 A 
ATOM     60  C   UNL A   1      42.072  25.144  27.719  1.00  0.00     0.134 A 
ATOM     61  F   UNL A   1      42.190  28.620  26.714  1.00  0.00    -0.206 F 
ATOM     62  C   UNL A   1      42.449  26.686  25.468  1.00  0.00     0.040 A 
ATOM     63  C   UNL A   1      42.315  24.536  26.478  1.00  0.00     0.040 A 
ATOM     64  F   UNL A   1      41.879  24.279  28.718  1.00  0.00    -0.206 F 
ATOM     65  C   UNL A   1      42.496  25.307  25.343  1.00  0.00     0.006 A 
ENDBRANCH  44  58
BRANCH  45  66
ATOM     66  C   UNL A   1      39.647  32.641  35.525  1.00  0.00     0.057 A 
ATOM     67  C   UNL A   1      38.574  31.781  35.850  1.00  0.00     0.134 A 
ATOM     68  C   UNL A   1      39.724  33.836  36.244  1.00  0.00     0.134 A 
ATOM     69  F   UNL A   1      38.388  30.650  35.149  1.00  0.00    -0.206 F 
ATOM     70  C   UNL A   1      37.783  31.973  36.985  1.00  0.00     0.040 A 
ATOM     71  C   UNL A   1      38.884  34.073  37.349  1.00  0.00     0.040 A 
ATOM     72  F   UNL A   1      40.718  34.707  36.019  1.00  0.00    -0.206 F 
ATOM     73  C   UNL A   1      37.972  33.102  37.770  1.00  0.00     0.006 A 
ENDBRANCH  45  66
BRANCH  57  74
ATOM     74  C   UNL A   1      43.105  26.221  34.404  1.00  0.00     0.057 A 
ATOM     75  C   UNL A   1      42.231  25.370  35.097  1.00  0.00     0.134 A 
ATOM     76  C   UNL A   1      44.344  25.617  34.063  1.00  0.00     0.134 A 
ATOM     77  F   UNL A   1      40.966  25.711  35.365  1.00  0.00    -0.206 F 
ATOM     78  C   UNL A   1      42.591  24.075  35.501  1.00  0.00     0.040 A 
ATOM     79  C   UNL A   1      44.675  24.297  34.378  1.00  0.00     0.040 A 
ATOM     80  F   UNL A   1      45.295  26.262  33.374  1.00  0.00    -0.206 F 
ATOM     81  C   UNL A   1      43.810  23.529  35.131  1.00  0.00     0.006 A 
ENDBRANCH  57  74
ENDBRANCH  31  32
ENDBRANCH  24  26
ENDBRANCH  23  24
ENDBRANCH  22  23
ENDBRANCH   1  22
TORSDOF 14
ENDMDL
MODEL 2
REMARK VINA RESULT:     -12.2      6.214     11.470
REMARK SMILES Cc1ccc(CNc2ccc(C(=O)OCCOC(=O)c3ccc(-c4c5nc(c(-c6c(F)cccc6F)c6ccc([nH]6)c(-c6c(F)cccc6F)c6nc(c(-c7c(F)cccc7F)c7ccc4[nH]7)C=C6)C=C5)cc3)cc2Br)cc1
REMARK SMILES IDX 15 1 14 2 12 3 13 4 11 5 8 6 9 7 75 8 10 9 74 10 76 11 7 12
REMARK SMILES IDX 6 14 5 15 1 16 2 17 3 18 78 19 4 20 77 21 16 22 17 23 18 24
REMARK SMILES IDX 19 25 20 26 21 27 73 28 22 29 72 30 23 31 24 32 25 33 66 34
REMARK SMILES IDX 26 35 71 36 65 37 67 38 27 39 70 40 64 41 63 42 28 44 54 45
REMARK SMILES IDX 37 46 53 47 38 48 41 49 52 50 68 51 39 52 40 53 51 55 69 56
REMARK SMILES IDX 42 57 29 58 30 59 35 60 31 61 32 62 34 63 36 64 33 65 55 66
REMARK SMILES IDX 56 67 61 68 57 69 58 70 60 71 62 72 59 73 43 74 44 75 49 76
REMARK SMILES IDX 45 77 46 78 48 79 50 80 47 81
REMARK H PARENT 7 13 67 43 41 54
REMARK Flexibility Score: inf
ROOT
ATOM      1  C   UNL A   1      44.423  18.434  25.706  1.00  0.00     0.275 C 
ENDROOT
BRANCH   1   2
ATOM      2  O   UNL A   1      43.016  18.193  25.522  1.00  0.00    -0.458 OA
BRANCH   2   3
ATOM      3  C   UNL A   1      42.070  18.890  26.450  1.00  0.00     0.338 C 
ATOM      4  O   UNL A   1      42.670  18.681  27.543  1.00  0.00    -0.246 OA
BRANCH   3   5
ATOM      5  C   UNL A   1      40.246  19.923  25.923  1.00  0.00     0.061 A 
ATOM      6  C   UNL A   1      37.521  21.478  25.320  1.00  0.00     0.049 A 
ATOM      7  C   UNL A   1      37.718  20.157  24.977  1.00  0.00     0.028 A 
ATOM      8  C   UNL A   1      38.599  22.081  25.932  1.00  0.00     0.042 A 
ATOM      9  C   UNL A   1      38.965  19.470  25.216  1.00  0.00     0.018 A 
ATOM     10  C   UNL A   1      39.806  21.368  26.220  1.00  0.00     0.033 A 
ATOM     11  Br  UNL A   1      38.512  23.919  26.457  1.00  0.00    -0.049 Br
BRANCH   6  12
ATOM     12  N   UNL A   1      36.318  22.139  25.124  1.00  0.00    -0.380 N 
ATOM     13  H   UNL A   1      36.276  22.888  24.485  1.00  0.00     0.160 HD
BRANCH  12  14
ATOM     14  C   UNL A   1      35.116  21.747  25.844  1.00  0.00     0.148 C 
BRANCH  14  15
ATOM     15  C   UNL A   1      34.273  20.808  25.001  1.00  0.00    -0.029 A 
ATOM     16  C   UNL A   1      32.004  18.138  22.456  1.00  0.00     0.044 C 
ATOM     17  C   UNL A   1      32.769  19.067  23.353  1.00  0.00    -0.051 A 
ATOM     18  C   UNL A   1      33.795  18.570  24.164  1.00  0.00     0.004 A 
ATOM     19  C   UNL A   1      32.482  20.435  23.392  1.00  0.00     0.004 A 
ATOM     20  C   UNL A   1      34.542  19.432  24.974  1.00  0.00     0.006 A 
ATOM     21  C   UNL A   1      33.222  21.296  24.212  1.00  0.00     0.006 A 
ENDBRANCH  14  15
ENDBRANCH  12  14
ENDBRANCH   6  12
ENDBRANCH   3   5
ENDBRANCH   2   3
ENDBRANCH   1   2
BRANCH   1  22
ATOM     22  C   UNL A   1      44.960  19.157  24.466  1.00  0.00     0.275 C 
BRANCH  22  23
ATOM     23  O   UNL A   1      44.479  20.518  24.289  1.00  0.00    -0.458 OA
BRANCH  23  24
ATOM     24  C   UNL A   1      44.834  21.504  25.163  1.00  0.00     0.338 C 
ATOM     25  O   UNL A   1      45.867  21.529  25.808  1.00  0.00    -0.246 OA
BRANCH  24  26
ATOM     26  C   UNL A   1      43.671  22.331  25.543  1.00  0.00     0.060 A 
ATOM     27  C   UNL A   1      43.483  23.820  24.533  1.00  0.00     0.016 A 
ATOM     28  C   UNL A   1      43.252  22.350  27.294  1.00  0.00     0.016 A 
ATOM     29  C   UNL A   1      42.903  25.387  25.318  1.00  0.00     0.010 A 
ATOM     30  C   UNL A   1      42.728  23.926  28.087  1.00  0.00     0.010 A 
ATOM     31  C   UNL A   1      42.569  25.431  27.087  1.00  0.00    -0.014 A 
BRANCH  31  32
ATOM     32  C   UNL A   1      42.775  26.636  27.868  1.00  0.00     0.031 A 
ATOM     33  C   UNL A   1      41.584  27.436  28.168  1.00  0.00     0.074 A 
ATOM     34  C   UNL A   1      43.967  26.798  28.495  1.00  0.00     0.049 A 
ATOM     35  N   UNL A   1      41.611  28.486  28.890  1.00  0.00    -0.248 NA
ATOM     36  C   UNL A   1      40.245  27.142  27.659  1.00  0.00     0.031 C 
ATOM     37  C   UNL A   1      44.294  27.620  29.655  1.00  0.00     0.029 A 
ATOM     38  N   UNL A   1      45.214  26.325  28.076  1.00  0.00    -0.354 N 
ATOM     39  C   UNL A   1      40.322  28.893  29.130  1.00  0.00     0.074 A 
ATOM     40  C   UNL A   1      39.501  28.034  28.321  1.00  0.00     0.031 C 
ATOM     41  C   UNL A   1      45.623  27.824  29.697  1.00  0.00     0.029 A 
ATOM     42  C   UNL A   1      46.197  27.230  28.503  1.00  0.00     0.049 A 
ATOM     43  H   UNL A   1      45.374  25.498  27.568  1.00  0.00     0.167 HD
ATOM     44  C   UNL A   1      40.166  29.873  30.058  1.00  0.00     0.037 A 
ATOM     45  C   UNL A   1      46.916  27.923  27.568  1.00  0.00     0.037 A 
ATOM     46  C   UNL A   1      41.467  30.512  30.277  1.00  0.00     0.049 A 
ATOM     47  C   UNL A   1      46.486  29.375  27.505  1.00  0.00     0.074 A 
ATOM     48  C   UNL A   1      42.459  30.360  31.231  1.00  0.00     0.029 A 
ATOM     49  N   UNL A   1      42.069  31.126  29.182  1.00  0.00    -0.354 N 
ATOM     50  N   UNL A   1      45.342  29.820  27.963  1.00  0.00    -0.248 NA
ATOM     51  C   UNL A   1      47.339  30.455  27.017  1.00  0.00     0.031 C 
ATOM     52  C   UNL A   1      43.683  30.820  30.656  1.00  0.00     0.029 A 
ATOM     53  C   UNL A   1      43.426  31.286  29.375  1.00  0.00     0.049 A 
ATOM     54  H   UNL A   1      41.588  31.410  28.370  1.00  0.00     0.167 HD
ATOM     55  C   UNL A   1      45.306  31.188  27.889  1.00  0.00     0.074 A 
ATOM     56  C   UNL A   1      46.582  31.533  27.288  1.00  0.00     0.031 C 
ATOM     57  C   UNL A   1      44.247  31.929  28.349  1.00  0.00     0.037 A 
BRANCH  44  58
ATOM     58  C   UNL A   1      38.925  30.168  30.861  1.00  0.00     0.057 A 
ATOM     59  C   UNL A   1      38.291  31.419  30.716  1.00  0.00     0.134 A 
ATOM     60  C   UNL A   1      38.366  29.353  31.863  1.00  0.00     0.134 A 
ATOM     61  F   UNL A   1      38.704  32.316  29.810  1.00  0.00    -0.206 F 
ATOM     62  C   UNL A   1      37.214  31.831  31.515  1.00  0.00     0.040 A 
ATOM     63  C   UNL A   1      37.278  29.746  32.658  1.00  0.00     0.040 A 
ATOM     64  F   UNL A   1      38.844  28.142  32.159  1.00  0.00    -0.206 F 
ATOM     65  C   UNL A   1      36.703  30.993  32.493  1.00  0.00     0.006 A 
ENDBRANCH  44  58
BRANCH  45  66
ATOM     66  C   UNL A   1      47.403  27.029  26.472  1.00  0.00     0.057 A 
ATOM     67  C   UNL A   1      46.803  27.226  25.209  1.00  0.00     0.134 A 
ATOM     68  C   UNL A   1      48.658  26.415  26.475  1.00  0.00     0.134 A 
ATOM     69  F   UNL A   1      45.564  27.738  25.130  1.00  0.00    -0.206 F 
ATOM     70  C   UNL A   1      47.509  27.061  24.015  1.00  0.00     0.040 A 
ATOM     71  C   UNL A   1      49.352  26.178  25.272  1.00  0.00     0.040 A 
ATOM     72  F   UNL A   1      49.314  26.203  27.624  1.00  0.00    -0.206 F 
ATOM     73  C   UNL A   1      48.811  26.582  24.049  1.00  0.00     0.006 A 
ENDBRANCH  45  66
BRANCH  57  74
ATOM     74  C   UNL A   1      43.920  33.362  27.950  1.00  0.00     0.057 A 
ATOM     75  C   UNL A   1      43.717  33.797  26.632  1.00  0.00     0.134 A 
ATOM     76  C   UNL A   1      43.643  34.353  28.930  1.00  0.00     0.134 A 
ATOM     77  F   UNL A   1      43.778  32.962  25.589  1.00  0.00    -0.206 F 
ATOM     78  C   UNL A   1      43.371  35.118  26.311  1.00  0.00     0.040 A 
ATOM     79  C   UNL A   1      43.207  35.644  28.624  1.00  0.00     0.040 A 
ATOM     80  F   UNL A   1      43.750  34.117  30.244  1.00  0.00    -0.206 F 
ATOM     81  C   UNL A   1      43.101  36.043  27.307  1.00  0.00     0.006 A 
ENDBRANCH  57  74
ENDBRANCH  31  32
ENDBRANCH  24  26
ENDBRANCH  23  24
ENDBRANCH  22  23
ENDBRANCH   1  22
TORSDOF 14
ENDMDL
MODEL 3
REMARK VINA RESULT:     -11.8      2.963      4.784
REMARK SMILES Cc1ccc(CNc2ccc(C(=O)OCCOC(=O)c3ccc(-c4c5nc(c(-c6c(F)cccc6F)c6ccc([nH]6)c(-c6c(F)cccc6F)c6nc(c(-c7c(F)cccc7F)c7ccc4[nH]7)C=C6)C=C5)cc3)cc2Br)cc1
REMARK SMILES IDX 15 1 14 2 12 3 13 4 11 5 8 6 9 7 75 8 10 9 74 10 76 11 7 12
REMARK SMILES IDX 6 14 5 15 1 16 2 17 3 18 78 19 4 20 77 21 16 22 17 23 18 24
REMARK SMILES IDX 19 25 20 26 21 27 73 28 22 29 72 30 23 31 24 32 25 33 66 34
REMARK SMILES IDX 26 35 71 36 65 37 67 38 27 39 70 40 64 41 63 42 28 44 54 45
REMARK SMILES IDX 37 46 53 47 38 48 41 49 52 50 68 51 39 52 40 53 51 55 69 56
REMARK SMILES IDX 42 57 29 58 30 59 35 60 31 61 32 62 34 63 36 64 33 65 55 66
REMARK SMILES IDX 56 67 61 68 57 69 58 70 60 71 62 72 59 73 43 74 44 75 49 76
REMARK SMILES IDX 45 77 46 78 48 79 50 80 47 81
REMARK H PARENT 7 13 67 43 41 54
REMARK Flexibility Score: inf
ROOT
ATOM      1  C   UNL A   1      33.183  31.470  27.463  1.00  0.00     0.275 C 
ENDROOT
BRANCH   1   2
ATOM      2  O   UNL A   1      33.514  30.333  26.644  1.00  0.00    -0.458 OA
BRANCH   2   3
ATOM      3  C   UNL A   1      32.384  29.467  26.180  1.00  0.00     0.338 C 
ATOM      4  O   UNL A   1      31.525  30.364  25.945  1.00  0.00    -0.246 OA
BRANCH   3   5
ATOM      5  C   UNL A   1      32.377  27.313  26.005  1.00  0.00     0.061 A 
ATOM      6  C   UNL A   1      32.429  24.146  25.579  1.00  0.00     0.049 A 
ATOM      7  C   UNL A   1      31.268  24.846  25.834  1.00  0.00     0.028 A 
ATOM      8  C   UNL A   1      33.570  24.919  25.537  1.00  0.00     0.042 A 
ATOM      9  C   UNL A   1      31.255  26.271  26.066  1.00  0.00     0.018 A 
ATOM     10  C   UNL A   1      33.532  26.340  25.703  1.00  0.00     0.033 A 
ATOM     11  Br  UNL A   1      35.276  24.113  25.216  1.00  0.00    -0.049 Br
BRANCH   6  12
ATOM     12  N   UNL A   1      32.450  22.783  25.325  1.00  0.00    -0.380 N 
ATOM     13  H   UNL A   1      32.544  22.153  26.077  1.00  0.00     0.160 HD
BRANCH  12  14
ATOM     14  C   UNL A   1      32.336  22.267  23.970  1.00  0.00     0.148 C 
BRANCH  14  15
ATOM     15  C   UNL A   1      32.804  20.825  23.908  1.00  0.00    -0.029 A 
ATOM     16  C   UNL A   1      33.996  16.662  23.857  1.00  0.00     0.044 C 
ATOM     17  C   UNL A   1      33.606  18.111  23.863  1.00  0.00    -0.051 A 
ATOM     18  C   UNL A   1      32.567  18.560  23.041  1.00  0.00     0.004 A 
ATOM     19  C   UNL A   1      34.259  19.033  24.687  1.00  0.00     0.004 A 
ATOM     20  C   UNL A   1      32.166  19.900  23.068  1.00  0.00     0.006 A 
ATOM     21  C   UNL A   1      33.866  20.378  24.706  1.00  0.00     0.006 A 
ENDBRANCH  14  15
ENDBRANCH  12  14
ENDBRANCH   6  12
ENDBRANCH   3   5
ENDBRANCH   2   3
ENDBRANCH   1   2
BRANCH   1  22
ATOM     22  C   UNL A   1      34.483  32.174  27.868  1.00  0.00     0.275 C 
BRANCH  22  23
ATOM     23  O   UNL A   1      34.810  32.096  29.283  1.00  0.00    -0.458 OA
BRANCH  23  24
ATOM     24  C   UNL A   1      36.087  31.843  29.693  1.00  0.00     0.338 C 
ATOM     25  O   UNL A   1      36.885  32.688  30.057  1.00  0.00    -0.246 OA
BRANCH  24  26
ATOM     26  C   UNL A   1      36.530  30.497  29.276  1.00  0.00     0.060 A 
ATOM     27  C   UNL A   1      36.683  29.331  30.649  1.00  0.00     0.016 A 
ATOM     28  C   UNL A   1      37.673  30.436  27.886  1.00  0.00     0.016 A 
ATOM     29  C   UNL A   1      38.057  28.097  30.648  1.00  0.00     0.010 A 
ATOM     30  C   UNL A   1      39.074  29.243  27.913  1.00  0.00     0.010 A 
ATOM     31  C   UNL A   1      39.254  28.091  29.303  1.00  0.00    -0.014 A 
BRANCH  31  32
ATOM     32  C   UNL A   1      40.633  27.696  29.517  1.00  0.00     0.031 A 
ATOM     33  C   UNL A   1      41.049  26.421  28.927  1.00  0.00     0.074 A 
ATOM     34  C   UNL A   1      41.501  28.627  29.985  1.00  0.00     0.049 A 
ATOM     35  N   UNL A   1      42.244  25.978  28.989  1.00  0.00    -0.248 NA
ATOM     36  C   UNL A   1      40.149  25.503  28.230  1.00  0.00     0.031 C 
ATOM     37  C   UNL A   1      42.955  28.671  29.872  1.00  0.00     0.029 A 
ATOM     38  N   UNL A   1      41.214  29.700  30.833  1.00  0.00    -0.354 N 
ATOM     39  C   UNL A   1      42.346  24.865  28.192  1.00  0.00     0.074 A 
ATOM     40  C   UNL A   1      41.005  24.592  27.755  1.00  0.00     0.031 C 
ATOM     41  C   UNL A   1      43.451  29.504  30.805  1.00  0.00     0.029 A 
ATOM     42  C   UNL A   1      42.342  29.950  31.629  1.00  0.00     0.049 A 
ATOM     43  H   UNL A   1      40.365  30.196  30.866  1.00  0.00     0.167 HD
ATOM     44  C   UNL A   1      43.603  24.396  27.978  1.00  0.00     0.037 A 
ATOM     45  C   UNL A   1      42.261  29.757  32.980  1.00  0.00     0.037 A 
ATOM     46  C   UNL A   1      44.492  24.983  28.984  1.00  0.00     0.049 A 
ATOM     47  C   UNL A   1      43.006  28.507  33.405  1.00  0.00     0.074 A 
ATOM     48  C   UNL A   1      45.359  26.064  28.981  1.00  0.00     0.029 A 
ATOM     49  N   UNL A   1      44.214  24.710  30.321  1.00  0.00    -0.354 N 
ATOM     50  N   UNL A   1      43.330  27.536  32.588  1.00  0.00    -0.248 NA
ATOM     51  C   UNL A   1      43.530  28.291  34.750  1.00  0.00     0.031 C 
ATOM     52  C   UNL A   1      45.528  26.483  30.336  1.00  0.00     0.029 A 
ATOM     53  C   UNL A   1      44.801  25.635  31.159  1.00  0.00     0.049 A 
ATOM     54  H   UNL A   1      43.665  23.952  30.630  1.00  0.00     0.167 HD
ATOM     55  C   UNL A   1      44.115  26.618  33.237  1.00  0.00     0.074 A 
ATOM     56  C   UNL A   1      44.207  27.140  34.589  1.00  0.00     0.031 C 
ATOM     57  C   UNL A   1      44.647  25.520  32.609  1.00  0.00     0.037 A 
BRANCH  44  58
ATOM     58  C   UNL A   1      44.066  23.550  26.820  1.00  0.00     0.057 A 
ATOM     59  C   UNL A   1      44.831  24.143  25.794  1.00  0.00     0.134 A 
ATOM     60  C   UNL A   1      43.718  22.208  26.574  1.00  0.00     0.134 A 
ATOM     61  F   UNL A   1      45.240  25.417  25.871  1.00  0.00    -0.206 F 
ATOM     62  C   UNL A   1      45.192  23.469  24.619  1.00  0.00     0.040 A 
ATOM     63  C   UNL A   1      44.087  21.517  25.409  1.00  0.00     0.040 A 
ATOM     64  F   UNL A   1      42.981  21.487  27.421  1.00  0.00    -0.206 F 
ATOM     65  C   UNL A   1      44.820  22.150  24.421  1.00  0.00     0.006 A 
ENDBRANCH  44  58
BRANCH  45  66
ATOM     66  C   UNL A   1      41.017  30.360  33.551  1.00  0.00     0.057 A 
ATOM     67  C   UNL A   1      41.012  31.769  33.654  1.00  0.00     0.134 A 
ATOM     68  C   UNL A   1      39.768  29.736  33.518  1.00  0.00     0.134 A 
ATOM     69  F   UNL A   1      42.172  32.435  33.770  1.00  0.00    -0.206 F 
ATOM     70  C   UNL A   1      39.850  32.525  33.478  1.00  0.00     0.040 A 
ATOM     71  C   UNL A   1      38.583  30.489  33.411  1.00  0.00     0.040 A 
ATOM     72  F   UNL A   1      39.672  28.404  33.402  1.00  0.00    -0.206 F 
ATOM     73  C   UNL A   1      38.633  31.881  33.304  1.00  0.00     0.006 A 
ENDBRANCH  45  66
BRANCH  57  74
ATOM     74  C   UNL A   1      45.157  24.259  33.296  1.00  0.00     0.057 A 
ATOM     75  C   UNL A   1      46.466  24.082  33.767  1.00  0.00     0.134 A 
ATOM     76  C   UNL A   1      44.273  23.205  33.648  1.00  0.00     0.134 A 
ATOM     77  F   UNL A   1      47.395  25.039  33.667  1.00  0.00    -0.206 F 
ATOM     78  C   UNL A   1      46.883  22.922  34.437  1.00  0.00     0.040 A 
ATOM     79  C   UNL A   1      44.657  22.090  34.396  1.00  0.00     0.040 A 
ATOM     80  F   UNL A   1      42.975  23.210  33.313  1.00  0.00    -0.206 F 
ATOM     81  C   UNL A   1      45.977  21.927  34.766  1.00  0.00     0.006 A 
ENDBRANCH  57  74
ENDBRANCH  31  32
ENDBRANCH  24  26
ENDBRANCH  23  24
ENDBRANCH  22  23
ENDBRANCH   1  22
TORSDOF 14
ENDMDL
