MODEL 1
REMARK VINA RESULT:     -10.7      0.000      0.000
REMARK SMILES CC1(C)CCC[C@@](C)(CCC(=O)OCCOC(=O)c2ccc(-c3c4nc(c(-c5c(F)cccc5F)c5ccc([nH]5)c(-c5c(F)cccc5F)c5nc(c(-c6c(F)cccc6F)c6ccc3[nH]6)C=C5)C=C4)cc2)C1=O
REMARK SMILES IDX 14 1 13 2 11 3 12 4 10 5 9 6 7 7 1 8 2 9 3 10 4 11 73 12
REMARK SMILES IDX 5 13 74 14 6 15 8 16 15 17 16 18 17 19 18 20 19 21 20 22
REMARK SMILES IDX 72 23 21 24 71 25 22 26 23 27 24 28 65 29 25 30 70 31 64 32
REMARK SMILES IDX 66 33 26 34 69 35 63 36 62 37 27 39 53 40 36 41 52 42 37 43
REMARK SMILES IDX 40 44 51 45 67 46 38 47 39 48 50 50 68 51 41 52 28 53 29 54
REMARK SMILES IDX 34 55 30 56 31 57 33 58 35 59 32 60 54 61 55 62 60 63 56 64
REMARK SMILES IDX 57 65 59 66 61 67 58 68 42 69 43 70 48 71 44 72 45 73 47 74
REMARK SMILES IDX 49 75 46 76
REMARK H PARENT 66 38 40 49
REMARK Flexibility Score: inf
ROOT
ATOM      1  C   UNL A   1      31.614  29.515  24.169  1.00  0.00     0.274 C 
ENDROOT
BRANCH   1   2
ATOM      2  O   UNL A   1      30.300  29.032  23.849  1.00  0.00    -0.462 OA
BRANCH   2   3
ATOM      3  C   UNL A   1      30.224  27.848  23.208  1.00  0.00     0.305 C 
ATOM      4  O   UNL A   1      30.278  27.698  21.994  1.00  0.00    -0.252 OA
BRANCH   3   5
ATOM      5  C   UNL A   1      30.001  26.692  24.150  1.00  0.00     0.124 C 
BRANCH   5   6
ATOM      6  C   UNL A   1      31.171  25.723  24.414  1.00  0.00     0.026 C 
BRANCH   6   7
ATOM      7  C   UNL A   1      31.889  25.808  25.797  1.00  0.00     0.027 C 
ATOM      8  C   UNL A   1      32.811  22.808  24.663  1.00  0.00     0.019 C 
ATOM      9  C   UNL A   1      33.031  23.420  26.058  1.00  0.00     0.024 C 
ATOM     10  C   UNL A   1      33.028  22.250  27.061  1.00  0.00     0.019 C 
ATOM     11  C   UNL A   1      34.378  24.150  26.119  1.00  0.00     0.014 C 
ATOM     12  C   UNL A   1      31.929  24.421  26.469  1.00  0.00     0.144 C 
ATOM     13  C   UNL A   1      34.400  25.392  25.232  1.00  0.00     0.002 C 
ATOM     14  O   UNL A   1      31.034  24.086  27.253  1.00  0.00    -0.298 OA
ATOM     15  C   UNL A   1      33.325  26.387  25.657  1.00  0.00     0.014 C 
ATOM     16  C   UNL A   1      31.137  26.807  26.710  1.00  0.00     0.020 C 
ENDBRANCH   6   7
ENDBRANCH   5   6
ENDBRANCH   3   5
ENDBRANCH   2   3
ENDBRANCH   1   2
BRANCH   1  17
ATOM     17  C   UNL A   1      31.598  30.257  25.504  1.00  0.00     0.275 C 
BRANCH  17  18
ATOM     18  O   UNL A   1      32.891  30.212  26.136  1.00  0.00    -0.458 OA
BRANCH  18  19
ATOM     19  C   UNL A   1      33.167  31.240  26.973  1.00  0.00     0.338 C 
ATOM     20  O   UNL A   1      32.457  32.191  27.249  1.00  0.00    -0.246 OA
BRANCH  19  21
ATOM     21  C   UNL A   1      34.449  30.980  27.646  1.00  0.00     0.060 A 
ATOM     22  C   UNL A   1      34.753  29.665  28.008  1.00  0.00     0.016 A 
ATOM     23  C   UNL A   1      35.310  32.024  27.976  1.00  0.00     0.016 A 
ATOM     24  C   UNL A   1      35.931  29.380  28.690  1.00  0.00     0.010 A 
ATOM     25  C   UNL A   1      36.492  31.739  28.667  1.00  0.00     0.010 A 
ATOM     26  C   UNL A   1      36.806  30.417  29.030  1.00  0.00    -0.014 A 
BRANCH  26  27
ATOM     27  C   UNL A   1      38.022  30.127  29.823  1.00  0.00     0.031 A 
ATOM     28  C   UNL A   1      39.087  29.243  29.245  1.00  0.00     0.074 A 
ATOM     29  C   UNL A   1      38.177  30.669  31.046  1.00  0.00     0.049 A 
ATOM     30  N   UNL A   1      40.146  28.737  29.821  1.00  0.00    -0.248 NA
ATOM     31  C   UNL A   1      38.939  28.879  27.827  1.00  0.00     0.031 C 
ATOM     32  C   UNL A   1      37.245  31.600  31.683  1.00  0.00     0.029 A 
ATOM     33  N   UNL A   1      39.173  30.503  31.973  1.00  0.00    -0.354 N 
ATOM     34  C   UNL A   1      40.779  27.978  28.845  1.00  0.00     0.074 A 
ATOM     35  C   UNL A   1      39.981  28.081  27.642  1.00  0.00     0.031 C 
ATOM     36  C   UNL A   1      37.711  31.918  32.902  1.00  0.00     0.029 A 
ATOM     37  C   UNL A   1      38.941  31.170  33.152  1.00  0.00     0.049 A 
ATOM     38  H   UNL A   1      39.977  29.959  31.811  1.00  0.00     0.167 HD
ATOM     39  C   UNL A   1      41.922  27.261  28.948  1.00  0.00     0.037 A 
ATOM     40  C   UNL A   1      39.622  31.145  34.312  1.00  0.00     0.037 A 
ATOM     41  C   UNL A   1      42.715  27.172  30.146  1.00  0.00     0.049 A 
ATOM     42  C   UNL A   1      40.847  30.280  34.423  1.00  0.00     0.074 A 
ATOM     43  C   UNL A   1      43.872  26.445  30.365  1.00  0.00     0.029 A 
ATOM     44  N   UNL A   1      42.435  27.845  31.326  1.00  0.00    -0.354 N 
ATOM     45  N   UNL A   1      41.411  29.524  33.512  1.00  0.00    -0.248 NA
ATOM     46  C   UNL A   1      41.525  30.254  35.728  1.00  0.00     0.031 C 
ATOM     47  C   UNL A   1      44.278  26.658  31.687  1.00  0.00     0.029 A 
ATOM     48  C   UNL A   1      43.394  27.546  32.278  1.00  0.00     0.049 A 
ATOM     49  H   UNL A   1      41.667  28.444  31.466  1.00  0.00     0.167 HD
ATOM     50  C   UNL A   1      42.519  28.952  34.125  1.00  0.00     0.074 A 
ATOM     51  C   UNL A   1      42.557  29.461  35.480  1.00  0.00     0.031 C 
ATOM     52  C   UNL A   1      43.423  28.081  33.614  1.00  0.00     0.037 A 
BRANCH  39  53
ATOM     53  C   UNL A   1      42.372  26.497  27.740  1.00  0.00     0.057 A 
ATOM     54  C   UNL A   1      41.952  25.183  27.500  1.00  0.00     0.134 A 
ATOM     55  C   UNL A   1      43.202  27.097  26.785  1.00  0.00     0.134 A 
ATOM     56  F   UNL A   1      41.170  24.547  28.385  1.00  0.00    -0.206 F 
ATOM     57  C   UNL A   1      42.349  24.490  26.356  1.00  0.00     0.040 A 
ATOM     58  C   UNL A   1      43.590  26.422  25.627  1.00  0.00     0.040 A 
ATOM     59  F   UNL A   1      43.638  28.355  26.957  1.00  0.00    -0.206 F 
ATOM     60  C   UNL A   1      43.165  25.112  25.412  1.00  0.00     0.006 A 
ENDBRANCH  39  53
BRANCH  40  61
ATOM     61  C   UNL A   1      39.142  31.925  35.481  1.00  0.00     0.057 A 
ATOM     62  C   UNL A   1      38.288  31.355  36.432  1.00  0.00     0.134 A 
ATOM     63  C   UNL A   1      39.493  33.270  35.655  1.00  0.00     0.134 A 
ATOM     64  F   UNL A   1      37.894  30.079  36.307  1.00  0.00    -0.206 F 
ATOM     65  C   UNL A   1      37.785  32.098  37.502  1.00  0.00     0.040 A 
ATOM     66  C   UNL A   1      39.020  34.017  36.734  1.00  0.00     0.040 A 
ATOM     67  F   UNL A   1      40.306  33.877  34.776  1.00  0.00    -0.206 F 
ATOM     68  C   UNL A   1      38.154  33.433  37.657  1.00  0.00     0.006 A 
ENDBRANCH  40  61
BRANCH  52  69
ATOM     69  C   UNL A   1      44.548  27.663  34.511  1.00  0.00     0.057 A 
ATOM     70  C   UNL A   1      45.740  28.394  34.589  1.00  0.00     0.134 A 
ATOM     71  C   UNL A   1      44.423  26.535  35.329  1.00  0.00     0.134 A 
ATOM     72  F   UNL A   1      45.925  29.477  33.820  1.00  0.00    -0.206 F 
ATOM     73  C   UNL A   1      46.777  28.004  35.436  1.00  0.00     0.040 A 
ATOM     74  C   UNL A   1      45.444  26.147  36.197  1.00  0.00     0.040 A 
ATOM     75  F   UNL A   1      43.302  25.797  35.306  1.00  0.00    -0.206 F 
ATOM     76  C   UNL A   1      46.627  26.881  36.248  1.00  0.00     0.006 A 
ENDBRANCH  52  69
ENDBRANCH  26  27
ENDBRANCH  19  21
ENDBRANCH  18  19
ENDBRANCH  17  18
ENDBRANCH   1  17
TORSDOF 13
ENDMDL
MODEL 2
REMARK VINA RESULT:     -10.6      4.187      9.094
REMARK SMILES CC1(C)CCC[C@@](C)(CCC(=O)OCCOC(=O)c2ccc(-c3c4nc(c(-c5c(F)cccc5F)c5ccc([nH]5)c(-c5c(F)cccc5F)c5nc(c(-c6c(F)cccc6F)c6ccc3[nH]6)C=C5)C=C4)cc2)C1=O
REMARK SMILES IDX 14 1 13 2 11 3 12 4 10 5 9 6 7 7 1 8 2 9 3 10 4 11 73 12
REMARK SMILES IDX 5 13 74 14 6 15 8 16 15 17 16 18 17 19 18 20 19 21 20 22
REMARK SMILES IDX 72 23 21 24 71 25 22 26 23 27 24 28 65 29 25 30 70 31 64 32
REMARK SMILES IDX 66 33 26 34 69 35 63 36 62 37 27 39 53 40 36 41 52 42 37 43
REMARK SMILES IDX 40 44 51 45 67 46 38 47 39 48 50 50 68 51 41 52 28 53 29 54
REMARK SMILES IDX 34 55 30 56 31 57 33 58 35 59 32 60 54 61 55 62 60 63 56 64
REMARK SMILES IDX 57 65 59 66 61 67 58 68 42 69 43 70 48 71 44 72 45 73 47 74
REMARK SMILES IDX 49 75 46 76
REMARK H PARENT 66 38 40 49
REMARK Flexibility Score: inf
ROOT
ATOM      1  C   UNL A   1      33.666  33.663  28.364  1.00  0.00     0.274 C 
ENDROOT
BRANCH   1   2
ATOM      2  O   UNL A   1      34.399  34.486  29.285  1.00  0.00    -0.462 OA
BRANCH   2   3
ATOM      3  C   UNL A   1      34.030  34.430  30.581  1.00  0.00     0.305 C 
ATOM      4  O   UNL A   1      33.024  34.948  31.051  1.00  0.00    -0.252 OA
BRANCH   3   5
ATOM      5  C   UNL A   1      35.030  33.697  31.438  1.00  0.00     0.124 C 
BRANCH   5   6
ATOM      6  C   UNL A   1      36.461  34.262  31.543  1.00  0.00     0.026 C 
BRANCH   6   7
ATOM      7  C   UNL A   1      37.645  33.327  31.140  1.00  0.00     0.027 C 
ATOM      8  C   UNL A   1      38.694  34.661  34.013  1.00  0.00     0.019 C 
ATOM      9  C   UNL A   1      39.478  33.797  33.010  1.00  0.00     0.024 C 
ATOM     10  C   UNL A   1      40.949  34.250  33.087  1.00  0.00     0.019 C 
ATOM     11  C   UNL A   1      39.374  32.313  33.382  1.00  0.00     0.014 C 
ATOM     12  C   UNL A   1      38.991  33.955  31.552  1.00  0.00     0.144 C 
ATOM     13  C   UNL A   1      37.957  31.774  33.211  1.00  0.00     0.002 C 
ATOM     14  O   UNL A   1      39.620  34.656  30.751  1.00  0.00    -0.298 OA
ATOM     15  C   UNL A   1      37.490  31.912  31.765  1.00  0.00     0.014 C 
ATOM     16  C   UNL A   1      37.624  33.098  29.609  1.00  0.00     0.020 C 
ENDBRANCH   6   7
ENDBRANCH   5   6
ENDBRANCH   3   5
ENDBRANCH   2   3
ENDBRANCH   1   2
BRANCH   1  17
ATOM     17  C   UNL A   1      34.554  32.539  27.831  1.00  0.00     0.275 C 
BRANCH  17  18
ATOM     18  O   UNL A   1      34.438  31.358  28.647  1.00  0.00    -0.458 OA
BRANCH  18  19
ATOM     19  C   UNL A   1      34.768  30.195  28.037  1.00  0.00     0.338 C 
ATOM     20  O   UNL A   1      34.091  29.538  27.266  1.00  0.00    -0.246 OA
BRANCH  19  21
ATOM     21  C   UNL A   1      36.171  29.875  28.340  1.00  0.00     0.060 A 
ATOM     22  C   UNL A   1      37.123  30.053  27.333  1.00  0.00     0.016 A 
ATOM     23  C   UNL A   1      36.535  29.342  29.574  1.00  0.00     0.016 A 
ATOM     24  C   UNL A   1      38.453  29.717  27.557  1.00  0.00     0.010 A 
ATOM     25  C   UNL A   1      37.871  28.997  29.799  1.00  0.00     0.010 A 
ATOM     26  C   UNL A   1      38.836  29.181  28.791  1.00  0.00    -0.014 A 
BRANCH  26  27
ATOM     27  C   UNL A   1      40.236  28.749  29.007  1.00  0.00     0.031 A 
ATOM     28  C   UNL A   1      41.220  29.709  29.606  1.00  0.00     0.074 A 
ATOM     29  C   UNL A   1      40.615  27.498  28.684  1.00  0.00     0.049 A 
ATOM     30  N   UNL A   1      42.516  29.595  29.735  1.00  0.00    -0.248 NA
ATOM     31  C   UNL A   1      40.670  30.970  30.130  1.00  0.00     0.031 C 
ATOM     32  C   UNL A   1      39.732  26.454  28.164  1.00  0.00     0.029 A 
ATOM     33  N   UNL A   1      41.848  26.900  28.740  1.00  0.00    -0.354 N 
ATOM     34  C   UNL A   1      42.941  30.773  30.333  1.00  0.00     0.074 A 
ATOM     35  C   UNL A   1      41.767  31.596  30.534  1.00  0.00     0.031 C 
ATOM     36  C   UNL A   1      40.455  25.343  27.940  1.00  0.00     0.029 A 
ATOM     37  C   UNL A   1      41.856  25.617  28.247  1.00  0.00     0.049 A 
ATOM     38  H   UNL A   1      42.649  27.345  29.097  1.00  0.00     0.167 HD
ATOM     39  C   UNL A   1      44.199  31.134  30.681  1.00  0.00     0.037 A 
ATOM     40  C   UNL A   1      42.885  24.777  28.031  1.00  0.00     0.037 A 
ATOM     41  C   UNL A   1      45.359  30.305  30.486  1.00  0.00     0.049 A 
ATOM     42  C   UNL A   1      44.282  25.232  28.356  1.00  0.00     0.074 A 
ATOM     43  C   UNL A   1      46.683  30.590  30.773  1.00  0.00     0.029 A 
ATOM     44  N   UNL A   1      45.330  29.021  29.964  1.00  0.00    -0.354 N 
ATOM     45  N   UNL A   1      44.682  26.368  28.873  1.00  0.00    -0.248 NA
ATOM     46  C   UNL A   1      45.371  24.292  28.055  1.00  0.00     0.031 C 
ATOM     47  C   UNL A   1      47.458  29.487  30.399  1.00  0.00     0.029 A 
ATOM     48  C   UNL A   1      46.613  28.502  29.915  1.00  0.00     0.049 A 
ATOM     49  H   UNL A   1      44.518  28.549  29.670  1.00  0.00     0.167 HD
ATOM     50  C   UNL A   1      46.064  26.271  28.981  1.00  0.00     0.074 A 
ATOM     51  C   UNL A   1      46.431  24.959  28.490  1.00  0.00     0.031 C 
ATOM     52  C   UNL A   1      46.951  27.186  29.441  1.00  0.00     0.037 A 
BRANCH  39  53
ATOM     53  C   UNL A   1      44.388  32.491  31.286  1.00  0.00     0.057 A 
ATOM     54  C   UNL A   1      44.502  33.641  30.497  1.00  0.00     0.134 A 
ATOM     55  C   UNL A   1      44.413  32.654  32.677  1.00  0.00     0.134 A 
ATOM     56  F   UNL A   1      44.502  33.551  29.158  1.00  0.00    -0.206 F 
ATOM     57  C   UNL A   1      44.646  34.906  31.070  1.00  0.00     0.040 A 
ATOM     58  C   UNL A   1      44.536  33.914  33.262  1.00  0.00     0.040 A 
ATOM     59  F   UNL A   1      44.307  31.590  33.489  1.00  0.00    -0.206 F 
ATOM     60  C   UNL A   1      44.656  35.046  32.457  1.00  0.00     0.006 A 
ENDBRANCH  39  53
BRANCH  40  61
ATOM     61  C   UNL A   1      42.648  23.438  27.434  1.00  0.00     0.057 A 
ATOM     62  C   UNL A   1      42.711  23.239  26.051  1.00  0.00     0.134 A 
ATOM     63  C   UNL A   1      42.315  22.335  28.230  1.00  0.00     0.134 A 
ATOM     64  F   UNL A   1      42.999  24.262  25.234  1.00  0.00    -0.206 F 
ATOM     65  C   UNL A   1      42.432  21.997  25.478  1.00  0.00     0.040 A 
ATOM     66  C   UNL A   1      42.060  21.081  27.673  1.00  0.00     0.040 A 
ATOM     67  F   UNL A   1      42.235  22.460  29.563  1.00  0.00    -0.206 F 
ATOM     68  C   UNL A   1      42.109  20.912  26.290  1.00  0.00     0.006 A 
ENDBRANCH  40  61
BRANCH  52  69
ATOM     69  C   UNL A   1      48.393  26.779  29.476  1.00  0.00     0.057 A 
ATOM     70  C   UNL A   1      49.282  27.126  28.451  1.00  0.00     0.134 A 
ATOM     71  C   UNL A   1      48.902  26.061  30.563  1.00  0.00     0.134 A 
ATOM     72  F   UNL A   1      48.851  27.802  27.376  1.00  0.00    -0.206 F 
ATOM     73  C   UNL A   1      50.625  26.753  28.498  1.00  0.00     0.040 A 
ATOM     74  C   UNL A   1      50.248  25.701  30.633  1.00  0.00     0.040 A 
ATOM     75  F   UNL A   1      48.102  25.705  31.580  1.00  0.00    -0.206 F 
ATOM     76  C   UNL A   1      51.112  26.043  29.595  1.00  0.00     0.006 A 
ENDBRANCH  52  69
ENDBRANCH  26  27
ENDBRANCH  19  21
ENDBRANCH  18  19
ENDBRANCH  17  18
ENDBRANCH   1  17
TORSDOF 13
ENDMDL
MODEL 3
REMARK VINA RESULT:     -10.5      3.736      9.069
REMARK SMILES CC1(C)CCC[C@@](C)(CCC(=O)OCCOC(=O)c2ccc(-c3c4nc(c(-c5c(F)cccc5F)c5ccc([nH]5)c(-c5c(F)cccc5F)c5nc(c(-c6c(F)cccc6F)c6ccc3[nH]6)C=C5)C=C4)cc2)C1=O
REMARK SMILES IDX 14 1 13 2 11 3 12 4 10 5 9 6 7 7 1 8 2 9 3 10 4 11 73 12
REMARK SMILES IDX 5 13 74 14 6 15 8 16 15 17 16 18 17 19 18 20 19 21 20 22
REMARK SMILES IDX 72 23 21 24 71 25 22 26 23 27 24 28 65 29 25 30 70 31 64 32
REMARK SMILES IDX 66 33 26 34 69 35 63 36 62 37 27 39 53 40 36 41 52 42 37 43
REMARK SMILES IDX 40 44 51 45 67 46 38 47 39 48 50 50 68 51 41 52 28 53 29 54
REMARK SMILES IDX 34 55 30 56 31 57 33 58 35 59 32 60 54 61 55 62 60 63 56 64
REMARK SMILES IDX 57 65 59 66 61 67 58 68 42 69 43 70 48 71 44 72 45 73 47 74
REMARK SMILES IDX 49 75 46 76
REMARK H PARENT 66 38 40 49
REMARK Flexibility Score: inf
ROOT
ATOM      1  C   UNL A   1      34.237  33.868  29.208  1.00  0.00     0.274 C 
ENDROOT
BRANCH   1   2
ATOM      2  O   UNL A   1      35.360  33.306  29.903  1.00  0.00    -0.462 OA
BRANCH   2   3
ATOM      3  C   UNL A   1      35.124  32.790  31.127  1.00  0.00     0.305 C 
ATOM      4  O   UNL A   1      34.030  32.746  31.675  1.00  0.00    -0.252 OA
BRANCH   3   5
ATOM      5  C   UNL A   1      36.382  32.310  31.806  1.00  0.00     0.124 C 
BRANCH   5   6
ATOM      6  C   UNL A   1      36.405  32.242  33.347  1.00  0.00     0.026 C 
BRANCH   6   7
ATOM      7  C   UNL A   1      36.652  33.569  34.130  1.00  0.00     0.027 C 
ATOM      8  C   UNL A   1      39.333  31.738  34.902  1.00  0.00     0.019 C 
ATOM      9  C   UNL A   1      38.879  33.082  35.500  1.00  0.00     0.024 C 
ATOM     10  C   UNL A   1      39.351  33.096  36.967  1.00  0.00     0.019 C 
ATOM     11  C   UNL A   1      39.517  34.252  34.741  1.00  0.00     0.014 C 
ATOM     12  C   UNL A   1      37.348  33.278  35.475  1.00  0.00     0.144 C 
ATOM     13  C   UNL A   1      38.996  34.361  33.310  1.00  0.00     0.002 C 
ATOM     14  O   UNL A   1      36.675  33.110  36.498  1.00  0.00    -0.298 OA
ATOM     15  C   UNL A   1      37.486  34.578  33.293  1.00  0.00     0.014 C 
ATOM     16  C   UNL A   1      35.299  34.277  34.387  1.00  0.00     0.020 C 
ENDBRANCH   6   7
ENDBRANCH   5   6
ENDBRANCH   3   5
ENDBRANCH   2   3
ENDBRANCH   1   2
BRANCH   1  17
ATOM     17  C   UNL A   1      33.754  32.914  28.115  1.00  0.00     0.275 C 
BRANCH  17  18
ATOM     18  O   UNL A   1      34.838  32.107  27.619  1.00  0.00    -0.458 OA
BRANCH  18  19
ATOM     19  C   UNL A   1      34.693  30.771  27.783  1.00  0.00     0.338 C 
ATOM     20  O   UNL A   1      33.699  30.097  27.580  1.00  0.00    -0.246 OA
BRANCH  19  21
ATOM     21  C   UNL A   1      35.996  30.186  28.130  1.00  0.00     0.060 A 
ATOM     22  C   UNL A   1      36.161  29.647  29.409  1.00  0.00     0.016 A 
ATOM     23  C   UNL A   1      37.063  30.226  27.235  1.00  0.00     0.016 A 
ATOM     24  C   UNL A   1      37.391  29.128  29.799  1.00  0.00     0.010 A 
ATOM     25  C   UNL A   1      38.301  29.710  27.628  1.00  0.00     0.010 A 
ATOM     26  C   UNL A   1      38.472  29.161  28.912  1.00  0.00    -0.014 A 
BRANCH  26  27
ATOM     27  C   UNL A   1      39.802  28.680  29.350  1.00  0.00     0.031 A 
ATOM     28  C   UNL A   1      40.600  29.498  30.321  1.00  0.00     0.074 A 
ATOM     29  C   UNL A   1      40.282  27.508  28.892  1.00  0.00     0.049 A 
ATOM     30  N   UNL A   1      41.838  29.346  30.711  1.00  0.00    -0.248 NA
ATOM     31  C   UNL A   1      39.910  30.644  30.935  1.00  0.00     0.031 C 
ATOM     32  C   UNL A   1      39.568  26.591  28.003  1.00  0.00     0.029 A 
ATOM     33  N   UNL A   1      41.490  26.896  29.108  1.00  0.00    -0.354 N 
ATOM     34  C   UNL A   1      42.085  30.386  31.598  1.00  0.00     0.074 A 
ATOM     35  C   UNL A   1      40.870  31.169  31.683  1.00  0.00     0.031 C 
ATOM     36  C   UNL A   1      40.356  25.534  27.742  1.00  0.00     0.029 A 
ATOM     37  C   UNL A   1      41.646  25.728  28.399  1.00  0.00     0.049 A 
ATOM     38  H   UNL A   1      42.178  27.256  29.712  1.00  0.00     0.167 HD
ATOM     39  C   UNL A   1      43.222  30.659  32.278  1.00  0.00     0.037 A 
ATOM     40  C   UNL A   1      42.722  24.932  28.265  1.00  0.00     0.037 A 
ATOM     41  C   UNL A   1      44.422  29.868  32.197  1.00  0.00     0.049 A 
ATOM     42  C   UNL A   1      43.998  25.301  28.972  1.00  0.00     0.074 A 
ATOM     43  C   UNL A   1      45.640  30.078  32.818  1.00  0.00     0.029 A 
ATOM     44  N   UNL A   1      44.549  28.706  31.451  1.00  0.00    -0.354 N 
ATOM     45  N   UNL A   1      44.239  26.314  29.768  1.00  0.00    -0.248 NA
ATOM     46  C   UNL A   1      45.155  24.422  28.752  1.00  0.00     0.031 C 
ATOM     47  C   UNL A   1      46.512  29.056  32.428  1.00  0.00     0.029 A 
ATOM     48  C   UNL A   1      45.826  28.191  31.593  1.00  0.00     0.049 A 
ATOM     49  H   UNL A   1      43.836  28.308  30.900  1.00  0.00     0.167 HD
ATOM     50  C   UNL A   1      45.565  26.182  30.161  1.00  0.00     0.074 A 
ATOM     51  C   UNL A   1      46.071  24.982  29.528  1.00  0.00     0.031 C 
ATOM     52  C   UNL A   1      46.300  26.984  30.969  1.00  0.00     0.037 A 
BRANCH  39  53
ATOM     53  C   UNL A   1      43.231  31.876  33.153  1.00  0.00     0.057 A 
ATOM     54  C   UNL A   1      43.481  33.152  32.638  1.00  0.00     0.134 A 
ATOM     55  C   UNL A   1      42.945  31.772  34.520  1.00  0.00     0.134 A 
ATOM     56  F   UNL A   1      43.778  33.316  31.339  1.00  0.00    -0.206 F 
ATOM     57  C   UNL A   1      43.456  34.285  33.454  1.00  0.00     0.040 A 
ATOM     58  C   UNL A   1      42.897  32.898  35.343  1.00  0.00     0.040 A 
ATOM     59  F   UNL A   1      42.696  30.576  35.075  1.00  0.00    -0.206 F 
ATOM     60  C   UNL A   1      43.156  34.160  34.809  1.00  0.00     0.006 A 
ENDBRANCH  39  53
BRANCH  40  61
ATOM     61  C   UNL A   1      42.664  23.732  27.392  1.00  0.00     0.057 A 
ATOM     62  C   UNL A   1      42.266  22.489  27.895  1.00  0.00     0.134 A 
ATOM     63  C   UNL A   1      43.041  23.792  26.045  1.00  0.00     0.134 A 
ATOM     64  F   UNL A   1      41.918  22.361  29.184  1.00  0.00    -0.206 F 
ATOM     65  C   UNL A   1      42.265  21.344  27.096  1.00  0.00     0.040 A 
ATOM     66  C   UNL A   1      43.019  22.661  25.227  1.00  0.00     0.040 A 
ATOM     67  F   UNL A   1      43.436  24.954  25.502  1.00  0.00    -0.206 F 
ATOM     68  C   UNL A   1      42.639  21.429  25.757  1.00  0.00     0.006 A 
ENDBRANCH  40  61
BRANCH  52  69
ATOM     69  C   UNL A   1      47.711  26.561  31.248  1.00  0.00     0.057 A 
ATOM     70  C   UNL A   1      48.779  26.981  30.446  1.00  0.00     0.134 A 
ATOM     71  C   UNL A   1      48.004  25.749  32.350  1.00  0.00     0.134 A 
ATOM     72  F   UNL A   1      48.560  27.749  29.368  1.00  0.00    -0.206 F 
ATOM     73  C   UNL A   1      50.090  26.592  30.721  1.00  0.00     0.040 A 
ATOM     74  C   UNL A   1      49.314  25.371  32.648  1.00  0.00     0.040 A 
ATOM     75  F   UNL A   1      47.025  25.319  33.160  1.00  0.00    -0.206 F 
ATOM     76  C   UNL A   1      50.360  25.789  31.828  1.00  0.00     0.006 A 
ENDBRANCH  52  69
ENDBRANCH  26  27
ENDBRANCH  19  21
ENDBRANCH  18  19
ENDBRANCH  17  18
ENDBRANCH   1  17
TORSDOF 13
ENDMDL
