MODEL 1
REMARK VINA RESULT:     -11.0      0.000      0.000
REMARK SMILES Cc1ccc(O)c(C[N@H+]2CC[C@](C)(C(=O)OCCOC(=O)c3ccc(-c4c5nc(c(-c6c(F)cccc6F)c6ccc([nH]6)c(-c6c(F)cccc6F)c6nc(c(-c7c(F)cccc7F)c7ccc4[nH]7)C=C6)C=C5)cc3)C2)n1
REMARK SMILES IDX 17 1 16 2 14 3 15 4 12 5 9 6 10 7 76 8 11 10 13 11 8 12 7 13
REMARK SMILES IDX 1 14 2 15 3 16 77 17 4 18 5 19 6 20 18 22 19 23 20 24 21 25
REMARK SMILES IDX 22 26 23 27 75 28 24 29 74 30 25 31 26 32 27 33 68 34 28 35
REMARK SMILES IDX 73 36 67 37 69 38 29 39 72 40 66 41 65 42 30 44 56 45 39 46
REMARK SMILES IDX 55 47 40 48 43 49 54 50 70 51 41 52 42 53 53 55 71 56 44 57
REMARK SMILES IDX 31 58 32 59 37 60 33 61 34 62 36 63 38 64 35 65 57 66 58 67
REMARK SMILES IDX 63 68 59 69 60 70 62 71 64 72 61 73 45 74 46 75 51 76 47 77
REMARK SMILES IDX 48 78 50 79 52 80 49 81
REMARK H PARENT 9 9 6 21 69 43 43 54
REMARK Flexibility Score: inf
ROOT
ATOM      1  C   UNL A   1      35.219  34.742  34.382  1.00  0.00     0.274 C 
ENDROOT
BRANCH   1   2
ATOM      2  O   UNL A   1      35.177  35.638  33.252  1.00  0.00    -0.461 OA
BRANCH   2   3
ATOM      3  C   UNL A   1      34.119  36.493  33.202  1.00  0.00     0.317 C 
ATOM      4  O   UNL A   1      33.819  37.278  34.095  1.00  0.00    -0.251 OA
BRANCH   3   5
ATOM      5  C   UNL A   1      33.283  36.320  31.944  1.00  0.00     0.119 C 
ATOM      6  N   UNL A   1      33.712  35.731  29.639  1.00  0.00    -0.329 N 
ATOM      7  C   UNL A   1      33.074  37.043  29.659  1.00  0.00     0.263 C 
ATOM      8  C   UNL A   1      33.764  35.198  31.010  1.00  0.00     0.281 C 
ATOM      9  H   UNL A   1      34.671  35.846  29.313  1.00  0.00     0.348 HD
ATOM     10  C   UNL A   1      33.399  37.557  31.045  1.00  0.00     0.086 C 
ATOM     11  C   UNL A   1      31.832  36.116  32.396  1.00  0.00     0.030 C 
BRANCH   6  12
ATOM     12  C   UNL A   1      33.163  34.802  28.633  1.00  0.00     0.323 C 
BRANCH  12  13
ATOM     13  C   UNL A   1      33.976  33.539  28.381  1.00  0.00     0.136 A 
ATOM     14  C   UNL A   1      33.122  30.101  27.381  1.00  0.00     0.067 C 
ATOM     15  C   UNL A   1      33.950  31.293  27.750  1.00  0.00     0.038 A 
ATOM     16  C   UNL A   1      35.331  31.283  27.593  1.00  0.00     0.027 A 
ATOM     17  N   UNL A   1      33.274  32.395  28.144  1.00  0.00    -0.248 NA
ATOM     18  C   UNL A   1      36.050  32.442  27.877  1.00  0.00     0.050 A 
ATOM     19  C   UNL A   1      35.366  33.585  28.273  1.00  0.00     0.142 A 
BRANCH  19  20
ATOM     20  O   UNL A   1      36.047  34.745  28.507  1.00  0.00    -0.506 OA
ATOM     21  H   UNL A   1      35.839  35.266  29.257  1.00  0.00     0.293 HD
ENDBRANCH  19  20
ENDBRANCH  12  13
ENDBRANCH   6  12
ENDBRANCH   3   5
ENDBRANCH   2   3
ENDBRANCH   1   2
BRANCH   1  22
ATOM     22  C   UNL A   1      34.839  33.328  33.944  1.00  0.00     0.275 C 
BRANCH  22  23
ATOM     23  O   UNL A   1      36.005  32.675  33.414  1.00  0.00    -0.458 OA
BRANCH  23  24
ATOM     24  C   UNL A   1      35.881  32.145  32.174  1.00  0.00     0.338 C 
ATOM     25  O   UNL A   1      34.856  32.045  31.524  1.00  0.00    -0.246 OA
BRANCH  24  26
ATOM     26  C   UNL A   1      37.207  31.694  31.684  1.00  0.00     0.060 A 
ATOM     27  C   UNL A   1      37.747  32.189  30.499  1.00  0.00     0.016 A 
ATOM     28  C   UNL A   1      37.889  30.692  32.375  1.00  0.00     0.016 A 
ATOM     29  C   UNL A   1      38.891  31.614  29.944  1.00  0.00     0.010 A 
ATOM     30  C   UNL A   1      39.104  30.202  31.879  1.00  0.00     0.010 A 
ATOM     31  C   UNL A   1      39.606  30.629  30.636  1.00  0.00    -0.014 A 
BRANCH  31  32
ATOM     32  C   UNL A   1      40.850  30.028  30.068  1.00  0.00     0.031 A 
ATOM     33  C   UNL A   1      42.117  30.842  29.985  1.00  0.00     0.074 A 
ATOM     34  C   UNL A   1      40.867  28.760  29.606  1.00  0.00     0.049 A 
ATOM     35  N   UNL A   1      43.202  30.621  29.285  1.00  0.00    -0.248 NA
ATOM     36  C   UNL A   1      42.159  32.083  30.775  1.00  0.00     0.031 C 
ATOM     37  C   UNL A   1      39.747  27.818  29.653  1.00  0.00     0.029 A 
ATOM     38  N   UNL A   1      41.873  28.042  29.002  1.00  0.00    -0.354 N 
ATOM     39  C   UNL A   1      44.012  31.733  29.478  1.00  0.00     0.074 A 
ATOM     40  C   UNL A   1      43.306  32.618  30.379  1.00  0.00     0.031 C 
ATOM     41  C   UNL A   1      40.141  26.638  29.151  1.00  0.00     0.029 A 
ATOM     42  C   UNL A   1      41.502  26.768  28.647  1.00  0.00     0.049 A 
ATOM     43  H   UNL A   1      42.773  28.407  28.840  1.00  0.00     0.167 HD
ATOM     44  C   UNL A   1      45.229  31.996  28.943  1.00  0.00     0.037 A 
ATOM     45  C   UNL A   1      42.156  25.820  27.948  1.00  0.00     0.037 A 
ATOM     46  C   UNL A   1      45.974  31.076  28.121  1.00  0.00     0.049 A 
ATOM     47  C   UNL A   1      43.509  26.122  27.377  1.00  0.00     0.074 A 
ATOM     48  C   UNL A   1      47.224  31.246  27.551  1.00  0.00     0.029 A 
ATOM     49  N   UNL A   1      45.550  29.802  27.781  1.00  0.00    -0.354 N 
ATOM     50  N   UNL A   1      44.219  27.219  27.476  1.00  0.00    -0.248 NA
ATOM     51  C   UNL A   1      44.135  25.069  26.566  1.00  0.00     0.031 C 
ATOM     52  C   UNL A   1      47.550  30.078  26.851  1.00  0.00     0.029 A 
ATOM     53  C   UNL A   1      46.514  29.173  27.010  1.00  0.00     0.049 A 
ATOM     54  H   UNL A   1      44.690  29.403  28.047  1.00  0.00     0.167 HD
ATOM     55  C   UNL A   1      45.370  26.992  26.736  1.00  0.00     0.074 A 
ATOM     56  C   UNL A   1      45.278  25.643  26.216  1.00  0.00     0.031 C 
ATOM     57  C   UNL A   1      46.406  27.833  26.496  1.00  0.00     0.037 A 
BRANCH  44  58
ATOM     58  C   UNL A   1      45.819  33.351  29.196  1.00  0.00     0.057 A 
ATOM     59  C   UNL A   1      46.683  33.604  30.267  1.00  0.00     0.134 A 
ATOM     60  C   UNL A   1      45.543  34.411  28.321  1.00  0.00     0.134 A 
ATOM     61  F   UNL A   1      46.977  32.636  31.146  1.00  0.00    -0.206 F 
ATOM     62  C   UNL A   1      47.236  34.871  30.471  1.00  0.00     0.040 A 
ATOM     63  C   UNL A   1      46.107  35.675  28.503  1.00  0.00     0.040 A 
ATOM     64  F   UNL A   1      44.729  34.233  27.270  1.00  0.00    -0.206 F 
ATOM     65  C   UNL A   1      46.953  35.909  29.584  1.00  0.00     0.006 A 
ENDBRANCH  44  58
BRANCH  45  66
ATOM     66  C   UNL A   1      41.502  24.510  27.702  1.00  0.00     0.057 A 
ATOM     67  C   UNL A   1      40.541  24.364  26.698  1.00  0.00     0.134 A 
ATOM     68  C   UNL A   1      41.845  23.374  28.443  1.00  0.00     0.134 A 
ATOM     69  F   UNL A   1      40.154  25.425  25.974  1.00  0.00    -0.206 F 
ATOM     70  C   UNL A   1      39.944  23.130  26.434  1.00  0.00     0.040 A 
ATOM     71  C   UNL A   1      41.275  22.129  28.174  1.00  0.00     0.040 A 
ATOM     72  F   UNL A   1      42.761  23.451  29.420  1.00  0.00    -0.206 F 
ATOM     73  C   UNL A   1      40.319  22.005  27.168  1.00  0.00     0.006 A 
ENDBRANCH  45  66
BRANCH  57  74
ATOM     74  C   UNL A   1      47.521  27.310  25.647  1.00  0.00     0.057 A 
ATOM     75  C   UNL A   1      48.604  26.621  26.206  1.00  0.00     0.134 A 
ATOM     76  C   UNL A   1      47.503  27.477  24.258  1.00  0.00     0.134 A 
ATOM     77  F   UNL A   1      48.684  26.442  27.533  1.00  0.00    -0.206 F 
ATOM     78  C   UNL A   1      49.641  26.129  25.412  1.00  0.00     0.040 A 
ATOM     79  C   UNL A   1      48.525  26.977  23.451  1.00  0.00     0.040 A 
ATOM     80  F   UNL A   1      46.490  28.126  23.663  1.00  0.00    -0.206 F 
ATOM     81  C   UNL A   1      49.601  26.304  24.029  1.00  0.00     0.006 A 
ENDBRANCH  57  74
ENDBRANCH  31  32
ENDBRANCH  24  26
ENDBRANCH  23  24
ENDBRANCH  22  23
ENDBRANCH   1  22
TORSDOF 14
ENDMDL
MODEL 2
REMARK VINA RESULT:     -10.9      4.830      9.608
REMARK SMILES Cc1ccc(O)c(C[N@H+]2CC[C@](C)(C(=O)OCCOC(=O)c3ccc(-c4c5nc(c(-c6c(F)cccc6F)c6ccc([nH]6)c(-c6c(F)cccc6F)c6nc(c(-c7c(F)cccc7F)c7ccc4[nH]7)C=C6)C=C5)cc3)C2)n1
REMARK SMILES IDX 17 1 16 2 14 3 15 4 12 5 9 6 10 7 76 8 11 10 13 11 8 12 7 13
REMARK SMILES IDX 1 14 2 15 3 16 77 17 4 18 5 19 6 20 18 22 19 23 20 24 21 25
REMARK SMILES IDX 22 26 23 27 75 28 24 29 74 30 25 31 26 32 27 33 68 34 28 35
REMARK SMILES IDX 73 36 67 37 69 38 29 39 72 40 66 41 65 42 30 44 56 45 39 46
REMARK SMILES IDX 55 47 40 48 43 49 54 50 70 51 41 52 42 53 53 55 71 56 44 57
REMARK SMILES IDX 31 58 32 59 37 60 33 61 34 62 36 63 38 64 35 65 57 66 58 67
REMARK SMILES IDX 63 68 59 69 60 70 62 71 64 72 61 73 45 74 46 75 51 76 47 77
REMARK SMILES IDX 48 78 50 79 52 80 49 81
REMARK H PARENT 9 9 6 21 69 43 43 54
REMARK Flexibility Score: inf
ROOT
ATOM      1  C   UNL A   1      31.218  29.487  24.146  1.00  0.00     0.274 C 
ENDROOT
BRANCH   1   2
ATOM      2  O   UNL A   1      31.792  28.183  24.371  1.00  0.00    -0.461 OA
BRANCH   2   3
ATOM      3  C   UNL A   1      30.912  27.167  24.584  1.00  0.00     0.317 C 
ATOM      4  O   UNL A   1      29.817  27.073  24.039  1.00  0.00    -0.251 OA
BRANCH   3   5
ATOM      5  C   UNL A   1      31.390  26.187  25.643  1.00  0.00     0.119 C 
ATOM      6  N   UNL A   1      32.224  23.918  25.661  1.00  0.00    -0.329 N 
ATOM      7  C   UNL A   1      31.039  23.971  26.511  1.00  0.00     0.263 C 
ATOM      8  C   UNL A   1      32.543  25.275  25.191  1.00  0.00     0.281 C 
ATOM      9  H   UNL A   1      32.006  23.349  24.843  1.00  0.00     0.348 HD
ATOM     10  C   UNL A   1      30.291  25.171  25.974  1.00  0.00     0.086 C 
ATOM     11  C   UNL A   1      31.755  27.011  26.884  1.00  0.00     0.030 C 
BRANCH   6  12
ATOM     12  C   UNL A   1      33.361  23.180  26.245  1.00  0.00     0.323 C 
BRANCH  12  13
ATOM     13  C   UNL A   1      34.657  23.218  25.447  1.00  0.00     0.136 A 
ATOM     14  C   UNL A   1      38.156  24.000  26.280  1.00  0.00     0.067 C 
ATOM     15  C   UNL A   1      36.961  23.583  25.479  1.00  0.00     0.038 A 
ATOM     16  C   UNL A   1      37.106  23.022  24.216  1.00  0.00     0.027 A 
ATOM     17  N   UNL A   1      35.761  23.690  26.092  1.00  0.00    -0.248 NA
ATOM     18  C   UNL A   1      35.970  22.578  23.542  1.00  0.00     0.050 A 
ATOM     19  C   UNL A   1      34.730  22.674  24.164  1.00  0.00     0.142 A 
BRANCH  19  20
ATOM     20  O   UNL A   1      33.613  22.199  23.542  1.00  0.00    -0.506 OA
ATOM     21  H   UNL A   1      33.499  21.277  23.423  1.00  0.00     0.293 HD
ENDBRANCH  19  20
ENDBRANCH  12  13
ENDBRANCH   6  12
ENDBRANCH   3   5
ENDBRANCH   2   3
ENDBRANCH   1   2
BRANCH   1  22
ATOM     22  C   UNL A   1      31.268  30.312  25.431  1.00  0.00     0.275 C 
BRANCH  22  23
ATOM     23  O   UNL A   1      32.633  30.402  25.874  1.00  0.00    -0.458 OA
BRANCH  23  24
ATOM     24  C   UNL A   1      32.885  31.306  26.850  1.00  0.00     0.338 C 
ATOM     25  O   UNL A   1      32.155  32.213  27.209  1.00  0.00    -0.246 OA
BRANCH  24  26
ATOM     26  C   UNL A   1      34.212  31.037  27.457  1.00  0.00     0.060 A 
ATOM     27  C   UNL A   1      34.637  29.736  27.718  1.00  0.00     0.016 A 
ATOM     28  C   UNL A   1      35.015  32.106  27.852  1.00  0.00     0.016 A 
ATOM     29  C   UNL A   1      35.789  29.502  28.470  1.00  0.00     0.010 A 
ATOM     30  C   UNL A   1      36.236  31.865  28.497  1.00  0.00     0.010 A 
ATOM     31  C   UNL A   1      36.624  30.559  28.849  1.00  0.00    -0.014 A 
BRANCH  31  32
ATOM     32  C   UNL A   1      37.878  30.320  29.625  1.00  0.00     0.031 A 
ATOM     33  C   UNL A   1      38.997  29.504  29.028  1.00  0.00     0.074 A 
ATOM     34  C   UNL A   1      38.032  30.809  30.874  1.00  0.00     0.049 A 
ATOM     35  N   UNL A   1      40.025  28.946  29.618  1.00  0.00    -0.248 NA
ATOM     36  C   UNL A   1      38.938  29.263  27.577  1.00  0.00     0.031 C 
ATOM     37  C   UNL A   1      37.074  31.657  31.585  1.00  0.00     0.029 A 
ATOM     38  N   UNL A   1      39.066  30.662  31.770  1.00  0.00    -0.354 N 
ATOM     39  C   UNL A   1      40.679  28.217  28.633  1.00  0.00     0.074 A 
ATOM     40  C   UNL A   1      39.948  28.421  27.401  1.00  0.00     0.031 C 
ATOM     41  C   UNL A   1      37.582  31.994  32.780  1.00  0.00     0.029 A 
ATOM     42  C   UNL A   1      38.851  31.302  32.967  1.00  0.00     0.049 A 
ATOM     43  H   UNL A   1      39.881  30.147  31.573  1.00  0.00     0.167 HD
ATOM     44  C   UNL A   1      41.783  27.440  28.748  1.00  0.00     0.037 A 
ATOM     45  C   UNL A   1      39.560  31.296  34.111  1.00  0.00     0.037 A 
ATOM     46  C   UNL A   1      42.566  27.310  29.950  1.00  0.00     0.049 A 
ATOM     47  C   UNL A   1      40.789  30.443  34.216  1.00  0.00     0.074 A 
ATOM     48  C   UNL A   1      43.713  26.563  30.157  1.00  0.00     0.029 A 
ATOM     49  N   UNL A   1      42.300  27.971  31.139  1.00  0.00    -0.354 N 
ATOM     50  N   UNL A   1      41.337  29.673  33.310  1.00  0.00    -0.248 NA
ATOM     51  C   UNL A   1      41.476  30.430  35.516  1.00  0.00     0.031 C 
ATOM     52  C   UNL A   1      44.132  26.758  31.478  1.00  0.00     0.029 A 
ATOM     53  C   UNL A   1      43.262  27.649  32.084  1.00  0.00     0.049 A 
ATOM     54  H   UNL A   1      41.540  28.578  31.290  1.00  0.00     0.167 HD
ATOM     55  C   UNL A   1      42.428  29.077  33.928  1.00  0.00     0.074 A 
ATOM     56  C   UNL A   1      42.481  29.597  35.280  1.00  0.00     0.031 C 
ATOM     57  C   UNL A   1      43.299  28.170  33.425  1.00  0.00     0.037 A 
BRANCH  44  58
ATOM     58  C   UNL A   1      42.192  26.634  27.552  1.00  0.00     0.057 A 
ATOM     59  C   UNL A   1      43.081  27.122  26.588  1.00  0.00     0.134 A 
ATOM     60  C   UNL A   1      41.711  25.328  27.387  1.00  0.00     0.134 A 
ATOM     61  F   UNL A   1      43.568  28.367  26.680  1.00  0.00    -0.206 F 
ATOM     62  C   UNL A   1      43.462  26.345  25.490  1.00  0.00     0.040 A 
ATOM     63  C   UNL A   1      42.101  24.534  26.307  1.00  0.00     0.040 A 
ATOM     64  F   UNL A   1      40.861  24.798  28.281  1.00  0.00    -0.206 F 
ATOM     65  C   UNL A   1      42.976  25.045  25.352  1.00  0.00     0.006 A 
ENDBRANCH  44  58
BRANCH  45  66
ATOM     66  C   UNL A   1      39.084  32.089  35.272  1.00  0.00     0.057 A 
ATOM     67  C   UNL A   1      38.308  31.499  36.275  1.00  0.00     0.134 A 
ATOM     68  C   UNL A   1      39.416  33.440  35.419  1.00  0.00     0.134 A 
ATOM     69  F   UNL A   1      37.937  30.214  36.174  1.00  0.00    -0.206 F 
ATOM     70  C   UNL A   1      37.883  32.225  37.389  1.00  0.00     0.040 A 
ATOM     71  C   UNL A   1      39.019  34.171  36.539  1.00  0.00     0.040 A 
ATOM     72  F   UNL A   1      40.158  34.061  34.490  1.00  0.00    -0.206 F 
ATOM     73  C   UNL A   1      38.248  33.564  37.527  1.00  0.00     0.006 A 
ENDBRANCH  45  66
BRANCH  57  74
ATOM     74  C   UNL A   1      44.386  27.695  34.337  1.00  0.00     0.057 A 
ATOM     75  C   UNL A   1      45.601  28.381  34.446  1.00  0.00     0.134 A 
ATOM     76  C   UNL A   1      44.208  26.556  35.130  1.00  0.00     0.134 A 
ATOM     77  F   UNL A   1      45.834  29.472  33.700  1.00  0.00    -0.206 F 
ATOM     78  C   UNL A   1      46.611  27.940  35.301  1.00  0.00     0.040 A 
ATOM     79  C   UNL A   1      45.204  26.113  36.001  1.00  0.00     0.040 A 
ATOM     80  F   UNL A   1      43.064  25.857  35.073  1.00  0.00    -0.206 F 
ATOM     81  C   UNL A   1      46.413  26.804  36.084  1.00  0.00     0.006 A 
ENDBRANCH  57  74
ENDBRANCH  31  32
ENDBRANCH  24  26
ENDBRANCH  23  24
ENDBRANCH  22  23
ENDBRANCH   1  22
TORSDOF 14
ENDMDL
MODEL 3
REMARK VINA RESULT:     -10.8      4.665      9.544
REMARK SMILES Cc1ccc(O)c(C[N@H+]2CC[C@](C)(C(=O)OCCOC(=O)c3ccc(-c4c5nc(c(-c6c(F)cccc6F)c6ccc([nH]6)c(-c6c(F)cccc6F)c6nc(c(-c7c(F)cccc7F)c7ccc4[nH]7)C=C6)C=C5)cc3)C2)n1
REMARK SMILES IDX 17 1 16 2 14 3 15 4 12 5 9 6 10 7 76 8 11 10 13 11 8 12 7 13
REMARK SMILES IDX 1 14 2 15 3 16 77 17 4 18 5 19 6 20 18 22 19 23 20 24 21 25
REMARK SMILES IDX 22 26 23 27 75 28 24 29 74 30 25 31 26 32 27 33 68 34 28 35
REMARK SMILES IDX 73 36 67 37 69 38 29 39 72 40 66 41 65 42 30 44 56 45 39 46
REMARK SMILES IDX 55 47 40 48 43 49 54 50 70 51 41 52 42 53 53 55 71 56 44 57
REMARK SMILES IDX 31 58 32 59 37 60 33 61 34 62 36 63 38 64 35 65 57 66 58 67
REMARK SMILES IDX 63 68 59 69 60 70 62 71 64 72 61 73 45 74 46 75 51 76 47 77
REMARK SMILES IDX 48 78 50 79 52 80 49 81
REMARK H PARENT 9 9 6 21 69 43 43 54
REMARK Flexibility Score: inf
ROOT
ATOM      1  C   UNL A   1      34.862  20.165  24.972  1.00  0.00     0.274 C 
ENDROOT
BRANCH   1   2
ATOM      2  O   UNL A   1      33.968  20.681  25.979  1.00  0.00    -0.461 OA
BRANCH   2   3
ATOM      3  C   UNL A   1      32.734  21.063  25.549  1.00  0.00     0.317 C 
ATOM      4  O   UNL A   1      31.899  20.299  25.075  1.00  0.00    -0.251 OA
BRANCH   3   5
ATOM      5  C   UNL A   1      32.518  22.564  25.641  1.00  0.00     0.119 C 
ATOM      6  N   UNL A   1      30.736  24.101  25.087  1.00  0.00    -0.329 N 
ATOM      7  C   UNL A   1      31.928  24.505  24.347  1.00  0.00     0.263 C 
ATOM      8  C   UNL A   1      31.077  22.980  25.977  1.00  0.00     0.281 C 
ATOM      9  H   UNL A   1      30.043  23.768  24.418  1.00  0.00     0.348 HD
ATOM     10  C   UNL A   1      32.731  23.224  24.274  1.00  0.00     0.086 C 
ATOM     11  C   UNL A   1      33.529  23.100  26.662  1.00  0.00     0.030 C 
BRANCH   6  12
ATOM     12  C   UNL A   1      30.017  25.213  25.736  1.00  0.00     0.323 C 
BRANCH  12  13
ATOM     13  C   UNL A   1      29.998  26.529  24.971  1.00  0.00     0.136 A 
ATOM     14  C   UNL A   1      32.294  29.398  24.753  1.00  0.00     0.067 C 
ATOM     15  C   UNL A   1      31.112  28.520  24.481  1.00  0.00     0.038 A 
ATOM     16  C   UNL A   1      30.252  28.785  23.422  1.00  0.00     0.027 A 
ATOM     17  N   UNL A   1      30.992  27.418  25.254  1.00  0.00    -0.248 NA
ATOM     18  C   UNL A   1      29.211  27.896  23.161  1.00  0.00     0.050 A 
ATOM     19  C   UNL A   1      29.083  26.753  23.942  1.00  0.00     0.142 A 
BRANCH  19  20
ATOM     20  O   UNL A   1      28.101  25.845  23.671  1.00  0.00    -0.506 OA
ATOM     21  H   UNL A   1      27.998  25.511  22.802  1.00  0.00     0.293 HD
ENDBRANCH  19  20
ENDBRANCH  12  13
ENDBRANCH   6  12
ENDBRANCH   3   5
ENDBRANCH   2   3
ENDBRANCH   1   2
BRANCH   1  22
ATOM     22  C   UNL A   1      35.919  21.211  24.623  1.00  0.00     0.275 C 
BRANCH  22  23
ATOM     23  O   UNL A   1      36.691  21.505  25.800  1.00  0.00    -0.458 OA
BRANCH  23  24
ATOM     24  C   UNL A   1      38.028  21.315  25.699  1.00  0.00     0.338 C 
ATOM     25  O   UNL A   1      38.592  20.362  25.193  1.00  0.00    -0.246 OA
BRANCH  24  26
ATOM     26  C   UNL A   1      38.747  22.466  26.298  1.00  0.00     0.060 A 
ATOM     27  C   UNL A   1      38.282  23.770  26.143  1.00  0.00     0.016 A 
ATOM     28  C   UNL A   1      39.958  22.251  26.958  1.00  0.00     0.016 A 
ATOM     29  C   UNL A   1      39.068  24.856  26.533  1.00  0.00     0.010 A 
ATOM     30  C   UNL A   1      40.684  23.337  27.461  1.00  0.00     0.010 A 
ATOM     31  C   UNL A   1      40.269  24.660  27.224  1.00  0.00    -0.014 A 
BRANCH  31  32
ATOM     32  C   UNL A   1      41.103  25.815  27.676  1.00  0.00     0.031 A 
ATOM     33  C   UNL A   1      40.513  26.870  28.577  1.00  0.00     0.074 A 
ATOM     34  C   UNL A   1      42.387  25.948  27.280  1.00  0.00     0.049 A 
ATOM     35  N   UNL A   1      40.957  28.073  28.849  1.00  0.00    -0.248 NA
ATOM     36  C   UNL A   1      39.243  26.538  29.241  1.00  0.00     0.031 C 
ATOM     37  C   UNL A   1      43.129  24.998  26.450  1.00  0.00     0.029 A 
ATOM     38  N   UNL A   1      43.299  26.947  27.529  1.00  0.00    -0.354 N 
ATOM     39  C   UNL A   1      39.981  28.669  29.637  1.00  0.00     0.074 A 
ATOM     40  C   UNL A   1      38.930  27.690  29.820  1.00  0.00     0.031 C 
ATOM     41  C   UNL A   1      44.390  25.431  26.301  1.00  0.00     0.029 A 
ATOM     42  C   UNL A   1      44.519  26.739  26.931  1.00  0.00     0.049 A 
ATOM     43  H   UNL A   1      43.098  27.735  28.084  1.00  0.00     0.167 HD
ATOM     44  C   UNL A   1      39.957  29.922  30.151  1.00  0.00     0.037 A 
ATOM     45  C   UNL A   1      45.607  27.528  26.847  1.00  0.00     0.037 A 
ATOM     46  C   UNL A   1      41.041  30.866  30.048  1.00  0.00     0.049 A 
ATOM     47  C   UNL A   1      45.570  28.906  27.435  1.00  0.00     0.074 A 
ATOM     48  C   UNL A   1      41.118  32.152  30.555  1.00  0.00     0.029 A 
ATOM     49  N   UNL A   1      42.251  30.611  29.422  1.00  0.00    -0.354 N 
ATOM     50  N   UNL A   1      44.599  29.499  28.085  1.00  0.00    -0.248 NA
ATOM     51  C   UNL A   1      46.766  29.739  27.247  1.00  0.00     0.031 C 
ATOM     52  C   UNL A   1      42.369  32.681  30.221  1.00  0.00     0.029 A 
ATOM     53  C   UNL A   1      43.082  31.714  29.531  1.00  0.00     0.049 A 
ATOM     54  H   UNL A   1      42.485  29.770  28.967  1.00  0.00     0.167 HD
ATOM     55  C   UNL A   1      45.062  30.774  28.376  1.00  0.00     0.074 A 
ATOM     56  C   UNL A   1      46.411  30.862  27.857  1.00  0.00     0.031 C 
ATOM     57  C   UNL A   1      44.419  31.788  29.005  1.00  0.00     0.037 A 
BRANCH  44  58
ATOM     58  C   UNL A   1      38.702  30.366  30.840  1.00  0.00     0.057 A 
ATOM     59  C   UNL A   1      37.646  30.975  30.154  1.00  0.00     0.134 A 
ATOM     60  C   UNL A   1      38.537  30.141  32.214  1.00  0.00     0.134 A 
ATOM     61  F   UNL A   1      37.744  31.230  28.841  1.00  0.00    -0.206 F 
ATOM     62  C   UNL A   1      36.476  31.363  30.814  1.00  0.00     0.040 A 
ATOM     63  C   UNL A   1      37.366  30.504  32.880  1.00  0.00     0.040 A 
ATOM     64  F   UNL A   1      39.510  29.554  32.929  1.00  0.00    -0.206 F 
ATOM     65  C   UNL A   1      36.333  31.122  32.180  1.00  0.00     0.006 A 
ENDBRANCH  44  58
BRANCH  45  66
ATOM     66  C   UNL A   1      46.808  27.044  26.120  1.00  0.00     0.057 A 
ATOM     67  C   UNL A   1      47.809  26.329  26.784  1.00  0.00     0.134 A 
ATOM     68  C   UNL A   1      46.966  27.260  24.747  1.00  0.00     0.134 A 
ATOM     69  F   UNL A   1      47.724  26.114  28.105  1.00  0.00    -0.206 F 
ATOM     70  C   UNL A   1      48.926  25.839  26.104  1.00  0.00     0.040 A 
ATOM     71  C   UNL A   1      48.064  26.756  24.051  1.00  0.00     0.040 A 
ATOM     72  F   UNL A   1      46.038  27.940  24.056  1.00  0.00    -0.206 F 
ATOM     73  C   UNL A   1      49.051  26.044  24.731  1.00  0.00     0.006 A 
ENDBRANCH  45  66
BRANCH  57  74
ATOM     74  C   UNL A   1      45.175  33.068  29.175  1.00  0.00     0.057 A 
ATOM     75  C   UNL A   1      45.075  34.106  28.241  1.00  0.00     0.134 A 
ATOM     76  C   UNL A   1      45.994  33.274  30.291  1.00  0.00     0.134 A 
ATOM     77  F   UNL A   1      44.317  33.961  27.143  1.00  0.00    -0.206 F 
ATOM     78  C   UNL A   1      45.777  35.300  28.403  1.00  0.00     0.040 A 
ATOM     79  C   UNL A   1      46.688  34.470  30.473  1.00  0.00     0.040 A 
ATOM     80  F   UNL A   1      46.128  32.317  31.223  1.00  0.00    -0.206 F 
ATOM     81  C   UNL A   1      46.584  35.486  29.524  1.00  0.00     0.006 A 
ENDBRANCH  57  74
ENDBRANCH  31  32
ENDBRANCH  24  26
ENDBRANCH  23  24
ENDBRANCH  22  23
ENDBRANCH   1  22
TORSDOF 14
ENDMDL
