MODEL 1
REMARK VINA RESULT:     -11.8      0.000      0.000
REMARK SMILES Cc1nn(CC(=O)OCCOC(=O)c2ccc(-c3c4nc(c(-c5c(F)cccc5F)c5ccc([nH]5)c(-c5c(F)cccc5F)c5nc(c(-c6c(F)cccc6F)c6ccc3[nH]6)C=C5)C=C4)cc2)c(C)c1NC(=O)C(=O)Nc1ccc(F)cc1
REMARK SMILES IDX 9 1 8 2 6 3 7 4 5 5 4 6 1 7 2 8 3 9 70 10 68 11 69 12 71 13
REMARK SMILES IDX 72 14 73 16 74 17 75 18 76 19 77 21 78 22 83 23 79 24 82 25
REMARK SMILES IDX 80 26 81 27 10 28 11 29 12 30 13 31 14 32 15 33 67 34 16 35
REMARK SMILES IDX 66 36 17 37 18 38 19 39 60 40 20 41 65 42 59 43 61 44 21 45
REMARK SMILES IDX 64 46 58 47 57 48 22 50 48 51 31 52 47 53 32 54 35 55 46 56
REMARK SMILES IDX 62 57 33 58 34 59 45 61 63 62 36 63 23 64 24 65 29 66 25 67
REMARK SMILES IDX 26 68 28 69 30 70 27 71 49 72 50 73 55 74 51 75 52 76 54 77
REMARK SMILES IDX 56 78 53 79 37 80 38 81 43 82 39 83 40 84 42 85 44 86 41 87
REMARK H PARENT 71 15 76 20 61 49 35 60
REMARK Flexibility Score: inf
ROOT
ATOM      1  C   UNL A   1      34.052  32.337  27.968  1.00  0.00     0.274 C 
ENDROOT
BRANCH   1   2
ATOM      2  O   UNL A   1      33.717  31.106  27.297  1.00  0.00    -0.461 OA
BRANCH   2   3
ATOM      3  C   UNL A   1      32.426  30.958  26.894  1.00  0.00     0.327 C 
ATOM      4  O   UNL A   1      31.620  31.886  26.838  1.00  0.00    -0.250 OA
BRANCH   3   5
ATOM      5  C   UNL A   1      32.034  29.557  26.516  1.00  0.00     0.267 C 
BRANCH   5   6
ATOM      6  N   UNL A   1      32.029  29.253  25.093  1.00  0.00    -0.256 N 
ATOM      7  C   UNL A   1      30.168  29.106  22.090  1.00  0.00     0.071 C 
ATOM      8  C   UNL A   1      31.166  28.968  23.182  1.00  0.00     0.083 A 
ATOM      9  N   UNL A   1      30.896  29.456  24.394  1.00  0.00    -0.175 NA
ATOM     10  C   UNL A   1      32.413  28.281  23.164  1.00  0.00     0.086 A 
ATOM     11  C   UNL A   1      32.999  28.581  24.380  1.00  0.00     0.060 A 
ATOM     12  C   UNL A   1      34.354  28.346  24.945  1.00  0.00     0.069 C 
BRANCH  10  13
ATOM     13  N   UNL A   1      32.871  27.520  22.104  1.00  0.00    -0.315 N 
ATOM     14  C   UNL A   1      32.804  26.157  21.914  1.00  0.00     0.314 C 
ATOM     15  H   UNL A   1      33.308  28.026  21.380  1.00  0.00     0.170 HD
ATOM     16  O   UNL A   1      33.156  25.672  20.841  1.00  0.00    -0.263 OA
BRANCH  14  17
ATOM     17  C   UNL A   1      32.126  25.283  22.967  1.00  0.00     0.314 C 
ATOM     18  O   UNL A   1      30.908  25.109  22.907  1.00  0.00    -0.263 OA
ATOM     19  N   UNL A   1      32.824  24.627  23.960  1.00  0.00    -0.318 N 
ATOM     20  H   UNL A   1      32.286  24.392  24.750  1.00  0.00     0.170 HD
BRANCH  19  21
ATOM     21  C   UNL A   1      34.168  24.237  24.037  1.00  0.00     0.041 A 
ATOM     22  C   UNL A   1      34.829  24.636  25.209  1.00  0.00     0.029 A 
ATOM     23  C   UNL A   1      34.839  23.432  23.120  1.00  0.00     0.029 A 
ATOM     24  C   UNL A   1      36.082  24.116  25.530  1.00  0.00     0.041 A 
ATOM     25  C   UNL A   1      36.105  22.922  23.434  1.00  0.00     0.041 A 
ATOM     26  C   UNL A   1      36.698  23.242  24.648  1.00  0.00     0.123 A 
ATOM     27  F   UNL A   1      37.876  22.697  24.978  1.00  0.00    -0.207 F 
ENDBRANCH  19  21
ENDBRANCH  14  17
ENDBRANCH  10  13
ENDBRANCH   5   6
ENDBRANCH   3   5
ENDBRANCH   2   3
ENDBRANCH   1   2
BRANCH   1  28
ATOM     28  C   UNL A   1      35.561  32.489  28.148  1.00  0.00     0.275 C 
BRANCH  28  29
ATOM     29  O   UNL A   1      36.246  31.282  27.809  1.00  0.00    -0.458 OA
BRANCH  29  30
ATOM     30  C   UNL A   1      37.064  30.851  28.792  1.00  0.00     0.338 C 
ATOM     31  O   UNL A   1      37.239  31.384  29.881  1.00  0.00    -0.246 OA
BRANCH  30  32
ATOM     32  C   UNL A   1      37.843  29.697  28.361  1.00  0.00     0.060 A 
ATOM     33  C   UNL A   1      37.834  28.566  29.187  1.00  0.00     0.016 A 
ATOM     34  C   UNL A   1      38.803  29.884  27.361  1.00  0.00     0.016 A 
ATOM     35  C   UNL A   1      38.907  27.704  29.137  1.00  0.00     0.010 A 
ATOM     36  C   UNL A   1      39.884  29.035  27.329  1.00  0.00     0.010 A 
ATOM     37  C   UNL A   1      39.960  28.009  28.274  1.00  0.00    -0.014 A 
BRANCH  37  38
ATOM     38  C   UNL A   1      41.195  27.266  28.416  1.00  0.00     0.031 A 
ATOM     39  C   UNL A   1      41.950  27.508  29.666  1.00  0.00     0.074 A 
ATOM     40  C   UNL A   1      41.515  26.294  27.539  1.00  0.00     0.049 A 
ATOM     41  N   UNL A   1      43.185  27.859  29.804  1.00  0.00    -0.248 NA
ATOM     42  C   UNL A   1      41.203  27.409  30.931  1.00  0.00     0.031 C 
ATOM     43  C   UNL A   1      40.684  25.752  26.459  1.00  0.00     0.029 A 
ATOM     44  N   UNL A   1      42.605  25.483  27.527  1.00  0.00    -0.354 N 
ATOM     45  C   UNL A   1      43.422  27.862  31.175  1.00  0.00     0.074 A 
ATOM     46  C   UNL A   1      42.146  27.713  31.822  1.00  0.00     0.031 C 
ATOM     47  C   UNL A   1      41.195  24.563  26.067  1.00  0.00     0.029 A 
ATOM     48  C   UNL A   1      42.433  24.322  26.792  1.00  0.00     0.049 A 
ATOM     49  H   UNL A   1      43.442  25.701  27.999  1.00  0.00     0.167 HD
ATOM     50  C   UNL A   1      44.677  27.764  31.689  1.00  0.00     0.037 A 
ATOM     51  C   UNL A   1      43.200  23.206  26.864  1.00  0.00     0.037 A 
ATOM     52  C   UNL A   1      45.688  28.119  30.733  1.00  0.00     0.049 A 
ATOM     53  C   UNL A   1      44.475  23.574  27.533  1.00  0.00     0.074 A 
ATOM     54  C   UNL A   1      45.949  29.248  29.977  1.00  0.00     0.029 A 
ATOM     55  N   UNL A   1      46.442  27.120  30.172  1.00  0.00    -0.354 N 
ATOM     56  N   UNL A   1      45.406  24.311  26.994  1.00  0.00    -0.248 NA
ATOM     57  C   UNL A   1      44.531  23.467  28.986  1.00  0.00     0.031 C 
ATOM     58  C   UNL A   1      46.435  28.754  28.732  1.00  0.00     0.029 A 
ATOM     59  C   UNL A   1      46.469  27.363  28.822  1.00  0.00     0.049 A 
ATOM     60  H   UNL A   1      46.878  26.375  30.645  1.00  0.00     0.167 HD
ATOM     61  C   UNL A   1      45.895  25.086  28.037  1.00  0.00     0.074 A 
ATOM     62  C   UNL A   1      45.392  24.452  29.252  1.00  0.00     0.031 C 
ATOM     63  C   UNL A   1      46.417  26.327  27.819  1.00  0.00     0.037 A 
BRANCH  50  64
ATOM     64  C   UNL A   1      44.981  27.026  32.962  1.00  0.00     0.057 A 
ATOM     65  C   UNL A   1      45.745  27.646  33.963  1.00  0.00     0.134 A 
ATOM     66  C   UNL A   1      44.784  25.638  33.122  1.00  0.00     0.134 A 
ATOM     67  F   UNL A   1      46.031  28.954  33.897  1.00  0.00    -0.206 F 
ATOM     68  C   UNL A   1      46.307  26.927  35.024  1.00  0.00     0.040 A 
ATOM     69  C   UNL A   1      45.292  24.922  34.207  1.00  0.00     0.040 A 
ATOM     70  F   UNL A   1      44.179  24.891  32.189  1.00  0.00    -0.206 F 
ATOM     71  C   UNL A   1      46.082  25.561  35.149  1.00  0.00     0.006 A 
ENDBRANCH  50  64
BRANCH  51  72
ATOM     72  C   UNL A   1      42.793  21.798  26.660  1.00  0.00     0.057 A 
ATOM     73  C   UNL A   1      43.458  20.980  25.737  1.00  0.00     0.134 A 
ATOM     74  C   UNL A   1      41.903  21.142  27.531  1.00  0.00     0.134 A 
ATOM     75  F   UNL A   1      44.362  21.499  24.894  1.00  0.00    -0.206 F 
ATOM     76  C   UNL A   1      43.260  19.593  25.690  1.00  0.00     0.040 A 
ATOM     77  C   UNL A   1      41.683  19.762  27.485  1.00  0.00     0.040 A 
ATOM     78  F   UNL A   1      41.278  21.802  28.518  1.00  0.00    -0.206 F 
ATOM     79  C   UNL A   1      42.374  18.979  26.570  1.00  0.00     0.006 A 
ENDBRANCH  51  72
BRANCH  63  80
ATOM     80  C   UNL A   1      46.679  26.743  26.398  1.00  0.00     0.057 A 
ATOM     81  C   UNL A   1      45.738  27.407  25.597  1.00  0.00     0.134 A 
ATOM     82  C   UNL A   1      47.970  26.610  25.877  1.00  0.00     0.134 A 
ATOM     83  F   UNL A   1      44.510  27.685  26.054  1.00  0.00    -0.206 F 
ATOM     84  C   UNL A   1      46.050  27.863  24.314  1.00  0.00     0.040 A 
ATOM     85  C   UNL A   1      48.306  27.093  24.610  1.00  0.00     0.040 A 
ATOM     86  F   UNL A   1      48.943  26.046  26.612  1.00  0.00    -0.206 F 
ATOM     87  C   UNL A   1      47.341  27.711  23.818  1.00  0.00     0.006 A 
ENDBRANCH  63  80
ENDBRANCH  37  38
ENDBRANCH  30  32
ENDBRANCH  29  30
ENDBRANCH  28  29
ENDBRANCH   1  28
TORSDOF 15
ENDMDL
MODEL 2
REMARK VINA RESULT:     -11.5      3.117      7.386
REMARK SMILES Cc1nn(CC(=O)OCCOC(=O)c2ccc(-c3c4nc(c(-c5c(F)cccc5F)c5ccc([nH]5)c(-c5c(F)cccc5F)c5nc(c(-c6c(F)cccc6F)c6ccc3[nH]6)C=C5)C=C4)cc2)c(C)c1NC(=O)C(=O)Nc1ccc(F)cc1
REMARK SMILES IDX 9 1 8 2 6 3 7 4 5 5 4 6 1 7 2 8 3 9 70 10 68 11 69 12 71 13
REMARK SMILES IDX 72 14 73 16 74 17 75 18 76 19 77 21 78 22 83 23 79 24 82 25
REMARK SMILES IDX 80 26 81 27 10 28 11 29 12 30 13 31 14 32 15 33 67 34 16 35
REMARK SMILES IDX 66 36 17 37 18 38 19 39 60 40 20 41 65 42 59 43 61 44 21 45
REMARK SMILES IDX 64 46 58 47 57 48 22 50 48 51 31 52 47 53 32 54 35 55 46 56
REMARK SMILES IDX 62 57 33 58 34 59 45 61 63 62 36 63 23 64 24 65 29 66 25 67
REMARK SMILES IDX 26 68 28 69 30 70 27 71 49 72 50 73 55 74 51 75 52 76 54 77
REMARK SMILES IDX 56 78 53 79 37 80 38 81 43 82 39 83 40 84 42 85 44 86 41 87
REMARK H PARENT 71 15 76 20 61 49 35 60
REMARK Flexibility Score: inf
ROOT
ATOM      1  C   UNL A   1      36.451  20.703  25.002  1.00  0.00     0.274 C 
ENDROOT
BRANCH   1   2
ATOM      2  O   UNL A   1      36.680  22.107  24.770  1.00  0.00    -0.461 OA
BRANCH   2   3
ATOM      3  C   UNL A   1      36.130  22.641  23.646  1.00  0.00     0.327 C 
ATOM      4  O   UNL A   1      36.792  23.076  22.705  1.00  0.00    -0.250 OA
BRANCH   3   5
ATOM      5  C   UNL A   1      34.628  22.671  23.625  1.00  0.00     0.267 C 
BRANCH   5   6
ATOM      6  N   UNL A   1      34.014  23.970  23.398  1.00  0.00    -0.256 N 
ATOM      7  C   UNL A   1      32.482  26.171  21.092  1.00  0.00     0.071 C 
ATOM      8  C   UNL A   1      33.163  25.529  22.246  1.00  0.00     0.083 A 
ATOM      9  N   UNL A   1      33.529  24.248  22.172  1.00  0.00    -0.175 NA
ATOM     10  C   UNL A   1      33.590  26.122  23.468  1.00  0.00     0.086 A 
ATOM     11  C   UNL A   1      34.033  25.063  24.238  1.00  0.00     0.060 A 
ATOM     12  C   UNL A   1      34.443  24.938  25.662  1.00  0.00     0.069 C 
BRANCH  10  13
ATOM     13  N   UNL A   1      33.516  27.474  23.748  1.00  0.00    -0.315 N 
ATOM     14  C   UNL A   1      32.513  28.184  24.372  1.00  0.00     0.314 C 
ATOM     15  H   UNL A   1      34.294  28.007  23.460  1.00  0.00     0.170 HD
ATOM     16  O   UNL A   1      32.684  29.368  24.647  1.00  0.00    -0.263 OA
BRANCH  14  17
ATOM     17  C   UNL A   1      31.273  27.448  24.876  1.00  0.00     0.314 C 
ATOM     18  O   UNL A   1      31.313  26.890  25.973  1.00  0.00    -0.263 OA
ATOM     19  N   UNL A   1      30.081  27.425  24.182  1.00  0.00    -0.318 N 
ATOM     20  H   UNL A   1      29.490  26.672  24.412  1.00  0.00     0.170 HD
BRANCH  19  21
ATOM     21  C   UNL A   1      29.566  28.290  23.207  1.00  0.00     0.041 A 
ATOM     22  C   UNL A   1      28.174  28.466  23.253  1.00  0.00     0.029 A 
ATOM     23  C   UNL A   1      30.314  29.034  22.297  1.00  0.00     0.029 A 
ATOM     24  C   UNL A   1      27.560  29.473  22.511  1.00  0.00     0.041 A 
ATOM     25  C   UNL A   1      29.696  30.035  21.539  1.00  0.00     0.041 A 
ATOM     26  C   UNL A   1      28.333  30.266  21.678  1.00  0.00     0.123 A 
ATOM     27  F   UNL A   1      27.757  31.271  21.005  1.00  0.00    -0.207 F 
ENDBRANCH  19  21
ENDBRANCH  14  17
ENDBRANCH  10  13
ENDBRANCH   5   6
ENDBRANCH   3   5
ENDBRANCH   2   3
ENDBRANCH   1   2
BRANCH   1  28
ATOM     28  C   UNL A   1      37.756  19.910  25.004  1.00  0.00     0.275 C 
BRANCH  28  29
ATOM     29  O   UNL A   1      38.847  20.712  25.462  1.00  0.00    -0.458 OA
BRANCH  29  30
ATOM     30  C   UNL A   1      39.950  19.987  25.742  1.00  0.00     0.338 C 
ATOM     31  O   UNL A   1      40.097  18.784  25.557  1.00  0.00    -0.246 OA
BRANCH  30  32
ATOM     32  C   UNL A   1      40.952  20.794  26.425  1.00  0.00     0.060 A 
ATOM     33  C   UNL A   1      40.941  20.789  27.825  1.00  0.00     0.016 A 
ATOM     34  C   UNL A   1      41.632  21.768  25.687  1.00  0.00     0.016 A 
ATOM     35  C   UNL A   1      41.457  21.878  28.492  1.00  0.00     0.010 A 
ATOM     36  C   UNL A   1      42.126  22.864  26.353  1.00  0.00     0.010 A 
ATOM     37  C   UNL A   1      41.953  22.941  27.738  1.00  0.00    -0.014 A 
BRANCH  37  38
ATOM     38  C   UNL A   1      42.240  24.187  28.420  1.00  0.00     0.031 A 
ATOM     39  C   UNL A   1      41.251  25.269  28.221  1.00  0.00     0.074 A 
ATOM     40  C   UNL A   1      43.247  24.264  29.311  1.00  0.00     0.049 A 
ATOM     41  N   UNL A   1      41.452  26.478  27.813  1.00  0.00    -0.248 NA
ATOM     42  C   UNL A   1      39.835  24.935  28.446  1.00  0.00     0.031 C 
ATOM     43  C   UNL A   1      44.076  23.168  29.824  1.00  0.00     0.029 A 
ATOM     44  N   UNL A   1      43.644  25.327  30.059  1.00  0.00    -0.354 N 
ATOM     45  C   UNL A   1      40.216  27.110  27.890  1.00  0.00     0.074 A 
ATOM     46  C   UNL A   1      39.238  26.088  28.152  1.00  0.00     0.031 C 
ATOM     47  C   UNL A   1      44.695  23.579  30.954  1.00  0.00     0.029 A 
ATOM     48  C   UNL A   1      44.387  24.983  31.176  1.00  0.00     0.049 A 
ATOM     49  H   UNL A   1      43.422  26.259  29.827  1.00  0.00     0.167 HD
ATOM     50  C   UNL A   1      40.102  28.463  27.952  1.00  0.00     0.037 A 
ATOM     51  C   UNL A   1      44.633  25.772  32.250  1.00  0.00     0.037 A 
ATOM     52  C   UNL A   1      41.281  29.134  27.479  1.00  0.00     0.049 A 
ATOM     53  C   UNL A   1      44.340  27.176  31.858  1.00  0.00     0.074 A 
ATOM     54  C   UNL A   1      41.986  29.122  26.289  1.00  0.00     0.029 A 
ATOM     55  N   UNL A   1      42.116  29.720  28.395  1.00  0.00    -0.354 N 
ATOM     56  N   UNL A   1      45.066  27.881  31.037  1.00  0.00    -0.248 NA
ATOM     57  C   UNL A   1      42.981  27.664  32.060  1.00  0.00     0.031 C 
ATOM     58  C   UNL A   1      43.355  29.234  26.671  1.00  0.00     0.029 A 
ATOM     59  C   UNL A   1      43.391  29.338  28.061  1.00  0.00     0.049 A 
ATOM     60  H   UNL A   1      41.853  30.301  29.146  1.00  0.00     0.167 HD
ATOM     61  C   UNL A   1      44.153  28.631  30.308  1.00  0.00     0.074 A 
ATOM     62  C   UNL A   1      42.899  28.532  31.049  1.00  0.00     0.031 C 
ATOM     63  C   UNL A   1      44.415  29.024  29.028  1.00  0.00     0.037 A 
BRANCH  50  64
ATOM     64  C   UNL A   1      39.037  29.156  28.757  1.00  0.00     0.057 A 
ATOM     65  C   UNL A   1      38.151  30.042  28.126  1.00  0.00     0.134 A 
ATOM     66  C   UNL A   1      39.029  29.191  30.168  1.00  0.00     0.134 A 
ATOM     67  F   UNL A   1      38.099  30.125  26.788  1.00  0.00    -0.206 F 
ATOM     68  C   UNL A   1      37.345  30.930  28.848  1.00  0.00     0.040 A 
ATOM     69  C   UNL A   1      38.187  30.032  30.898  1.00  0.00     0.040 A 
ATOM     70  F   UNL A   1      39.901  28.490  30.904  1.00  0.00    -0.206 F 
ATOM     71  C   UNL A   1      37.361  30.927  30.238  1.00  0.00     0.006 A 
ENDBRANCH  50  64
BRANCH  51  72
ATOM     72  C   UNL A   1      44.821  25.370  33.662  1.00  0.00     0.057 A 
ATOM     73  C   UNL A   1      43.722  25.119  34.494  1.00  0.00     0.134 A 
ATOM     74  C   UNL A   1      46.076  24.985  34.169  1.00  0.00     0.134 A 
ATOM     75  F   UNL A   1      42.478  25.405  34.085  1.00  0.00    -0.206 F 
ATOM     76  C   UNL A   1      43.860  24.512  35.750  1.00  0.00     0.040 A 
ATOM     77  C   UNL A   1      46.230  24.393  35.427  1.00  0.00     0.040 A 
ATOM     78  F   UNL A   1      47.189  25.087  33.430  1.00  0.00    -0.206 F 
ATOM     79  C   UNL A   1      45.117  24.142  36.218  1.00  0.00     0.006 A 
ENDBRANCH  51  72
BRANCH  63  80
ATOM     80  C   UNL A   1      45.811  28.840  28.503  1.00  0.00     0.057 A 
ATOM     81  C   UNL A   1      46.834  29.785  28.671  1.00  0.00     0.134 A 
ATOM     82  C   UNL A   1      46.174  27.608  27.950  1.00  0.00     0.134 A 
ATOM     83  F   UNL A   1      46.610  30.948  29.296  1.00  0.00    -0.206 F 
ATOM     84  C   UNL A   1      48.145  29.537  28.253  1.00  0.00     0.040 A 
ATOM     85  C   UNL A   1      47.487  27.334  27.561  1.00  0.00     0.040 A 
ATOM     86  F   UNL A   1      45.263  26.629  27.820  1.00  0.00    -0.206 F 
ATOM     87  C   UNL A   1      48.476  28.305  27.700  1.00  0.00     0.006 A 
ENDBRANCH  63  80
ENDBRANCH  37  38
ENDBRANCH  30  32
ENDBRANCH  29  30
ENDBRANCH  28  29
ENDBRANCH   1  28
TORSDOF 15
ENDMDL
MODEL 3
REMARK VINA RESULT:     -11.5      3.904      8.363
REMARK SMILES Cc1nn(CC(=O)OCCOC(=O)c2ccc(-c3c4nc(c(-c5c(F)cccc5F)c5ccc([nH]5)c(-c5c(F)cccc5F)c5nc(c(-c6c(F)cccc6F)c6ccc3[nH]6)C=C5)C=C4)cc2)c(C)c1NC(=O)C(=O)Nc1ccc(F)cc1
REMARK SMILES IDX 9 1 8 2 6 3 7 4 5 5 4 6 1 7 2 8 3 9 70 10 68 11 69 12 71 13
REMARK SMILES IDX 72 14 73 16 74 17 75 18 76 19 77 21 78 22 83 23 79 24 82 25
REMARK SMILES IDX 80 26 81 27 10 28 11 29 12 30 13 31 14 32 15 33 67 34 16 35
REMARK SMILES IDX 66 36 17 37 18 38 19 39 60 40 20 41 65 42 59 43 61 44 21 45
REMARK SMILES IDX 64 46 58 47 57 48 22 50 48 51 31 52 47 53 32 54 35 55 46 56
REMARK SMILES IDX 62 57 33 58 34 59 45 61 63 62 36 63 23 64 24 65 29 66 25 67
REMARK SMILES IDX 26 68 28 69 30 70 27 71 49 72 50 73 55 74 51 75 52 76 54 77
REMARK SMILES IDX 56 78 53 79 37 80 38 81 43 82 39 83 40 84 42 85 44 86 41 87
REMARK H PARENT 71 15 76 20 61 49 35 60
REMARK Flexibility Score: inf
ROOT
ATOM      1  C   UNL A   1      37.405  21.451  24.633  1.00  0.00     0.274 C 
ENDROOT
BRANCH   1   2
ATOM      2  O   UNL A   1      36.753  22.736  24.687  1.00  0.00    -0.461 OA
BRANCH   2   3
ATOM      3  C   UNL A   1      35.401  22.744  24.537  1.00  0.00     0.327 C 
ATOM      4  O   UNL A   1      34.612  22.595  25.469  1.00  0.00    -0.250 OA
BRANCH   3   5
ATOM      5  C   UNL A   1      34.918  22.949  23.129  1.00  0.00     0.267 C 
BRANCH   5   6
ATOM      6  N   UNL A   1      33.932  24.001  22.933  1.00  0.00    -0.256 N 
ATOM      7  C   UNL A   1      33.317  27.458  22.512  1.00  0.00     0.071 C 
ATOM      8  C   UNL A   1      33.243  25.995  22.762  1.00  0.00     0.083 A 
ATOM      9  N   UNL A   1      34.363  25.268  22.787  1.00  0.00    -0.175 NA
ATOM     10  C   UNL A   1      32.104  25.205  23.083  1.00  0.00     0.086 A 
ATOM     11  C   UNL A   1      32.565  23.901  23.074  1.00  0.00     0.060 A 
ATOM     12  C   UNL A   1      31.887  22.579  23.151  1.00  0.00     0.069 C 
BRANCH  10  13
ATOM     13  N   UNL A   1      30.839  25.714  23.313  1.00  0.00    -0.315 N 
ATOM     14  C   UNL A   1      30.092  25.710  24.471  1.00  0.00     0.314 C 
ATOM     15  H   UNL A   1      30.409  26.142  22.536  1.00  0.00     0.170 HD
ATOM     16  O   UNL A   1      29.032  26.328  24.517  1.00  0.00    -0.263 OA
BRANCH  14  17
ATOM     17  C   UNL A   1      30.676  25.090  25.740  1.00  0.00     0.314 C 
ATOM     18  O   UNL A   1      30.544  23.880  25.930  1.00  0.00    -0.263 OA
ATOM     19  N   UNL A   1      31.399  25.814  26.665  1.00  0.00    -0.318 N 
ATOM     20  H   UNL A   1      31.423  25.417  27.565  1.00  0.00     0.170 HD
BRANCH  19  21
ATOM     21  C   UNL A   1      32.104  27.019  26.543  1.00  0.00     0.041 A 
ATOM     22  C   UNL A   1      31.407  28.156  26.981  1.00  0.00     0.029 A 
ATOM     23  C   UNL A   1      33.428  27.152  26.129  1.00  0.00     0.029 A 
ATOM     24  C   UNL A   1      32.065  29.373  27.146  1.00  0.00     0.041 A 
ATOM     25  C   UNL A   1      34.085  28.379  26.279  1.00  0.00     0.041 A 
ATOM     26  C   UNL A   1      33.408  29.466  26.816  1.00  0.00     0.123 A 
ATOM     27  F   UNL A   1      34.058  30.619  27.024  1.00  0.00    -0.207 F 
ENDBRANCH  19  21
ENDBRANCH  14  17
ENDBRANCH  10  13
ENDBRANCH   5   6
ENDBRANCH   3   5
ENDBRANCH   2   3
ENDBRANCH   1   2
BRANCH   1  28
ATOM     28  C   UNL A   1      38.515  21.336  25.675  1.00  0.00     0.275 C 
BRANCH  28  29
ATOM     29  O   UNL A   1      38.843  22.614  26.223  1.00  0.00    -0.458 OA
BRANCH  29  30
ATOM     30  C   UNL A   1      39.970  22.593  26.965  1.00  0.00     0.338 C 
ATOM     31  O   UNL A   1      40.405  21.640  27.602  1.00  0.00    -0.246 OA
BRANCH  30  32
ATOM     32  C   UNL A   1      40.584  23.913  27.030  1.00  0.00     0.060 A 
ATOM     33  C   UNL A   1      41.683  24.073  27.883  1.00  0.00     0.016 A 
ATOM     34  C   UNL A   1      39.866  25.001  26.523  1.00  0.00     0.016 A 
ATOM     35  C   UNL A   1      41.949  25.328  28.385  1.00  0.00     0.010 A 
ATOM     36  C   UNL A   1      40.120  26.248  27.043  1.00  0.00     0.010 A 
ATOM     37  C   UNL A   1      41.100  26.377  28.030  1.00  0.00    -0.014 A 
BRANCH  37  38
ATOM     38  C   UNL A   1      41.211  27.622  28.762  1.00  0.00     0.031 A 
ATOM     39  C   UNL A   1      42.310  28.518  28.342  1.00  0.00     0.074 A 
ATOM     40  C   UNL A   1      40.254  27.989  29.637  1.00  0.00     0.049 A 
ATOM     41  N   UNL A   1      43.243  29.041  29.066  1.00  0.00    -0.248 NA
ATOM     42  C   UNL A   1      42.420  28.816  26.905  1.00  0.00     0.031 C 
ATOM     43  C   UNL A   1      38.965  27.334  29.883  1.00  0.00     0.029 A 
ATOM     44  N   UNL A   1      40.173  29.119  30.386  1.00  0.00    -0.354 N 
ATOM     45  C   UNL A   1      43.960  29.871  28.210  1.00  0.00     0.074 A 
ATOM     46  C   UNL A   1      43.502  29.593  26.875  1.00  0.00     0.031 C 
ATOM     47  C   UNL A   1      38.150  28.199  30.528  1.00  0.00     0.029 A 
ATOM     48  C   UNL A   1      38.893  29.413  30.826  1.00  0.00     0.049 A 
ATOM     49  H   UNL A   1      40.956  29.680  30.597  1.00  0.00     0.167 HD
ATOM     50  C   UNL A   1      44.728  30.892  28.674  1.00  0.00     0.037 A 
ATOM     51  C   UNL A   1      38.462  30.608  31.299  1.00  0.00     0.037 A 
ATOM     52  C   UNL A   1      45.076  30.729  30.058  1.00  0.00     0.049 A 
ATOM     53  C   UNL A   1      39.659  31.413  31.658  1.00  0.00     0.074 A 
ATOM     54  C   UNL A   1      45.724  29.745  30.782  1.00  0.00     0.029 A 
ATOM     55  N   UNL A   1      44.449  31.518  30.990  1.00  0.00    -0.354 N 
ATOM     56  N   UNL A   1      40.437  31.168  32.675  1.00  0.00    -0.248 NA
ATOM     57  C   UNL A   1      40.240  32.257  30.621  1.00  0.00     0.031 C 
ATOM     58  C   UNL A   1      45.048  29.703  32.036  1.00  0.00     0.029 A 
ATOM     59  C   UNL A   1      44.056  30.683  32.005  1.00  0.00     0.049 A 
ATOM     60  H   UNL A   1      44.309  32.491  30.940  1.00  0.00     0.167 HD
ATOM     61  C   UNL A   1      41.716  31.462  32.223  1.00  0.00     0.074 A 
ATOM     62  C   UNL A   1      41.522  32.222  30.992  1.00  0.00     0.031 C 
ATOM     63  C   UNL A   1      42.813  30.822  32.723  1.00  0.00     0.037 A 
BRANCH  50  64
ATOM     64  C   UNL A   1      44.878  32.197  27.943  1.00  0.00     0.057 A 
ATOM     65  C   UNL A   1      43.816  33.113  27.925  1.00  0.00     0.134 A 
ATOM     66  C   UNL A   1      45.924  32.463  27.033  1.00  0.00     0.134 A 
ATOM     67  F   UNL A   1      42.748  32.942  28.719  1.00  0.00    -0.206 F 
ATOM     68  C   UNL A   1      43.777  34.193  27.035  1.00  0.00     0.040 A 
ATOM     69  C   UNL A   1      45.922  33.569  26.181  1.00  0.00     0.040 A 
ATOM     70  F   UNL A   1      46.945  31.615  26.852  1.00  0.00    -0.206 F 
ATOM     71  C   UNL A   1      44.832  34.423  26.159  1.00  0.00     0.006 A 
ENDBRANCH  50  64
BRANCH  51  72
ATOM     72  C   UNL A   1      37.112  31.205  31.191  1.00  0.00     0.057 A 
ATOM     73  C   UNL A   1      36.425  31.651  32.328  1.00  0.00     0.134 A 
ATOM     74  C   UNL A   1      36.556  31.577  29.953  1.00  0.00     0.134 A 
ATOM     75  F   UNL A   1      36.898  31.390  33.555  1.00  0.00    -0.206 F 
ATOM     76  C   UNL A   1      35.264  32.429  32.241  1.00  0.00     0.040 A 
ATOM     77  C   UNL A   1      35.388  32.340  29.851  1.00  0.00     0.040 A 
ATOM     78  F   UNL A   1      37.170  31.290  28.797  1.00  0.00    -0.206 F 
ATOM     79  C   UNL A   1      34.744  32.781  30.999  1.00  0.00     0.006 A 
ENDBRANCH  51  72
BRANCH  63  80
ATOM     80  C   UNL A   1      42.635  29.968  33.947  1.00  0.00     0.057 A 
ATOM     81  C   UNL A   1      42.720  30.461  35.258  1.00  0.00     0.134 A 
ATOM     82  C   UNL A   1      42.214  28.643  33.797  1.00  0.00     0.134 A 
ATOM     83  F   UNL A   1      43.003  31.748  35.498  1.00  0.00    -0.206 F 
ATOM     84  C   UNL A   1      42.454  29.656  36.369  1.00  0.00     0.040 A 
ATOM     85  C   UNL A   1      41.910  27.838  34.898  1.00  0.00     0.040 A 
ATOM     86  F   UNL A   1      42.044  28.120  32.572  1.00  0.00    -0.206 F 
ATOM     87  C   UNL A   1      42.042  28.340  36.190  1.00  0.00     0.006 A 
ENDBRANCH  63  80
ENDBRANCH  37  38
ENDBRANCH  30  32
ENDBRANCH  29  30
ENDBRANCH  28  29
ENDBRANCH   1  28
TORSDOF 15
ENDMDL
