MODEL 1
REMARK VINA RESULT:     -12.6      0.000      0.000
REMARK SMILES Cc1cccc(S(=O)(=O)Nc2cnc(N(C)Cc3ccccc3)c(C(=O)OCCOC(=O)c3ccc(-c4c5nc(c(-c6c(F)cccc6F)c6ccc([nH]6)c(-c6c(F)cccc6F)c6nc(c(-c7c(F)cccc7F)c7ccc4[nH]7)C=C6)C=C5)cc3)c2)c1
REMARK SMILES IDX 28 1 27 2 25 3 26 4 24 5 11 6 12 7 87 8 13 9 14 10 10 11
REMARK SMILES IDX 7 13 8 14 9 15 6 16 1 17 2 18 3 19 88 20 4 21 5 22 15 23
REMARK SMILES IDX 16 24 17 25 18 26 19 27 23 28 20 29 22 30 21 31 29 32 30 33
REMARK SMILES IDX 31 34 32 35 33 36 34 37 86 38 35 39 85 40 36 41 37 42 38 43
REMARK SMILES IDX 79 44 39 45 84 46 78 47 80 48 40 49 83 50 77 51 76 52 41 54
REMARK SMILES IDX 67 55 50 56 66 57 51 58 54 59 65 60 81 61 52 62 53 63 64 65
REMARK SMILES IDX 82 66 55 67 42 68 43 69 48 70 44 71 45 72 47 73 49 74 46 75
REMARK SMILES IDX 68 76 69 77 74 78 70 79 71 80 73 81 75 82 72 83 56 84 57 85
REMARK SMILES IDX 62 86 58 87 59 88 61 89 63 90 60 91
REMARK H PARENT 10 12 80 53 54 64
REMARK Flexibility Score: inf
ROOT
ATOM      1  C   UNL A   1      36.728  23.881  25.569  1.00  0.00     0.275 C 
ENDROOT
BRANCH   1   2
ATOM      2  O   UNL A   1      35.247  23.891  25.497  1.00  0.00    -0.458 OA
BRANCH   2   3
ATOM      3  C   UNL A   1      34.283  23.680  26.465  1.00  0.00     0.342 C 
ATOM      4  O   UNL A   1      34.448  22.958  27.429  1.00  0.00    -0.246 OA
BRANCH   3   5
ATOM      5  C   UNL A   1      32.939  24.449  26.096  1.00  0.00     0.104 A 
ATOM      6  C   UNL A   1      32.074  26.702  26.318  1.00  0.00     0.068 A 
ATOM      7  C   UNL A   1      30.831  26.142  26.098  1.00  0.00     0.140 A 
ATOM      8  C   UNL A   1      33.103  25.816  26.485  1.00  0.00     0.048 A 
ATOM      9  N   UNL A   1      30.627  24.875  25.682  1.00  0.00    -0.236 NA
ATOM     10  C   UNL A   1      31.671  24.054  25.397  1.00  0.00     0.143 A 
BRANCH   6  11
ATOM     11  N   UNL A   1      32.143  28.113  26.384  1.00  0.00    -0.278 N 
ATOM     12  H   UNL A   1      32.179  28.479  27.297  1.00  0.00     0.180 HD
BRANCH  11  13
ATOM     13  S   UNL A   1      32.171  29.259  25.177  1.00  0.00     0.261 S 
ATOM     14  O   UNL A   1      33.179  28.837  24.229  1.00  0.00    -0.201 OA
ATOM     15  O   UNL A   1      32.390  30.467  25.959  1.00  0.00    -0.201 OA
BRANCH  13  16
ATOM     16  C   UNL A   1      30.695  29.622  24.224  1.00  0.00     0.088 A 
ATOM     17  C   UNL A   1      27.698  31.876  23.095  1.00  0.00     0.044 C 
ATOM     18  C   UNL A   1      28.694  30.771  23.372  1.00  0.00    -0.050 A 
ATOM     19  C   UNL A   1      28.400  29.666  22.578  1.00  0.00     0.003 A 
ATOM     20  C   UNL A   1      29.834  30.730  24.255  1.00  0.00     0.025 A 
ATOM     21  C   UNL A   1      29.231  28.575  22.560  1.00  0.00     0.002 A 
ATOM     22  C   UNL A   1      30.368  28.563  23.356  1.00  0.00     0.022 A 
ENDBRANCH  13  16
ENDBRANCH  11  13
ENDBRANCH   6  11
BRANCH  10  23
ATOM     23  N   UNL A   1      31.312  23.257  24.240  1.00  0.00    -0.355 N 
ATOM     24  C   UNL A   1      30.582  24.124  23.255  1.00  0.00     0.145 C 
BRANCH  23  25
ATOM     25  C   UNL A   1      31.402  21.700  23.527  1.00  0.00     0.153 C 
BRANCH  25  26
ATOM     26  C   UNL A   1      32.641  20.533  23.530  1.00  0.00    -0.029 A 
ATOM     27  C   UNL A   1      32.324  18.852  22.791  1.00  0.00     0.005 A 
ATOM     28  C   UNL A   1      34.168  20.774  24.498  1.00  0.00     0.005 A 
ATOM     29  C   UNL A   1      33.329  17.346  23.272  1.00  0.00     0.000 A 
ATOM     30  C   UNL A   1      35.315  19.371  24.862  1.00  0.00     0.000 A 
ATOM     31  C   UNL A   1      34.845  17.606  24.349  1.00  0.00     0.000 A 
ENDBRANCH  25  26
ENDBRANCH  23  25
ENDBRANCH  10  23
ENDBRANCH   3   5
ENDBRANCH   2   3
ENDBRANCH   1   2
BRANCH   1  32
ATOM     32  C   UNL A   1      37.684  22.646  25.715  1.00  0.00     0.275 C 
BRANCH  32  33
ATOM     33  O   UNL A   1      38.824  22.598  26.587  1.00  0.00    -0.458 OA
BRANCH  33  34
ATOM     34  C   UNL A   1      39.880  21.791  26.441  1.00  0.00     0.338 C 
ATOM     35  O   UNL A   1      39.828  20.665  25.964  1.00  0.00    -0.246 OA
BRANCH  34  36
ATOM     36  C   UNL A   1      41.156  22.411  26.764  1.00  0.00     0.060 A 
ATOM     37  C   UNL A   1      41.452  22.492  28.109  1.00  0.00     0.016 A 
ATOM     38  C   UNL A   1      42.113  22.846  25.890  1.00  0.00     0.016 A 
ATOM     39  C   UNL A   1      42.646  23.053  28.646  1.00  0.00     0.010 A 
ATOM     40  C   UNL A   1      43.301  23.279  26.477  1.00  0.00     0.010 A 
ATOM     41  C   UNL A   1      43.336  23.807  27.791  1.00  0.00    -0.014 A 
BRANCH  41  42
ATOM     42  C   UNL A   1      43.290  25.477  28.167  1.00  0.00     0.031 A 
ATOM     43  C   UNL A   1      45.134  25.531  28.423  1.00  0.00     0.074 A 
ATOM     44  C   UNL A   1      42.077  26.898  27.881  1.00  0.00     0.049 A 
ATOM     45  N   UNL A   1      45.896  26.364  27.774  1.00  0.00    -0.248 NA
ATOM     46  C   UNL A   1      46.048  24.716  29.246  1.00  0.00     0.031 C 
ATOM     47  C   UNL A   1      42.088  28.144  26.577  1.00  0.00     0.029 A 
ATOM     48  N   UNL A   1      40.660  27.261  28.079  1.00  0.00    -0.354 N 
ATOM     49  C   UNL A   1      47.229  26.212  27.891  1.00  0.00     0.074 A 
ATOM     50  C   UNL A   1      47.290  25.087  28.796  1.00  0.00     0.031 C 
ATOM     51  C   UNL A   1      41.062  28.969  26.582  1.00  0.00     0.029 A 
ATOM     52  C   UNL A   1      40.389  28.615  27.754  1.00  0.00     0.049 A 
ATOM     53  H   UNL A   1      39.976  26.630  28.403  1.00  0.00     0.167 HD
ATOM     54  C   UNL A   1      47.917  27.061  27.052  1.00  0.00     0.037 A 
ATOM     55  C   UNL A   1      40.154  29.496  28.740  1.00  0.00     0.037 A 
ATOM     56  C   UNL A   1      47.087  28.289  26.799  1.00  0.00     0.049 A 
ATOM     57  C   UNL A   1      41.519  30.199  29.051  1.00  0.00     0.074 A 
ATOM     58  C   UNL A   1      46.475  28.899  25.714  1.00  0.00     0.029 A 
ATOM     59  N   UNL A   1      46.588  28.962  27.917  1.00  0.00    -0.354 N 
ATOM     60  N   UNL A   1      42.683  30.013  28.433  1.00  0.00    -0.248 NA
ATOM     61  C   UNL A   1      41.618  31.305  29.989  1.00  0.00     0.031 C 
ATOM     62  C   UNL A   1      45.535  29.878  26.221  1.00  0.00     0.029 A 
ATOM     63  C   UNL A   1      45.597  29.896  27.611  1.00  0.00     0.049 A 
ATOM     64  H   UNL A   1      46.905  28.794  28.833  1.00  0.00     0.167 HD
ATOM     65  C   UNL A   1      43.676  30.822  28.947  1.00  0.00     0.074 A 
ATOM     66  C   UNL A   1      42.895  31.695  29.820  1.00  0.00     0.031 C 
ATOM     67  C   UNL A   1      45.045  30.734  28.707  1.00  0.00     0.037 A 
BRANCH  54  68
ATOM     68  C   UNL A   1      49.251  26.865  26.334  1.00  0.00     0.057 A 
ATOM     69  C   UNL A   1      50.477  26.918  27.048  1.00  0.00     0.134 A 
ATOM     70  C   UNL A   1      49.418  26.798  24.942  1.00  0.00     0.134 A 
ATOM     71  F   UNL A   1      50.507  26.946  28.387  1.00  0.00    -0.206 F 
ATOM     72  C   UNL A   1      51.743  26.955  26.435  1.00  0.00     0.040 A 
ATOM     73  C   UNL A   1      50.685  26.838  24.311  1.00  0.00     0.040 A 
ATOM     74  F   UNL A   1      48.359  26.691  24.133  1.00  0.00    -0.206 F 
ATOM     75  C   UNL A   1      51.854  26.927  25.057  1.00  0.00     0.006 A 
ENDBRANCH  54  68
BRANCH  55  76
ATOM     76  C   UNL A   1      39.017  28.797  29.474  1.00  0.00     0.057 A 
ATOM     77  C   UNL A   1      39.353  28.395  30.826  1.00  0.00     0.134 A 
ATOM     78  C   UNL A   1      37.685  29.137  29.270  1.00  0.00     0.134 A 
ATOM     79  F   UNL A   1      40.623  28.059  31.128  1.00  0.00    -0.206 F 
ATOM     80  C   UNL A   1      38.528  28.694  31.921  1.00  0.00     0.040 A 
ATOM     81  C   UNL A   1      36.806  29.283  30.364  1.00  0.00     0.040 A 
ATOM     82  F   UNL A   1      37.256  29.512  28.059  1.00  0.00    -0.206 F 
ATOM     83  C   UNL A   1      37.252  29.177  31.688  1.00  0.00     0.006 A 
ENDBRANCH  55  76
BRANCH  67  84
ATOM     84  C   UNL A   1      46.089  31.497  29.549  1.00  0.00     0.057 A 
ATOM     85  C   UNL A   1      46.661  31.002  30.729  1.00  0.00     0.134 A 
ATOM     86  C   UNL A   1      46.636  32.742  29.139  1.00  0.00     0.134 A 
ATOM     87  F   UNL A   1      46.516  29.725  31.104  1.00  0.00    -0.206 F 
ATOM     88  C   UNL A   1      47.497  31.765  31.552  1.00  0.00     0.040 A 
ATOM     89  C   UNL A   1      47.581  33.455  29.885  1.00  0.00     0.040 A 
ATOM     90  F   UNL A   1      46.314  33.326  27.976  1.00  0.00    -0.206 F 
ATOM     91  C   UNL A   1      47.960  33.001  31.134  1.00  0.00     0.006 A 
ENDBRANCH  67  84
ENDBRANCH  41  42
ENDBRANCH  34  36
ENDBRANCH  33  34
ENDBRANCH  32  33
ENDBRANCH   1  32
TORSDOF 17
ENDMDL
MODEL 2
REMARK VINA RESULT:     -12.5      1.536      2.471
REMARK SMILES Cc1cccc(S(=O)(=O)Nc2cnc(N(C)Cc3ccccc3)c(C(=O)OCCOC(=O)c3ccc(-c4c5nc(c(-c6c(F)cccc6F)c6ccc([nH]6)c(-c6c(F)cccc6F)c6nc(c(-c7c(F)cccc7F)c7ccc4[nH]7)C=C6)C=C5)cc3)c2)c1
REMARK SMILES IDX 28 1 27 2 25 3 26 4 24 5 11 6 12 7 87 8 13 9 14 10 10 11
REMARK SMILES IDX 7 13 8 14 9 15 6 16 1 17 2 18 3 19 88 20 4 21 5 22 15 23
REMARK SMILES IDX 16 24 17 25 18 26 19 27 23 28 20 29 22 30 21 31 29 32 30 33
REMARK SMILES IDX 31 34 32 35 33 36 34 37 86 38 35 39 85 40 36 41 37 42 38 43
REMARK SMILES IDX 79 44 39 45 84 46 78 47 80 48 40 49 83 50 77 51 76 52 41 54
REMARK SMILES IDX 67 55 50 56 66 57 51 58 54 59 65 60 81 61 52 62 53 63 64 65
REMARK SMILES IDX 82 66 55 67 42 68 43 69 48 70 44 71 45 72 47 73 49 74 46 75
REMARK SMILES IDX 68 76 69 77 74 78 70 79 71 80 73 81 75 82 72 83 56 84 57 85
REMARK SMILES IDX 62 86 58 87 59 88 61 89 63 90 60 91
REMARK H PARENT 10 12 80 53 54 64
REMARK Flexibility Score: inf
ROOT
ATOM      1  C   UNL A   1      37.259  23.763  26.111  1.00  0.00     0.275 C 
ENDROOT
BRANCH   1   2
ATOM      2  O   UNL A   1      35.852  23.787  25.645  1.00  0.00    -0.458 OA
BRANCH   2   3
ATOM      3  C   UNL A   1      34.658  23.771  26.341  1.00  0.00     0.342 C 
ATOM      4  O   UNL A   1      34.473  23.102  27.339  1.00  0.00    -0.246 OA
BRANCH   3   5
ATOM      5  C   UNL A   1      33.572  24.680  25.615  1.00  0.00     0.104 A 
ATOM      6  C   UNL A   1      33.007  27.036  25.536  1.00  0.00     0.068 A 
ATOM      7  C   UNL A   1      31.793  26.628  25.021  1.00  0.00     0.140 A 
ATOM      8  C   UNL A   1      33.825  26.038  25.990  1.00  0.00     0.048 A 
ATOM      9  N   UNL A   1      31.522  25.373  24.606  1.00  0.00    -0.236 NA
ATOM     10  C   UNL A   1      32.478  24.407  24.625  1.00  0.00     0.143 A 
BRANCH   6  11
ATOM     11  N   UNL A   1      33.256  28.428  25.573  1.00  0.00    -0.278 N 
ATOM     12  H   UNL A   1      33.935  28.739  24.931  1.00  0.00     0.180 HD
BRANCH  11  13
ATOM     13  S   UNL A   1      32.597  29.628  26.519  1.00  0.00     0.261 S 
ATOM     14  O   UNL A   1      31.924  28.967  27.615  1.00  0.00    -0.201 OA
ATOM     15  O   UNL A   1      31.809  30.348  25.529  1.00  0.00    -0.201 OA
BRANCH  13  16
ATOM     16  C   UNL A   1      33.637  30.895  27.248  1.00  0.00     0.088 A 
ATOM     17  C   UNL A   1      36.987  32.276  28.735  1.00  0.00     0.044 C 
ATOM     18  C   UNL A   1      35.566  32.018  28.281  1.00  0.00    -0.050 A 
ATOM     19  C   UNL A   1      34.810  33.176  28.432  1.00  0.00     0.003 A 
ATOM     20  C   UNL A   1      34.955  30.834  27.728  1.00  0.00     0.025 A 
ATOM     21  C   UNL A   1      33.517  33.232  27.978  1.00  0.00     0.002 A 
ATOM     22  C   UNL A   1      32.948  32.116  27.381  1.00  0.00     0.022 A 
ENDBRANCH  13  16
ENDBRANCH  11  13
ENDBRANCH   6  11
BRANCH  10  23
ATOM     23  N   UNL A   1      32.311  23.588  23.440  1.00  0.00    -0.355 N 
ATOM     24  C   UNL A   1      32.412  24.461  22.223  1.00  0.00     0.145 C 
BRANCH  23  25
ATOM     25  C   UNL A   1      32.057  21.994  22.861  1.00  0.00     0.153 C 
BRANCH  25  26
ATOM     26  C   UNL A   1      32.634  20.492  23.417  1.00  0.00    -0.029 A 
ATOM     27  C   UNL A   1      33.992  20.441  24.692  1.00  0.00     0.005 A 
ATOM     28  C   UNL A   1      32.173  18.934  22.587  1.00  0.00     0.005 A 
ATOM     29  C   UNL A   1      35.100  18.947  24.908  1.00  0.00     0.000 A 
ATOM     30  C   UNL A   1      33.102  17.365  22.888  1.00  0.00     0.000 A 
ATOM     31  C   UNL A   1      34.661  17.380  23.971  1.00  0.00     0.000 A 
ENDBRANCH  25  26
ENDBRANCH  23  25
ENDBRANCH  10  23
ENDBRANCH   3   5
ENDBRANCH   2   3
ENDBRANCH   1   2
BRANCH   1  32
ATOM     32  C   UNL A   1      38.336  22.643  25.888  1.00  0.00     0.275 C 
BRANCH  32  33
ATOM     33  O   UNL A   1      39.350  22.288  26.841  1.00  0.00    -0.458 OA
BRANCH  33  34
ATOM     34  C   UNL A   1      40.423  21.531  26.587  1.00  0.00     0.338 C 
ATOM     35  O   UNL A   1      40.374  20.390  26.149  1.00  0.00    -0.246 OA
BRANCH  34  36
ATOM     36  C   UNL A   1      41.693  22.224  26.738  1.00  0.00     0.060 A 
ATOM     37  C   UNL A   1      42.169  22.315  28.030  1.00  0.00     0.016 A 
ATOM     38  C   UNL A   1      42.491  22.720  25.745  1.00  0.00     0.016 A 
ATOM     39  C   UNL A   1      43.391  22.944  28.403  1.00  0.00     0.010 A 
ATOM     40  C   UNL A   1      43.723  23.220  26.167  1.00  0.00     0.010 A 
ATOM     41  C   UNL A   1      43.910  23.741  27.471  1.00  0.00    -0.014 A 
BRANCH  41  42
ATOM     42  C   UNL A   1      43.820  25.404  27.872  1.00  0.00     0.031 A 
ATOM     43  C   UNL A   1      45.669  25.518  28.068  1.00  0.00     0.074 A 
ATOM     44  C   UNL A   1      42.551  26.786  27.648  1.00  0.00     0.049 A 
ATOM     45  N   UNL A   1      46.379  26.385  27.406  1.00  0.00    -0.248 NA
ATOM     46  C   UNL A   1      46.637  24.724  28.849  1.00  0.00     0.031 C 
ATOM     47  C   UNL A   1      42.476  28.049  26.362  1.00  0.00     0.029 A 
ATOM     48  N   UNL A   1      41.130  27.097  27.898  1.00  0.00    -0.354 N 
ATOM     49  C   UNL A   1      47.721  26.279  27.477  1.00  0.00     0.074 A 
ATOM     50  C   UNL A   1      47.849  25.143  28.364  1.00  0.00     0.031 C 
ATOM     51  C   UNL A   1      41.422  28.838  26.413  1.00  0.00     0.029 A 
ATOM     52  C   UNL A   1      40.801  28.445  27.601  1.00  0.00     0.049 A 
ATOM     53  H   UNL A   1      40.479  26.438  28.235  1.00  0.00     0.167 HD
ATOM     54  C   UNL A   1      48.351  27.162  26.628  1.00  0.00     0.037 A 
ATOM     55  C   UNL A   1      40.570  29.304  28.607  1.00  0.00     0.037 A 
ATOM     56  C   UNL A   1      47.471  28.363  26.420  1.00  0.00     0.049 A 
ATOM     57  C   UNL A   1      41.920  30.049  28.883  1.00  0.00     0.074 A 
ATOM     58  C   UNL A   1      46.803  28.967  25.366  1.00  0.00     0.029 A 
ATOM     59  N   UNL A   1      46.987  29.004  27.564  1.00  0.00    -0.354 N 
ATOM     60  N   UNL A   1      43.069  29.913  28.224  1.00  0.00    -0.248 NA
ATOM     61  C   UNL A   1      42.013  31.146  29.833  1.00  0.00     0.031 C 
ATOM     62  C   UNL A   1      45.847  29.905  25.918  1.00  0.00     0.029 A 
ATOM     63  C   UNL A   1      45.956  29.907  27.305  1.00  0.00     0.049 A 
ATOM     64  H   UNL A   1      47.340  28.835  28.467  1.00  0.00     0.167 HD
ATOM     65  C   UNL A   1      44.050  30.748  28.717  1.00  0.00     0.074 A 
ATOM     66  C   UNL A   1      43.269  31.581  29.628  1.00  0.00     0.031 C 
ATOM     67  C   UNL A   1      45.412  30.711  28.430  1.00  0.00     0.037 A 
BRANCH  54  68
ATOM     68  C   UNL A   1      49.666  27.021  25.864  1.00  0.00     0.057 A 
ATOM     69  C   UNL A   1      50.912  27.137  26.532  1.00  0.00     0.134 A 
ATOM     70  C   UNL A   1      49.785  26.951  24.467  1.00  0.00     0.134 A 
ATOM     71  F   UNL A   1      50.989  27.177  27.870  1.00  0.00    -0.206 F 
ATOM     72  C   UNL A   1      52.152  27.227  25.874  1.00  0.00     0.040 A 
ATOM     73  C   UNL A   1      51.025  27.044  23.790  1.00  0.00     0.040 A 
ATOM     74  F   UNL A   1      48.704  26.788  23.698  1.00  0.00    -0.206 F 
ATOM     75  C   UNL A   1      52.216  27.193  24.493  1.00  0.00     0.006 A 
ENDBRANCH  54  68
BRANCH  55  76
ATOM     76  C   UNL A   1      39.483  28.556  29.368  1.00  0.00     0.057 A 
ATOM     77  C   UNL A   1      39.843  28.230  30.734  1.00  0.00     0.134 A 
ATOM     78  C   UNL A   1      38.131  28.796  29.153  1.00  0.00     0.134 A 
ATOM     79  F   UNL A   1      41.133  27.994  31.047  1.00  0.00    -0.206 F 
ATOM     80  C   UNL A   1      38.998  28.513  31.818  1.00  0.00     0.040 A 
ATOM     81  C   UNL A   1      37.242  28.922  30.241  1.00  0.00     0.040 A 
ATOM     82  F   UNL A   1      37.679  29.095  27.929  1.00  0.00    -0.206 F 
ATOM     83  C   UNL A   1      37.692  28.897  31.568  1.00  0.00     0.006 A 
ENDBRANCH  55  76
BRANCH  67  84
ATOM     84  C   UNL A   1      46.457  31.498  29.249  1.00  0.00     0.057 A 
ATOM     85  C   UNL A   1      46.874  31.144  30.539  1.00  0.00     0.134 A 
ATOM     86  C   UNL A   1      47.165  32.607  28.715  1.00  0.00     0.134 A 
ATOM     87  F   UNL A   1      46.564  29.961  31.084  1.00  0.00    -0.206 F 
ATOM     88  C   UNL A   1      47.715  31.948  31.319  1.00  0.00     0.040 A 
ATOM     89  C   UNL A   1      48.115  33.339  29.436  1.00  0.00     0.040 A 
ATOM     90  F   UNL A   1      47.004  33.028  27.452  1.00  0.00    -0.206 F 
ATOM     91  C   UNL A   1      48.339  33.054  30.769  1.00  0.00     0.006 A 
ENDBRANCH  67  84
ENDBRANCH  41  42
ENDBRANCH  34  36
ENDBRANCH  33  34
ENDBRANCH  32  33
ENDBRANCH   1  32
TORSDOF 17
ENDMDL
MODEL 3
REMARK VINA RESULT:     -12.3      4.156      9.896
REMARK SMILES Cc1cccc(S(=O)(=O)Nc2cnc(N(C)Cc3ccccc3)c(C(=O)OCCOC(=O)c3ccc(-c4c5nc(c(-c6c(F)cccc6F)c6ccc([nH]6)c(-c6c(F)cccc6F)c6nc(c(-c7c(F)cccc7F)c7ccc4[nH]7)C=C6)C=C5)cc3)c2)c1
REMARK SMILES IDX 28 1 27 2 25 3 26 4 24 5 11 6 12 7 87 8 13 9 14 10 10 11
REMARK SMILES IDX 7 13 8 14 9 15 6 16 1 17 2 18 3 19 88 20 4 21 5 22 15 23
REMARK SMILES IDX 16 24 17 25 18 26 19 27 23 28 20 29 22 30 21 31 29 32 30 33
REMARK SMILES IDX 31 34 32 35 33 36 34 37 86 38 35 39 85 40 36 41 37 42 38 43
REMARK SMILES IDX 79 44 39 45 84 46 78 47 80 48 40 49 83 50 77 51 76 52 41 54
REMARK SMILES IDX 67 55 50 56 66 57 51 58 54 59 65 60 81 61 52 62 53 63 64 65
REMARK SMILES IDX 82 66 55 67 42 68 43 69 48 70 44 71 45 72 47 73 49 74 46 75
REMARK SMILES IDX 68 76 69 77 74 78 70 79 71 80 73 81 75 82 72 83 56 84 57 85
REMARK SMILES IDX 62 86 58 87 59 88 61 89 63 90 60 91
REMARK H PARENT 10 12 80 53 54 64
REMARK Flexibility Score: inf
ROOT
ATOM      1  C   UNL A   1      33.888  29.252  26.610  1.00  0.00     0.275 C 
ENDROOT
BRANCH   1   2
ATOM      2  O   UNL A   1      33.366  27.922  27.006  1.00  0.00    -0.458 OA
BRANCH   2   3
ATOM      3  C   UNL A   1      32.102  27.371  26.913  1.00  0.00     0.342 C 
ATOM      4  O   UNL A   1      31.213  27.595  27.711  1.00  0.00    -0.246 OA
BRANCH   3   5
ATOM      5  C   UNL A   1      32.014  26.372  25.677  1.00  0.00     0.104 A 
ATOM      6  C   UNL A   1      32.316  23.997  25.300  1.00  0.00     0.068 A 
ATOM      7  C   UNL A   1      32.417  24.321  23.962  1.00  0.00     0.140 A 
ATOM      8  C   UNL A   1      32.286  25.055  26.167  1.00  0.00     0.048 A 
ATOM      9  N   UNL A   1      32.123  25.532  23.445  1.00  0.00    -0.236 NA
ATOM     10  C   UNL A   1      31.646  26.533  24.231  1.00  0.00     0.143 A 
BRANCH   6  11
ATOM     11  N   UNL A   1      32.293  22.621  25.630  1.00  0.00    -0.278 N 
ATOM     12  H   UNL A   1      31.411  22.282  25.907  1.00  0.00     0.180 HD
BRANCH  11  13
ATOM     13  S   UNL A   1      33.505  21.481  25.631  1.00  0.00     0.261 S 
ATOM     14  O   UNL A   1      33.670  21.054  27.003  1.00  0.00    -0.201 OA
ATOM     15  O   UNL A   1      34.574  22.225  24.982  1.00  0.00    -0.201 OA
BRANCH  13  16
ATOM     16  C   UNL A   1      33.358  19.988  24.647  1.00  0.00     0.088 A 
ATOM     17  C   UNL A   1      34.269  16.304  23.679  1.00  0.00     0.044 C 
ATOM     18  C   UNL A   1      33.761  17.727  23.766  1.00  0.00    -0.050 A 
ATOM     19  C   UNL A   1      32.813  17.947  22.772  1.00  0.00     0.003 A 
ATOM     20  C   UNL A   1      34.082  18.787  24.691  1.00  0.00     0.025 A 
ATOM     21  C   UNL A   1      32.116  19.127  22.717  1.00  0.00     0.002 A 
ATOM     22  C   UNL A   1      32.373  20.122  23.649  1.00  0.00     0.022 A 
ENDBRANCH  13  16
ENDBRANCH  11  13
ENDBRANCH   6  11
BRANCH  10  23
ATOM     23  N   UNL A   1      30.645  27.259  23.474  1.00  0.00    -0.355 N 
ATOM     24  C   UNL A   1      31.092  27.363  22.045  1.00  0.00     0.145 C 
BRANCH  23  25
ATOM     25  C   UNL A   1      29.123  28.044  23.555  1.00  0.00     0.153 C 
BRANCH  25  26
ATOM     26  C   UNL A   1      28.637  29.604  23.077  1.00  0.00    -0.029 A 
ATOM     27  C   UNL A   1      27.841  29.850  21.410  1.00  0.00     0.005 A 
ATOM     28  C   UNL A   1      29.141  31.084  24.018  1.00  0.00     0.005 A 
ATOM     29  C   UNL A   1      27.840  31.510  20.541  1.00  0.00     0.000 A 
ATOM     30  C   UNL A   1      29.000  32.781  23.301  1.00  0.00     0.000 A 
ATOM     31  C   UNL A   1      28.453  33.005  21.498  1.00  0.00     0.000 A 
ENDBRANCH  25  26
ENDBRANCH  23  25
ENDBRANCH  10  23
ENDBRANCH   3   5
ENDBRANCH   2   3
ENDBRANCH   1   2
BRANCH   1  32
ATOM     32  C   UNL A   1      33.716  30.623  27.354  1.00  0.00     0.275 C 
BRANCH  32  33
ATOM     33  O   UNL A   1      34.783  31.547  27.616  1.00  0.00    -0.458 OA
BRANCH  33  34
ATOM     34  C   UNL A   1      34.654  32.733  28.219  1.00  0.00     0.338 C 
ATOM     35  O   UNL A   1      33.653  33.434  28.154  1.00  0.00    -0.246 OA
BRANCH  34  36
ATOM     36  C   UNL A   1      35.759  33.082  29.098  1.00  0.00     0.060 A 
ATOM     37  C   UNL A   1      36.930  33.443  28.464  1.00  0.00     0.016 A 
ATOM     38  C   UNL A   1      35.741  33.163  30.462  1.00  0.00     0.016 A 
ATOM     39  C   UNL A   1      38.129  33.826  29.129  1.00  0.00     0.010 A 
ATOM     40  C   UNL A   1      36.910  33.652  31.044  1.00  0.00     0.010 A 
ATOM     41  C   UNL A   1      38.174  33.503  30.420  1.00  0.00    -0.014 A 
BRANCH  41  42
ATOM     42  C   UNL A   1      39.285  32.248  30.770  1.00  0.00     0.031 A 
ATOM     43  C   UNL A   1      40.101  33.261  32.103  1.00  0.00     0.074 A 
ATOM     44  C   UNL A   1      39.370  30.386  30.458  1.00  0.00     0.049 A 
ATOM     45  N   UNL A   1      40.224  32.824  33.322  1.00  0.00    -0.248 NA
ATOM     46  C   UNL A   1      40.657  34.628  32.113  1.00  0.00     0.031 C 
ATOM     47  C   UNL A   1      38.927  29.036  31.570  1.00  0.00     0.029 A 
ATOM     48  N   UNL A   1      39.262  29.394  29.371  1.00  0.00    -0.354 N 
ATOM     49  C   UNL A   1      40.666  33.689  34.256  1.00  0.00     0.074 A 
ATOM     50  C   UNL A   1      40.866  34.871  33.447  1.00  0.00     0.031 C 
ATOM     51  C   UNL A   1      39.014  27.830  31.048  1.00  0.00     0.029 A 
ATOM     52  C   UNL A   1      39.578  28.077  29.795  1.00  0.00     0.049 A 
ATOM     53  H   UNL A   1      38.998  29.622  28.449  1.00  0.00     0.167 HD
ATOM     54  C   UNL A   1      40.620  33.147  35.521  1.00  0.00     0.037 A 
ATOM     55  C   UNL A   1      40.737  27.520  29.408  1.00  0.00     0.037 A 
ATOM     56  C   UNL A   1      40.756  31.653  35.426  1.00  0.00     0.049 A 
ATOM     57  C   UNL A   1      41.766  27.774  30.562  1.00  0.00     0.074 A 
ATOM     58  C   UNL A   1      39.983  30.539  35.716  1.00  0.00     0.029 A 
ATOM     59  N   UNL A   1      41.837  31.157  34.692  1.00  0.00    -0.354 N 
ATOM     60  N   UNL A   1      41.540  28.374  31.729  1.00  0.00    -0.248 NA
ATOM     61  C   UNL A   1      43.102  27.203  30.540  1.00  0.00     0.031 C 
ATOM     62  C   UNL A   1      40.578  29.395  35.057  1.00  0.00     0.029 A 
ATOM     63  C   UNL A   1      41.735  29.797  34.397  1.00  0.00     0.049 A 
ATOM     64  H   UNL A   1      42.598  31.714  34.411  1.00  0.00     0.167 HD
ATOM     65  C   UNL A   1      42.668  28.400  32.523  1.00  0.00     0.074 A 
ATOM     66  C   UNL A   1      43.560  27.527  31.763  1.00  0.00     0.031 C 
ATOM     67  C   UNL A   1      42.862  29.136  33.690  1.00  0.00     0.037 A 
BRANCH  54  68
ATOM     68  C   UNL A   1      40.361  33.819  36.869  1.00  0.00     0.057 A 
ATOM     69  C   UNL A   1      41.416  34.014  37.798  1.00  0.00     0.134 A 
ATOM     70  C   UNL A   1      39.095  34.131  37.386  1.00  0.00     0.134 A 
ATOM     71  F   UNL A   1      42.695  33.802  37.461  1.00  0.00    -0.206 F 
ATOM     72  C   UNL A   1      41.224  34.430  39.129  1.00  0.00     0.040 A 
ATOM     73  C   UNL A   1      38.886  34.547  38.724  1.00  0.00     0.040 A 
ATOM     74  F   UNL A   1      38.004  34.048  36.617  1.00  0.00    -0.206 F 
ATOM     75  C   UNL A   1      39.952  34.689  39.605  1.00  0.00     0.006 A 
ENDBRANCH  54  68
BRANCH  55  76
ATOM     76  C   UNL A   1      40.630  27.674  27.897  1.00  0.00     0.057 A 
ATOM     77  C   UNL A   1      41.591  28.603  27.333  1.00  0.00     0.134 A 
ATOM     78  C   UNL A   1      40.273  26.617  27.068  1.00  0.00     0.134 A 
ATOM     79  F   UNL A   1      42.011  29.655  28.064  1.00  0.00    -0.206 F 
ATOM     80  C   UNL A   1      42.391  28.272  26.229  1.00  0.00     0.040 A 
ATOM     81  C   UNL A   1      40.976  26.374  25.869  1.00  0.00     0.040 A 
ATOM     82  F   UNL A   1      39.385  25.703  27.477  1.00  0.00    -0.206 F 
ATOM     83  C   UNL A   1      42.102  27.126  25.510  1.00  0.00     0.006 A 
ENDBRANCH  55  76
BRANCH  67  84
ATOM     84  C   UNL A   1      44.251  29.317  34.339  1.00  0.00     0.057 A 
ATOM     85  C   UNL A   1      44.692  28.606  35.463  1.00  0.00     0.134 A 
ATOM     86  C   UNL A   1      45.247  30.161  33.781  1.00  0.00     0.134 A 
ATOM     87  F   UNL A   1      44.027  27.545  35.936  1.00  0.00    -0.206 F 
ATOM     88  C   UNL A   1      45.896  28.885  36.119  1.00  0.00     0.040 A 
ATOM     89  C   UNL A   1      46.513  30.345  34.350  1.00  0.00     0.040 A 
ATOM     90  F   UNL A   1      45.068  30.833  32.634  1.00  0.00    -0.206 F 
ATOM     91  C   UNL A   1      46.814  29.762  35.566  1.00  0.00     0.006 A 
ENDBRANCH  67  84
ENDBRANCH  41  42
ENDBRANCH  34  36
ENDBRANCH  33  34
ENDBRANCH  32  33
ENDBRANCH   1  32
TORSDOF 17
ENDMDL
