MODEL 1
REMARK VINA RESULT:     -11.6      0.000      0.000
REMARK SMILES Cc1ccc(C(=O)OCCOC(=O)c2ccc(-c3c4nc(c(-c5c(F)cccc5F)c5ccc([nH]5)c(-c5c(F)cccc5F)c5nc(c(-c6c(F)cccc6F)c6ccc3[nH]6)C=C5)C=C4)cc2)cc1S(=O)(=O)N(C)[C@H]1CCSC1
REMARK SMILES IDX 9 1 8 2 6 3 7 4 5 5 1 6 2 7 3 8 69 9 4 10 68 11 70 12 71 13
REMARK SMILES IDX 72 14 73 15 74 16 75 17 76 18 79 19 77 20 78 21 10 22 11 23
REMARK SMILES IDX 12 24 13 25 14 26 15 27 67 28 16 29 66 30 17 31 18 32 19 33
REMARK SMILES IDX 60 34 20 35 65 36 59 37 61 38 21 39 64 40 58 41 57 42 22 44
REMARK SMILES IDX 48 45 31 46 47 47 32 48 35 49 46 50 62 51 33 52 34 53 45 55
REMARK SMILES IDX 63 56 36 57 23 58 24 59 29 60 25 61 26 62 28 63 30 64 27 65
REMARK SMILES IDX 49 66 50 67 55 68 51 69 52 70 54 71 56 72 53 73 37 74 38 75
REMARK SMILES IDX 43 76 39 77 40 78 42 79 44 80 41 81
REMARK H PARENT 61 43 35 54
REMARK Flexibility Score: inf
ROOT
ATOM      1  C   UNL A   1      32.160  30.200  27.054  1.00  0.00     0.275 C 
ENDROOT
BRANCH   1   2
ATOM      2  O   UNL A   1      31.555  29.274  26.147  1.00  0.00    -0.458 OA
BRANCH   2   3
ATOM      3  C   UNL A   1      31.433  28.045  26.703  1.00  0.00     0.338 C 
ATOM      4  O   UNL A   1      31.399  27.797  27.902  1.00  0.00    -0.246 OA
BRANCH   3   5
ATOM      5  C   UNL A   1      31.416  26.964  25.708  1.00  0.00     0.061 A 
ATOM      6  C   UNL A   1      30.592  23.674  23.050  1.00  0.00     0.046 C 
ATOM      7  C   UNL A   1      30.997  24.712  24.050  1.00  0.00    -0.031 A 
ATOM      8  C   UNL A   1      31.048  26.027  23.529  1.00  0.00     0.006 A 
ATOM      9  C   UNL A   1      31.251  24.548  25.423  1.00  0.00     0.086 A 
ATOM     10  C   UNL A   1      31.308  27.137  24.336  1.00  0.00     0.016 A 
ATOM     11  C   UNL A   1      31.409  25.681  26.234  1.00  0.00     0.037 A 
BRANCH   9  12
ATOM     12  S   UNL A   1      31.492  23.066  26.388  1.00  0.00     0.243 S 
ATOM     13  O   UNL A   1      32.078  23.502  27.630  1.00  0.00    -0.207 OA
ATOM     14  O   UNL A   1      30.209  22.376  26.369  1.00  0.00    -0.207 OA
BRANCH  12  15
ATOM     15  N   UNL A   1      32.586  22.078  25.600  1.00  0.00    -0.197 NA
ATOM     16  C   UNL A   1      32.075  20.831  25.027  1.00  0.00     0.125 C 
BRANCH  15  17
ATOM     17  C   UNL A   1      33.989  22.526  25.514  1.00  0.00     0.083 C 
ATOM     18  C   UNL A   1      35.038  21.497  25.916  1.00  0.00     0.032 C 
ATOM     19  C   UNL A   1      34.376  22.975  24.102  1.00  0.00     0.089 C 
ATOM     20  C   UNL A   1      36.368  22.209  25.729  1.00  0.00     0.071 C 
ATOM     21  S   UNL A   1      36.198  23.043  24.127  1.00  0.00    -0.160 SA
ENDBRANCH  15  17
ENDBRANCH  12  15
ENDBRANCH   9  12
ENDBRANCH   3   5
ENDBRANCH   2   3
ENDBRANCH   1   2
BRANCH   1  22
ATOM     22  C   UNL A   1      33.691  30.166  27.023  1.00  0.00     0.275 C 
BRANCH  22  23
ATOM     23  O   UNL A   1      34.455  31.271  27.588  1.00  0.00    -0.458 OA
BRANCH  23  24
ATOM     24  C   UNL A   1      35.174  31.347  28.732  1.00  0.00     0.338 C 
ATOM     25  O   UNL A   1      34.826  32.050  29.675  1.00  0.00    -0.246 OA
BRANCH  24  26
ATOM     26  C   UNL A   1      36.390  30.535  28.844  1.00  0.00     0.060 A 
ATOM     27  C   UNL A   1      36.560  29.728  29.984  1.00  0.00     0.016 A 
ATOM     28  C   UNL A   1      37.315  30.523  27.807  1.00  0.00     0.016 A 
ATOM     29  C   UNL A   1      37.603  28.823  30.047  1.00  0.00     0.010 A 
ATOM     30  C   UNL A   1      38.272  29.545  27.797  1.00  0.00     0.010 A 
ATOM     31  C   UNL A   1      38.453  28.762  28.951  1.00  0.00    -0.014 A 
BRANCH  31  32
ATOM     32  C   UNL A   1      39.818  28.303  29.079  1.00  0.00     0.031 A 
ATOM     33  C   UNL A   1      40.183  26.926  28.748  1.00  0.00     0.074 A 
ATOM     34  C   UNL A   1      40.624  29.372  29.271  1.00  0.00     0.049 A 
ATOM     35  N   UNL A   1      41.259  26.347  29.146  1.00  0.00    -0.248 NA
ATOM     36  C   UNL A   1      39.314  26.033  27.982  1.00  0.00     0.031 C 
ATOM     37  C   UNL A   1      42.029  29.598  29.016  1.00  0.00     0.029 A 
ATOM     38  N   UNL A   1      40.203  30.573  29.876  1.00  0.00    -0.354 N 
ATOM     39  C   UNL A   1      41.421  25.236  28.341  1.00  0.00     0.074 A 
ATOM     40  C   UNL A   1      40.110  24.970  27.806  1.00  0.00     0.031 C 
ATOM     41  C   UNL A   1      42.419  30.684  29.718  1.00  0.00     0.029 A 
ATOM     42  C   UNL A   1      41.295  31.092  30.559  1.00  0.00     0.049 A 
ATOM     43  H   UNL A   1      39.302  30.969  29.823  1.00  0.00     0.167 HD
ATOM     44  C   UNL A   1      42.693  24.862  28.008  1.00  0.00     0.037 A 
ATOM     45  C   UNL A   1      41.255  31.032  31.925  1.00  0.00     0.037 A 
ATOM     46  C   UNL A   1      43.642  25.770  28.659  1.00  0.00     0.049 A 
ATOM     47  C   UNL A   1      42.281  30.041  32.412  1.00  0.00     0.074 A 
ATOM     48  C   UNL A   1      44.274  26.909  28.187  1.00  0.00     0.029 A 
ATOM     49  N   UNL A   1      43.711  25.827  30.048  1.00  0.00    -0.354 N 
ATOM     50  N   UNL A   1      42.596  28.937  31.786  1.00  0.00    -0.248 NA
ATOM     51  C   UNL A   1      43.116  30.298  33.579  1.00  0.00     0.031 C 
ATOM     52  C   UNL A   1      44.651  27.694  29.304  1.00  0.00     0.029 A 
ATOM     53  C   UNL A   1      44.233  27.042  30.453  1.00  0.00     0.049 A 
ATOM     54  H   UNL A   1      43.428  25.105  30.655  1.00  0.00     0.167 HD
ATOM     55  C   UNL A   1      43.716  28.406  32.369  1.00  0.00     0.074 A 
ATOM     56  C   UNL A   1      43.977  29.269  33.509  1.00  0.00     0.031 C 
ATOM     57  C   UNL A   1      44.407  27.343  31.862  1.00  0.00     0.037 A 
BRANCH  44  58
ATOM     58  C   UNL A   1      43.070  23.992  26.821  1.00  0.00     0.057 A 
ATOM     59  C   UNL A   1      43.102  22.585  26.946  1.00  0.00     0.134 A 
ATOM     60  C   UNL A   1      43.444  24.457  25.548  1.00  0.00     0.134 A 
ATOM     61  F   UNL A   1      42.671  21.963  28.052  1.00  0.00    -0.206 F 
ATOM     62  C   UNL A   1      43.569  21.728  25.940  1.00  0.00     0.040 A 
ATOM     63  C   UNL A   1      43.940  23.612  24.538  1.00  0.00     0.040 A 
ATOM     64  F   UNL A   1      43.301  25.740  25.198  1.00  0.00    -0.206 F 
ATOM     65  C   UNL A   1      44.017  22.243  24.737  1.00  0.00     0.006 A 
ENDBRANCH  44  58
BRANCH  45  66
ATOM     66  C   UNL A   1      39.885  31.242  32.510  1.00  0.00     0.057 A 
ATOM     67  C   UNL A   1      39.228  32.474  32.285  1.00  0.00     0.134 A 
ATOM     68  C   UNL A   1      39.096  30.216  33.038  1.00  0.00     0.134 A 
ATOM     69  F   UNL A   1      39.909  33.518  31.783  1.00  0.00    -0.206 F 
ATOM     70  C   UNL A   1      37.853  32.645  32.479  1.00  0.00     0.040 A 
ATOM     71  C   UNL A   1      37.715  30.382  33.257  1.00  0.00     0.040 A 
ATOM     72  F   UNL A   1      39.618  29.007  33.286  1.00  0.00    -0.206 F 
ATOM     73  C   UNL A   1      37.086  31.588  32.952  1.00  0.00     0.006 A 
ENDBRANCH  45  66
BRANCH  57  74
ATOM     74  C   UNL A   1      45.420  26.542  32.629  1.00  0.00     0.057 A 
ATOM     75  C   UNL A   1      45.082  25.434  33.416  1.00  0.00     0.134 A 
ATOM     76  C   UNL A   1      46.804  26.751  32.435  1.00  0.00     0.134 A 
ATOM     77  F   UNL A   1      43.808  25.054  33.586  1.00  0.00    -0.206 F 
ATOM     78  C   UNL A   1      46.049  24.626  34.019  1.00  0.00     0.040 A 
ATOM     79  C   UNL A   1      47.775  25.911  32.974  1.00  0.00     0.040 A 
ATOM     80  F   UNL A   1      47.272  27.759  31.683  1.00  0.00    -0.206 F 
ATOM     81  C   UNL A   1      47.400  24.854  33.786  1.00  0.00     0.006 A 
ENDBRANCH  57  74
ENDBRANCH  31  32
ENDBRANCH  24  26
ENDBRANCH  23  24
ENDBRANCH  22  23
ENDBRANCH   1  22
TORSDOF 14
ENDMDL
MODEL 2
REMARK VINA RESULT:     -11.4      3.059      8.042
REMARK SMILES Cc1ccc(C(=O)OCCOC(=O)c2ccc(-c3c4nc(c(-c5c(F)cccc5F)c5ccc([nH]5)c(-c5c(F)cccc5F)c5nc(c(-c6c(F)cccc6F)c6ccc3[nH]6)C=C5)C=C4)cc2)cc1S(=O)(=O)N(C)[C@H]1CCSC1
REMARK SMILES IDX 9 1 8 2 6 3 7 4 5 5 1 6 2 7 3 8 69 9 4 10 68 11 70 12 71 13
REMARK SMILES IDX 72 14 73 15 74 16 75 17 76 18 79 19 77 20 78 21 10 22 11 23
REMARK SMILES IDX 12 24 13 25 14 26 15 27 67 28 16 29 66 30 17 31 18 32 19 33
REMARK SMILES IDX 60 34 20 35 65 36 59 37 61 38 21 39 64 40 58 41 57 42 22 44
REMARK SMILES IDX 48 45 31 46 47 47 32 48 35 49 46 50 62 51 33 52 34 53 45 55
REMARK SMILES IDX 63 56 36 57 23 58 24 59 29 60 25 61 26 62 28 63 30 64 27 65
REMARK SMILES IDX 49 66 50 67 55 68 51 69 52 70 54 71 56 72 53 73 37 74 38 75
REMARK SMILES IDX 43 76 39 77 40 78 42 79 44 80 41 81
REMARK H PARENT 61 43 35 54
REMARK Flexibility Score: inf
ROOT
ATOM      1  C   UNL A   1      36.419  22.317  25.801  1.00  0.00     0.275 C 
ENDROOT
BRANCH   1   2
ATOM      2  O   UNL A   1      35.407  23.280  26.110  1.00  0.00    -0.458 OA
BRANCH   2   3
ATOM      3  C   UNL A   1      34.166  22.770  25.922  1.00  0.00     0.338 C 
ATOM      4  O   UNL A   1      33.671  21.836  26.538  1.00  0.00    -0.246 OA
BRANCH   3   5
ATOM      5  C   UNL A   1      33.444  23.412  24.815  1.00  0.00     0.061 A 
ATOM      6  C   UNL A   1      31.783  25.953  21.757  1.00  0.00     0.046 C 
ATOM      7  C   UNL A   1      32.199  25.071  22.892  1.00  0.00    -0.031 A 
ATOM      8  C   UNL A   1      33.104  24.045  22.524  1.00  0.00     0.006 A 
ATOM      9  C   UNL A   1      31.867  25.185  24.254  1.00  0.00     0.086 A 
ATOM     10  C   UNL A   1      33.680  23.189  23.466  1.00  0.00     0.016 A 
ATOM     11  C   UNL A   1      32.531  24.384  25.193  1.00  0.00     0.037 A 
BRANCH   9  12
ATOM     12  S   UNL A   1      30.626  26.179  25.064  1.00  0.00     0.243 S 
ATOM     13  O   UNL A   1      29.410  25.962  24.323  1.00  0.00    -0.207 OA
ATOM     14  O   UNL A   1      30.712  25.834  26.477  1.00  0.00    -0.207 OA
BRANCH  12  15
ATOM     15  N   UNL A   1      31.050  27.790  24.932  1.00  0.00    -0.197 NA
ATOM     16  C   UNL A   1      30.527  28.532  23.785  1.00  0.00     0.125 C 
BRANCH  15  17
ATOM     17  C   UNL A   1      31.907  28.370  25.985  1.00  0.00     0.083 C 
ATOM     18  C   UNL A   1      33.398  28.090  25.853  1.00  0.00     0.032 C 
ATOM     19  C   UNL A   1      31.782  29.894  26.070  1.00  0.00     0.089 C 
ATOM     20  C   UNL A   1      34.030  28.796  27.042  1.00  0.00     0.071 C 
ATOM     21  S   UNL A   1      33.210  30.414  27.077  1.00  0.00    -0.160 SA
ENDBRANCH  15  17
ENDBRANCH  12  15
ENDBRANCH   9  12
ENDBRANCH   3   5
ENDBRANCH   2   3
ENDBRANCH   1   2
BRANCH   1  22
ATOM     22  C   UNL A   1      37.798  22.940  25.566  1.00  0.00     0.275 C 
BRANCH  22  23
ATOM     23  O   UNL A   1      38.928  22.539  26.395  1.00  0.00    -0.458 OA
BRANCH  23  24
ATOM     24  C   UNL A   1      40.098  23.170  26.647  1.00  0.00     0.338 C 
ATOM     25  O   UNL A   1      41.183  22.638  26.438  1.00  0.00    -0.246 OA
BRANCH  24  26
ATOM     26  C   UNL A   1      40.052  24.542  27.161  1.00  0.00     0.060 A 
ATOM     27  C   UNL A   1      40.583  25.577  26.369  1.00  0.00     0.016 A 
ATOM     28  C   UNL A   1      39.432  24.808  28.376  1.00  0.00     0.016 A 
ATOM     29  C   UNL A   1      40.405  26.898  26.738  1.00  0.00     0.010 A 
ATOM     30  C   UNL A   1      39.135  26.108  28.686  1.00  0.00     0.010 A 
ATOM     31  C   UNL A   1      39.693  27.136  27.906  1.00  0.00    -0.014 A 
BRANCH  31  32
ATOM     32  C   UNL A   1      39.885  28.347  28.673  1.00  0.00     0.031 A 
ATOM     33  C   UNL A   1      38.912  29.438  28.611  1.00  0.00     0.074 A 
ATOM     34  C   UNL A   1      40.883  28.149  29.563  1.00  0.00     0.049 A 
ATOM     35  N   UNL A   1      39.159  30.648  28.967  1.00  0.00    -0.248 NA
ATOM     36  C   UNL A   1      37.566  29.277  28.059  1.00  0.00     0.031 C 
ATOM     37  C   UNL A   1      41.203  28.769  30.829  1.00  0.00     0.029 A 
ATOM     38  N   UNL A   1      41.942  27.242  29.364  1.00  0.00    -0.354 N 
ATOM     39  C   UNL A   1      37.931  31.263  29.119  1.00  0.00     0.074 A 
ATOM     40  C   UNL A   1      37.015  30.462  28.348  1.00  0.00     0.031 C 
ATOM     41  C   UNL A   1      42.485  28.476  31.134  1.00  0.00     0.029 A 
ATOM     42  C   UNL A   1      43.063  27.779  29.986  1.00  0.00     0.049 A 
ATOM     43  H   UNL A   1      41.896  26.388  28.876  1.00  0.00     0.167 HD
ATOM     44  C   UNL A   1      37.798  32.200  30.106  1.00  0.00     0.037 A 
ATOM     45  C   UNL A   1      44.050  28.260  29.171  1.00  0.00     0.037 A 
ATOM     46  C   UNL A   1      39.087  32.362  30.786  1.00  0.00     0.049 A 
ATOM     47  C   UNL A   1      44.106  29.762  29.287  1.00  0.00     0.074 A 
ATOM     48  C   UNL A   1      39.578  31.781  31.945  1.00  0.00     0.029 A 
ATOM     49  N   UNL A   1      40.191  32.835  30.083  1.00  0.00    -0.354 N 
ATOM     50  N   UNL A   1      43.059  30.528  29.455  1.00  0.00    -0.248 NA
ATOM     51  C   UNL A   1      45.366  30.490  29.349  1.00  0.00     0.031 C 
ATOM     52  C   UNL A   1      40.993  31.836  31.895  1.00  0.00     0.029 A 
ATOM     53  C   UNL A   1      41.361  32.431  30.699  1.00  0.00     0.049 A 
ATOM     54  H   UNL A   1      40.145  33.380  29.264  1.00  0.00     0.167 HD
ATOM     55  C   UNL A   1      43.485  31.794  29.759  1.00  0.00     0.074 A 
ATOM     56  C   UNL A   1      44.932  31.728  29.639  1.00  0.00     0.031 C 
ATOM     57  C   UNL A   1      42.655  32.803  30.154  1.00  0.00     0.037 A 
BRANCH  44  58
ATOM     58  C   UNL A   1      36.483  32.647  30.721  1.00  0.00     0.057 A 
ATOM     59  C   UNL A   1      35.732  33.686  30.127  1.00  0.00     0.134 A 
ATOM     60  C   UNL A   1      35.914  32.138  31.901  1.00  0.00     0.134 A 
ATOM     61  F   UNL A   1      36.067  34.212  28.941  1.00  0.00    -0.206 F 
ATOM     62  C   UNL A   1      34.584  34.242  30.709  1.00  0.00     0.040 A 
ATOM     63  C   UNL A   1      34.778  32.703  32.510  1.00  0.00     0.040 A 
ATOM     64  F   UNL A   1      36.391  31.040  32.496  1.00  0.00    -0.206 F 
ATOM     65  C   UNL A   1      34.116  33.769  31.922  1.00  0.00     0.006 A 
ENDBRANCH  44  58
BRANCH  45  66
ATOM     66  C   UNL A   1      44.249  27.465  27.910  1.00  0.00     0.057 A 
ATOM     67  C   UNL A   1      43.775  27.994  26.688  1.00  0.00     0.134 A 
ATOM     68  C   UNL A   1      45.104  26.363  27.808  1.00  0.00     0.134 A 
ATOM     69  F   UNL A   1      42.945  29.051  26.689  1.00  0.00    -0.206 F 
ATOM     70  C   UNL A   1      44.200  27.521  25.441  1.00  0.00     0.040 A 
ATOM     71  C   UNL A   1      45.523  25.864  26.560  1.00  0.00     0.040 A 
ATOM     72  F   UNL A   1      45.614  25.786  28.905  1.00  0.00    -0.206 F 
ATOM     73  C   UNL A   1      45.094  26.460  25.375  1.00  0.00     0.006 A 
ENDBRANCH  45  66
BRANCH  57  74
ATOM     74  C   UNL A   1      43.031  34.257  30.175  1.00  0.00     0.057 A 
ATOM     75  C   UNL A   1      43.355  34.946  31.351  1.00  0.00     0.134 A 
ATOM     76  C   UNL A   1      43.270  34.959  28.972  1.00  0.00     0.134 A 
ATOM     77  F   UNL A   1      43.286  34.357  32.553  1.00  0.00    -0.206 F 
ATOM     78  C   UNL A   1      43.825  36.261  31.337  1.00  0.00     0.040 A 
ATOM     79  C   UNL A   1      43.804  36.245  28.946  1.00  0.00     0.040 A 
ATOM     80  F   UNL A   1      43.031  34.413  27.770  1.00  0.00    -0.206 F 
ATOM     81  C   UNL A   1      44.066  36.909  30.132  1.00  0.00     0.006 A 
ENDBRANCH  57  74
ENDBRANCH  31  32
ENDBRANCH  24  26
ENDBRANCH  23  24
ENDBRANCH  22  23
ENDBRANCH   1  22
TORSDOF 14
ENDMDL
MODEL 3
REMARK VINA RESULT:     -11.3      1.437      2.024
REMARK SMILES Cc1ccc(C(=O)OCCOC(=O)c2ccc(-c3c4nc(c(-c5c(F)cccc5F)c5ccc([nH]5)c(-c5c(F)cccc5F)c5nc(c(-c6c(F)cccc6F)c6ccc3[nH]6)C=C5)C=C4)cc2)cc1S(=O)(=O)N(C)[C@H]1CCSC1
REMARK SMILES IDX 9 1 8 2 6 3 7 4 5 5 1 6 2 7 3 8 69 9 4 10 68 11 70 12 71 13
REMARK SMILES IDX 72 14 73 15 74 16 75 17 76 18 79 19 77 20 78 21 10 22 11 23
REMARK SMILES IDX 12 24 13 25 14 26 15 27 67 28 16 29 66 30 17 31 18 32 19 33
REMARK SMILES IDX 60 34 20 35 65 36 59 37 61 38 21 39 64 40 58 41 57 42 22 44
REMARK SMILES IDX 48 45 31 46 47 47 32 48 35 49 46 50 62 51 33 52 34 53 45 55
REMARK SMILES IDX 63 56 36 57 23 58 24 59 29 60 25 61 26 62 28 63 30 64 27 65
REMARK SMILES IDX 49 66 50 67 55 68 51 69 52 70 54 71 56 72 53 73 37 74 38 75
REMARK SMILES IDX 43 76 39 77 40 78 42 79 44 80 41 81
REMARK H PARENT 61 43 35 54
REMARK Flexibility Score: inf
ROOT
ATOM      1  C   UNL A   1      33.030  29.666  25.794  1.00  0.00     0.275 C 
ENDROOT
BRANCH   1   2
ATOM      2  O   UNL A   1      33.827  28.654  25.173  1.00  0.00    -0.458 OA
BRANCH   2   3
ATOM      3  C   UNL A   1      33.524  28.524  23.859  1.00  0.00     0.338 C 
ATOM      4  O   UNL A   1      33.749  29.348  22.982  1.00  0.00    -0.246 OA
BRANCH   3   5
ATOM      5  C   UNL A   1      32.799  27.281  23.558  1.00  0.00     0.061 A 
ATOM      6  C   UNL A   1      30.674  23.533  23.495  1.00  0.00     0.046 C 
ATOM      7  C   UNL A   1      31.543  24.750  23.434  1.00  0.00    -0.031 A 
ATOM      8  C   UNL A   1      30.837  25.951  23.178  1.00  0.00     0.006 A 
ATOM      9  C   UNL A   1      32.926  24.849  23.670  1.00  0.00     0.086 A 
ATOM     10  C   UNL A   1      31.466  27.199  23.186  1.00  0.00     0.016 A 
ATOM     11  C   UNL A   1      33.518  26.115  23.773  1.00  0.00     0.037 A 
BRANCH   9  12
ATOM     12  S   UNL A   1      34.171  23.578  23.806  1.00  0.00     0.243 S 
ATOM     13  O   UNL A   1      34.229  22.950  22.511  1.00  0.00    -0.207 OA
ATOM     14  O   UNL A   1      35.341  24.237  24.371  1.00  0.00    -0.207 OA
BRANCH  12  15
ATOM     15  N   UNL A   1      33.668  22.443  24.927  1.00  0.00    -0.197 NA
ATOM     16  C   UNL A   1      33.338  22.923  26.269  1.00  0.00     0.125 C 
BRANCH  15  17
ATOM     17  C   UNL A   1      33.569  21.036  24.492  1.00  0.00     0.083 C 
ATOM     18  C   UNL A   1      34.665  20.108  25.000  1.00  0.00     0.032 C 
ATOM     19  C   UNL A   1      32.250  20.383  24.916  1.00  0.00     0.089 C 
ATOM     20  C   UNL A   1      34.319  18.748  24.418  1.00  0.00     0.071 C 
ATOM     21  S   UNL A   1      32.532  18.595  24.689  1.00  0.00    -0.160 SA
ENDBRANCH  15  17
ENDBRANCH  12  15
ENDBRANCH   9  12
ENDBRANCH   3   5
ENDBRANCH   2   3
ENDBRANCH   1   2
BRANCH   1  22
ATOM     22  C   UNL A   1      33.503  30.029  27.205  1.00  0.00     0.275 C 
BRANCH  22  23
ATOM     23  O   UNL A   1      34.599  30.973  27.384  1.00  0.00    -0.458 OA
BRANCH  23  24
ATOM     24  C   UNL A   1      35.411  31.183  28.446  1.00  0.00     0.338 C 
ATOM     25  O   UNL A   1      35.181  32.052  29.280  1.00  0.00    -0.246 OA
BRANCH  24  26
ATOM     26  C   UNL A   1      36.585  30.319  28.606  1.00  0.00     0.060 A 
ATOM     27  C   UNL A   1      36.697  29.544  29.775  1.00  0.00     0.016 A 
ATOM     28  C   UNL A   1      37.523  30.226  27.585  1.00  0.00     0.016 A 
ATOM     29  C   UNL A   1      37.695  28.593  29.887  1.00  0.00     0.010 A 
ATOM     30  C   UNL A   1      38.432  29.203  27.625  1.00  0.00     0.010 A 
ATOM     31  C   UNL A   1      38.556  28.452  28.808  1.00  0.00    -0.014 A 
BRANCH  31  32
ATOM     32  C   UNL A   1      39.896  27.933  28.975  1.00  0.00     0.031 A 
ATOM     33  C   UNL A   1      40.224  26.561  28.588  1.00  0.00     0.074 A 
ATOM     34  C   UNL A   1      40.731  28.958  29.261  1.00  0.00     0.049 A 
ATOM     35  N   UNL A   1      41.257  25.920  29.004  1.00  0.00    -0.248 NA
ATOM     36  C   UNL A   1      39.359  25.745  27.736  1.00  0.00     0.031 C 
ATOM     37  C   UNL A   1      42.154  29.139  29.084  1.00  0.00     0.029 A 
ATOM     38  N   UNL A   1      40.327  30.142  29.908  1.00  0.00    -0.354 N 
ATOM     39  C   UNL A   1      41.415  24.846  28.149  1.00  0.00     0.074 A 
ATOM     40  C   UNL A   1      40.122  24.662  27.540  1.00  0.00     0.031 C 
ATOM     41  C   UNL A   1      42.551  30.171  29.860  1.00  0.00     0.029 A 
ATOM     42  C   UNL A   1      41.404  30.580  30.669  1.00  0.00     0.049 A 
ATOM     43  H   UNL A   1      39.445  30.576  29.835  1.00  0.00     0.167 HD
ATOM     44  C   UNL A   1      42.687  24.439  27.855  1.00  0.00     0.037 A 
ATOM     45  C   UNL A   1      41.295  30.452  32.025  1.00  0.00     0.037 A 
ATOM     46  C   UNL A   1      43.637  25.273  28.598  1.00  0.00     0.049 A 
ATOM     47  C   UNL A   1      42.258  29.397  32.507  1.00  0.00     0.074 A 
ATOM     48  C   UNL A   1      44.334  26.408  28.216  1.00  0.00     0.029 A 
ATOM     49  N   UNL A   1      43.640  25.256  29.989  1.00  0.00    -0.354 N 
ATOM     50  N   UNL A   1      42.561  28.314  31.837  1.00  0.00    -0.248 NA
ATOM     51  C   UNL A   1      43.045  29.559  33.723  1.00  0.00     0.031 C 
ATOM     52  C   UNL A   1      44.686  27.119  29.391  1.00  0.00     0.029 A 
ATOM     53  C   UNL A   1      44.188  26.426  30.482  1.00  0.00     0.049 A 
ATOM     54  H   UNL A   1      43.302  24.515  30.543  1.00  0.00     0.167 HD
ATOM     55  C   UNL A   1      43.631  27.709  32.442  1.00  0.00     0.074 A 
ATOM     56  C   UNL A   1      43.868  28.501  33.638  1.00  0.00     0.031 C 
ATOM     57  C   UNL A   1      44.305  26.646  31.912  1.00  0.00     0.037 A 
BRANCH  44  58
ATOM     58  C   UNL A   1      43.087  23.617  26.642  1.00  0.00     0.057 A 
ATOM     59  C   UNL A   1      43.093  22.206  26.704  1.00  0.00     0.134 A 
ATOM     60  C   UNL A   1      43.510  24.132  25.405  1.00  0.00     0.134 A 
ATOM     61  F   UNL A   1      42.617  21.542  27.766  1.00  0.00    -0.206 F 
ATOM     62  C   UNL A   1      43.578  21.387  25.675  1.00  0.00     0.040 A 
ATOM     63  C   UNL A   1      44.024  23.325  24.373  1.00  0.00     0.040 A 
ATOM     64  F   UNL A   1      43.399  25.432  25.108  1.00  0.00    -0.206 F 
ATOM     65  C   UNL A   1      44.073  21.947  24.511  1.00  0.00     0.006 A 
ENDBRANCH  44  58
BRANCH  45  66
ATOM     66  C   UNL A   1      39.907  30.686  32.557  1.00  0.00     0.057 A 
ATOM     67  C   UNL A   1      39.303  31.948  32.354  1.00  0.00     0.134 A 
ATOM     68  C   UNL A   1      39.061  29.668  33.006  1.00  0.00     0.134 A 
ATOM     69  F   UNL A   1      40.041  32.987  31.927  1.00  0.00    -0.206 F 
ATOM     70  C   UNL A   1      37.927  32.160  32.493  1.00  0.00     0.040 A 
ATOM     71  C   UNL A   1      37.678  29.873  33.170  1.00  0.00     0.040 A 
ATOM     72  F   UNL A   1      39.530  28.432  33.227  1.00  0.00    -0.206 F 
ATOM     73  C   UNL A   1      37.104  31.112  32.887  1.00  0.00     0.006 A 
ENDBRANCH  45  66
BRANCH  57  74
ATOM     74  C   UNL A   1      45.248  25.767  32.681  1.00  0.00     0.057 A 
ATOM     75  C   UNL A   1      46.641  25.907  32.627  1.00  0.00     0.134 A 
ATOM     76  C   UNL A   1      44.765  24.871  33.662  1.00  0.00     0.134 A 
ATOM     77  F   UNL A   1      47.226  26.807  31.824  1.00  0.00    -0.206 F 
ATOM     78  C   UNL A   1      47.496  25.166  33.444  1.00  0.00     0.040 A 
ATOM     79  C   UNL A   1      45.607  24.179  34.529  1.00  0.00     0.040 A 
ATOM     80  F   UNL A   1      43.453  24.656  33.844  1.00  0.00    -0.206 F 
ATOM     81  C   UNL A   1      46.980  24.310  34.410  1.00  0.00     0.006 A 
ENDBRANCH  57  74
ENDBRANCH  31  32
ENDBRANCH  24  26
ENDBRANCH  23  24
ENDBRANCH  22  23
ENDBRANCH   1  22
TORSDOF 14
ENDMDL
