MODEL 1
REMARK VINA RESULT:     -12.1      0.000      0.000
REMARK SMILES Cc1ccc2c(=O)c3cccc(CC(=O)OCCOC(=O)c4ccc(-c5c6nc(c(-c7c(F)cccc7F)c7ccc([nH]7)c(-c7c(F)cccc7F)c7nc(c(-c8c(F)cccc8F)c8ccc5[nH]8)C=C7)C=C6)cc4)c3oc2c1C
REMARK SMILES IDX 18 1 17 2 16 3 14 4 15 5 13 6 12 7 1 8 2 9 3 10 79 11 4 12
REMARK SMILES IDX 78 13 80 14 5 15 77 16 6 17 76 18 7 19 8 20 9 21 11 22 10 23
REMARK SMILES IDX 19 24 20 25 21 26 22 27 23 28 75 29 24 30 74 31 25 32 26 33
REMARK SMILES IDX 27 34 68 35 28 36 73 37 67 38 69 39 29 40 72 41 66 42 65 43
REMARK SMILES IDX 30 45 56 46 39 47 55 48 40 49 43 50 54 51 70 52 41 53 42 54
REMARK SMILES IDX 53 56 71 57 44 58 31 59 32 60 37 61 33 62 34 63 36 64 38 65
REMARK SMILES IDX 35 66 57 67 58 68 63 69 59 70 60 71 62 72 64 73 61 74 45 75
REMARK SMILES IDX 46 76 51 77 47 78 48 79 50 80 52 81 49 82
REMARK H PARENT 69 44 43 55
REMARK Flexibility Score: inf
ROOT
ATOM      1  C   UNL A   1      31.787  32.272  27.122  1.00  0.00     0.275 C 
ENDROOT
BRANCH   1   2
ATOM      2  C   UNL A   1      31.929  30.869  26.520  1.00  0.00     0.274 C 
BRANCH   2   3
ATOM      3  O   UNL A   1      32.591  29.955  27.422  1.00  0.00    -0.462 OA
BRANCH   3   4
ATOM      4  C   UNL A   1      33.794  29.481  27.009  1.00  0.00     0.310 C 
ATOM      5  O   UNL A   1      34.856  30.083  27.152  1.00  0.00    -0.252 OA
BRANCH   4   6
ATOM      6  C   UNL A   1      33.764  28.077  26.450  1.00  0.00     0.162 C 
BRANCH   6   7
ATOM      7  C   UNL A   1      33.568  27.896  24.967  1.00  0.00     0.007 A 
ATOM      8  C   UNL A   1      33.105  20.647  25.833  1.00  0.00     0.045 C 
ATOM      9  C   UNL A   1      33.246  21.860  24.950  1.00  0.00    -0.044 A 
ATOM     10  C   UNL A   1      33.059  21.697  23.571  1.00  0.00     0.005 A 
ATOM     11  C   UNL A   1      33.587  23.138  25.456  1.00  0.00    -0.005 A 
ATOM     12  C   UNL A   1      33.157  22.787  22.711  1.00  0.00     0.016 A 
ATOM     13  C   UNL A   1      33.586  24.257  24.596  1.00  0.00     0.141 A 
ATOM     14  C   UNL A   1      33.940  23.280  26.905  1.00  0.00     0.049 C 
ATOM     15  C   UNL A   1      33.398  24.059  23.231  1.00  0.00     0.066 A 
ATOM     16  O   UNL A   1      33.767  25.511  25.146  1.00  0.00    -0.455 OA
ATOM     17  C   UNL A   1      33.452  25.219  22.334  1.00  0.00     0.200 A 
ATOM     18  C   UNL A   1      33.587  26.626  24.354  1.00  0.00     0.142 A 
ATOM     19  O   UNL A   1      33.457  25.089  21.117  1.00  0.00    -0.288 OA
ATOM     20  C   UNL A   1      33.472  26.542  22.966  1.00  0.00     0.066 A 
ATOM     21  C   UNL A   1      33.365  27.692  22.177  1.00  0.00     0.016 A 
ATOM     22  C   UNL A   1      33.433  29.046  24.167  1.00  0.00     0.008 A 
ATOM     23  C   UNL A   1      33.343  28.945  22.780  1.00  0.00     0.001 A 
ENDBRANCH   6   7
ENDBRANCH   4   6
ENDBRANCH   3   4
ENDBRANCH   2   3
ENDBRANCH   1   2
BRANCH   1  24
ATOM     24  O   UNL A   1      32.978  33.066  26.948  1.00  0.00    -0.458 OA
BRANCH  24  25
ATOM     25  C   UNL A   1      33.249  33.854  28.012  1.00  0.00     0.338 C 
ATOM     26  O   UNL A   1      32.612  34.828  28.373  1.00  0.00    -0.246 OA
BRANCH  25  27
ATOM     27  C   UNL A   1      34.412  33.380  28.777  1.00  0.00     0.060 A 
ATOM     28  C   UNL A   1      34.248  32.367  29.725  1.00  0.00     0.016 A 
ATOM     29  C   UNL A   1      35.688  33.728  28.330  1.00  0.00     0.016 A 
ATOM     30  C   UNL A   1      35.372  31.691  30.211  1.00  0.00     0.010 A 
ATOM     31  C   UNL A   1      36.801  33.018  28.771  1.00  0.00     0.010 A 
ATOM     32  C   UNL A   1      36.652  32.000  29.722  1.00  0.00    -0.014 A 
BRANCH  32  33
ATOM     33  C   UNL A   1      37.859  31.345  30.273  1.00  0.00     0.031 A 
ATOM     34  C   UNL A   1      38.300  31.710  31.657  1.00  0.00     0.074 A 
ATOM     35  C   UNL A   1      38.579  30.472  29.544  1.00  0.00     0.049 A 
ATOM     36  N   UNL A   1      39.246  31.183  32.389  1.00  0.00    -0.248 NA
ATOM     37  C   UNL A   1      37.586  32.826  32.300  1.00  0.00     0.031 C 
ATOM     38  C   UNL A   1      38.299  30.086  28.163  1.00  0.00     0.029 A 
ATOM     39  N   UNL A   1      39.704  29.756  29.866  1.00  0.00    -0.354 N 
ATOM     40  C   UNL A   1      39.213  31.875  33.591  1.00  0.00     0.074 A 
ATOM     41  C   UNL A   1      38.214  32.913  33.461  1.00  0.00     0.031 C 
ATOM     42  C   UNL A   1      39.221  29.196  27.756  1.00  0.00     0.029 A 
ATOM     43  C   UNL A   1      40.150  28.942  28.853  1.00  0.00     0.049 A 
ATOM     44  H   UNL A   1      40.151  29.820  30.742  1.00  0.00     0.167 HD
ATOM     45  C   UNL A   1      39.922  31.643  34.717  1.00  0.00     0.037 A 
ATOM     46  C   UNL A   1      41.180  28.073  28.830  1.00  0.00     0.037 A 
ATOM     47  C   UNL A   1      40.933  30.631  34.837  1.00  0.00     0.049 A 
ATOM     48  C   UNL A   1      42.008  27.884  30.070  1.00  0.00     0.074 A 
ATOM     49  C   UNL A   1      41.658  30.255  35.952  1.00  0.00     0.029 A 
ATOM     50  N   UNL A   1      41.380  29.850  33.782  1.00  0.00    -0.354 N 
ATOM     51  N   UNL A   1      41.862  28.430  31.254  1.00  0.00    -0.248 NA
ATOM     52  C   UNL A   1      43.137  26.946  29.976  1.00  0.00     0.031 C 
ATOM     53  C   UNL A   1      42.577  29.273  35.562  1.00  0.00     0.029 A 
ATOM     54  C   UNL A   1      42.403  29.022  34.209  1.00  0.00     0.049 A 
ATOM     55  H   UNL A   1      41.023  29.880  32.865  1.00  0.00     0.167 HD
ATOM     56  C   UNL A   1      42.856  27.879  32.052  1.00  0.00     0.074 A 
ATOM     57  C   UNL A   1      43.599  26.956  31.218  1.00  0.00     0.031 C 
ATOM     58  C   UNL A   1      43.125  28.110  33.360  1.00  0.00     0.037 A 
BRANCH  45  59
ATOM     59  C   UNL A   1      39.594  32.502  35.897  1.00  0.00     0.057 A 
ATOM     60  C   UNL A   1      38.612  32.122  36.817  1.00  0.00     0.134 A 
ATOM     61  C   UNL A   1      40.301  33.688  36.147  1.00  0.00     0.134 A 
ATOM     62  F   UNL A   1      37.910  30.994  36.637  1.00  0.00    -0.206 F 
ATOM     63  C   UNL A   1      38.354  32.886  37.956  1.00  0.00     0.040 A 
ATOM     64  C   UNL A   1      40.064  34.448  37.292  1.00  0.00     0.040 A 
ATOM     65  F   UNL A   1      41.273  34.088  35.313  1.00  0.00    -0.206 F 
ATOM     66  C   UNL A   1      39.087  34.047  38.201  1.00  0.00     0.006 A 
ENDBRANCH  45  59
BRANCH  46  67
ATOM     67  C   UNL A   1      41.458  27.266  27.617  1.00  0.00     0.057 A 
ATOM     68  C   UNL A   1      42.279  27.742  26.589  1.00  0.00     0.134 A 
ATOM     69  C   UNL A   1      40.938  25.973  27.483  1.00  0.00     0.134 A 
ATOM     70  F   UNL A   1      42.811  28.970  26.661  1.00  0.00    -0.206 F 
ATOM     71  C   UNL A   1      42.576  26.959  25.471  1.00  0.00     0.040 A 
ATOM     72  C   UNL A   1      41.237  25.174  26.379  1.00  0.00     0.040 A 
ATOM     73  F   UNL A   1      40.163  25.456  28.447  1.00  0.00    -0.206 F 
ATOM     74  C   UNL A   1      42.059  25.668  25.367  1.00  0.00     0.006 A 
ENDBRANCH  46  67
BRANCH  58  75
ATOM     75  C   UNL A   1      44.255  27.339  33.969  1.00  0.00     0.057 A 
ATOM     76  C   UNL A   1      44.030  26.095  34.568  1.00  0.00     0.134 A 
ATOM     77  C   UNL A   1      45.558  27.850  33.995  1.00  0.00     0.134 A 
ATOM     78  F   UNL A   1      42.802  25.556  34.577  1.00  0.00    -0.206 F 
ATOM     79  C   UNL A   1      45.063  25.386  35.182  1.00  0.00     0.040 A 
ATOM     80  C   UNL A   1      46.603  27.141  34.589  1.00  0.00     0.040 A 
ATOM     81  F   UNL A   1      45.838  29.030  33.421  1.00  0.00    -0.206 F 
ATOM     82  C   UNL A   1      46.355  25.909  35.191  1.00  0.00     0.006 A 
ENDBRANCH  58  75
ENDBRANCH  32  33
ENDBRANCH  25  27
ENDBRANCH  24  25
ENDBRANCH   1  24
TORSDOF 12
ENDMDL
MODEL 2
REMARK VINA RESULT:     -12.1      4.554      9.714
REMARK SMILES Cc1ccc2c(=O)c3cccc(CC(=O)OCCOC(=O)c4ccc(-c5c6nc(c(-c7c(F)cccc7F)c7ccc([nH]7)c(-c7c(F)cccc7F)c7nc(c(-c8c(F)cccc8F)c8ccc5[nH]8)C=C7)C=C6)cc4)c3oc2c1C
REMARK SMILES IDX 18 1 17 2 16 3 14 4 15 5 13 6 12 7 1 8 2 9 3 10 79 11 4 12
REMARK SMILES IDX 78 13 80 14 5 15 77 16 6 17 76 18 7 19 8 20 9 21 11 22 10 23
REMARK SMILES IDX 19 24 20 25 21 26 22 27 23 28 75 29 24 30 74 31 25 32 26 33
REMARK SMILES IDX 27 34 68 35 28 36 73 37 67 38 69 39 29 40 72 41 66 42 65 43
REMARK SMILES IDX 30 45 56 46 39 47 55 48 40 49 43 50 54 51 70 52 41 53 42 54
REMARK SMILES IDX 53 56 71 57 44 58 31 59 32 60 37 61 33 62 34 63 36 64 38 65
REMARK SMILES IDX 35 66 57 67 58 68 63 69 59 70 60 71 62 72 64 73 61 74 45 75
REMARK SMILES IDX 46 76 51 77 47 78 48 79 50 80 52 81 49 82
REMARK H PARENT 69 44 43 55
REMARK Flexibility Score: inf
ROOT
ATOM      1  C   UNL A   1      39.467  20.236  25.570  1.00  0.00     0.275 C 
ENDROOT
BRANCH   1   2
ATOM      2  C   UNL A   1      38.918  21.554  26.132  1.00  0.00     0.274 C 
BRANCH   2   3
ATOM      3  O   UNL A   1      37.966  22.172  25.239  1.00  0.00    -0.462 OA
BRANCH   3   4
ATOM      4  C   UNL A   1      37.467  23.368  25.639  1.00  0.00     0.310 C 
ATOM      5  O   UNL A   1      38.085  24.176  26.331  1.00  0.00    -0.252 OA
BRANCH   4   6
ATOM      6  C   UNL A   1      36.108  23.710  25.073  1.00  0.00     0.162 C 
BRANCH   6   7
ATOM      7  C   UNL A   1      34.881  23.280  25.835  1.00  0.00     0.007 A 
ATOM      8  C   UNL A   1      30.871  28.329  22.379  1.00  0.00     0.045 C 
ATOM      9  C   UNL A   1      31.043  27.312  23.478  1.00  0.00    -0.044 A 
ATOM     10  C   UNL A   1      29.904  26.907  24.186  1.00  0.00     0.005 A 
ATOM     11  C   UNL A   1      32.306  26.781  23.836  1.00  0.00    -0.005 A 
ATOM     12  C   UNL A   1      30.002  25.955  25.197  1.00  0.00     0.016 A 
ATOM     13  C   UNL A   1      32.388  25.745  24.791  1.00  0.00     0.141 A 
ATOM     14  C   UNL A   1      33.541  27.330  23.188  1.00  0.00     0.049 C 
ATOM     15  C   UNL A   1      31.236  25.366  25.477  1.00  0.00     0.066 A 
ATOM     16  O   UNL A   1      33.611  25.140  25.004  1.00  0.00    -0.455 OA
ATOM     17  C   UNL A   1      31.335  24.327  26.506  1.00  0.00     0.200 A 
ATOM     18  C   UNL A   1      33.674  24.009  25.793  1.00  0.00     0.142 A 
ATOM     19  O   UNL A   1      30.399  24.070  27.251  1.00  0.00    -0.288 OA
ATOM     20  C   UNL A   1      32.603  23.592  26.583  1.00  0.00     0.066 A 
ATOM     21  C   UNL A   1      32.715  22.485  27.431  1.00  0.00     0.016 A 
ATOM     22  C   UNL A   1      34.976  22.152  26.672  1.00  0.00     0.008 A 
ATOM     23  C   UNL A   1      33.904  21.764  27.473  1.00  0.00     0.001 A 
ENDBRANCH   6   7
ENDBRANCH   4   6
ENDBRANCH   3   4
ENDBRANCH   2   3
ENDBRANCH   1   2
BRANCH   1  24
ATOM     24  O   UNL A   1      40.395  19.601  26.474  1.00  0.00    -0.458 OA
BRANCH  24  25
ATOM     25  C   UNL A   1      41.682  19.720  26.080  1.00  0.00     0.338 C 
ATOM     26  O   UNL A   1      42.336  18.885  25.480  1.00  0.00    -0.246 OA
BRANCH  25  27
ATOM     27  C   UNL A   1      42.246  21.039  26.402  1.00  0.00     0.060 A 
ATOM     28  C   UNL A   1      42.447  21.972  25.382  1.00  0.00     0.016 A 
ATOM     29  C   UNL A   1      42.279  21.438  27.740  1.00  0.00     0.016 A 
ATOM     30  C   UNL A   1      42.664  23.314  25.710  1.00  0.00     0.010 A 
ATOM     31  C   UNL A   1      42.439  22.782  28.064  1.00  0.00     0.010 A 
ATOM     32  C   UNL A   1      42.643  23.729  27.052  1.00  0.00    -0.014 A 
BRANCH  32  33
ATOM     33  C   UNL A   1      42.939  25.131  27.423  1.00  0.00     0.031 A 
ATOM     34  C   UNL A   1      44.318  25.659  27.172  1.00  0.00     0.074 A 
ATOM     35  C   UNL A   1      42.015  25.911  28.013  1.00  0.00     0.049 A 
ATOM     36  N   UNL A   1      44.773  26.878  27.300  1.00  0.00    -0.248 NA
ATOM     37  C   UNL A   1      45.324  24.680  26.725  1.00  0.00     0.031 C 
ATOM     38  C   UNL A   1      40.662  25.498  28.375  1.00  0.00     0.029 A 
ATOM     39  N   UNL A   1      42.081  27.221  28.418  1.00  0.00    -0.354 N 
ATOM     40  C   UNL A   1      46.103  26.819  26.912  1.00  0.00     0.074 A 
ATOM     41  C   UNL A   1      46.406  25.435  26.625  1.00  0.00     0.031 C 
ATOM     42  C   UNL A   1      40.019  26.533  28.943  1.00  0.00     0.029 A 
ATOM     43  C   UNL A   1      40.914  27.687  28.972  1.00  0.00     0.049 A 
ATOM     44  H   UNL A   1      42.890  27.773  28.322  1.00  0.00     0.167 HD
ATOM     45  C   UNL A   1      46.984  27.834  26.768  1.00  0.00     0.037 A 
ATOM     46  C   UNL A   1      40.601  28.916  29.428  1.00  0.00     0.037 A 
ATOM     47  C   UNL A   1      46.691  29.204  27.079  1.00  0.00     0.049 A 
ATOM     48  C   UNL A   1      41.622  30.015  29.330  1.00  0.00     0.074 A 
ATOM     49  C   UNL A   1      47.481  30.323  26.897  1.00  0.00     0.029 A 
ATOM     50  N   UNL A   1      45.511  29.633  27.669  1.00  0.00    -0.354 N 
ATOM     51  N   UNL A   1      42.826  29.983  28.811  1.00  0.00    -0.248 NA
ATOM     52  C   UNL A   1      41.237  31.327  29.872  1.00  0.00     0.031 C 
ATOM     53  C   UNL A   1      46.794  31.428  27.417  1.00  0.00     0.029 A 
ATOM     54  C   UNL A   1      45.568  30.995  27.898  1.00  0.00     0.049 A 
ATOM     55  H   UNL A   1      44.748  29.053  27.892  1.00  0.00     0.167 HD
ATOM     56  C   UNL A   1      43.328  31.272  28.931  1.00  0.00     0.074 A 
ATOM     57  C   UNL A   1      42.297  32.064  29.574  1.00  0.00     0.031 C 
ATOM     58  C   UNL A   1      44.529  31.761  28.537  1.00  0.00     0.037 A 
BRANCH  45  59
ATOM     59  C   UNL A   1      48.333  27.469  26.233  1.00  0.00     0.057 A 
ATOM     60  C   UNL A   1      49.384  27.136  27.092  1.00  0.00     0.134 A 
ATOM     61  C   UNL A   1      48.569  27.396  24.852  1.00  0.00     0.134 A 
ATOM     62  F   UNL A   1      49.217  27.178  28.422  1.00  0.00    -0.206 F 
ATOM     63  C   UNL A   1      50.622  26.727  26.595  1.00  0.00     0.040 A 
ATOM     64  C   UNL A   1      49.796  26.970  24.345  1.00  0.00     0.040 A 
ATOM     65  F   UNL A   1      47.589  27.679  23.980  1.00  0.00    -0.206 F 
ATOM     66  C   UNL A   1      50.828  26.634  25.219  1.00  0.00     0.006 A 
ENDBRANCH  45  59
BRANCH  46  67
ATOM     67  C   UNL A   1      39.247  29.201  29.962  1.00  0.00     0.057 A 
ATOM     68  C   UNL A   1      38.191  29.576  29.125  1.00  0.00     0.134 A 
ATOM     69  C   UNL A   1      38.972  29.061  31.327  1.00  0.00     0.134 A 
ATOM     70  F   UNL A   1      38.390  29.722  27.807  1.00  0.00    -0.206 F 
ATOM     71  C   UNL A   1      36.906  29.797  29.626  1.00  0.00     0.040 A 
ATOM     72  C   UNL A   1      37.690  29.265  31.840  1.00  0.00     0.040 A 
ATOM     73  F   UNL A   1      39.941  28.682  32.173  1.00  0.00    -0.206 F 
ATOM     74  C   UNL A   1      36.652  29.635  30.988  1.00  0.00     0.006 A 
ENDBRANCH  46  67
BRANCH  58  75
ATOM     75  C   UNL A   1      44.783  33.217  28.775  1.00  0.00     0.057 A 
ATOM     76  C   UNL A   1      45.427  33.648  29.941  1.00  0.00     0.134 A 
ATOM     77  C   UNL A   1      44.354  34.192  27.868  1.00  0.00     0.134 A 
ATOM     78  F   UNL A   1      45.857  32.761  30.849  1.00  0.00    -0.206 F 
ATOM     79  C   UNL A   1      45.628  35.004  30.200  1.00  0.00     0.040 A 
ATOM     80  C   UNL A   1      44.567  35.550  28.108  1.00  0.00     0.040 A 
ATOM     81  F   UNL A   1      43.746  33.837  26.725  1.00  0.00    -0.206 F 
ATOM     82  C   UNL A   1      45.200  35.959  29.280  1.00  0.00     0.006 A 
ENDBRANCH  58  75
ENDBRANCH  32  33
ENDBRANCH  25  27
ENDBRANCH  24  25
ENDBRANCH   1  24
TORSDOF 12
ENDMDL
MODEL 3
REMARK VINA RESULT:     -12.0      4.579      9.682
REMARK SMILES Cc1ccc2c(=O)c3cccc(CC(=O)OCCOC(=O)c4ccc(-c5c6nc(c(-c7c(F)cccc7F)c7ccc([nH]7)c(-c7c(F)cccc7F)c7nc(c(-c8c(F)cccc8F)c8ccc5[nH]8)C=C7)C=C6)cc4)c3oc2c1C
REMARK SMILES IDX 18 1 17 2 16 3 14 4 15 5 13 6 12 7 1 8 2 9 3 10 79 11 4 12
REMARK SMILES IDX 78 13 80 14 5 15 77 16 6 17 76 18 7 19 8 20 9 21 11 22 10 23
REMARK SMILES IDX 19 24 20 25 21 26 22 27 23 28 75 29 24 30 74 31 25 32 26 33
REMARK SMILES IDX 27 34 68 35 28 36 73 37 67 38 69 39 29 40 72 41 66 42 65 43
REMARK SMILES IDX 30 45 56 46 39 47 55 48 40 49 43 50 54 51 70 52 41 53 42 54
REMARK SMILES IDX 53 56 71 57 44 58 31 59 32 60 37 61 33 62 34 63 36 64 38 65
REMARK SMILES IDX 35 66 57 67 58 68 63 69 59 70 60 71 62 72 64 73 61 74 45 75
REMARK SMILES IDX 46 76 51 77 47 78 48 79 50 80 52 81 49 82
REMARK H PARENT 69 44 43 55
REMARK Flexibility Score: inf
ROOT
ATOM      1  C   UNL A   1      39.689  20.615  26.128  1.00  0.00     0.275 C 
ENDROOT
BRANCH   1   2
ATOM      2  C   UNL A   1      38.395  20.951  25.376  1.00  0.00     0.274 C 
BRANCH   2   3
ATOM      3  O   UNL A   1      38.121  22.369  25.373  1.00  0.00    -0.462 OA
BRANCH   3   4
ATOM      4  C   UNL A   1      37.023  22.759  24.677  1.00  0.00     0.310 C 
ATOM      5  O   UNL A   1      36.679  22.270  23.603  1.00  0.00    -0.252 OA
BRANCH   4   6
ATOM      6  C   UNL A   1      36.159  23.782  25.378  1.00  0.00     0.162 C 
BRANCH   6   7
ATOM      7  C   UNL A   1      34.898  23.316  26.059  1.00  0.00     0.007 A 
ATOM      8  C   UNL A   1      31.015  28.421  22.541  1.00  0.00     0.045 C 
ATOM      9  C   UNL A   1      31.141  27.373  23.617  1.00  0.00    -0.044 A 
ATOM     10  C   UNL A   1      29.971  26.934  24.249  1.00  0.00     0.005 A 
ATOM     11  C   UNL A   1      32.390  26.846  24.027  1.00  0.00    -0.005 A 
ATOM     12  C   UNL A   1      30.026  25.952  25.236  1.00  0.00     0.016 A 
ATOM     13  C   UNL A   1      32.433  25.782  24.954  1.00  0.00     0.141 A 
ATOM     14  C   UNL A   1      33.650  27.428  23.464  1.00  0.00     0.049 C 
ATOM     15  C   UNL A   1      31.251  25.370  25.564  1.00  0.00     0.066 A 
ATOM     16  O   UNL A   1      33.651  25.185  25.215  1.00  0.00    -0.455 OA
ATOM     17  C   UNL A   1      31.308  24.301  26.566  1.00  0.00     0.200 A 
ATOM     18  C   UNL A   1      33.686  24.031  25.972  1.00  0.00     0.142 A 
ATOM     19  O   UNL A   1      30.336  24.010  27.251  1.00  0.00    -0.288 OA
ATOM     20  C   UNL A   1      32.579  23.578  26.690  1.00  0.00     0.066 A 
ATOM     21  C   UNL A   1      32.660  22.448  27.510  1.00  0.00     0.016 A 
ATOM     22  C   UNL A   1      34.963  22.164  26.866  1.00  0.00     0.008 A 
ATOM     23  C   UNL A   1      33.854  21.739  27.595  1.00  0.00     0.001 A 
ENDBRANCH   6   7
ENDBRANCH   4   6
ENDBRANCH   3   4
ENDBRANCH   2   3
ENDBRANCH   1   2
BRANCH   1  24
ATOM     24  O   UNL A   1      40.224  19.330  25.749  1.00  0.00    -0.458 OA
BRANCH  24  25
ATOM     25  C   UNL A   1      41.548  19.215  25.991  1.00  0.00     0.338 C 
ATOM     26  O   UNL A   1      42.220  18.204  25.882  1.00  0.00    -0.246 OA
BRANCH  25  27
ATOM     27  C   UNL A   1      42.162  20.498  26.365  1.00  0.00     0.060 A 
ATOM     28  C   UNL A   1      42.438  21.446  25.375  1.00  0.00     0.016 A 
ATOM     29  C   UNL A   1      42.171  20.863  27.713  1.00  0.00     0.016 A 
ATOM     30  C   UNL A   1      42.706  22.768  25.745  1.00  0.00     0.010 A 
ATOM     31  C   UNL A   1      42.382  22.189  28.076  1.00  0.00     0.010 A 
ATOM     32  C   UNL A   1      42.661  23.150  27.096  1.00  0.00    -0.014 A 
BRANCH  32  33
ATOM     33  C   UNL A   1      43.010  24.527  27.512  1.00  0.00     0.031 A 
ATOM     34  C   UNL A   1      44.453  24.928  27.513  1.00  0.00     0.074 A 
ATOM     35  C   UNL A   1      42.068  25.395  27.924  1.00  0.00     0.049 A 
ATOM     36  N   UNL A   1      44.984  26.104  27.719  1.00  0.00    -0.248 NA
ATOM     37  C   UNL A   1      45.432  23.857  27.257  1.00  0.00     0.031 C 
ATOM     38  C   UNL A   1      40.640  25.108  28.037  1.00  0.00     0.029 A 
ATOM     39  N   UNL A   1      42.176  26.701  28.333  1.00  0.00    -0.354 N 
ATOM     40  C   UNL A   1      46.351  25.923  27.577  1.00  0.00     0.074 A 
ATOM     41  C   UNL A   1      46.577  24.512  27.352  1.00  0.00     0.031 C 
ATOM     42  C   UNL A   1      40.001  26.205  28.478  1.00  0.00     0.029 A 
ATOM     43  C   UNL A   1      40.975  27.277  28.667  1.00  0.00     0.049 A 
ATOM     44  H   UNL A   1      43.036  27.179  28.383  1.00  0.00     0.167 HD
ATOM     45  C   UNL A   1      47.331  26.854  27.593  1.00  0.00     0.037 A 
ATOM     46  C   UNL A   1      40.697  28.536  29.057  1.00  0.00     0.037 A 
ATOM     47  C   UNL A   1      47.110  28.250  27.844  1.00  0.00     0.049 A 
ATOM     48  C   UNL A   1      41.813  29.540  29.143  1.00  0.00     0.074 A 
ATOM     49  C   UNL A   1      48.017  29.293  27.806  1.00  0.00     0.029 A 
ATOM     50  N   UNL A   1      45.887  28.790  28.211  1.00  0.00    -0.354 N 
ATOM     51  N   UNL A   1      43.082  29.394  28.849  1.00  0.00    -0.248 NA
ATOM     52  C   UNL A   1      41.454  30.890  29.604  1.00  0.00     0.031 C 
ATOM     53  C   UNL A   1      47.349  30.462  28.191  1.00  0.00     0.029 A 
ATOM     54  C   UNL A   1      46.023  30.147  28.444  1.00  0.00     0.049 A 
ATOM     55  H   UNL A   1      45.047  28.283  28.293  1.00  0.00     0.167 HD
ATOM     56  C   UNL A   1      43.667  30.637  29.055  1.00  0.00     0.074 A 
ATOM     57  C   UNL A   1      42.612  31.526  29.501  1.00  0.00     0.031 C 
ATOM     58  C   UNL A   1      44.958  31.011  28.884  1.00  0.00     0.037 A 
BRANCH  45  59
ATOM     59  C   UNL A   1      48.716  26.364  27.311  1.00  0.00     0.057 A 
ATOM     60  C   UNL A   1      49.223  26.342  26.008  1.00  0.00     0.134 A 
ATOM     61  C   UNL A   1      49.568  25.965  28.351  1.00  0.00     0.134 A 
ATOM     62  F   UNL A   1      48.460  26.721  24.974  1.00  0.00    -0.206 F 
ATOM     63  C   UNL A   1      50.539  25.953  25.751  1.00  0.00     0.040 A 
ATOM     64  C   UNL A   1      50.890  25.593  28.107  1.00  0.00     0.040 A 
ATOM     65  F   UNL A   1      49.145  25.991  29.624  1.00  0.00    -0.206 F 
ATOM     66  C   UNL A   1      51.379  25.586  26.802  1.00  0.00     0.006 A 
ENDBRANCH  45  59
BRANCH  46  67
ATOM     67  C   UNL A   1      39.300  28.948  29.337  1.00  0.00     0.057 A 
ATOM     68  C   UNL A   1      38.480  29.492  28.342  1.00  0.00     0.134 A 
ATOM     69  C   UNL A   1      38.740  28.763  30.607  1.00  0.00     0.134 A 
ATOM     70  F   UNL A   1      38.956  29.689  27.105  1.00  0.00    -0.206 F 
ATOM     71  C   UNL A   1      37.150  29.834  28.600  1.00  0.00     0.040 A 
ATOM     72  C   UNL A   1      37.410  29.087  30.875  1.00  0.00     0.040 A 
ATOM     73  F   UNL A   1      39.473  28.225  31.593  1.00  0.00    -0.206 F 
ATOM     74  C   UNL A   1      36.610  29.625  29.869  1.00  0.00     0.006 A 
ENDBRANCH  46  67
BRANCH  58  75
ATOM     75  C   UNL A   1      45.294  32.443  29.162  1.00  0.00     0.057 A 
ATOM     76  C   UNL A   1      45.734  32.841  30.430  1.00  0.00     0.134 A 
ATOM     77  C   UNL A   1      45.143  33.433  28.184  1.00  0.00     0.134 A 
ATOM     78  F   UNL A   1      45.895  31.938  31.409  1.00  0.00    -0.206 F 
ATOM     79  C   UNL A   1      46.005  34.178  30.718  1.00  0.00     0.040 A 
ATOM     80  C   UNL A   1      45.430  34.771  28.456  1.00  0.00     0.040 A 
ATOM     81  F   UNL A   1      44.741  33.109  26.945  1.00  0.00    -0.206 F 
ATOM     82  C   UNL A   1      45.855  35.147  29.728  1.00  0.00     0.006 A 
ENDBRANCH  58  75
ENDBRANCH  32  33
ENDBRANCH  25  27
ENDBRANCH  24  25
ENDBRANCH   1  24
TORSDOF 12
ENDMDL
