MODEL 1
REMARK VINA RESULT:      -9.4      0.000      0.000
REMARK SMILES C[C@H](CC(=O)OCCOC(=O)c1ccc(-c2c3nc(c(-c4c(F)cccc4F)c4ccc([nH]4)c(-c4c(F)cccc4F)c4nc(c(-c5c(F)cccc5F)c5ccc2[nH]5)C=C4)C=C3)cc1)[NH2+][C@H](C)c1ccccc1
REMARK SMILES IDX 7 1 6 2 4 3 5 4 3 5 2 6 1 7 66 8 67 11 68 12 69 13 70 14
REMARK SMILES IDX 74 15 71 16 73 17 72 18 8 19 9 20 10 21 11 22 12 23 13 24
REMARK SMILES IDX 65 25 14 26 64 27 15 28 16 29 17 30 58 31 18 32 63 33 57 34
REMARK SMILES IDX 59 35 19 36 62 37 56 38 55 39 20 41 46 42 29 43 45 44 30 45
REMARK SMILES IDX 33 46 44 47 60 48 31 49 32 50 43 52 61 53 34 54 21 55 22 56
REMARK SMILES IDX 27 57 23 58 24 59 26 60 28 61 25 62 47 63 48 64 53 65 49 66
REMARK SMILES IDX 50 67 52 68 54 69 51 70 35 71 36 72 41 73 37 74 38 75 40 76
REMARK SMILES IDX 42 77 39 78
REMARK H PARENT 66 9 66 10 59 40 33 51
REMARK Flexibility Score: inf
ROOT
ATOM      1  C   UNL A   1      33.672  34.418  28.383  1.00  0.00     0.274 C 
ENDROOT
BRANCH   1   2
ATOM      2  O   UNL A   1      32.828  34.682  29.517  1.00  0.00    -0.462 OA
BRANCH   2   3
ATOM      3  C   UNL A   1      32.953  35.877  30.146  1.00  0.00     0.311 C 
ATOM      4  O   UNL A   1      32.977  36.962  29.579  1.00  0.00    -0.252 OA
BRANCH   3   5
ATOM      5  C   UNL A   1      33.130  35.702  31.641  1.00  0.00     0.187 C 
BRANCH   5   6
ATOM      6  C   UNL A   1      34.443  34.995  32.039  1.00  0.00     0.190 C 
ATOM      7  C   UNL A   1      34.813  35.302  33.500  1.00  0.00     0.076 C 
BRANCH   6   8
ATOM      8  N   UNL A   1      34.270  33.543  31.867  1.00  0.00    -0.338 N 
ATOM      9  H   UNL A   1      33.576  33.407  31.132  1.00  0.00     0.347 HD
ATOM     10  H   UNL A   1      34.009  33.208  32.794  1.00  0.00     0.347 HD
BRANCH   8  11
ATOM     11  C   UNL A   1      35.460  32.730  31.504  1.00  0.00     0.210 C 
ATOM     12  C   UNL A   1      35.766  31.816  32.704  1.00  0.00     0.081 C 
BRANCH  11  13
ATOM     13  C   UNL A   1      36.696  33.472  30.996  1.00  0.00     0.009 A 
ATOM     14  C   UNL A   1      36.971  33.668  29.633  1.00  0.00     0.010 A 
ATOM     15  C   UNL A   1      37.643  33.936  31.927  1.00  0.00     0.010 A 
ATOM     16  C   UNL A   1      38.179  34.238  29.216  1.00  0.00     0.001 A 
ATOM     17  C   UNL A   1      38.850  34.503  31.512  1.00  0.00     0.001 A 
ATOM     18  C   UNL A   1      39.124  34.642  30.155  1.00  0.00     0.000 A 
ENDBRANCH  11  13
ENDBRANCH   8  11
ENDBRANCH   6   8
ENDBRANCH   5   6
ENDBRANCH   3   5
ENDBRANCH   2   3
ENDBRANCH   1   2
BRANCH   1  19
ATOM     19  C   UNL A   1      33.366  33.040  27.790  1.00  0.00     0.275 C 
BRANCH  19  20
ATOM     20  O   UNL A   1      34.579  32.289  27.610  1.00  0.00    -0.458 OA
BRANCH  20  21
ATOM     21  C   UNL A   1      34.476  30.950  27.754  1.00  0.00     0.338 C 
ATOM     22  O   UNL A   1      33.543  30.234  27.423  1.00  0.00    -0.246 OA
BRANCH  21  23
ATOM     23  C   UNL A   1      35.732  30.435  28.307  1.00  0.00     0.060 A 
ATOM     24  C   UNL A   1      36.918  30.633  27.595  1.00  0.00     0.016 A 
ATOM     25  C   UNL A   1      35.727  29.734  29.513  1.00  0.00     0.016 A 
ATOM     26  C   UNL A   1      38.120  30.146  28.102  1.00  0.00     0.010 A 
ATOM     27  C   UNL A   1      36.929  29.240  30.018  1.00  0.00     0.010 A 
ATOM     28  C   UNL A   1      38.130  29.445  29.317  1.00  0.00    -0.014 A 
BRANCH  28  29
ATOM     29  C   UNL A   1      39.390  28.895  29.861  1.00  0.00     0.031 A 
ATOM     30  C   UNL A   1      40.041  29.558  31.037  1.00  0.00     0.074 A 
ATOM     31  C   UNL A   1      39.962  27.832  29.267  1.00  0.00     0.049 A 
ATOM     32  N   UNL A   1      41.213  29.332  31.569  1.00  0.00    -0.248 NA
ATOM     33  C   UNL A   1      39.269  30.622  31.698  1.00  0.00     0.031 C 
ATOM     34  C   UNL A   1      39.399  27.090  28.139  1.00  0.00     0.029 A 
ATOM     35  N   UNL A   1      41.156  27.207  29.520  1.00  0.00    -0.354 N 
ATOM     36  C   UNL A   1      41.327  30.232  32.620  1.00  0.00     0.074 A 
ATOM     37  C   UNL A   1      40.113  31.019  32.640  1.00  0.00     0.031 C 
ATOM     38  C   UNL A   1      40.255  26.117  27.787  1.00  0.00     0.029 A 
ATOM     39  C   UNL A   1      41.441  26.195  28.636  1.00  0.00     0.049 A 
ATOM     40  H   UNL A   1      41.751  27.457  30.264  1.00  0.00     0.167 HD
ATOM     41  C   UNL A   1      42.356  30.384  33.487  1.00  0.00     0.037 A 
ATOM     42  C   UNL A   1      42.548  25.441  28.509  1.00  0.00     0.037 A 
ATOM     43  C   UNL A   1      43.562  29.599  33.454  1.00  0.00     0.049 A 
ATOM     44  C   UNL A   1      43.699  25.668  29.449  1.00  0.00     0.074 A 
ATOM     45  C   UNL A   1      44.671  29.682  34.278  1.00  0.00     0.029 A 
ATOM     46  N   UNL A   1      43.815  28.582  32.546  1.00  0.00    -0.354 N 
ATOM     47  N   UNL A   1      43.806  26.530  30.431  1.00  0.00    -0.248 NA
ATOM     48  C   UNL A   1      44.886  24.822  29.261  1.00  0.00     0.031 C 
ATOM     49  C   UNL A   1      45.606  28.733  33.851  1.00  0.00     0.029 A 
ATOM     50  C   UNL A   1      45.063  28.034  32.784  1.00  0.00     0.049 A 
ATOM     51  H   UNL A   1      43.196  28.292  31.837  1.00  0.00     0.167 HD
ATOM     52  C   UNL A   1      45.055  26.312  30.996  1.00  0.00     0.074 A 
ATOM     53  C   UNL A   1      45.669  25.232  30.249  1.00  0.00     0.031 C 
ATOM     54  C   UNL A   1      45.644  26.948  32.038  1.00  0.00     0.037 A 
BRANCH  41  55
ATOM     55  C   UNL A   1      42.227  31.453  34.529  1.00  0.00     0.057 A 
ATOM     56  C   UNL A   1      41.702  31.183  35.799  1.00  0.00     0.134 A 
ATOM     57  C   UNL A   1      42.664  32.758  34.273  1.00  0.00     0.134 A 
ATOM     58  F   UNL A   1      41.254  29.956  36.103  1.00  0.00    -0.206 F 
ATOM     59  C   UNL A   1      41.601  32.179  36.773  1.00  0.00     0.040 A 
ATOM     60  C   UNL A   1      42.586  33.758  35.244  1.00  0.00     0.040 A 
ATOM     61  F   UNL A   1      43.178  33.082  33.077  1.00  0.00    -0.206 F 
ATOM     62  C   UNL A   1      42.050  33.469  36.498  1.00  0.00     0.006 A 
ENDBRANCH  41  55
BRANCH  42  63
ATOM     63  C   UNL A   1      42.628  24.413  27.443  1.00  0.00     0.057 A 
ATOM     64  C   UNL A   1      43.084  24.736  26.161  1.00  0.00     0.134 A 
ATOM     65  C   UNL A   1      42.245  23.087  27.678  1.00  0.00     0.134 A 
ATOM     66  F   UNL A   1      43.443  25.994  25.870  1.00  0.00    -0.206 F 
ATOM     67  C   UNL A   1      43.146  23.780  25.145  1.00  0.00     0.040 A 
ATOM     68  C   UNL A   1      42.324  22.116  26.679  1.00  0.00     0.040 A 
ATOM     69  F   UNL A   1      41.799  22.714  28.887  1.00  0.00    -0.206 F 
ATOM     70  C   UNL A   1      42.770  22.464  25.405  1.00  0.00     0.006 A 
ENDBRANCH  42  63
BRANCH  54  71
ATOM     71  C   UNL A   1      46.996  26.459  32.458  1.00  0.00     0.057 A 
ATOM     72  C   UNL A   1      47.152  25.428  33.390  1.00  0.00     0.134 A 
ATOM     73  C   UNL A   1      48.155  27.006  31.892  1.00  0.00     0.134 A 
ATOM     74  F   UNL A   1      46.079  24.874  33.977  1.00  0.00    -0.206 F 
ATOM     75  C   UNL A   1      48.416  24.967  33.759  1.00  0.00     0.040 A 
ATOM     76  C   UNL A   1      49.423  26.540  32.238  1.00  0.00     0.040 A 
ATOM     77  F   UNL A   1      48.071  27.993  30.987  1.00  0.00    -0.206 F 
ATOM     78  C   UNL A   1      49.556  25.520  33.178  1.00  0.00     0.006 A 
ENDBRANCH  54  71
ENDBRANCH  28  29
ENDBRANCH  21  23
ENDBRANCH  20  21
ENDBRANCH  19  20
ENDBRANCH   1  19
TORSDOF 15
ENDMDL
MODEL 2
REMARK VINA RESULT:      -9.4      1.393      2.176
REMARK SMILES C[C@H](CC(=O)OCCOC(=O)c1ccc(-c2c3nc(c(-c4c(F)cccc4F)c4ccc([nH]4)c(-c4c(F)cccc4F)c4nc(c(-c5c(F)cccc5F)c5ccc2[nH]5)C=C4)C=C3)cc1)[NH2+][C@H](C)c1ccccc1
REMARK SMILES IDX 7 1 6 2 4 3 5 4 3 5 2 6 1 7 66 8 67 11 68 12 69 13 70 14
REMARK SMILES IDX 74 15 71 16 73 17 72 18 8 19 9 20 10 21 11 22 12 23 13 24
REMARK SMILES IDX 65 25 14 26 64 27 15 28 16 29 17 30 58 31 18 32 63 33 57 34
REMARK SMILES IDX 59 35 19 36 62 37 56 38 55 39 20 41 46 42 29 43 45 44 30 45
REMARK SMILES IDX 33 46 44 47 60 48 31 49 32 50 43 52 61 53 34 54 21 55 22 56
REMARK SMILES IDX 27 57 23 58 24 59 26 60 28 61 25 62 47 63 48 64 53 65 49 66
REMARK SMILES IDX 50 67 52 68 54 69 51 70 35 71 36 72 41 73 37 74 38 75 40 76
REMARK SMILES IDX 42 77 39 78
REMARK H PARENT 66 9 66 10 59 40 33 51
REMARK Flexibility Score: inf
ROOT
ATOM      1  C   UNL A   1      33.693  34.110  28.348  1.00  0.00     0.274 C 
ENDROOT
BRANCH   1   2
ATOM      2  O   UNL A   1      32.862  34.473  29.465  1.00  0.00    -0.462 OA
BRANCH   2   3
ATOM      3  C   UNL A   1      33.021  35.705  30.010  1.00  0.00     0.311 C 
ATOM      4  O   UNL A   1      33.090  36.746  29.368  1.00  0.00    -0.252 OA
BRANCH   3   5
ATOM      5  C   UNL A   1      33.174  35.630  31.516  1.00  0.00     0.187 C 
BRANCH   5   6
ATOM      6  C   UNL A   1      34.480  34.952  31.981  1.00  0.00     0.190 C 
ATOM      7  C   UNL A   1      34.781  35.285  33.452  1.00  0.00     0.076 C 
BRANCH   6   8
ATOM      8  N   UNL A   1      34.339  33.494  31.822  1.00  0.00    -0.338 N 
ATOM      9  H   UNL A   1      33.684  33.336  31.056  1.00  0.00     0.347 HD
ATOM     10  H   UNL A   1      34.037  33.169  32.740  1.00  0.00     0.347 HD
BRANCH   8  11
ATOM     11  C   UNL A   1      35.558  32.696  31.531  1.00  0.00     0.210 C 
ATOM     12  C   UNL A   1      35.910  31.924  32.816  1.00  0.00     0.081 C 
BRANCH  11  13
ATOM     13  C   UNL A   1      36.759  33.430  30.935  1.00  0.00     0.009 A 
ATOM     14  C   UNL A   1      36.989  33.537  29.553  1.00  0.00     0.010 A 
ATOM     15  C   UNL A   1      37.721  33.980  31.802  1.00  0.00     0.010 A 
ATOM     16  C   UNL A   1      38.168  34.106  29.061  1.00  0.00     0.001 A 
ATOM     17  C   UNL A   1      38.901  34.545  31.311  1.00  0.00     0.001 A 
ATOM     18  C   UNL A   1      39.130  34.596  29.940  1.00  0.00     0.000 A 
ENDBRANCH  11  13
ENDBRANCH   8  11
ENDBRANCH   6   8
ENDBRANCH   5   6
ENDBRANCH   3   5
ENDBRANCH   2   3
ENDBRANCH   1   2
BRANCH   1  19
ATOM     19  C   UNL A   1      33.439  32.658  27.936  1.00  0.00     0.275 C 
BRANCH  19  20
ATOM     20  O   UNL A   1      34.685  31.970  27.725  1.00  0.00    -0.458 OA
BRANCH  20  21
ATOM     21  C   UNL A   1      34.651  30.627  27.860  1.00  0.00     0.338 C 
ATOM     22  O   UNL A   1      33.707  29.880  27.654  1.00  0.00    -0.246 OA
BRANCH  21  23
ATOM     23  C   UNL A   1      35.992  30.153  28.219  1.00  0.00     0.060 A 
ATOM     24  C   UNL A   1      36.219  29.683  29.515  1.00  0.00     0.016 A 
ATOM     25  C   UNL A   1      37.023  30.202  27.281  1.00  0.00     0.016 A 
ATOM     26  C   UNL A   1      37.488  29.234  29.875  1.00  0.00     0.010 A 
ATOM     27  C   UNL A   1      38.294  29.758  27.643  1.00  0.00     0.010 A 
ATOM     28  C   UNL A   1      38.532  29.271  28.941  1.00  0.00    -0.014 A 
BRANCH  28  29
ATOM     29  C   UNL A   1      39.892  28.826  29.309  1.00  0.00     0.031 A 
ATOM     30  C   UNL A   1      40.793  29.749  30.072  1.00  0.00     0.074 A 
ATOM     31  C   UNL A   1      40.323  27.613  28.917  1.00  0.00     0.049 A 
ATOM     32  N   UNL A   1      42.061  29.616  30.360  1.00  0.00    -0.248 NA
ATOM     33  C   UNL A   1      40.184  30.991  30.574  1.00  0.00     0.031 C 
ATOM     34  C   UNL A   1      39.520  26.623  28.200  1.00  0.00     0.029 A 
ATOM     35  N   UNL A   1      41.551  27.019  29.050  1.00  0.00    -0.354 N 
ATOM     36  C   UNL A   1      42.408  30.760  31.065  1.00  0.00     0.074 A 
ATOM     37  C   UNL A   1      41.221  31.584  31.148  1.00  0.00     0.031 C 
ATOM     38  C   UNL A   1      40.282  25.547  27.942  1.00  0.00     0.029 A 
ATOM     39  C   UNL A   1      41.634  25.792  28.439  1.00  0.00     0.049 A 
ATOM     40  H   UNL A   1      42.302  27.431  29.537  1.00  0.00     0.167 HD
ATOM     41  C   UNL A   1      43.610  31.088  31.594  1.00  0.00     0.037 A 
ATOM     42  C   UNL A   1      42.690  24.976  28.273  1.00  0.00     0.037 A 
ATOM     43  C   UNL A   1      44.785  30.262  31.502  1.00  0.00     0.049 A 
ATOM     44  C   UNL A   1      44.028  25.389  28.821  1.00  0.00     0.074 A 
ATOM     45  C   UNL A   1      46.056  30.509  31.992  1.00  0.00     0.029 A 
ATOM     46  N   UNL A   1      44.830  29.025  30.878  1.00  0.00    -0.354 N 
ATOM     47  N   UNL A   1      44.352  26.479  29.474  1.00  0.00    -0.248 NA
ATOM     48  C   UNL A   1      45.148  24.463  28.605  1.00  0.00     0.031 C 
ATOM     49  C   UNL A   1      46.877  29.432  31.639  1.00  0.00     0.029 A 
ATOM     50  C   UNL A   1      46.107  28.498  30.963  1.00  0.00     0.049 A 
ATOM     51  H   UNL A   1      44.066  28.586  30.440  1.00  0.00     0.167 HD
ATOM     52  C   UNL A   1      45.701  26.358  29.772  1.00  0.00     0.074 A 
ATOM     53  C   UNL A   1      46.137  25.085  29.232  1.00  0.00     0.031 C 
ATOM     54  C   UNL A   1      46.511  27.222  30.432  1.00  0.00     0.037 A 
BRANCH  41  55
ATOM     55  C   UNL A   1      43.716  32.406  32.301  1.00  0.00     0.057 A 
ATOM     56  C   UNL A   1      43.503  32.520  33.681  1.00  0.00     0.134 A 
ATOM     57  C   UNL A   1      44.067  33.566  31.602  1.00  0.00     0.134 A 
ATOM     58  F   UNL A   1      43.150  31.448  34.405  1.00  0.00    -0.206 F 
ATOM     59  C   UNL A   1      43.621  33.747  34.337  1.00  0.00     0.040 A 
ATOM     60  C   UNL A   1      44.207  34.795  32.250  1.00  0.00     0.040 A 
ATOM     61  F   UNL A   1      44.287  33.524  30.278  1.00  0.00    -0.206 F 
ATOM     62  C   UNL A   1      43.980  34.887  33.622  1.00  0.00     0.006 A 
ENDBRANCH  41  55
BRANCH  42  63
ATOM     63  C   UNL A   1      42.531  23.693  27.544  1.00  0.00     0.057 A 
ATOM     64  C   UNL A   1      42.262  22.503  28.228  1.00  0.00     0.134 A 
ATOM     65  C   UNL A   1      42.650  23.625  26.151  1.00  0.00     0.134 A 
ATOM     66  F   UNL A   1      42.161  22.501  29.565  1.00  0.00    -0.206 F 
ATOM     67  C   UNL A   1      42.129  21.288  27.555  1.00  0.00     0.040 A 
ATOM     68  C   UNL A   1      42.496  22.421  25.462  1.00  0.00     0.040 A 
ATOM     69  F   UNL A   1      42.906  24.732  25.437  1.00  0.00    -0.206 F 
ATOM     70  C   UNL A   1      42.241  21.246  26.166  1.00  0.00     0.006 A 
ENDBRANCH  42  63
BRANCH  54  71
ATOM     71  C   UNL A   1      47.931  26.796  30.647  1.00  0.00     0.057 A 
ATOM     72  C   UNL A   1      48.958  27.188  29.782  1.00  0.00     0.134 A 
ATOM     73  C   UNL A   1      48.277  26.013  31.756  1.00  0.00     0.134 A 
ATOM     74  F   UNL A   1      48.687  27.926  28.694  1.00  0.00    -0.206 F 
ATOM     75  C   UNL A   1      50.280  26.801  30.002  1.00  0.00     0.040 A 
ATOM     76  C   UNL A   1      49.598  25.638  31.998  1.00  0.00     0.040 A 
ATOM     77  F   UNL A   1      47.337  25.612  32.626  1.00  0.00    -0.206 F 
ATOM     78  C   UNL A   1      50.604  26.029  31.117  1.00  0.00     0.006 A 
ENDBRANCH  54  71
ENDBRANCH  28  29
ENDBRANCH  21  23
ENDBRANCH  20  21
ENDBRANCH  19  20
ENDBRANCH   1  19
TORSDOF 15
ENDMDL
MODEL 3
REMARK VINA RESULT:      -9.3      4.390      9.987
REMARK SMILES C[C@H](CC(=O)OCCOC(=O)c1ccc(-c2c3nc(c(-c4c(F)cccc4F)c4ccc([nH]4)c(-c4c(F)cccc4F)c4nc(c(-c5c(F)cccc5F)c5ccc2[nH]5)C=C4)C=C3)cc1)[NH2+][C@H](C)c1ccccc1
REMARK SMILES IDX 7 1 6 2 4 3 5 4 3 5 2 6 1 7 66 8 67 11 68 12 69 13 70 14
REMARK SMILES IDX 74 15 71 16 73 17 72 18 8 19 9 20 10 21 11 22 12 23 13 24
REMARK SMILES IDX 65 25 14 26 64 27 15 28 16 29 17 30 58 31 18 32 63 33 57 34
REMARK SMILES IDX 59 35 19 36 62 37 56 38 55 39 20 41 46 42 29 43 45 44 30 45
REMARK SMILES IDX 33 46 44 47 60 48 31 49 32 50 43 52 61 53 34 54 21 55 22 56
REMARK SMILES IDX 27 57 23 58 24 59 26 60 28 61 25 62 47 63 48 64 53 65 49 66
REMARK SMILES IDX 50 67 52 68 54 69 51 70 35 71 36 72 41 73 37 74 38 75 40 76
REMARK SMILES IDX 42 77 39 78
REMARK H PARENT 66 9 66 10 59 40 33 51
REMARK Flexibility Score: inf
ROOT
ATOM      1  C   UNL A   1      42.955  21.284  25.782  1.00  0.00     0.274 C 
ENDROOT
BRANCH   1   2
ATOM      2  O   UNL A   1      41.581  21.711  25.777  1.00  0.00    -0.462 OA
BRANCH   2   3
ATOM      3  C   UNL A   1      40.810  21.405  26.850  1.00  0.00     0.311 C 
ATOM      4  O   UNL A   1      40.487  20.269  27.173  1.00  0.00    -0.252 OA
BRANCH   3   5
ATOM      5  C   UNL A   1      40.335  22.654  27.566  1.00  0.00     0.187 C 
BRANCH   5   6
ATOM      6  C   UNL A   1      39.128  23.342  26.895  1.00  0.00     0.190 C 
ATOM      7  C   UNL A   1      39.466  24.789  26.502  1.00  0.00     0.076 C 
BRANCH   6   8
ATOM      8  N   UNL A   1      38.755  22.576  25.693  1.00  0.00    -0.338 N 
ATOM      9  H   UNL A   1      39.436  21.823  25.592  1.00  0.00     0.347 HD
ATOM     10  H   UNL A   1      38.743  23.270  24.946  1.00  0.00     0.347 HD
BRANCH   8  11
ATOM     11  C   UNL A   1      37.404  21.959  25.643  1.00  0.00     0.210 C 
ATOM     12  C   UNL A   1      37.566  20.570  24.998  1.00  0.00     0.081 C 
BRANCH  11  13
ATOM     13  C   UNL A   1      36.275  22.775  25.015  1.00  0.00     0.009 A 
ATOM     14  C   UNL A   1      35.823  22.582  23.699  1.00  0.00     0.010 A 
ATOM     15  C   UNL A   1      35.690  23.814  25.761  1.00  0.00     0.010 A 
ATOM     16  C   UNL A   1      34.877  23.440  23.129  1.00  0.00     0.001 A 
ATOM     17  C   UNL A   1      34.747  24.673  25.191  1.00  0.00     0.001 A 
ATOM     18  C   UNL A   1      34.350  24.494  23.871  1.00  0.00     0.000 A 
ENDBRANCH  11  13
ENDBRANCH   8  11
ENDBRANCH   6   8
ENDBRANCH   5   6
ENDBRANCH   3   5
ENDBRANCH   2   3
ENDBRANCH   1   2
BRANCH   1  19
ATOM     19  C   UNL A   1      43.814  22.216  24.923  1.00  0.00     0.275 C 
BRANCH  19  20
ATOM     20  O   UNL A   1      43.305  23.560  24.977  1.00  0.00    -0.458 OA
BRANCH  20  21
ATOM     21  C   UNL A   1      44.214  24.530  25.217  1.00  0.00     0.338 C 
ATOM     22  O   UNL A   1      45.264  24.730  24.627  1.00  0.00    -0.246 OA
BRANCH  21  23
ATOM     23  C   UNL A   1      43.703  25.406  26.276  1.00  0.00     0.060 A 
ATOM     24  C   UNL A   1      43.985  26.774  26.217  1.00  0.00     0.016 A 
ATOM     25  C   UNL A   1      42.972  24.868  27.335  1.00  0.00     0.016 A 
ATOM     26  C   UNL A   1      43.512  27.621  27.218  1.00  0.00     0.010 A 
ATOM     27  C   UNL A   1      42.505  25.715  28.339  1.00  0.00     0.010 A 
ATOM     28  C   UNL A   1      42.771  27.094  28.285  1.00  0.00    -0.014 A 
BRANCH  28  29
ATOM     29  C   UNL A   1      42.283  27.970  29.371  1.00  0.00     0.031 A 
ATOM     30  C   UNL A   1      42.990  27.974  30.692  1.00  0.00     0.074 A 
ATOM     31  C   UNL A   1      41.184  28.719  29.176  1.00  0.00     0.049 A 
ATOM     32  N   UNL A   1      42.640  28.546  31.815  1.00  0.00    -0.248 NA
ATOM     33  C   UNL A   1      44.257  27.230  30.760  1.00  0.00     0.031 C 
ATOM     34  C   UNL A   1      40.439  28.816  27.921  1.00  0.00     0.029 A 
ATOM     35  N   UNL A   1      40.492  29.526  30.042  1.00  0.00    -0.354 N 
ATOM     36  C   UNL A   1      43.636  28.223  32.726  1.00  0.00     0.074 A 
ATOM     37  C   UNL A   1      44.595  27.391  32.031  1.00  0.00     0.031 C 
ATOM     38  C   UNL A   1      39.382  29.626  28.103  1.00  0.00     0.029 A 
ATOM     39  C   UNL A   1      39.356  30.069  29.494  1.00  0.00     0.049 A 
ATOM     40  H   UNL A   1      40.781  29.701  30.967  1.00  0.00     0.167 HD
ATOM     41  C   UNL A   1      43.736  28.590  34.026  1.00  0.00     0.037 A 
ATOM     42  C   UNL A   1      38.388  30.812  30.063  1.00  0.00     0.037 A 
ATOM     43  C   UNL A   1      42.773  29.414  34.709  1.00  0.00     0.049 A 
ATOM     44  C   UNL A   1      38.495  31.159  31.521  1.00  0.00     0.074 A 
ATOM     45  C   UNL A   1      42.774  29.832  36.028  1.00  0.00     0.029 A 
ATOM     46  N   UNL A   1      41.636  29.947  34.120  1.00  0.00    -0.354 N 
ATOM     47  N   UNL A   1      39.431  30.838  32.381  1.00  0.00    -0.248 NA
ATOM     48  C   UNL A   1      37.407  31.967  32.092  1.00  0.00     0.031 C 
ATOM     49  C   UNL A   1      41.622  30.597  36.244  1.00  0.00     0.029 A 
ATOM     50  C   UNL A   1      40.924  30.685  35.050  1.00  0.00     0.049 A 
ATOM     51  H   UNL A   1      41.375  29.820  33.179  1.00  0.00     0.167 HD
ATOM     52  C   UNL A   1      39.064  31.426  33.583  1.00  0.00     0.074 A 
ATOM     53  C   UNL A   1      37.819  32.129  33.342  1.00  0.00     0.031 C 
ATOM     54  C   UNL A   1      39.697  31.388  34.780  1.00  0.00     0.037 A 
BRANCH  41  55
ATOM     55  C   UNL A   1      44.918  28.084  34.796  1.00  0.00     0.057 A 
ATOM     56  C   UNL A   1      44.891  26.850  35.459  1.00  0.00     0.134 A 
ATOM     57  C   UNL A   1      46.107  28.821  34.848  1.00  0.00     0.134 A 
ATOM     58  F   UNL A   1      43.777  26.102  35.459  1.00  0.00    -0.206 F 
ATOM     59  C   UNL A   1      46.001  26.375  36.160  1.00  0.00     0.040 A 
ATOM     60  C   UNL A   1      47.229  28.348  35.530  1.00  0.00     0.040 A 
ATOM     61  F   UNL A   1      46.199  30.010  34.233  1.00  0.00    -0.206 F 
ATOM     62  C   UNL A   1      47.177  27.122  36.191  1.00  0.00     0.006 A 
ENDBRANCH  41  55
BRANCH  42  63
ATOM     63  C   UNL A   1      37.229  31.266  29.255  1.00  0.00     0.057 A 
ATOM     64  C   UNL A   1      37.167  32.569  28.750  1.00  0.00     0.134 A 
ATOM     65  C   UNL A   1      36.155  30.413  28.976  1.00  0.00     0.134 A 
ATOM     66  F   UNL A   1      38.155  33.439  29.005  1.00  0.00    -0.206 F 
ATOM     67  C   UNL A   1      36.073  33.013  28.006  1.00  0.00     0.040 A 
ATOM     68  C   UNL A   1      35.066  30.836  28.213  1.00  0.00     0.040 A 
ATOM     69  F   UNL A   1      36.155  29.151  29.431  1.00  0.00    -0.206 F 
ATOM     70  C   UNL A   1      35.020  32.142  27.731  1.00  0.00     0.006 A 
ENDBRANCH  42  63
BRANCH  54  71
ATOM     71  C   UNL A   1      39.080  32.166  35.902  1.00  0.00     0.057 A 
ATOM     72  C   UNL A   1      38.167  31.585  36.789  1.00  0.00     0.134 A 
ATOM     73  C   UNL A   1      39.434  33.505  36.116  1.00  0.00     0.134 A 
ATOM     74  F   UNL A   1      37.779  30.310  36.627  1.00  0.00    -0.206 F 
ATOM     75  C   UNL A   1      37.613  32.313  37.842  1.00  0.00     0.040 A 
ATOM     76  C   UNL A   1      38.902  34.236  37.177  1.00  0.00     0.040 A 
ATOM     77  F   UNL A   1      40.309  34.116  35.304  1.00  0.00    -0.206 F 
ATOM     78  C   UNL A   1      37.986  33.642  38.042  1.00  0.00     0.006 A 
ENDBRANCH  54  71
ENDBRANCH  28  29
ENDBRANCH  21  23
ENDBRANCH  20  21
ENDBRANCH  19  20
ENDBRANCH   1  19
TORSDOF 15
ENDMDL
