MODEL 1
REMARK VINA RESULT:     -13.1      0.000      0.000
REMARK SMILES Cc1ccc(C2=NN(C(=O)CCC(=O)OCCOC(=O)c3ccc(-c4c5nc(c(-c6c(F)cccc6F)c6ccc([nH]6)c(-c6c(F)cccc6F)c6nc(c(-c7c(F)cccc7F)c7ccc4[nH]7)C=C6)C=C5)cc3)[C@H](C[C@@H]3C=c4cccc(C)c4=NC3=O)C2)cc1
REMARK SMILES IDX 15 1 13 2 14 3 12 4 11 5 9 6 10 7 8 8 6 9 7 10 89 11 75 12
REMARK SMILES IDX 5 13 1 14 2 15 3 16 91 17 4 18 90 19 76 20 77 21 78 22 87 23
REMARK SMILES IDX 79 24 86 25 88 26 80 27 85 28 81 29 83 30 82 31 84 32 16 33
REMARK SMILES IDX 17 34 18 35 19 36 20 37 21 38 22 39 74 40 23 41 73 42 24 43
REMARK SMILES IDX 25 44 26 45 67 46 27 47 72 48 66 49 68 50 28 51 71 52 65 53
REMARK SMILES IDX 64 54 29 56 55 57 38 58 54 59 39 60 42 61 53 62 69 63 40 64
REMARK SMILES IDX 41 65 52 67 70 68 43 69 30 70 31 71 36 72 32 73 33 74 35 75
REMARK SMILES IDX 37 76 34 77 56 78 57 79 62 80 58 81 59 82 61 83 63 84 60 85
REMARK SMILES IDX 44 86 45 87 50 88 46 89 47 90 49 91 51 92 48 93
REMARK H PARENT 68 55 42 66
REMARK Flexibility Score: inf
ROOT
ATOM      1  O   UNL A   1      32.668  28.746  26.432  1.00  0.00    -0.462 OA
ENDROOT
BRANCH   1   2
ATOM      2  C   UNL A   1      31.924  27.816  27.053  1.00  0.00     0.306 C 
ATOM      3  O   UNL A   1      31.187  28.008  28.003  1.00  0.00    -0.252 OA
BRANCH   2   4
ATOM      4  C   UNL A   1      31.936  26.499  26.353  1.00  0.00     0.132 C 
BRANCH   4   5
ATOM      5  C   UNL A   1      33.391  26.142  26.124  1.00  0.00     0.114 C 
BRANCH   5   6
ATOM      6  C   UNL A   1      33.549  24.640  26.027  1.00  0.00     0.243 C 
ATOM      7  O   UNL A   1      32.750  23.952  26.675  1.00  0.00    -0.273 OA
BRANCH   6   8
ATOM      8  N   UNL A   1      34.607  24.074  25.318  1.00  0.00    -0.230 N 
ATOM      9  C   UNL A   1      36.683  23.476  25.446  1.00  0.00     0.070 C 
ATOM     10  N   UNL A   1      35.640  23.716  26.162  1.00  0.00    -0.174 NA
ATOM     11  C   UNL A   1      36.489  23.478  23.974  1.00  0.00     0.086 C 
ATOM     12  C   UNL A   1      35.079  24.078  23.894  1.00  0.00     0.118 C 
BRANCH   9  13
ATOM     13  C   UNL A   1      37.974  23.158  26.034  1.00  0.00    -0.002 A 
ATOM     14  C   UNL A   1      41.702  22.067  27.817  1.00  0.00     0.044 C 
ATOM     15  C   UNL A   1      40.392  22.466  27.205  1.00  0.00    -0.051 A 
ATOM     16  C   UNL A   1      39.698  21.539  26.414  1.00  0.00     0.004 A 
ATOM     17  C   UNL A   1      39.853  23.744  27.414  1.00  0.00     0.004 A 
ATOM     18  C   UNL A   1      38.485  21.881  25.830  1.00  0.00     0.010 A 
ATOM     19  C   UNL A   1      38.636  24.095  26.831  1.00  0.00     0.010 A 
ENDBRANCH   9  13
BRANCH  12  20
ATOM     20  C   UNL A   1      34.307  23.369  22.757  1.00  0.00     0.045 C 
BRANCH  20  21
ATOM     21  C   UNL A   1      33.091  24.114  22.201  1.00  0.00     0.106 C 
ATOM     22  C   UNL A   1      33.320  25.576  22.328  1.00  0.00    -0.003 C 
ATOM     23  C   UNL A   1      31.756  23.672  22.837  1.00  0.00     0.253 C 
ATOM     24  C   UNL A   1      32.357  26.453  22.574  1.00  0.00    -0.003 A 
ATOM     25  N   UNL A   1      30.786  24.619  23.099  1.00  0.00    -0.212 NA
ATOM     26  O   UNL A   1      31.558  22.480  23.069  1.00  0.00    -0.272 OA
ATOM     27  C   UNL A   1      32.569  27.868  22.431  1.00  0.00     0.010 A 
ATOM     28  C   UNL A   1      31.052  25.882  22.996  1.00  0.00     0.077 A 
ATOM     29  C   UNL A   1      31.580  28.717  22.718  1.00  0.00     0.001 A 
ATOM     30  C   UNL A   1      30.045  26.923  23.399  1.00  0.00    -0.025 A 
ATOM     31  C   UNL A   1      30.331  28.231  23.254  1.00  0.00     0.005 A 
ATOM     32  C   UNL A   1      28.801  26.432  24.066  1.00  0.00     0.047 C 
ENDBRANCH  20  21
ENDBRANCH  12  20
ENDBRANCH   6   8
ENDBRANCH   5   6
ENDBRANCH   4   5
ENDBRANCH   2   4
ENDBRANCH   1   2
BRANCH   1  33
ATOM     33  C   UNL A   1      32.459  30.172  26.544  1.00  0.00     0.274 C 
BRANCH  33  34
ATOM     34  C   UNL A   1      33.326  31.209  27.339  1.00  0.00     0.275 C 
BRANCH  34  35
ATOM     35  O   UNL A   1      33.064  32.634  27.550  1.00  0.00    -0.458 OA
BRANCH  35  36
ATOM     36  C   UNL A   1      33.560  33.593  28.400  1.00  0.00     0.338 C 
ATOM     37  O   UNL A   1      33.005  34.622  28.649  1.00  0.00    -0.246 OA
BRANCH  36  38
ATOM     38  C   UNL A   1      34.797  33.214  29.110  1.00  0.00     0.060 A 
ATOM     39  C   UNL A   1      34.765  32.330  30.212  1.00  0.00     0.016 A 
ATOM     40  C   UNL A   1      35.961  33.503  28.455  1.00  0.00     0.016 A 
ATOM     41  C   UNL A   1      35.902  31.568  30.523  1.00  0.00     0.010 A 
ATOM     42  C   UNL A   1      36.971  32.602  28.618  1.00  0.00     0.010 A 
ATOM     43  C   UNL A   1      36.999  31.661  29.671  1.00  0.00    -0.014 A 
BRANCH  43  44
ATOM     44  C   UNL A   1      38.327  31.055  29.813  1.00  0.00     0.031 A 
ATOM     45  C   UNL A   1      38.835  29.829  29.151  1.00  0.00     0.074 A 
ATOM     46  C   UNL A   1      39.194  31.893  30.435  1.00  0.00     0.049 A 
ATOM     47  N   UNL A   1      39.841  29.145  29.583  1.00  0.00    -0.248 NA
ATOM     48  C   UNL A   1      38.305  29.288  27.907  1.00  0.00     0.031 C 
ATOM     49  C   UNL A   1      40.639  31.891  30.474  1.00  0.00     0.029 A 
ATOM     50  N   UNL A   1      38.870  33.011  31.219  1.00  0.00    -0.354 N 
ATOM     51  C   UNL A   1      40.266  28.316  28.559  1.00  0.00     0.074 A 
ATOM     52  C   UNL A   1      39.205  28.349  27.584  1.00  0.00     0.031 C 
ATOM     53  C   UNL A   1      41.031  32.702  31.479  1.00  0.00     0.029 A 
ATOM     54  C   UNL A   1      39.827  33.102  32.206  1.00  0.00     0.049 A 
ATOM     55  H   UNL A   1      38.104  33.615  31.090  1.00  0.00     0.167 HD
ATOM     56  C   UNL A   1      41.547  27.841  28.548  1.00  0.00     0.037 A 
ATOM     57  C   UNL A   1      39.494  32.802  33.498  1.00  0.00     0.037 A 
ATOM     58  C   UNL A   1      42.310  28.427  29.644  1.00  0.00     0.049 A 
ATOM     59  C   UNL A   1      40.323  31.636  33.972  1.00  0.00     0.074 A 
ATOM     60  C   UNL A   1      43.167  29.516  29.681  1.00  0.00     0.029 A 
ATOM     61  N   UNL A   1      41.979  28.135  30.959  1.00  0.00    -0.354 N 
ATOM     62  N   UNL A   1      40.776  30.708  33.174  1.00  0.00    -0.248 NA
ATOM     63  C   UNL A   1      40.761  31.463  35.349  1.00  0.00     0.031 C 
ATOM     64  C   UNL A   1      43.299  29.920  31.031  1.00  0.00     0.029 A 
ATOM     65  C   UNL A   1      42.540  29.065  31.812  1.00  0.00     0.049 A 
ATOM     66  H   UNL A   1      41.423  27.374  31.244  1.00  0.00     0.167 HD
ATOM     67  C   UNL A   1      41.643  29.908  33.863  1.00  0.00     0.074 A 
ATOM     68  C   UNL A   1      41.567  30.393  35.231  1.00  0.00     0.031 C 
ATOM     69  C   UNL A   1      42.382  28.941  33.251  1.00  0.00     0.037 A 
BRANCH  56  70
ATOM     70  C   UNL A   1      42.205  27.096  27.402  1.00  0.00     0.057 A 
ATOM     71  C   UNL A   1      42.404  27.704  26.142  1.00  0.00     0.134 A 
ATOM     72  C   UNL A   1      42.697  25.782  27.492  1.00  0.00     0.134 A 
ATOM     73  F   UNL A   1      42.064  28.977  25.909  1.00  0.00    -0.206 F 
ATOM     74  C   UNL A   1      42.969  27.038  25.045  1.00  0.00     0.040 A 
ATOM     75  C   UNL A   1      43.238  25.093  26.390  1.00  0.00     0.040 A 
ATOM     76  F   UNL A   1      42.714  25.127  28.660  1.00  0.00    -0.206 F 
ATOM     77  C   UNL A   1      43.367  25.718  25.157  1.00  0.00     0.006 A 
ENDBRANCH  56  70
BRANCH  57  78
ATOM     78  C   UNL A   1      38.044  33.030  33.832  1.00  0.00     0.057 A 
ATOM     79  C   UNL A   1      37.578  34.357  33.959  1.00  0.00     0.134 A 
ATOM     80  C   UNL A   1      37.063  32.046  33.636  1.00  0.00     0.134 A 
ATOM     81  F   UNL A   1      38.453  35.362  34.113  1.00  0.00    -0.206 F 
ATOM     82  C   UNL A   1      36.230  34.699  33.788  1.00  0.00     0.040 A 
ATOM     83  C   UNL A   1      35.705  32.378  33.478  1.00  0.00     0.040 A 
ATOM     84  F   UNL A   1      37.405  30.761  33.485  1.00  0.00    -0.206 F 
ATOM     85  C   UNL A   1      35.292  33.708  33.521  1.00  0.00     0.006 A 
ENDBRANCH  57  78
BRANCH  69  86
ATOM     86  C   UNL A   1      43.113  27.827  33.942  1.00  0.00     0.057 A 
ATOM     87  C   UNL A   1      44.493  27.842  34.173  1.00  0.00     0.134 A 
ATOM     88  C   UNL A   1      42.400  26.789  34.586  1.00  0.00     0.134 A 
ATOM     89  F   UNL A   1      45.274  28.826  33.706  1.00  0.00    -0.206 F 
ATOM     90  C   UNL A   1      45.127  26.874  34.959  1.00  0.00     0.040 A 
ATOM     91  C   UNL A   1      43.013  25.857  35.422  1.00  0.00     0.040 A 
ATOM     92  F   UNL A   1      41.071  26.658  34.464  1.00  0.00    -0.206 F 
ATOM     93  C   UNL A   1      44.386  25.892  35.603  1.00  0.00     0.006 A 
ENDBRANCH  69  86
ENDBRANCH  43  44
ENDBRANCH  36  38
ENDBRANCH  35  36
ENDBRANCH  34  35
ENDBRANCH  33  34
ENDBRANCH   1  33
TORSDOF 17
ENDMDL
MODEL 2
REMARK VINA RESULT:     -12.8      3.080      8.947
REMARK SMILES Cc1ccc(C2=NN(C(=O)CCC(=O)OCCOC(=O)c3ccc(-c4c5nc(c(-c6c(F)cccc6F)c6ccc([nH]6)c(-c6c(F)cccc6F)c6nc(c(-c7c(F)cccc7F)c7ccc4[nH]7)C=C6)C=C5)cc3)[C@H](C[C@@H]3C=c4cccc(C)c4=NC3=O)C2)cc1
REMARK SMILES IDX 15 1 13 2 14 3 12 4 11 5 9 6 10 7 8 8 6 9 7 10 89 11 75 12
REMARK SMILES IDX 5 13 1 14 2 15 3 16 91 17 4 18 90 19 76 20 77 21 78 22 87 23
REMARK SMILES IDX 79 24 86 25 88 26 80 27 85 28 81 29 83 30 82 31 84 32 16 33
REMARK SMILES IDX 17 34 18 35 19 36 20 37 21 38 22 39 74 40 23 41 73 42 24 43
REMARK SMILES IDX 25 44 26 45 67 46 27 47 72 48 66 49 68 50 28 51 71 52 65 53
REMARK SMILES IDX 64 54 29 56 55 57 38 58 54 59 39 60 42 61 53 62 69 63 40 64
REMARK SMILES IDX 41 65 52 67 70 68 43 69 30 70 31 71 36 72 32 73 33 74 35 75
REMARK SMILES IDX 37 76 34 77 56 78 57 79 62 80 58 81 59 82 61 83 63 84 60 85
REMARK SMILES IDX 44 86 45 87 50 88 46 89 47 90 49 91 51 92 48 93
REMARK H PARENT 68 55 42 66
REMARK Flexibility Score: inf
ROOT
ATOM      1  O   UNL A   1      36.175  22.741  25.008  1.00  0.00    -0.462 OA
ENDROOT
BRANCH   1   2
ATOM      2  C   UNL A   1      36.037  23.175  23.744  1.00  0.00     0.306 C 
ATOM      3  O   UNL A   1      36.732  22.851  22.798  1.00  0.00    -0.252 OA
BRANCH   2   4
ATOM      4  C   UNL A   1      34.805  23.989  23.540  1.00  0.00     0.132 C 
BRANCH   4   5
ATOM      5  C   UNL A   1      34.699  24.922  24.730  1.00  0.00     0.114 C 
BRANCH   5   6
ATOM      6  C   UNL A   1      33.868  26.135  24.368  1.00  0.00     0.243 C 
ATOM      7  O   UNL A   1      33.810  26.432  23.168  1.00  0.00    -0.273 OA
BRANCH   6   8
ATOM      8  N   UNL A   1      33.284  26.926  25.355  1.00  0.00    -0.230 N 
ATOM      9  C   UNL A   1      33.592  28.641  26.638  1.00  0.00     0.070 C 
ATOM     10  N   UNL A   1      33.992  28.096  25.542  1.00  0.00    -0.174 NA
ATOM     11  C   UNL A   1      32.426  28.007  27.304  1.00  0.00     0.086 C 
ATOM     12  C   UNL A   1      32.337  26.704  26.498  1.00  0.00     0.118 C 
BRANCH   9  13
ATOM     13  C   UNL A   1      34.201  29.847  27.175  1.00  0.00    -0.002 A 
ATOM     14  C   UNL A   1      35.913  33.486  28.622  1.00  0.00     0.044 C 
ATOM     15  C   UNL A   1      35.331  32.202  28.111  1.00  0.00    -0.051 A 
ATOM     16  C   UNL A   1      33.978  32.163  27.743  1.00  0.00     0.004 A 
ATOM     17  C   UNL A   1      36.118  31.046  27.992  1.00  0.00     0.004 A 
ATOM     18  C   UNL A   1      33.411  30.987  27.270  1.00  0.00     0.010 A 
ATOM     19  C   UNL A   1      35.555  29.860  27.519  1.00  0.00     0.010 A 
ENDBRANCH   9  13
BRANCH  12  20
ATOM     20  C   UNL A   1      30.845  26.357  26.289  1.00  0.00     0.045 C 
BRANCH  20  21
ATOM     21  C   UNL A   1      30.538  24.907  25.905  1.00  0.00     0.106 C 
ATOM     22  C   UNL A   1      31.569  24.020  26.500  1.00  0.00    -0.003 C 
ATOM     23  C   UNL A   1      30.388  24.694  24.384  1.00  0.00     0.253 C 
ATOM     24  C   UNL A   1      32.015  22.916  25.918  1.00  0.00    -0.003 A 
ATOM     25  N   UNL A   1      30.885  23.541  23.810  1.00  0.00    -0.212 NA
ATOM     26  O   UNL A   1      29.796  25.535  23.707  1.00  0.00    -0.272 OA
ATOM     27  C   UNL A   1      32.811  21.954  26.631  1.00  0.00     0.010 A 
ATOM     28  C   UNL A   1      31.635  22.735  24.493  1.00  0.00     0.077 A 
ATOM     29  C   UNL A   1      33.263  20.870  25.997  1.00  0.00     0.001 A 
ATOM     30  C   UNL A   1      32.285  21.544  23.845  1.00  0.00    -0.025 A 
ATOM     31  C   UNL A   1      33.035  20.701  24.582  1.00  0.00     0.005 A 
ATOM     32  C   UNL A   1      32.154  21.430  22.361  1.00  0.00     0.047 C 
ENDBRANCH  20  21
ENDBRANCH  12  20
ENDBRANCH   6   8
ENDBRANCH   5   6
ENDBRANCH   4   5
ENDBRANCH   2   4
ENDBRANCH   1   2
BRANCH   1  33
ATOM     33  C   UNL A   1      37.059  21.672  25.417  1.00  0.00     0.274 C 
BRANCH  33  34
ATOM     34  C   UNL A   1      38.589  21.764  25.743  1.00  0.00     0.275 C 
BRANCH  34  35
ATOM     35  O   UNL A   1      39.491  20.688  26.160  1.00  0.00    -0.458 OA
BRANCH  35  36
ATOM     36  C   UNL A   1      40.850  20.578  26.330  1.00  0.00     0.338 C 
ATOM     37  O   UNL A   1      41.477  19.585  26.103  1.00  0.00    -0.246 OA
BRANCH  36  38
ATOM     38  C   UNL A   1      41.534  21.831  26.701  1.00  0.00     0.060 A 
ATOM     39  C   UNL A   1      41.822  22.819  25.734  1.00  0.00     0.016 A 
ATOM     40  C   UNL A   1      41.574  22.103  28.039  1.00  0.00     0.016 A 
ATOM     41  C   UNL A   1      41.951  24.160  26.128  1.00  0.00     0.010 A 
ATOM     42  C   UNL A   1      41.472  23.420  28.378  1.00  0.00     0.010 A 
ATOM     43  C   UNL A   1      41.708  24.470  27.464  1.00  0.00    -0.014 A 
BRANCH  43  44
ATOM     44  C   UNL A   1      41.862  25.756  28.152  1.00  0.00     0.031 A 
ATOM     45  C   UNL A   1      40.803  26.746  28.462  1.00  0.00     0.074 A 
ATOM     46  C   UNL A   1      43.077  25.860  28.746  1.00  0.00     0.049 A 
ATOM     47  N   UNL A   1      41.037  27.990  28.719  1.00  0.00    -0.248 NA
ATOM     48  C   UNL A   1      39.386  26.425  28.576  1.00  0.00     0.031 C 
ATOM     49  C   UNL A   1      43.537  26.741  29.796  1.00  0.00     0.029 A 
ATOM     50  N   UNL A   1      44.221  25.099  28.465  1.00  0.00    -0.354 N 
ATOM     51  C   UNL A   1      39.906  28.522  29.315  1.00  0.00     0.074 A 
ATOM     52  C   UNL A   1      38.867  27.549  29.089  1.00  0.00     0.031 C 
ATOM     53  C   UNL A   1      44.886  26.705  29.812  1.00  0.00     0.029 A 
ATOM     54  C   UNL A   1      45.310  25.923  28.652  1.00  0.00     0.049 A 
ATOM     55  H   UNL A   1      44.243  24.156  28.186  1.00  0.00     0.167 HD
ATOM     56  C   UNL A   1      40.005  29.635  30.101  1.00  0.00     0.037 A 
ATOM     57  C   UNL A   1      46.020  26.358  27.566  1.00  0.00     0.037 A 
ATOM     58  C   UNL A   1      41.404  30.015  30.260  1.00  0.00     0.049 A 
ATOM     59  C   UNL A   1      45.954  27.862  27.495  1.00  0.00     0.074 A 
ATOM     60  C   UNL A   1      42.316  29.742  31.268  1.00  0.00     0.029 A 
ATOM     61  N   UNL A   1      42.137  30.453  29.167  1.00  0.00    -0.354 N 
ATOM     62  N   UNL A   1      44.948  28.559  27.949  1.00  0.00    -0.248 NA
ATOM     63  C   UNL A   1      47.032  28.695  26.981  1.00  0.00     0.031 C 
ATOM     64  C   UNL A   1      43.616  29.959  30.749  1.00  0.00     0.029 A 
ATOM     65  C   UNL A   1      43.489  30.382  29.437  1.00  0.00     0.049 A 
ATOM     66  H   UNL A   1      41.748  30.770  28.319  1.00  0.00     0.167 HD
ATOM     67  C   UNL A   1      45.268  29.885  27.915  1.00  0.00     0.074 A 
ATOM     68  C   UNL A   1      46.565  29.925  27.261  1.00  0.00     0.031 C 
ATOM     69  C   UNL A   1      44.465  30.841  28.463  1.00  0.00     0.037 A 
BRANCH  56  70
ATOM     70  C   UNL A   1      38.900  30.208  30.969  1.00  0.00     0.057 A 
ATOM     71  C   UNL A   1      38.355  31.488  30.723  1.00  0.00     0.134 A 
ATOM     72  C   UNL A   1      38.306  29.526  32.045  1.00  0.00     0.134 A 
ATOM     73  F   UNL A   1      38.752  32.240  29.690  1.00  0.00    -0.206 F 
ATOM     74  C   UNL A   1      37.364  32.072  31.525  1.00  0.00     0.040 A 
ATOM     75  C   UNL A   1      37.333  30.111  32.876  1.00  0.00     0.040 A 
ATOM     76  F   UNL A   1      38.613  28.248  32.310  1.00  0.00    -0.206 F 
ATOM     77  C   UNL A   1      36.864  31.394  32.623  1.00  0.00     0.006 A 
ENDBRANCH  56  70
BRANCH  57  78
ATOM     78  C   UNL A   1      45.973  25.429  26.383  1.00  0.00     0.057 A 
ATOM     79  C   UNL A   1      46.713  24.229  26.434  1.00  0.00     0.134 A 
ATOM     80  C   UNL A   1      44.953  25.487  25.422  1.00  0.00     0.134 A 
ATOM     81  F   UNL A   1      47.683  24.078  27.348  1.00  0.00    -0.206 F 
ATOM     82  C   UNL A   1      46.385  23.111  25.655  1.00  0.00     0.040 A 
ATOM     83  C   UNL A   1      44.626  24.375  24.625  1.00  0.00     0.040 A 
ATOM     84  F   UNL A   1      44.181  26.575  25.308  1.00  0.00    -0.206 F 
ATOM     85  C   UNL A   1      45.320  23.175  24.764  1.00  0.00     0.006 A 
ENDBRANCH  57  78
BRANCH  69  86
ATOM     86  C   UNL A   1      44.565  32.318  28.214  1.00  0.00     0.057 A 
ATOM     87  C   UNL A   1      45.115  33.215  29.136  1.00  0.00     0.134 A 
ATOM     88  C   UNL A   1      44.295  32.852  26.933  1.00  0.00     0.134 A 
ATOM     89  F   UNL A   1      45.510  32.818  30.354  1.00  0.00    -0.206 F 
ATOM     90  C   UNL A   1      45.347  34.558  28.822  1.00  0.00     0.040 A 
ATOM     91  C   UNL A   1      44.580  34.173  26.590  1.00  0.00     0.040 A 
ATOM     92  F   UNL A   1      43.778  32.106  25.946  1.00  0.00    -0.206 F 
ATOM     93  C   UNL A   1      45.100  35.035  27.541  1.00  0.00     0.006 A 
ENDBRANCH  69  86
ENDBRANCH  43  44
ENDBRANCH  36  38
ENDBRANCH  35  36
ENDBRANCH  34  35
ENDBRANCH  33  34
ENDBRANCH   1  33
TORSDOF 17
ENDMDL
MODEL 3
REMARK VINA RESULT:     -12.5      2.152      5.495
REMARK SMILES Cc1ccc(C2=NN(C(=O)CCC(=O)OCCOC(=O)c3ccc(-c4c5nc(c(-c6c(F)cccc6F)c6ccc([nH]6)c(-c6c(F)cccc6F)c6nc(c(-c7c(F)cccc7F)c7ccc4[nH]7)C=C6)C=C5)cc3)[C@H](C[C@@H]3C=c4cccc(C)c4=NC3=O)C2)cc1
REMARK SMILES IDX 15 1 13 2 14 3 12 4 11 5 9 6 10 7 8 8 6 9 7 10 89 11 75 12
REMARK SMILES IDX 5 13 1 14 2 15 3 16 91 17 4 18 90 19 76 20 77 21 78 22 87 23
REMARK SMILES IDX 79 24 86 25 88 26 80 27 85 28 81 29 83 30 82 31 84 32 16 33
REMARK SMILES IDX 17 34 18 35 19 36 20 37 21 38 22 39 74 40 23 41 73 42 24 43
REMARK SMILES IDX 25 44 26 45 67 46 27 47 72 48 66 49 68 50 28 51 71 52 65 53
REMARK SMILES IDX 64 54 29 56 55 57 38 58 54 59 39 60 42 61 53 62 69 63 40 64
REMARK SMILES IDX 41 65 52 67 70 68 43 69 30 70 31 71 36 72 32 73 33 74 35 75
REMARK SMILES IDX 37 76 34 77 56 78 57 79 62 80 58 81 59 82 61 83 63 84 60 85
REMARK SMILES IDX 44 86 45 87 50 88 46 89 47 90 49 91 51 92 48 93
REMARK H PARENT 68 55 42 66
REMARK Flexibility Score: inf
ROOT
ATOM      1  O   UNL A   1      34.688  31.525  28.348  1.00  0.00    -0.462 OA
ENDROOT
BRANCH   1   2
ATOM      2  C   UNL A   1      33.696  31.106  27.543  1.00  0.00     0.306 C 
ATOM      3  O   UNL A   1      32.672  31.715  27.297  1.00  0.00    -0.252 OA
BRANCH   2   4
ATOM      4  C   UNL A   1      34.037  29.857  26.803  1.00  0.00     0.132 C 
BRANCH   4   5
ATOM      5  C   UNL A   1      33.466  28.706  27.607  1.00  0.00     0.114 C 
BRANCH   5   6
ATOM      6  C   UNL A   1      32.081  28.358  27.105  1.00  0.00     0.243 C 
ATOM      7  O   UNL A   1      31.224  28.104  27.961  1.00  0.00    -0.273 OA
BRANCH   6   8
ATOM      8  N   UNL A   1      31.822  28.236  25.741  1.00  0.00    -0.230 N 
ATOM      9  C   UNL A   1      30.722  29.084  24.082  1.00  0.00     0.070 C 
ATOM     10  N   UNL A   1      31.191  29.361  25.249  1.00  0.00    -0.174 NA
ATOM     11  C   UNL A   1      31.094  27.764  23.516  1.00  0.00     0.086 C 
ATOM     12  C   UNL A   1      31.709  27.106  24.759  1.00  0.00     0.118 C 
BRANCH   9  13
ATOM     13  C   UNL A   1      29.919  30.029  23.323  1.00  0.00    -0.002 A 
ATOM     14  C   UNL A   1      27.682  32.801  20.960  1.00  0.00     0.044 C 
ATOM     15  C   UNL A   1      28.469  31.843  21.804  1.00  0.00    -0.051 A 
ATOM     16  C   UNL A   1      29.009  30.692  21.209  1.00  0.00     0.004 A 
ATOM     17  C   UNL A   1      28.676  32.081  23.170  1.00  0.00     0.004 A 
ATOM     18  C   UNL A   1      29.739  29.785  21.966  1.00  0.00     0.010 A 
ATOM     19  C   UNL A   1      29.408  31.174  23.938  1.00  0.00     0.010 A 
ENDBRANCH   9  13
BRANCH  12  20
ATOM     20  C   UNL A   1      32.926  26.261  24.317  1.00  0.00     0.045 C 
BRANCH  20  21
ATOM     21  C   UNL A   1      33.336  25.126  25.259  1.00  0.00     0.106 C 
ATOM     22  C   UNL A   1      34.817  25.026  25.281  1.00  0.00    -0.003 C 
ATOM     23  C   UNL A   1      32.662  23.778  24.925  1.00  0.00     0.253 C 
ATOM     24  C   UNL A   1      35.476  23.883  25.409  1.00  0.00    -0.003 A 
ATOM     25  N   UNL A   1      33.388  22.610  25.048  1.00  0.00    -0.212 NA
ATOM     26  O   UNL A   1      31.479  23.756  24.588  1.00  0.00    -0.272 OA
ATOM     27  C   UNL A   1      36.886  23.851  25.687  1.00  0.00     0.010 A 
ATOM     28  C   UNL A   1      34.667  22.648  25.254  1.00  0.00     0.077 A 
ATOM     29  C   UNL A   1      37.515  22.678  25.778  1.00  0.00     0.001 A 
ATOM     30  C   UNL A   1      35.488  21.388  25.264  1.00  0.00    -0.025 A 
ATOM     31  C   UNL A   1      36.810  21.446  25.512  1.00  0.00     0.005 A 
ATOM     32  C   UNL A   1      34.790  20.126  24.871  1.00  0.00     0.047 C 
ENDBRANCH  20  21
ENDBRANCH  12  20
ENDBRANCH   6   8
ENDBRANCH   5   6
ENDBRANCH   4   5
ENDBRANCH   2   4
ENDBRANCH   1   2
BRANCH   1  33
ATOM     33  C   UNL A   1      34.495  32.311  29.546  1.00  0.00     0.274 C 
BRANCH  33  34
ATOM     34  C   UNL A   1      34.016  33.801  29.650  1.00  0.00     0.275 C 
BRANCH  34  35
ATOM     35  O   UNL A   1      33.664  34.555  30.854  1.00  0.00    -0.458 OA
BRANCH  35  36
ATOM     36  C   UNL A   1      34.359  35.006  31.950  1.00  0.00     0.338 C 
ATOM     37  O   UNL A   1      34.007  35.915  32.641  1.00  0.00    -0.246 OA
BRANCH  36  38
ATOM     38  C   UNL A   1      35.539  34.197  32.313  1.00  0.00     0.060 A 
ATOM     39  C   UNL A   1      35.415  33.047  33.123  1.00  0.00     0.016 A 
ATOM     40  C   UNL A   1      36.664  34.438  31.576  1.00  0.00     0.016 A 
ATOM     41  C   UNL A   1      36.366  32.020  33.021  1.00  0.00     0.010 A 
ATOM     42  C   UNL A   1      37.445  33.352  31.317  1.00  0.00     0.010 A 
ATOM     43  C   UNL A   1      37.361  32.151  32.055  1.00  0.00    -0.014 A 
BRANCH  43  44
ATOM     44  C   UNL A   1      38.516  31.284  31.802  1.00  0.00     0.031 A 
ATOM     45  C   UNL A   1      38.570  30.082  30.937  1.00  0.00     0.074 A 
ATOM     46  C   UNL A   1      39.668  31.847  32.247  1.00  0.00     0.049 A 
ATOM     47  N   UNL A   1      39.473  29.163  31.040  1.00  0.00    -0.248 NA
ATOM     48  C   UNL A   1      37.658  29.825  29.830  1.00  0.00     0.031 C 
ATOM     49  C   UNL A   1      41.045  31.558  31.915  1.00  0.00     0.029 A 
ATOM     50  N   UNL A   1      39.792  32.892  33.175  1.00  0.00    -0.354 N 
ATOM     51  C   UNL A   1      39.452  28.411  29.878  1.00  0.00     0.074 A 
ATOM     52  C   UNL A   1      38.227  28.779  29.214  1.00  0.00     0.031 C 
ATOM     53  C   UNL A   1      41.830  32.135  32.848  1.00  0.00     0.029 A 
ATOM     54  C   UNL A   1      40.949  32.663  33.888  1.00  0.00     0.049 A 
ATOM     55  H   UNL A   1      39.171  33.645  33.295  1.00  0.00     0.167 HD
ATOM     56  C   UNL A   1      40.556  27.701  29.501  1.00  0.00     0.037 A 
ATOM     57  C   UNL A   1      40.868  32.264  35.194  1.00  0.00     0.037 A 
ATOM     58  C   UNL A   1      41.664  27.976  30.408  1.00  0.00     0.049 A 
ATOM     59  C   UNL A   1      41.505  30.907  35.344  1.00  0.00     0.074 A 
ATOM     60  C   UNL A   1      42.726  28.862  30.312  1.00  0.00     0.029 A 
ATOM     61  N   UNL A   1      41.593  27.582  31.737  1.00  0.00    -0.354 N 
ATOM     62  N   UNL A   1      41.542  30.022  34.385  1.00  0.00    -0.248 NA
ATOM     63  C   UNL A   1      42.203  30.469  36.545  1.00  0.00     0.031 C 
ATOM     64  C   UNL A   1      43.256  29.050  31.611  1.00  0.00     0.029 A 
ATOM     65  C   UNL A   1      42.530  28.263  32.489  1.00  0.00     0.049 A 
ATOM     66  H   UNL A   1      40.964  26.913  32.092  1.00  0.00     0.167 HD
ATOM     67  C   UNL A   1      42.346  28.985  34.763  1.00  0.00     0.074 A 
ATOM     68  C   UNL A   1      42.701  29.288  36.138  1.00  0.00     0.031 C 
ATOM     69  C   UNL A   1      42.689  27.982  33.905  1.00  0.00     0.037 A 
BRANCH  56  70
ATOM     70  C   UNL A   1      40.747  27.001  28.168  1.00  0.00     0.057 A 
ATOM     71  C   UNL A   1      40.140  25.754  27.895  1.00  0.00     0.134 A 
ATOM     72  C   UNL A   1      41.492  27.526  27.099  1.00  0.00     0.134 A 
ATOM     73  F   UNL A   1      39.333  25.151  28.776  1.00  0.00    -0.206 F 
ATOM     74  C   UNL A   1      40.323  25.054  26.694  1.00  0.00     0.040 A 
ATOM     75  C   UNL A   1      41.709  26.819  25.901  1.00  0.00     0.040 A 
ATOM     76  F   UNL A   1      42.005  28.762  27.153  1.00  0.00    -0.206 F 
ATOM     77  C   UNL A   1      41.131  25.573  25.698  1.00  0.00     0.006 A 
ENDBRANCH  56  70
BRANCH  57  78
ATOM     78  C   UNL A   1      39.624  32.724  35.905  1.00  0.00     0.057 A 
ATOM     79  C   UNL A   1      38.575  31.800  36.103  1.00  0.00     0.134 A 
ATOM     80  C   UNL A   1      39.599  33.870  36.715  1.00  0.00     0.134 A 
ATOM     81  F   UNL A   1      38.544  30.661  35.394  1.00  0.00    -0.206 F 
ATOM     82  C   UNL A   1      37.625  31.950  37.122  1.00  0.00     0.040 A 
ATOM     83  C   UNL A   1      38.641  34.036  37.731  1.00  0.00     0.040 A 
ATOM     84  F   UNL A   1      40.561  34.797  36.617  1.00  0.00    -0.206 F 
ATOM     85  C   UNL A   1      37.672  33.060  37.957  1.00  0.00     0.006 A 
ENDBRANCH  57  78
BRANCH  69  86
ATOM     86  C   UNL A   1      43.294  26.664  34.294  1.00  0.00     0.057 A 
ATOM     87  C   UNL A   1      44.667  26.401  34.224  1.00  0.00     0.134 A 
ATOM     88  C   UNL A   1      42.520  25.684  34.957  1.00  0.00     0.134 A 
ATOM     89  F   UNL A   1      45.528  27.290  33.712  1.00  0.00    -0.206 F 
ATOM     90  C   UNL A   1      45.227  25.229  34.741  1.00  0.00     0.040 A 
ATOM     91  C   UNL A   1      43.078  24.543  35.532  1.00  0.00     0.040 A 
ATOM     92  F   UNL A   1      41.194  25.810  35.111  1.00  0.00    -0.206 F 
ATOM     93  C   UNL A   1      44.438  24.307  35.416  1.00  0.00     0.006 A 
ENDBRANCH  69  86
ENDBRANCH  43  44
ENDBRANCH  36  38
ENDBRANCH  35  36
ENDBRANCH  34  35
ENDBRANCH  33  34
ENDBRANCH   1  33
TORSDOF 17
ENDMDL
