MODEL 1
REMARK VINA RESULT:     -11.4      0.000      0.000
REMARK SMILES Cc1cc(F)cc(N[C@](C)(C(=O)OCCOC(=O)c2ccc(-c3c4nc(c(-c5c(F)cccc5F)c5ccc([nH]5)c(-c5c(F)cccc5F)c5nc(c(-c6c(F)cccc6F)c6ccc3[nH]6)C=C5)C=C4)cc2)c2cccc(F)c2)c1
REMARK SMILES IDX 14 1 13 2 11 3 12 4 9 5 10 6 8 7 7 9 1 10 2 11 3 12 80 13
REMARK SMILES IDX 4 14 5 15 6 16 73 17 74 18 79 19 75 20 77 21 76 22 78 23
REMARK SMILES IDX 15 24 16 25 17 26 18 27 19 28 20 29 72 30 21 31 71 32 22 33
REMARK SMILES IDX 23 34 24 35 65 36 25 37 70 38 64 39 66 40 26 41 69 42 63 43
REMARK SMILES IDX 62 44 27 46 53 47 36 48 52 49 37 50 40 51 51 52 67 53 38 54
REMARK SMILES IDX 39 55 50 57 68 58 41 59 28 60 29 61 34 62 30 63 31 64 33 65
REMARK SMILES IDX 35 66 32 67 54 68 55 69 60 70 56 71 57 72 59 73 61 74 58 75
REMARK SMILES IDX 42 76 43 77 48 78 44 79 45 80 47 81 49 82 46 83
REMARK H PARENT 8 8 66 45 40 56
REMARK Flexibility Score: inf
ROOT
ATOM      1  C   UNL A   1      31.440  31.281  26.489  1.00  0.00     0.274 C 
ENDROOT
BRANCH   1   2
ATOM      2  O   UNL A   1      32.472  30.292  26.283  1.00  0.00    -0.460 OA
BRANCH   2   3
ATOM      3  C   UNL A   1      32.106  28.994  26.522  1.00  0.00     0.336 C 
ATOM      4  O   UNL A   1      31.651  28.639  27.603  1.00  0.00    -0.249 OA
BRANCH   3   5
ATOM      5  C   UNL A   1      32.369  28.059  25.272  1.00  0.00     0.159 C 
ATOM      6  C   UNL A   1      33.651  28.499  24.534  1.00  0.00     0.053 C 
BRANCH   5   7
ATOM      7  N   UNL A   1      32.564  26.623  25.654  1.00  0.00    -0.366 N 
ATOM      8  H   UNL A   1      32.101  26.342  26.477  1.00  0.00     0.162 HD
BRANCH   7   9
ATOM      9  C   UNL A   1      33.297  25.630  25.023  1.00  0.00     0.038 A 
ATOM     10  C   UNL A   1      36.632  23.846  25.689  1.00  0.00     0.044 C 
ATOM     11  C   UNL A   1      35.364  24.276  25.011  1.00  0.00    -0.046 A 
ATOM     12  C   UNL A   1      35.023  23.757  23.764  1.00  0.00     0.042 A 
ATOM     13  C   UNL A   1      34.488  25.189  25.633  1.00  0.00     0.029 A 
ATOM     14  C   UNL A   1      33.849  24.172  23.157  1.00  0.00     0.125 A 
ATOM     15  F   UNL A   1      33.524  23.681  21.952  1.00  0.00    -0.207 F 
ATOM     16  C   UNL A   1      33.003  25.096  23.768  1.00  0.00     0.065 A 
ENDBRANCH   7   9
ENDBRANCH   5   7
BRANCH   5  17
ATOM     17  C   UNL A   1      31.146  28.157  24.305  1.00  0.00    -0.009 A 
ATOM     18  C   UNL A   1      30.057  27.262  24.369  1.00  0.00     0.007 A 
ATOM     19  C   UNL A   1      31.046  29.209  23.369  1.00  0.00     0.046 A 
ATOM     20  C   UNL A   1      28.940  27.402  23.534  1.00  0.00     0.003 A 
ATOM     21  C   UNL A   1      29.929  29.343  22.548  1.00  0.00     0.123 A 
ATOM     22  C   UNL A   1      28.875  28.446  22.619  1.00  0.00     0.039 A 
ATOM     23  F   UNL A   1      29.870  30.366  21.685  1.00  0.00    -0.207 F 
ENDBRANCH   5  17
ENDBRANCH   3   5
ENDBRANCH   2   3
ENDBRANCH   1   2
BRANCH   1  24
ATOM     24  C   UNL A   1      31.989  32.710  26.579  1.00  0.00     0.275 C 
BRANCH  24  25
ATOM     25  O   UNL A   1      32.046  33.181  27.939  1.00  0.00    -0.458 OA
BRANCH  25  26
ATOM     26  C   UNL A   1      32.994  34.113  28.191  1.00  0.00     0.338 C 
ATOM     27  O   UNL A   1      32.853  35.324  28.204  1.00  0.00    -0.246 OA
BRANCH  26  28
ATOM     28  C   UNL A   1      34.252  33.461  28.594  1.00  0.00     0.060 A 
ATOM     29  C   UNL A   1      34.171  32.157  29.082  1.00  0.00     0.016 A 
ATOM     30  C   UNL A   1      35.473  34.137  28.593  1.00  0.00     0.016 A 
ATOM     31  C   UNL A   1      35.298  31.520  29.586  1.00  0.00     0.010 A 
ATOM     32  C   UNL A   1      36.613  33.495  29.099  1.00  0.00     0.010 A 
ATOM     33  C   UNL A   1      36.526  32.189  29.610  1.00  0.00    -0.014 A 
BRANCH  33  34
ATOM     34  C   UNL A   1      37.685  31.513  30.239  1.00  0.00     0.031 A 
ATOM     35  C   UNL A   1      37.961  31.716  31.699  1.00  0.00     0.074 A 
ATOM     36  C   UNL A   1      38.418  30.638  29.527  1.00  0.00     0.049 A 
ATOM     37  N   UNL A   1      38.915  31.211  32.438  1.00  0.00    -0.248 NA
ATOM     38  C   UNL A   1      37.035  32.598  32.426  1.00  0.00     0.031 C 
ATOM     39  C   UNL A   1      38.190  30.291  28.125  1.00  0.00     0.029 A 
ATOM     40  N   UNL A   1      39.483  29.857  29.898  1.00  0.00    -0.354 N 
ATOM     41  C   UNL A   1      38.723  31.734  33.710  1.00  0.00     0.074 A 
ATOM     42  C   UNL A   1      37.554  32.587  33.645  1.00  0.00     0.031 C 
ATOM     43  C   UNL A   1      39.066  29.339  27.764  1.00  0.00     0.029 A 
ATOM     44  C   UNL A   1      39.937  29.036  28.897  1.00  0.00     0.049 A 
ATOM     45  H   UNL A   1      39.883  29.884  30.798  1.00  0.00     0.167 HD
ATOM     46  C   UNL A   1      39.462  31.533  34.826  1.00  0.00     0.037 A 
ATOM     47  C   UNL A   1      40.945  28.142  28.898  1.00  0.00     0.037 A 
ATOM     48  C   UNL A   1      40.623  30.685  34.892  1.00  0.00     0.049 A 
ATOM     49  C   UNL A   1      41.777  27.969  30.140  1.00  0.00     0.074 A 
ATOM     50  C   UNL A   1      41.471  30.460  35.962  1.00  0.00     0.029 A 
ATOM     51  N   UNL A   1      41.094  29.914  33.840  1.00  0.00    -0.354 N 
ATOM     52  N   UNL A   1      41.621  28.513  31.322  1.00  0.00    -0.248 NA
ATOM     53  C   UNL A   1      42.937  27.072  30.038  1.00  0.00     0.031 C 
ATOM     54  C   UNL A   1      42.475  29.577  35.548  1.00  0.00     0.029 A 
ATOM     55  C   UNL A   1      42.229  29.224  34.230  1.00  0.00     0.049 A 
ATOM     56  H   UNL A   1      40.682  29.865  32.947  1.00  0.00     0.167 HD
ATOM     57  C   UNL A   1      42.664  28.031  32.102  1.00  0.00     0.074 A 
ATOM     58  C   UNL A   1      43.425  27.121  31.270  1.00  0.00     0.031 C 
ATOM     59  C   UNL A   1      42.976  28.328  33.388  1.00  0.00     0.037 A 
BRANCH  46  60
ATOM     60  C   UNL A   1      39.070  32.299  36.051  1.00  0.00     0.057 A 
ATOM     61  C   UNL A   1      38.214  31.764  37.020  1.00  0.00     0.134 A 
ATOM     62  C   UNL A   1      39.565  33.592  36.265  1.00  0.00     0.134 A 
ATOM     63  F   UNL A   1      37.691  30.538  36.863  1.00  0.00    -0.206 F 
ATOM     64  C   UNL A   1      37.849  32.495  38.153  1.00  0.00     0.040 A 
ATOM     65  C   UNL A   1      39.222  34.325  37.400  1.00  0.00     0.040 A 
ATOM     66  F   UNL A   1      40.389  34.161  35.372  1.00  0.00    -0.206 F 
ATOM     67  C   UNL A   1      38.357  33.779  38.346  1.00  0.00     0.006 A 
ENDBRANCH  46  60
BRANCH  47  68
ATOM     68  C   UNL A   1      41.232  27.337  27.686  1.00  0.00     0.057 A 
ATOM     69  C   UNL A   1      40.674  26.063  27.524  1.00  0.00     0.134 A 
ATOM     70  C   UNL A   1      42.082  27.804  26.677  1.00  0.00     0.134 A 
ATOM     71  F   UNL A   1      39.870  25.554  28.469  1.00  0.00    -0.206 F 
ATOM     72  C   UNL A   1      40.961  25.276  26.408  1.00  0.00     0.040 A 
ATOM     73  C   UNL A   1      42.359  27.037  25.545  1.00  0.00     0.040 A 
ATOM     74  F   UNL A   1      42.650  29.014  26.777  1.00  0.00    -0.206 F 
ATOM     75  C   UNL A   1      41.803  25.766  25.411  1.00  0.00     0.006 A 
ENDBRANCH  47  68
BRANCH  59  76
ATOM     76  C   UNL A   1      44.192  27.668  33.966  1.00  0.00     0.057 A 
ATOM     77  C   UNL A   1      44.119  26.411  34.578  1.00  0.00     0.134 A 
ATOM     78  C   UNL A   1      45.451  28.274  33.875  1.00  0.00     0.134 A 
ATOM     79  F   UNL A   1      42.939  25.786  34.706  1.00  0.00    -0.206 F 
ATOM     80  C   UNL A   1      45.254  25.785  35.094  1.00  0.00     0.040 A 
ATOM     81  C   UNL A   1      46.596  27.649  34.370  1.00  0.00     0.040 A 
ATOM     82  F   UNL A   1      45.589  29.476  33.295  1.00  0.00    -0.206 F 
ATOM     83  C   UNL A   1      46.499  26.402  34.985  1.00  0.00     0.006 A 
ENDBRANCH  59  76
ENDBRANCH  33  34
ENDBRANCH  26  28
ENDBRANCH  25  26
ENDBRANCH  24  25
ENDBRANCH   1  24
TORSDOF 14
ENDMDL
MODEL 2
REMARK VINA RESULT:     -11.3      4.722      9.229
REMARK SMILES Cc1cc(F)cc(N[C@](C)(C(=O)OCCOC(=O)c2ccc(-c3c4nc(c(-c5c(F)cccc5F)c5ccc([nH]5)c(-c5c(F)cccc5F)c5nc(c(-c6c(F)cccc6F)c6ccc3[nH]6)C=C5)C=C4)cc2)c2cccc(F)c2)c1
REMARK SMILES IDX 14 1 13 2 11 3 12 4 9 5 10 6 8 7 7 9 1 10 2 11 3 12 80 13
REMARK SMILES IDX 4 14 5 15 6 16 73 17 74 18 79 19 75 20 77 21 76 22 78 23
REMARK SMILES IDX 15 24 16 25 17 26 18 27 19 28 20 29 72 30 21 31 71 32 22 33
REMARK SMILES IDX 23 34 24 35 65 36 25 37 70 38 64 39 66 40 26 41 69 42 63 43
REMARK SMILES IDX 62 44 27 46 53 47 36 48 52 49 37 50 40 51 51 52 67 53 38 54
REMARK SMILES IDX 39 55 50 57 68 58 41 59 28 60 29 61 34 62 30 63 31 64 33 65
REMARK SMILES IDX 35 66 32 67 54 68 55 69 60 70 56 71 57 72 59 73 61 74 58 75
REMARK SMILES IDX 42 76 43 77 48 78 44 79 45 80 47 81 49 82 46 83
REMARK H PARENT 8 8 66 45 40 56
REMARK Flexibility Score: inf
ROOT
ATOM      1  C   UNL A   1      35.998  20.359  24.990  1.00  0.00     0.274 C 
ENDROOT
BRANCH   1   2
ATOM      2  O   UNL A   1      35.702  21.748  24.730  1.00  0.00    -0.460 OA
BRANCH   2   3
ATOM      3  C   UNL A   1      34.680  22.285  25.467  1.00  0.00     0.336 C 
ATOM      4  O   UNL A   1      34.695  22.280  26.692  1.00  0.00    -0.249 OA
BRANCH   3   5
ATOM      5  C   UNL A   1      33.522  22.860  24.554  1.00  0.00     0.159 C 
ATOM      6  C   UNL A   1      34.046  23.121  23.125  1.00  0.00     0.053 C 
BRANCH   5   7
ATOM      7  N   UNL A   1      32.365  21.917  24.423  1.00  0.00    -0.366 N 
ATOM      8  H   UNL A   1      31.488  22.294  24.666  1.00  0.00     0.162 HD
BRANCH   7   9
ATOM      9  C   UNL A   1      32.343  20.593  24.013  1.00  0.00     0.038 A 
ATOM     10  C   UNL A   1      32.795  17.186  25.726  1.00  0.00     0.044 C 
ATOM     11  C   UNL A   1      32.613  18.222  24.656  1.00  0.00    -0.046 A 
ATOM     12  C   UNL A   1      32.530  17.844  23.317  1.00  0.00     0.042 A 
ATOM     13  C   UNL A   1      32.498  19.588  24.988  1.00  0.00     0.029 A 
ATOM     14  C   UNL A   1      32.366  18.820  22.348  1.00  0.00     0.125 A 
ATOM     15  F   UNL A   1      32.296  18.459  21.059  1.00  0.00    -0.207 F 
ATOM     16  C   UNL A   1      32.281  20.170  22.685  1.00  0.00     0.065 A 
ENDBRANCH   7   9
ENDBRANCH   5   7
BRANCH   5  17
ATOM     17  C   UNL A   1      33.008  24.198  25.177  1.00  0.00    -0.009 A 
ATOM     18  C   UNL A   1      31.680  24.362  25.626  1.00  0.00     0.007 A 
ATOM     19  C   UNL A   1      33.886  25.281  25.389  1.00  0.00     0.046 A 
ATOM     20  C   UNL A   1      31.252  25.549  26.238  1.00  0.00     0.003 A 
ATOM     21  C   UNL A   1      33.453  26.454  26.005  1.00  0.00     0.123 A 
ATOM     22  C   UNL A   1      32.142  26.599  26.428  1.00  0.00     0.039 A 
ATOM     23  F   UNL A   1      34.326  27.452  26.200  1.00  0.00    -0.207 F 
ENDBRANCH   5  17
ENDBRANCH   3   5
ENDBRANCH   2   3
ENDBRANCH   1   2
BRANCH   1  24
ATOM     24  C   UNL A   1      37.500  20.054  24.979  1.00  0.00     0.275 C 
BRANCH  24  25
ATOM     25  O   UNL A   1      38.287  21.207  25.332  1.00  0.00    -0.458 OA
BRANCH  25  26
ATOM     26  C   UNL A   1      39.381  20.956  26.088  1.00  0.00     0.338 C 
ATOM     27  O   UNL A   1      39.964  19.892  26.209  1.00  0.00    -0.246 OA
BRANCH  26  28
ATOM     28  C   UNL A   1      39.888  22.205  26.680  1.00  0.00     0.060 A 
ATOM     29  C   UNL A   1      39.376  23.405  26.183  1.00  0.00     0.016 A 
ATOM     30  C   UNL A   1      40.914  22.217  27.625  1.00  0.00     0.016 A 
ATOM     31  C   UNL A   1      39.887  24.623  26.612  1.00  0.00     0.010 A 
ATOM     32  C   UNL A   1      41.430  23.447  28.061  1.00  0.00     0.010 A 
ATOM     33  C   UNL A   1      40.928  24.653  27.545  1.00  0.00    -0.014 A 
BRANCH  33  34
ATOM     34  C   UNL A   1      41.510  25.966  27.908  1.00  0.00     0.031 A 
ATOM     35  C   UNL A   1      42.879  26.334  27.417  1.00  0.00     0.074 A 
ATOM     36  C   UNL A   1      40.771  26.864  28.584  1.00  0.00     0.049 A 
ATOM     37  N   UNL A   1      43.561  27.432  27.614  1.00  0.00    -0.248 NA
ATOM     38  C   UNL A   1      43.567  25.336  26.582  1.00  0.00     0.031 C 
ATOM     39  C   UNL A   1      39.397  26.654  29.038  1.00  0.00     0.029 A 
ATOM     40  N   UNL A   1      41.063  28.145  28.977  1.00  0.00    -0.354 N 
ATOM     41  C   UNL A   1      44.769  27.249  26.956  1.00  0.00     0.074 A 
ATOM     42  C   UNL A   1      44.723  25.939  26.341  1.00  0.00     0.031 C 
ATOM     43  C   UNL A   1      38.952  27.781  29.617  1.00  0.00     0.029 A 
ATOM     44  C   UNL A   1      40.020  28.778  29.605  1.00  0.00     0.049 A 
ATOM     45  H   UNL A   1      41.938  28.570  28.824  1.00  0.00     0.167 HD
ATOM     46  C   UNL A   1      45.827  28.091  26.882  1.00  0.00     0.037 A 
ATOM     47  C   UNL A   1      39.939  30.023  30.113  1.00  0.00     0.037 A 
ATOM     48  C   UNL A   1      45.874  29.395  27.491  1.00  0.00     0.049 A 
ATOM     49  C   UNL A   1      41.143  30.924  30.054  1.00  0.00     0.074 A 
ATOM     50  C   UNL A   1      46.921  30.299  27.519  1.00  0.00     0.029 A 
ATOM     51  N   UNL A   1      44.820  29.981  28.174  1.00  0.00    -0.354 N 
ATOM     52  N   UNL A   1      42.303  30.717  29.479  1.00  0.00    -0.248 NA
ATOM     53  C   UNL A   1      41.033  32.221  30.736  1.00  0.00     0.031 C 
ATOM     54  C   UNL A   1      46.511  31.422  28.248  1.00  0.00     0.029 A 
ATOM     55  C   UNL A   1      45.196  31.230  28.641  1.00  0.00     0.049 A 
ATOM     56  H   UNL A   1      43.935  29.571  28.308  1.00  0.00     0.167 HD
ATOM     57  C   UNL A   1      43.060  31.854  29.732  1.00  0.00     0.074 A 
ATOM     58  C   UNL A   1      42.217  32.762  30.482  1.00  0.00     0.031 C 
ATOM     59  C   UNL A   1      44.345  32.116  29.390  1.00  0.00     0.037 A 
BRANCH  46  60
ATOM     60  C   UNL A   1      47.046  27.595  26.167  1.00  0.00     0.057 A 
ATOM     61  C   UNL A   1      47.181  27.686  24.777  1.00  0.00     0.134 A 
ATOM     62  C   UNL A   1      48.102  27.022  26.887  1.00  0.00     0.134 A 
ATOM     63  F   UNL A   1      46.195  28.207  24.031  1.00  0.00    -0.206 F 
ATOM     64  C   UNL A   1      48.320  27.209  24.124  1.00  0.00     0.040 A 
ATOM     65  C   UNL A   1      49.252  26.558  26.248  1.00  0.00     0.040 A 
ATOM     66  F   UNL A   1      48.032  26.905  28.221  1.00  0.00    -0.206 F 
ATOM     67  C   UNL A   1      49.361  26.646  24.861  1.00  0.00     0.006 A 
ENDBRANCH  46  60
BRANCH  47  68
ATOM     68  C   UNL A   1      38.676  30.501  30.725  1.00  0.00     0.057 A 
ATOM     69  C   UNL A   1      38.400  30.261  32.077  1.00  0.00     0.134 A 
ATOM     70  C   UNL A   1      37.709  31.184  29.979  1.00  0.00     0.134 A 
ATOM     71  F   UNL A   1      39.280  29.591  32.835  1.00  0.00    -0.206 F 
ATOM     72  C   UNL A   1      37.202  30.672  32.662  1.00  0.00     0.040 A 
ATOM     73  C   UNL A   1      36.516  31.621  30.557  1.00  0.00     0.040 A 
ATOM     74  F   UNL A   1      37.913  31.441  28.679  1.00  0.00    -0.206 F 
ATOM     75  C   UNL A   1      36.257  31.359  31.901  1.00  0.00     0.006 A 
ENDBRANCH  47  68
BRANCH  59  76
ATOM     76  C   UNL A   1      44.915  33.431  29.831  1.00  0.00     0.057 A 
ATOM     77  C   UNL A   1      44.790  34.582  29.042  1.00  0.00     0.134 A 
ATOM     78  C   UNL A   1      45.556  33.559  31.069  1.00  0.00     0.134 A 
ATOM     79  F   UNL A   1      44.196  34.520  27.841  1.00  0.00    -0.206 F 
ATOM     80  C   UNL A   1      45.297  35.811  29.463  1.00  0.00     0.040 A 
ATOM     81  C   UNL A   1      46.051  34.788  31.508  1.00  0.00     0.040 A 
ATOM     82  F   UNL A   1      45.703  32.495  31.873  1.00  0.00    -0.206 F 
ATOM     83  C   UNL A   1      45.925  35.918  30.703  1.00  0.00     0.006 A 
ENDBRANCH  59  76
ENDBRANCH  33  34
ENDBRANCH  26  28
ENDBRANCH  25  26
ENDBRANCH  24  25
ENDBRANCH   1  24
TORSDOF 14
ENDMDL
MODEL 3
REMARK VINA RESULT:     -11.2      0.413      6.274
REMARK SMILES Cc1cc(F)cc(N[C@](C)(C(=O)OCCOC(=O)c2ccc(-c3c4nc(c(-c5c(F)cccc5F)c5ccc([nH]5)c(-c5c(F)cccc5F)c5nc(c(-c6c(F)cccc6F)c6ccc3[nH]6)C=C5)C=C4)cc2)c2cccc(F)c2)c1
REMARK SMILES IDX 14 1 13 2 11 3 12 4 9 5 10 6 8 7 7 9 1 10 2 11 3 12 80 13
REMARK SMILES IDX 4 14 5 15 6 16 73 17 74 18 79 19 75 20 77 21 76 22 78 23
REMARK SMILES IDX 15 24 16 25 17 26 18 27 19 28 20 29 72 30 21 31 71 32 22 33
REMARK SMILES IDX 23 34 24 35 65 36 25 37 70 38 64 39 66 40 26 41 69 42 63 43
REMARK SMILES IDX 62 44 27 46 53 47 36 48 52 49 37 50 40 51 51 52 67 53 38 54
REMARK SMILES IDX 39 55 50 57 68 58 41 59 28 60 29 61 34 62 30 63 31 64 33 65
REMARK SMILES IDX 35 66 32 67 54 68 55 69 60 70 56 71 57 72 59 73 61 74 58 75
REMARK SMILES IDX 42 76 43 77 48 78 44 79 45 80 47 81 49 82 46 83
REMARK H PARENT 8 8 66 45 40 56
REMARK Flexibility Score: inf
ROOT
ATOM      1  C   UNL A   1      31.381  31.030  26.120  1.00  0.00     0.274 C 
ENDROOT
BRANCH   1   2
ATOM      2  O   UNL A   1      32.471  30.118  26.372  1.00  0.00    -0.460 OA
BRANCH   2   3
ATOM      3  C   UNL A   1      32.117  28.809  26.565  1.00  0.00     0.336 C 
ATOM      4  O   UNL A   1      31.645  28.417  27.626  1.00  0.00    -0.249 OA
BRANCH   3   5
ATOM      5  C   UNL A   1      32.416  27.915  25.294  1.00  0.00     0.159 C 
ATOM      6  C   UNL A   1      33.710  28.389  24.598  1.00  0.00     0.053 C 
BRANCH   5   7
ATOM      7  N   UNL A   1      32.616  26.470  25.636  1.00  0.00    -0.366 N 
ATOM      8  H   UNL A   1      32.167  26.169  26.460  1.00  0.00     0.162 HD
BRANCH   7   9
ATOM      9  C   UNL A   1      33.338  25.492  24.969  1.00  0.00     0.038 A 
ATOM     10  C   UNL A   1      36.709  23.733  25.500  1.00  0.00     0.044 C 
ATOM     11  C   UNL A   1      35.416  24.159  24.870  1.00  0.00    -0.046 A 
ATOM     12  C   UNL A   1      35.038  23.652  23.628  1.00  0.00     0.042 A 
ATOM     13  C   UNL A   1      34.552  25.055  25.533  1.00  0.00     0.029 A 
ATOM     14  C   UNL A   1      33.840  24.064  23.066  1.00  0.00     0.125 A 
ATOM     15  F   UNL A   1      33.480  23.585  21.867  1.00  0.00    -0.207 F 
ATOM     16  C   UNL A   1      33.007  24.972  23.717  1.00  0.00     0.065 A 
ENDBRANCH   7   9
ENDBRANCH   5   7
BRANCH   5  17
ATOM     17  C   UNL A   1      31.214  28.032  24.303  1.00  0.00    -0.009 A 
ATOM     18  C   UNL A   1      30.063  27.223  24.412  1.00  0.00     0.007 A 
ATOM     19  C   UNL A   1      31.201  29.019  23.295  1.00  0.00     0.046 A 
ATOM     20  C   UNL A   1      28.968  27.383  23.551  1.00  0.00     0.003 A 
ATOM     21  C   UNL A   1      30.104  29.174  22.449  1.00  0.00     0.123 A 
ATOM     22  C   UNL A   1      28.988  28.362  22.565  1.00  0.00     0.039 A 
ATOM     23  F   UNL A   1      30.129  30.135  21.516  1.00  0.00    -0.207 F 
ENDBRANCH   5  17
ENDBRANCH   3   5
ENDBRANCH   2   3
ENDBRANCH   1   2
BRANCH   1  24
ATOM     24  C   UNL A   1      31.446  32.296  26.982  1.00  0.00     0.275 C 
BRANCH  24  25
ATOM     25  O   UNL A   1      32.687  33.006  26.805  1.00  0.00    -0.458 OA
BRANCH  25  26
ATOM     26  C   UNL A   1      33.113  33.709  27.879  1.00  0.00     0.338 C 
ATOM     27  O   UNL A   1      32.538  34.630  28.433  1.00  0.00    -0.246 OA
BRANCH  26  28
ATOM     28  C   UNL A   1      34.356  33.123  28.409  1.00  0.00     0.060 A 
ATOM     29  C   UNL A   1      34.322  31.780  28.789  1.00  0.00     0.016 A 
ATOM     30  C   UNL A   1      35.503  33.886  28.629  1.00  0.00     0.016 A 
ATOM     31  C   UNL A   1      35.420  31.191  29.401  1.00  0.00     0.010 A 
ATOM     32  C   UNL A   1      36.615  33.292  29.245  1.00  0.00     0.010 A 
ATOM     33  C   UNL A   1      36.572  31.946  29.646  1.00  0.00    -0.014 A 
BRANCH  33  34
ATOM     34  C   UNL A   1      37.687  31.309  30.384  1.00  0.00     0.031 A 
ATOM     35  C   UNL A   1      38.628  30.391  29.660  1.00  0.00     0.074 A 
ATOM     36  C   UNL A   1      37.918  31.637  31.667  1.00  0.00     0.049 A 
ATOM     37  N   UNL A   1      39.668  29.743  30.119  1.00  0.00    -0.248 NA
ATOM     38  C   UNL A   1      38.369  30.183  28.227  1.00  0.00     0.031 C 
ATOM     39  C   UNL A   1      37.125  32.585  32.450  1.00  0.00     0.029 A 
ATOM     40  N   UNL A   1      38.906  31.234  32.528  1.00  0.00    -0.354 N 
ATOM     41  C   UNL A   1      40.171  29.028  29.041  1.00  0.00     0.074 A 
ATOM     42  C   UNL A   1      39.331  29.330  27.901  1.00  0.00     0.031 C 
ATOM     43  C   UNL A   1      37.681  32.717  33.666  1.00  0.00     0.029 A 
ATOM     44  C   UNL A   1      38.844  31.839  33.758  1.00  0.00     0.049 A 
ATOM     45  H   UNL A   1      39.595  30.573  32.286  1.00  0.00     0.167 HD
ATOM     46  C   UNL A   1      41.230  28.184  29.008  1.00  0.00     0.037 A 
ATOM     47  C   UNL A   1      39.640  31.698  34.836  1.00  0.00     0.037 A 
ATOM     48  C   UNL A   1      42.067  27.884  30.140  1.00  0.00     0.049 A 
ATOM     49  C   UNL A   1      40.784  30.722  34.786  1.00  0.00     0.074 A 
ATOM     50  C   UNL A   1      43.129  27.000  30.220  1.00  0.00     0.029 A 
ATOM     51  N   UNL A   1      41.938  28.468  31.390  1.00  0.00    -0.354 N 
ATOM     52  N   UNL A   1      41.217  30.006  33.777  1.00  0.00    -0.248 NA
ATOM     53  C   UNL A   1      41.537  30.521  36.033  1.00  0.00     0.031 C 
ATOM     54  C   UNL A   1      43.623  27.026  31.530  1.00  0.00     0.029 A 
ATOM     55  C   UNL A   1      42.891  27.954  32.253  1.00  0.00     0.049 A 
ATOM     56  H   UNL A   1      41.267  29.148  31.629  1.00  0.00     0.167 HD
ATOM     57  C   UNL A   1      42.286  29.267  34.267  1.00  0.00     0.074 A 
ATOM     58  C   UNL A   1      42.460  29.648  35.653  1.00  0.00     0.031 C 
ATOM     59  C   UNL A   1      43.046  28.342  33.631  1.00  0.00     0.037 A 
BRANCH  46  60
ATOM     60  C   UNL A   1      41.498  27.476  27.716  1.00  0.00     0.057 A 
ATOM     61  C   UNL A   1      42.330  28.020  26.730  1.00  0.00     0.134 A 
ATOM     62  C   UNL A   1      40.919  26.227  27.461  1.00  0.00     0.134 A 
ATOM     63  F   UNL A   1      42.898  29.222  26.907  1.00  0.00    -0.206 F 
ATOM     64  C   UNL A   1      42.562  27.352  25.525  1.00  0.00     0.040 A 
ATOM     65  C   UNL A   1      41.157  25.543  26.269  1.00  0.00     0.040 A 
ATOM     66  F   UNL A   1      40.112  25.654  28.366  1.00  0.00    -0.206 F 
ATOM     67  C   UNL A   1      41.977  26.108  25.295  1.00  0.00     0.006 A 
ENDBRANCH  46  60
BRANCH  47  68
ATOM     68  C   UNL A   1      39.388  32.495  36.061  1.00  0.00     0.057 A 
ATOM     69  C   UNL A   1      38.477  32.053  37.027  1.00  0.00     0.134 A 
ATOM     70  C   UNL A   1      40.029  33.718  36.287  1.00  0.00     0.134 A 
ATOM     71  F   UNL A   1      37.817  30.899  36.854  1.00  0.00    -0.206 F 
ATOM     72  C   UNL A   1      38.200  32.806  38.169  1.00  0.00     0.040 A 
ATOM     73  C   UNL A   1      39.779  34.471  37.436  1.00  0.00     0.040 A 
ATOM     74  F   UNL A   1      40.909  34.197  35.396  1.00  0.00    -0.206 F 
ATOM     75  C   UNL A   1      38.857  34.018  38.377  1.00  0.00     0.006 A 
ENDBRANCH  47  68
BRANCH  59  76
ATOM     76  C   UNL A   1      44.125  27.676  34.431  1.00  0.00     0.057 A 
ATOM     77  C   UNL A   1      45.404  28.236  34.539  1.00  0.00     0.134 A 
ATOM     78  C   UNL A   1      43.873  26.490  35.131  1.00  0.00     0.134 A 
ATOM     79  F   UNL A   1      45.709  29.364  33.881  1.00  0.00    -0.206 F 
ATOM     80  C   UNL A   1      46.401  27.630  35.304  1.00  0.00     0.040 A 
ATOM     81  C   UNL A   1      44.857  25.886  35.915  1.00  0.00     0.040 A 
ATOM     82  F   UNL A   1      42.666  25.907  35.074  1.00  0.00    -0.206 F 
ATOM     83  C   UNL A   1      46.127  26.455  36.001  1.00  0.00     0.006 A 
ENDBRANCH  59  76
ENDBRANCH  33  34
ENDBRANCH  26  28
ENDBRANCH  25  26
ENDBRANCH  24  25
ENDBRANCH   1  24
TORSDOF 14
ENDMDL
