MODEL 1
REMARK VINA RESULT:     -10.5      0.000      0.000
REMARK SMILES CCC(CC)(NC(=O)N(C)C1CC[NH2+]CC1)C(=O)OCCOC(=O)c1ccc(-c2c3nc(c(-c4c(F)cccc4F)c4ccc([nH]4)c(-c4c(F)cccc4F)c4nc(c(-c5c(F)cccc5F)c5ccc2[nH]5)C=C4)C=C3)cc1
REMARK SMILES IDX 20 1 19 2 17 3 18 4 3 5 2 6 1 7 4 8 5 9 6 10 7 11 8 13 9 14
REMARK SMILES IDX 10 15 11 16 12 17 16 18 13 19 15 20 14 21 21 24 22 25 23 26
REMARK SMILES IDX 24 27 25 28 26 29 78 30 27 31 77 32 28 33 29 34 30 35 71 36
REMARK SMILES IDX 31 37 76 38 70 39 72 40 32 41 75 42 69 43 68 44 33 46 59 47
REMARK SMILES IDX 42 48 58 49 43 50 46 51 57 52 73 53 44 54 45 55 56 57 74 58
REMARK SMILES IDX 47 59 34 60 35 61 40 62 36 63 37 64 39 65 41 66 38 67 60 68
REMARK SMILES IDX 61 69 66 70 62 71 63 72 65 73 67 74 64 75 48 76 49 77 54 78
REMARK SMILES IDX 50 79 51 80 53 81 55 82 52 83
REMARK H PARENT 6 12 14 22 14 23 72 45 46 56
REMARK Flexibility Score: inf
ROOT
ATOM      1  C   UNL A   1      31.633  28.839  27.006  1.00  0.00     0.274 C 
ENDROOT
BRANCH   1   2
ATOM      2  O   UNL A   1      32.064  27.877  26.019  1.00  0.00    -0.460 OA
BRANCH   2   3
ATOM      3  C   UNL A   1      31.351  26.724  25.923  1.00  0.00     0.332 C 
ATOM      4  O   UNL A   1      30.745  26.240  26.876  1.00  0.00    -0.249 OA
BRANCH   3   5
ATOM      5  C   UNL A   1      31.461  26.008  24.527  1.00  0.00     0.139 C 
BRANCH   5   6
ATOM      6  C   UNL A   1      30.952  24.544  24.629  1.00  0.00     0.037 C 
ATOM      7  C   UNL A   1      31.055  23.685  23.361  1.00  0.00     0.007 C 
ENDBRANCH   5   6
BRANCH   5   8
ATOM      8  C   UNL A   1      32.989  26.074  24.199  1.00  0.00     0.037 C 
ATOM      9  C   UNL A   1      33.909  25.271  25.118  1.00  0.00     0.007 C 
ENDBRANCH   5   8
BRANCH   5  10
ATOM     10  N   UNL A   1      30.768  26.744  23.425  1.00  0.00    -0.322 N 
ATOM     11  C   UNL A   1      29.583  27.442  23.516  1.00  0.00     0.318 C 
ATOM     12  H   UNL A   1      31.203  26.728  22.542  1.00  0.00     0.166 HD
ATOM     13  O   UNL A   1      28.536  26.852  23.753  1.00  0.00    -0.249 OA
BRANCH  11  14
ATOM     14  N   UNL A   1      29.690  28.779  23.124  1.00  0.00    -0.324 N 
ATOM     15  C   UNL A   1      30.962  29.337  22.670  1.00  0.00     0.149 C 
BRANCH  14  16
ATOM     16  C   UNL A   1      28.558  29.748  23.125  1.00  0.00     0.097 C 
ATOM     17  C   UNL A   1      27.646  29.803  21.893  1.00  0.00     0.086 C 
ATOM     18  C   UNL A   1      28.926  31.143  23.638  1.00  0.00     0.086 C 
ATOM     19  C   UNL A   1      28.028  30.873  20.881  1.00  0.00     0.262 C 
ATOM     20  C   UNL A   1      29.152  32.180  22.542  1.00  0.00     0.262 C 
ATOM     21  N   UNL A   1      28.079  32.180  21.546  1.00  0.00    -0.346 N 
ATOM     22  H   UNL A   1      27.186  32.362  22.007  1.00  0.00     0.346 HD
ATOM     23  H   UNL A   1      28.257  32.908  20.853  1.00  0.00     0.346 HD
ENDBRANCH  14  16
ENDBRANCH  11  14
ENDBRANCH   5  10
ENDBRANCH   3   5
ENDBRANCH   2   3
ENDBRANCH   1   2
BRANCH   1  24
ATOM     24  C   UNL A   1      31.757  30.279  26.496  1.00  0.00     0.275 C 
BRANCH  24  25
ATOM     25  O   UNL A   1      33.129  30.667  26.290  1.00  0.00    -0.458 OA
BRANCH  25  26
ATOM     26  C   UNL A   1      33.597  31.531  27.210  1.00  0.00     0.338 C 
ATOM     27  O   UNL A   1      33.044  32.528  27.639  1.00  0.00    -0.246 OA
BRANCH  26  28
ATOM     28  C   UNL A   1      34.827  31.075  27.828  1.00  0.00     0.060 A 
ATOM     29  C   UNL A   1      35.809  32.042  28.013  1.00  0.00     0.016 A 
ATOM     30  C   UNL A   1      35.087  29.725  28.046  1.00  0.00     0.016 A 
ATOM     31  C   UNL A   1      37.076  31.677  28.423  1.00  0.00     0.010 A 
ATOM     32  C   UNL A   1      36.334  29.362  28.554  1.00  0.00     0.010 A 
ATOM     33  C   UNL A   1      37.317  30.345  28.772  1.00  0.00    -0.014 A 
BRANCH  33  34
ATOM     34  C   UNL A   1      38.519  30.044  29.571  1.00  0.00     0.031 A 
ATOM     35  C   UNL A   1      39.589  29.141  29.061  1.00  0.00     0.074 A 
ATOM     36  C   UNL A   1      38.593  30.612  30.790  1.00  0.00     0.049 A 
ATOM     37  N   UNL A   1      40.612  28.649  29.708  1.00  0.00    -0.248 NA
ATOM     38  C   UNL A   1      39.507  28.733  27.651  1.00  0.00     0.031 C 
ATOM     39  C   UNL A   1      37.601  31.541  31.348  1.00  0.00     0.029 A 
ATOM     40  N   UNL A   1      39.529  30.499  31.780  1.00  0.00    -0.354 N 
ATOM     41  C   UNL A   1      41.278  27.842  28.798  1.00  0.00     0.074 A 
ATOM     42  C   UNL A   1      40.554  27.923  27.547  1.00  0.00     0.031 C 
ATOM     43  C   UNL A   1      37.989  31.922  32.570  1.00  0.00     0.029 A 
ATOM     44  C   UNL A   1      39.199  31.194  32.917  1.00  0.00     0.049 A 
ATOM     45  H   UNL A   1      40.356  29.973  31.687  1.00  0.00     0.167 HD
ATOM     46  C   UNL A   1      42.385  27.094  29.016  1.00  0.00     0.037 A 
ATOM     47  C   UNL A   1      39.769  31.192  34.134  1.00  0.00     0.037 A 
ATOM     48  C   UNL A   1      43.090  27.051  30.270  1.00  0.00     0.049 A 
ATOM     49  C   UNL A   1      40.956  30.311  34.355  1.00  0.00     0.074 A 
ATOM     50  C   UNL A   1      44.239  26.350  30.593  1.00  0.00     0.029 A 
ATOM     51  N   UNL A   1      42.705  27.739  31.413  1.00  0.00    -0.354 N 
ATOM     52  N   UNL A   1      41.568  29.530  33.498  1.00  0.00    -0.248 NA
ATOM     53  C   UNL A   1      41.513  30.284  35.711  1.00  0.00     0.031 C 
ATOM     54  C   UNL A   1      44.527  26.585  31.942  1.00  0.00     0.029 A 
ATOM     55  C   UNL A   1      43.577  27.457  32.452  1.00  0.00     0.049 A 
ATOM     56  H   UNL A   1      41.928  28.340  31.476  1.00  0.00     0.167 HD
ATOM     57  C   UNL A   1      42.575  28.905  34.211  1.00  0.00     0.074 A 
ATOM     58  C   UNL A   1      42.511  29.423  35.565  1.00  0.00     0.031 C 
ATOM     59  C   UNL A   1      43.468  27.976  33.790  1.00  0.00     0.037 A 
BRANCH  46  60
ATOM     60  C   UNL A   1      42.871  26.229  27.894  1.00  0.00     0.057 A 
ATOM     61  C   UNL A   1      42.429  24.913  27.722  1.00  0.00     0.134 A 
ATOM     62  C   UNL A   1      43.759  26.746  26.941  1.00  0.00     0.134 A 
ATOM     63  F   UNL A   1      41.588  24.358  28.608  1.00  0.00    -0.206 F 
ATOM     64  C   UNL A   1      42.857  24.137  26.643  1.00  0.00     0.040 A 
ATOM     65  C   UNL A   1      44.184  25.984  25.851  1.00  0.00     0.040 A 
ATOM     66  F   UNL A   1      44.220  28.000  27.049  1.00  0.00    -0.206 F 
ATOM     67  C   UNL A   1      43.732  24.675  25.700  1.00  0.00     0.006 A 
ENDBRANCH  46  60
BRANCH  47  68
ATOM     68  C   UNL A   1      39.156  31.980  35.230  1.00  0.00     0.057 A 
ATOM     69  C   UNL A   1      38.327  31.379  36.180  1.00  0.00     0.134 A 
ATOM     70  C   UNL A   1      39.431  33.346  35.380  1.00  0.00     0.134 A 
ATOM     71  F   UNL A   1      38.018  30.077  36.081  1.00  0.00    -0.206 F 
ATOM     72  C   UNL A   1      37.791  32.108  37.242  1.00  0.00     0.040 A 
ATOM     73  C   UNL A   1      38.923  34.081  36.450  1.00  0.00     0.040 A 
ATOM     74  F   UNL A   1      40.229  33.977  34.505  1.00  0.00    -0.206 F 
ATOM     75  C   UNL A   1      38.096  33.461  37.384  1.00  0.00     0.006 A 
ENDBRANCH  47  68
BRANCH  59  76
ATOM     76  C   UNL A   1      44.424  27.466  34.819  1.00  0.00     0.057 A 
ATOM     77  C   UNL A   1      45.633  28.122  35.073  1.00  0.00     0.134 A 
ATOM     78  C   UNL A   1      44.127  26.322  35.567  1.00  0.00     0.134 A 
ATOM     79  F   UNL A   1      45.977  29.212  34.370  1.00  0.00    -0.206 F 
ATOM     80  C   UNL A   1      46.527  27.646  36.031  1.00  0.00     0.040 A 
ATOM     81  C   UNL A   1      45.006  25.847  36.541  1.00  0.00     0.040 A 
ATOM     82  F   UNL A   1      42.983  25.652  35.366  1.00  0.00    -0.206 F 
ATOM     83  C   UNL A   1      46.211  26.509  36.772  1.00  0.00     0.006 A 
ENDBRANCH  59  76
ENDBRANCH  33  34
ENDBRANCH  26  28
ENDBRANCH  25  26
ENDBRANCH  24  25
ENDBRANCH   1  24
TORSDOF 16
ENDMDL
MODEL 2
REMARK VINA RESULT:     -10.4      3.455      6.919
REMARK SMILES CCC(CC)(NC(=O)N(C)C1CC[NH2+]CC1)C(=O)OCCOC(=O)c1ccc(-c2c3nc(c(-c4c(F)cccc4F)c4ccc([nH]4)c(-c4c(F)cccc4F)c4nc(c(-c5c(F)cccc5F)c5ccc2[nH]5)C=C4)C=C3)cc1
REMARK SMILES IDX 20 1 19 2 17 3 18 4 3 5 2 6 1 7 4 8 5 9 6 10 7 11 8 13 9 14
REMARK SMILES IDX 10 15 11 16 12 17 16 18 13 19 15 20 14 21 21 24 22 25 23 26
REMARK SMILES IDX 24 27 25 28 26 29 78 30 27 31 77 32 28 33 29 34 30 35 71 36
REMARK SMILES IDX 31 37 76 38 70 39 72 40 32 41 75 42 69 43 68 44 33 46 59 47
REMARK SMILES IDX 42 48 58 49 43 50 46 51 57 52 73 53 44 54 45 55 56 57 74 58
REMARK SMILES IDX 47 59 34 60 35 61 40 62 36 63 37 64 39 65 41 66 38 67 60 68
REMARK SMILES IDX 61 69 66 70 62 71 63 72 65 73 67 74 64 75 48 76 49 77 54 78
REMARK SMILES IDX 50 79 51 80 53 81 55 82 52 83
REMARK H PARENT 6 12 14 22 14 23 72 45 46 56
REMARK Flexibility Score: inf
ROOT
ATOM      1  C   UNL A   1      31.858  29.191  26.871  1.00  0.00     0.274 C 
ENDROOT
BRANCH   1   2
ATOM      2  O   UNL A   1      32.039  28.300  25.750  1.00  0.00    -0.460 OA
BRANCH   2   3
ATOM      3  C   UNL A   1      31.351  27.128  25.771  1.00  0.00     0.332 C 
ATOM      4  O   UNL A   1      30.781  26.714  26.778  1.00  0.00    -0.249 OA
BRANCH   3   5
ATOM      5  C   UNL A   1      31.442  26.300  24.438  1.00  0.00     0.139 C 
BRANCH   5   6
ATOM      6  C   UNL A   1      31.024  24.824  24.689  1.00  0.00     0.037 C 
ATOM      7  C   UNL A   1      30.695  23.978  23.451  1.00  0.00     0.007 C 
ENDBRANCH   5   6
BRANCH   5   8
ATOM      8  C   UNL A   1      32.948  26.419  24.031  1.00  0.00     0.037 C 
ATOM      9  C   UNL A   1      33.922  25.517  24.788  1.00  0.00     0.007 C 
ENDBRANCH   5   8
BRANCH   5  10
ATOM     10  N   UNL A   1      30.659  26.896  23.312  1.00  0.00    -0.322 N 
ATOM     11  C   UNL A   1      29.466  27.579  23.407  1.00  0.00     0.318 C 
ATOM     12  H   UNL A   1      31.036  26.792  22.408  1.00  0.00     0.166 HD
ATOM     13  O   UNL A   1      28.452  26.999  23.776  1.00  0.00    -0.249 OA
BRANCH  11  14
ATOM     14  N   UNL A   1      29.512  28.866  22.865  1.00  0.00    -0.324 N 
ATOM     15  C   UNL A   1      30.774  29.460  22.429  1.00  0.00     0.149 C 
BRANCH  14  16
ATOM     16  C   UNL A   1      28.322  29.742  22.679  1.00  0.00     0.097 C 
ATOM     17  C   UNL A   1      27.975  30.207  21.259  1.00  0.00     0.086 C 
ATOM     18  C   UNL A   1      28.210  30.875  23.704  1.00  0.00     0.086 C 
ATOM     19  C   UNL A   1      28.533  31.575  20.896  1.00  0.00     0.262 C 
ATOM     20  C   UNL A   1      28.665  32.238  23.192  1.00  0.00     0.262 C 
ATOM     21  N   UNL A   1      28.089  32.563  21.885  1.00  0.00    -0.346 N 
ATOM     22  H   UNL A   1      27.071  32.547  21.949  1.00  0.00     0.346 HD
ATOM     23  H   UNL A   1      28.397  33.493  21.599  1.00  0.00     0.346 HD
ENDBRANCH  14  16
ENDBRANCH  11  14
ENDBRANCH   5  10
ENDBRANCH   3   5
ENDBRANCH   2   3
ENDBRANCH   1   2
BRANCH   1  24
ATOM     24  C   UNL A   1      32.807  30.393  26.807  1.00  0.00     0.275 C 
BRANCH  24  25
ATOM     25  O   UNL A   1      34.172  30.026  27.084  1.00  0.00    -0.458 OA
BRANCH  25  26
ATOM     26  C   UNL A   1      34.740  30.736  28.077  1.00  0.00     0.338 C 
ATOM     27  O   UNL A   1      34.219  31.598  28.762  1.00  0.00    -0.246 OA
BRANCH  26  28
ATOM     28  C   UNL A   1      36.066  30.258  28.416  1.00  0.00     0.060 A 
ATOM     29  C   UNL A   1      36.979  30.204  27.368  1.00  0.00     0.016 A 
ATOM     30  C   UNL A   1      36.356  29.707  29.661  1.00  0.00     0.016 A 
ATOM     31  C   UNL A   1      38.205  29.597  27.545  1.00  0.00     0.010 A 
ATOM     32  C   UNL A   1      37.629  29.180  29.873  1.00  0.00     0.010 A 
ATOM     33  C   UNL A   1      38.564  29.155  28.822  1.00  0.00    -0.014 A 
BRANCH  33  34
ATOM     34  C   UNL A   1      39.989  28.883  29.087  1.00  0.00     0.031 A 
ATOM     35  C   UNL A   1      40.892  29.928  29.647  1.00  0.00     0.074 A 
ATOM     36  C   UNL A   1      40.437  27.650  28.782  1.00  0.00     0.049 A 
ATOM     37  N   UNL A   1      42.192  29.894  29.773  1.00  0.00    -0.248 NA
ATOM     38  C   UNL A   1      40.265  31.169  30.126  1.00  0.00     0.031 C 
ATOM     39  C   UNL A   1      39.604  26.556  28.263  1.00  0.00     0.029 A 
ATOM     40  N   UNL A   1      41.687  27.102  28.856  1.00  0.00    -0.354 N 
ATOM     41  C   UNL A   1      42.548  31.122  30.310  1.00  0.00     0.074 A 
ATOM     42  C   UNL A   1      41.326  31.873  30.504  1.00  0.00     0.031 C 
ATOM     43  C   UNL A   1      40.363  25.469  28.082  1.00  0.00     0.029 A 
ATOM     44  C   UNL A   1      41.744  25.817  28.377  1.00  0.00     0.049 A 
ATOM     45  H   UNL A   1      42.468  27.581  29.217  1.00  0.00     0.167 HD
ATOM     46  C   UNL A   1      43.794  31.567  30.593  1.00  0.00     0.037 A 
ATOM     47  C   UNL A   1      42.801  25.025  28.134  1.00  0.00     0.037 A 
ATOM     48  C   UNL A   1      44.988  30.785  30.404  1.00  0.00     0.049 A 
ATOM     49  C   UNL A   1      44.167  25.570  28.405  1.00  0.00     0.074 A 
ATOM     50  C   UNL A   1      46.300  31.126  30.683  1.00  0.00     0.029 A 
ATOM     51  N   UNL A   1      45.011  29.499  29.880  1.00  0.00    -0.354 N 
ATOM     52  N   UNL A   1      44.501  26.741  28.889  1.00  0.00    -0.248 NA
ATOM     53  C   UNL A   1      45.300  24.704  28.067  1.00  0.00     0.031 C 
ATOM     54  C   UNL A   1      47.119  30.061  30.293  1.00  0.00     0.029 A 
ATOM     55  C   UNL A   1      46.317  29.044  29.800  1.00  0.00     0.049 A 
ATOM     56  H   UNL A   1      44.217  28.986  29.607  1.00  0.00     0.167 HD
ATOM     57  C   UNL A   1      45.884  26.762  28.904  1.00  0.00     0.074 A 
ATOM     58  C   UNL A   1      46.326  25.472  28.408  1.00  0.00     0.031 C 
ATOM     59  C   UNL A   1      46.717  27.762  29.282  1.00  0.00     0.037 A 
BRANCH  46  60
ATOM     60  C   UNL A   1      43.935  32.974  31.088  1.00  0.00     0.057 A 
ATOM     61  C   UNL A   1      43.975  33.283  32.452  1.00  0.00     0.134 A 
ATOM     62  C   UNL A   1      44.085  34.029  30.179  1.00  0.00     0.134 A 
ATOM     63  F   UNL A   1      43.825  32.317  33.372  1.00  0.00    -0.206 F 
ATOM     64  C   UNL A   1      44.155  34.594  32.896  1.00  0.00     0.040 A 
ATOM     65  C   UNL A   1      44.278  35.342  30.610  1.00  0.00     0.040 A 
ATOM     66  F   UNL A   1      44.055  33.799  28.858  1.00  0.00    -0.206 F 
ATOM     67  C   UNL A   1      44.314  35.628  31.973  1.00  0.00     0.006 A 
ENDBRANCH  46  60
BRANCH  47  68
ATOM     68  C   UNL A   1      42.591  23.689  27.527  1.00  0.00     0.057 A 
ATOM     69  C   UNL A   1      42.310  22.571  28.316  1.00  0.00     0.134 A 
ATOM     70  C   UNL A   1      42.614  23.514  26.137  1.00  0.00     0.134 A 
ATOM     71  F   UNL A   1      42.287  22.675  29.653  1.00  0.00    -0.206 F 
ATOM     72  C   UNL A   1      42.061  21.322  27.744  1.00  0.00     0.040 A 
ATOM     73  C   UNL A   1      42.342  22.278  25.551  1.00  0.00     0.040 A 
ATOM     74  F   UNL A   1      42.867  24.552  25.327  1.00  0.00    -0.206 F 
ATOM     75  C   UNL A   1      42.067  21.176  26.358  1.00  0.00     0.006 A 
ENDBRANCH  47  68
BRANCH  59  76
ATOM     76  C   UNL A   1      48.180  27.485  29.153  1.00  0.00     0.057 A 
ATOM     77  C   UNL A   1      48.889  26.842  30.173  1.00  0.00     0.134 A 
ATOM     78  C   UNL A   1      48.879  27.852  27.998  1.00  0.00     0.134 A 
ATOM     79  F   UNL A   1      48.272  26.487  31.311  1.00  0.00    -0.206 F 
ATOM     80  C   UNL A   1      50.254  26.584  30.055  1.00  0.00     0.040 A 
ATOM     81  C   UNL A   1      50.241  27.584  27.861  1.00  0.00     0.040 A 
ATOM     82  F   UNL A   1      48.251  28.472  26.988  1.00  0.00    -0.206 F 
ATOM     83  C   UNL A   1      50.932  26.951  28.894  1.00  0.00     0.006 A 
ENDBRANCH  59  76
ENDBRANCH  33  34
ENDBRANCH  26  28
ENDBRANCH  25  26
ENDBRANCH  24  25
ENDBRANCH   1  24
TORSDOF 16
ENDMDL
MODEL 3
REMARK VINA RESULT:     -10.4      5.229      9.875
REMARK SMILES CCC(CC)(NC(=O)N(C)C1CC[NH2+]CC1)C(=O)OCCOC(=O)c1ccc(-c2c3nc(c(-c4c(F)cccc4F)c4ccc([nH]4)c(-c4c(F)cccc4F)c4nc(c(-c5c(F)cccc5F)c5ccc2[nH]5)C=C4)C=C3)cc1
REMARK SMILES IDX 20 1 19 2 17 3 18 4 3 5 2 6 1 7 4 8 5 9 6 10 7 11 8 13 9 14
REMARK SMILES IDX 10 15 11 16 12 17 16 18 13 19 15 20 14 21 21 24 22 25 23 26
REMARK SMILES IDX 24 27 25 28 26 29 78 30 27 31 77 32 28 33 29 34 30 35 71 36
REMARK SMILES IDX 31 37 76 38 70 39 72 40 32 41 75 42 69 43 68 44 33 46 59 47
REMARK SMILES IDX 42 48 58 49 43 50 46 51 57 52 73 53 44 54 45 55 56 57 74 58
REMARK SMILES IDX 47 59 34 60 35 61 40 62 36 63 37 64 39 65 41 66 38 67 60 68
REMARK SMILES IDX 61 69 66 70 62 71 63 72 65 73 67 74 64 75 48 76 49 77 54 78
REMARK SMILES IDX 50 79 51 80 53 81 55 82 52 83
REMARK H PARENT 6 12 14 22 14 23 72 45 46 56
REMARK Flexibility Score: inf
ROOT
ATOM      1  C   UNL A   1      36.194  20.253  24.861  1.00  0.00     0.274 C 
ENDROOT
BRANCH   1   2
ATOM      2  O   UNL A   1      35.630  21.415  25.506  1.00  0.00    -0.460 OA
BRANCH   2   3
ATOM      3  C   UNL A   1      34.634  22.068  24.850  1.00  0.00     0.332 C 
ATOM      4  O   UNL A   1      34.844  22.781  23.871  1.00  0.00    -0.249 OA
BRANCH   3   5
ATOM      5  C   UNL A   1      33.217  21.923  25.515  1.00  0.00     0.139 C 
BRANCH   5   6
ATOM      6  C   UNL A   1      32.448  23.271  25.447  1.00  0.00     0.037 C 
ATOM      7  C   UNL A   1      30.916  23.200  25.522  1.00  0.00     0.007 C 
ENDBRANCH   5   6
BRANCH   5   8
ATOM      8  C   UNL A   1      33.541  21.508  26.987  1.00  0.00     0.037 C 
ATOM      9  C   UNL A   1      33.611  22.646  28.006  1.00  0.00     0.007 C 
ENDBRANCH   5   8
BRANCH   5  10
ATOM     10  N   UNL A   1      32.401  20.809  24.940  1.00  0.00    -0.322 N 
ATOM     11  C   UNL A   1      32.503  20.281  23.671  1.00  0.00     0.318 C 
ATOM     12  H   UNL A   1      31.720  20.411  25.529  1.00  0.00     0.166 HD
ATOM     13  O   UNL A   1      32.220  20.964  22.694  1.00  0.00    -0.249 OA
BRANCH  11  14
ATOM     14  N   UNL A   1      32.748  18.905  23.655  1.00  0.00    -0.324 N 
ATOM     15  C   UNL A   1      32.313  18.070  22.538  1.00  0.00     0.149 C 
BRANCH  14  16
ATOM     16  C   UNL A   1      33.455  18.166  24.738  1.00  0.00     0.097 C 
ATOM     17  C   UNL A   1      34.667  17.304  24.360  1.00  0.00     0.086 C 
ATOM     18  C   UNL A   1      32.524  17.456  25.726  1.00  0.00     0.086 C 
ATOM     19  C   UNL A   1      34.341  15.836  24.128  1.00  0.00     0.262 C 
ATOM     20  C   UNL A   1      32.376  15.957  25.490  1.00  0.00     0.262 C 
ATOM     21  N   UNL A   1      33.668  15.291  25.312  1.00  0.00    -0.346 N 
ATOM     22  H   UNL A   1      34.249  15.449  26.136  1.00  0.00     0.346 HD
ATOM     23  H   UNL A   1      33.520  14.289  25.188  1.00  0.00     0.346 HD
ENDBRANCH  14  16
ENDBRANCH  11  14
ENDBRANCH   5  10
ENDBRANCH   3   5
ENDBRANCH   2   3
ENDBRANCH   1   2
BRANCH   1  24
ATOM     24  C   UNL A   1      37.720  20.212  24.988  1.00  0.00     0.275 C 
BRANCH  24  25
ATOM     25  O   UNL A   1      38.271  21.491  25.357  1.00  0.00    -0.458 OA
BRANCH  25  26
ATOM     26  C   UNL A   1      39.364  21.411  26.139  1.00  0.00     0.338 C 
ATOM     27  O   UNL A   1      40.036  20.423  26.374  1.00  0.00    -0.246 OA
BRANCH  26  28
ATOM     28  C   UNL A   1      39.823  22.711  26.589  1.00  0.00     0.060 A 
ATOM     29  C   UNL A   1      40.821  22.702  27.556  1.00  0.00     0.016 A 
ATOM     30  C   UNL A   1      39.179  23.889  26.221  1.00  0.00     0.016 A 
ATOM     31  C   UNL A   1      41.197  23.875  28.179  1.00  0.00     0.010 A 
ATOM     32  C   UNL A   1      39.622  25.089  26.774  1.00  0.00     0.010 A 
ATOM     33  C   UNL A   1      40.655  25.083  27.731  1.00  0.00    -0.014 A 
BRANCH  33  34
ATOM     34  C   UNL A   1      41.338  26.334  28.110  1.00  0.00     0.031 A 
ATOM     35  C   UNL A   1      40.642  27.401  28.882  1.00  0.00     0.074 A 
ATOM     36  C   UNL A   1      42.617  26.469  27.709  1.00  0.00     0.049 A 
ATOM     37  N   UNL A   1      41.051  28.615  29.138  1.00  0.00    -0.248 NA
ATOM     38  C   UNL A   1      39.320  27.074  29.436  1.00  0.00     0.031 C 
ATOM     39  C   UNL A   1      43.384  25.450  26.979  1.00  0.00     0.029 A 
ATOM     40  N   UNL A   1      43.499  27.505  27.847  1.00  0.00    -0.354 N 
ATOM     41  C   UNL A   1      40.024  29.213  29.852  1.00  0.00     0.074 A 
ATOM     42  C   UNL A   1      38.978  28.224  30.004  1.00  0.00     0.031 C 
ATOM     43  C   UNL A   1      44.620  25.906  26.750  1.00  0.00     0.029 A 
ATOM     44  C   UNL A   1      44.702  27.277  27.228  1.00  0.00     0.049 A 
ATOM     45  H   UNL A   1      43.291  28.331  28.342  1.00  0.00     0.167 HD
ATOM     46  C   UNL A   1      39.973  30.484  30.314  1.00  0.00     0.037 A 
ATOM     47  C   UNL A   1      45.736  28.105  27.004  1.00  0.00     0.037 A 
ATOM     48  C   UNL A   1      41.041  31.438  30.159  1.00  0.00     0.049 A 
ATOM     49  C   UNL A   1      45.623  29.518  27.479  1.00  0.00     0.074 A 
ATOM     50  C   UNL A   1      41.108  32.743  30.613  1.00  0.00     0.029 A 
ATOM     51  N   UNL A   1      42.231  31.183  29.492  1.00  0.00    -0.354 N 
ATOM     52  N   UNL A   1      44.639  30.087  28.132  1.00  0.00    -0.248 NA
ATOM     53  C   UNL A   1      46.741  30.411  27.161  1.00  0.00     0.031 C 
ATOM     54  C   UNL A   1      42.323  33.291  30.187  1.00  0.00     0.029 A 
ATOM     55  C   UNL A   1      43.027  32.317  29.495  1.00  0.00     0.049 A 
ATOM     56  H   UNL A   1      42.474  30.324  29.077  1.00  0.00     0.167 HD
ATOM     57  C   UNL A   1      45.009  31.410  28.293  1.00  0.00     0.074 A 
ATOM     58  C   UNL A   1      46.325  31.551  27.696  1.00  0.00     0.031 C 
ATOM     59  C   UNL A   1      44.321  32.424  28.873  1.00  0.00     0.037 A 
BRANCH  46  60
ATOM     60  C   UNL A   1      38.710  30.931  30.985  1.00  0.00     0.057 A 
ATOM     61  C   UNL A   1      38.529  30.837  32.369  1.00  0.00     0.134 A 
ATOM     62  C   UNL A   1      37.681  31.513  30.233  1.00  0.00     0.134 A 
ATOM     63  F   UNL A   1      39.474  30.279  33.142  1.00  0.00    -0.206 F 
ATOM     64  C   UNL A   1      37.365  31.302  32.984  1.00  0.00     0.040 A 
ATOM     65  C   UNL A   1      36.518  31.993  30.838  1.00  0.00     0.040 A 
ATOM     66  F   UNL A   1      37.793  31.631  28.902  1.00  0.00    -0.206 F 
ATOM     67  C   UNL A   1      36.358  31.888  32.217  1.00  0.00     0.006 A 
ENDBRANCH  46  60
BRANCH  47  68
ATOM     68  C   UNL A   1      46.902  27.626  26.224  1.00  0.00     0.057 A 
ATOM     69  C   UNL A   1      48.030  27.098  26.856  1.00  0.00     0.134 A 
ATOM     70  C   UNL A   1      46.889  27.637  24.822  1.00  0.00     0.134 A 
ATOM     71  F   UNL A   1      48.104  27.073  28.195  1.00  0.00    -0.206 F 
ATOM     72  C   UNL A   1      49.108  26.600  26.123  1.00  0.00     0.040 A 
ATOM     73  C   UNL A   1      47.947  27.119  24.077  1.00  0.00     0.040 A 
ATOM     74  F   UNL A   1      45.829  28.121  24.158  1.00  0.00    -0.206 F 
ATOM     75  C   UNL A   1      49.064  26.601  24.730  1.00  0.00     0.006 A 
ENDBRANCH  47  68
BRANCH  59  76
ATOM     76  C   UNL A   1      44.987  33.762  28.866  1.00  0.00     0.057 A 
ATOM     77  C   UNL A   1      44.751  34.683  27.839  1.00  0.00     0.134 A 
ATOM     78  C   UNL A   1      45.857  34.134  29.896  1.00  0.00     0.134 A 
ATOM     79  F   UNL A   1      43.941  34.369  26.816  1.00  0.00    -0.206 F 
ATOM     80  C   UNL A   1      45.373  35.930  27.830  1.00  0.00     0.040 A 
ATOM     81  C   UNL A   1      46.472  35.386  29.906  1.00  0.00     0.040 A 
ATOM     82  F   UNL A   1      46.121  33.291  30.904  1.00  0.00    -0.206 F 
ATOM     83  C   UNL A   1      46.231  36.286  28.868  1.00  0.00     0.006 A 
ENDBRANCH  59  76
ENDBRANCH  33  34
ENDBRANCH  26  28
ENDBRANCH  25  26
ENDBRANCH  24  25
ENDBRANCH   1  24
TORSDOF 16
ENDMDL
