MODEL 1
REMARK VINA RESULT:     -12.4      0.000      0.000
REMARK SMILES Cc1cc(C)c(S(=O)(=O)n2cc([C@@H](C)[C@@H]([NH3+])C(=O)OCCOC(=O)c3ccc(-c4c5nc(c(-c6c(F)cccc6F)c6ccc([nH]6)c(-c6c(F)cccc6F)c6nc(c(-c7c(F)cccc7F)c7ccc4[nH]7)C=C6)C=C5)cc3)c3ccccc32)c(C)c1
REMARK SMILES IDX 20 1 19 2 17 3 18 4 15 5 13 6 14 7 12 8 10 9 11 10 84 11
REMARK SMILES IDX 79 12 83 13 80 14 82 15 81 16 7 17 8 18 9 19 6 20 1 21 2 22
REMARK SMILES IDX 3 23 87 24 4 25 85 26 5 27 86 28 16 29 21 33 22 34 23 35
REMARK SMILES IDX 24 36 25 37 26 38 78 39 27 40 77 41 28 42 29 43 30 44 71 45
REMARK SMILES IDX 31 46 76 47 70 48 72 49 32 50 75 51 69 52 68 53 33 55 59 56
REMARK SMILES IDX 42 57 58 58 43 59 46 60 57 61 73 62 44 63 45 64 56 66 74 67
REMARK SMILES IDX 47 68 34 69 35 70 40 71 36 72 37 73 39 74 41 75 38 76 60 77
REMARK SMILES IDX 61 78 66 79 62 80 63 81 65 82 67 83 64 84 48 85 49 86 54 87
REMARK SMILES IDX 50 88 51 89 53 90 55 91 52 92
REMARK H PARENT 16 30 16 31 16 32 72 54 46 65
REMARK Flexibility Score: inf
ROOT
ATOM      1  C   UNL A   1      36.279  21.869  25.764  1.00  0.00     0.274 C 
ENDROOT
BRANCH   1   2
ATOM      2  O   UNL A   1      35.369  21.410  24.733  1.00  0.00    -0.458 OA
BRANCH   2   3
ATOM      3  C   UNL A   1      34.745  20.235  24.979  1.00  0.00     0.365 C 
ATOM      4  O   UNL A   1      35.291  19.140  24.845  1.00  0.00    -0.245 OA
BRANCH   3   5
ATOM      5  C   UNL A   1      33.262  20.332  25.405  1.00  0.00     0.299 C 
BRANCH   5   6
ATOM      6  C   UNL A   1      32.139  20.671  24.387  1.00  0.00     0.088 C 
ATOM      7  C   UNL A   1      32.264  20.163  22.952  1.00  0.00     0.020 C 
BRANCH   6   8
ATOM      8  C   UNL A   1      31.896  22.187  24.387  1.00  0.00    -0.012 A 
ATOM      9  N   UNL A   1      32.012  24.294  23.685  1.00  0.00    -0.241 N 
ATOM     10  C   UNL A   1      32.465  23.028  23.453  1.00  0.00     0.109 A 
ATOM     11  C   UNL A   1      31.035  24.311  24.653  1.00  0.00     0.064 A 
ATOM     12  C   UNL A   1      31.063  23.027  25.226  1.00  0.00     0.004 A 
ATOM     13  C   UNL A   1      30.213  25.345  25.145  1.00  0.00     0.028 A 
ATOM     14  C   UNL A   1      30.335  22.850  26.423  1.00  0.00     0.010 A 
ATOM     15  C   UNL A   1      29.463  25.106  26.297  1.00  0.00     0.002 A 
ATOM     16  C   UNL A   1      29.548  23.885  26.948  1.00  0.00     0.001 A 
BRANCH   9  17
ATOM     17  S   UNL A   1      32.695  25.648  22.947  1.00  0.00     0.268 S 
ATOM     18  O   UNL A   1      31.719  26.045  21.946  1.00  0.00    -0.201 OA
ATOM     19  O   UNL A   1      34.036  25.231  22.571  1.00  0.00    -0.201 OA
BRANCH  17  20
ATOM     20  C   UNL A   1      32.883  27.019  24.091  1.00  0.00     0.094 A 
ATOM     21  C   UNL A   1      33.970  30.173  26.861  1.00  0.00     0.044 C 
ATOM     22  C   UNL A   1      33.577  29.079  25.918  1.00  0.00    -0.051 A 
ATOM     23  C   UNL A   1      34.021  27.778  26.121  1.00  0.00     0.008 A 
ATOM     24  C   UNL A   1      32.737  29.331  24.838  1.00  0.00     0.008 A 
ATOM     25  C   UNL A   1      33.692  26.741  25.229  1.00  0.00    -0.030 A 
ATOM     26  C   UNL A   1      32.336  28.317  23.940  1.00  0.00    -0.030 A 
ATOM     27  C   UNL A   1      34.223  25.377  25.611  1.00  0.00     0.046 C 
ATOM     28  C   UNL A   1      31.344  28.793  22.918  1.00  0.00     0.046 C 
ENDBRANCH  17  20
ENDBRANCH   9  17
ENDBRANCH   6   8
ENDBRANCH   5   6
BRANCH   5  29
ATOM     29  N   UNL A   1      32.925  19.054  26.115  1.00  0.00    -0.345 N 
ATOM     30  H   UNL A   1      32.599  18.364  25.437  1.00  0.00     0.345 HD
ATOM     31  H   UNL A   1      32.191  19.230  26.802  1.00  0.00     0.345 HD
ATOM     32  H   UNL A   1      33.755  18.699  26.589  1.00  0.00     0.345 HD
ENDBRANCH   5  29
ENDBRANCH   3   5
ENDBRANCH   2   3
ENDBRANCH   1   2
BRANCH   1  33
ATOM     33  C   UNL A   1      37.730  21.512  25.421  1.00  0.00     0.275 C 
BRANCH  33  34
ATOM     34  O   UNL A   1      38.575  22.634  25.720  1.00  0.00    -0.458 OA
BRANCH  34  35
ATOM     35  C   UNL A   1      39.501  22.438  26.695  1.00  0.00     0.338 C 
ATOM     36  O   UNL A   1      40.016  21.396  27.027  1.00  0.00    -0.246 OA
BRANCH  35  37
ATOM     37  C   UNL A   1      40.073  23.777  26.953  1.00  0.00     0.060 A 
ATOM     38  C   UNL A   1      41.144  23.992  27.825  1.00  0.00     0.016 A 
ATOM     39  C   UNL A   1      39.285  24.839  26.527  1.00  0.00     0.016 A 
ATOM     40  C   UNL A   1      41.308  25.248  28.409  1.00  0.00     0.010 A 
ATOM     41  C   UNL A   1      39.423  26.064  27.152  1.00  0.00     0.010 A 
ATOM     42  C   UNL A   1      40.382  26.256  28.142  1.00  0.00    -0.014 A 
BRANCH  42  43
ATOM     43  C   UNL A   1      40.511  27.593  28.711  1.00  0.00     0.031 A 
ATOM     44  C   UNL A   1      41.641  28.349  28.126  1.00  0.00     0.074 A 
ATOM     45  C   UNL A   1      39.645  28.237  29.521  1.00  0.00     0.049 A 
ATOM     46  N   UNL A   1      42.808  28.509  28.651  1.00  0.00    -0.248 NA
ATOM     47  C   UNL A   1      41.531  28.831  26.743  1.00  0.00     0.031 C 
ATOM     48  C   UNL A   1      38.321  27.836  29.971  1.00  0.00     0.029 A 
ATOM     49  N   UNL A   1      39.782  29.479  30.073  1.00  0.00    -0.354 N 
ATOM     50  C   UNL A   1      43.516  29.286  27.745  1.00  0.00     0.074 A 
ATOM     51  C   UNL A   1      42.779  29.239  26.513  1.00  0.00     0.031 C 
ATOM     52  C   UNL A   1      37.687  28.887  30.548  1.00  0.00     0.029 A 
ATOM     53  C   UNL A   1      38.633  29.985  30.672  1.00  0.00     0.049 A 
ATOM     54  H   UNL A   1      40.629  29.978  30.050  1.00  0.00     0.167 HD
ATOM     55  C   UNL A   1      44.505  30.122  28.159  1.00  0.00     0.037 A 
ATOM     56  C   UNL A   1      38.485  31.208  31.241  1.00  0.00     0.037 A 
ATOM     57  C   UNL A   1      44.885  29.842  29.525  1.00  0.00     0.049 A 
ATOM     58  C   UNL A   1      39.842  31.713  31.561  1.00  0.00     0.074 A 
ATOM     59  C   UNL A   1      45.351  28.729  30.201  1.00  0.00     0.029 A 
ATOM     60  N   UNL A   1      44.435  30.702  30.497  1.00  0.00    -0.354 N 
ATOM     61  N   UNL A   1      40.599  31.218  32.500  1.00  0.00    -0.248 NA
ATOM     62  C   UNL A   1      40.533  32.501  30.553  1.00  0.00     0.031 C 
ATOM     63  C   UNL A   1      44.719  28.780  31.480  1.00  0.00     0.029 A 
ATOM     64  C   UNL A   1      43.947  29.941  31.527  1.00  0.00     0.049 A 
ATOM     65  H   UNL A   1      44.460  31.686  30.460  1.00  0.00     0.167 HD
ATOM     66  C   UNL A   1      41.878  31.245  31.967  1.00  0.00     0.074 A 
ATOM     67  C   UNL A   1      41.792  32.142  30.817  1.00  0.00     0.031 C 
ATOM     68  C   UNL A   1      42.811  30.319  32.336  1.00  0.00     0.037 A 
BRANCH  55  69
ATOM     69  C   UNL A   1      44.855  31.427  27.487  1.00  0.00     0.057 A 
ATOM     70  C   UNL A   1      44.181  32.650  27.688  1.00  0.00     0.134 A 
ATOM     71  C   UNL A   1      46.093  31.531  26.831  1.00  0.00     0.134 A 
ATOM     72  F   UNL A   1      43.027  32.744  28.358  1.00  0.00    -0.206 F 
ATOM     73  C   UNL A   1      44.714  33.881  27.299  1.00  0.00     0.040 A 
ATOM     74  C   UNL A   1      46.661  32.763  26.490  1.00  0.00     0.040 A 
ATOM     75  F   UNL A   1      46.832  30.440  26.578  1.00  0.00    -0.206 F 
ATOM     76  C   UNL A   1      45.975  33.945  26.733  1.00  0.00     0.006 A 
ENDBRANCH  55  69
BRANCH  56  77
ATOM     77  C   UNL A   1      37.294  32.078  31.369  1.00  0.00     0.057 A 
ATOM     78  C   UNL A   1      36.553  32.116  32.562  1.00  0.00     0.134 A 
ATOM     79  C   UNL A   1      36.681  32.654  30.244  1.00  0.00     0.134 A 
ATOM     80  F   UNL A   1      37.019  31.537  33.678  1.00  0.00    -0.206 F 
ATOM     81  C   UNL A   1      35.266  32.664  32.626  1.00  0.00     0.040 A 
ATOM     82  C   UNL A   1      35.393  33.205  30.294  1.00  0.00     0.040 A 
ATOM     83  F   UNL A   1      37.292  32.636  29.051  1.00  0.00    -0.206 F 
ATOM     84  C   UNL A   1      34.674  33.197  31.485  1.00  0.00     0.006 A 
ENDBRANCH  56  77
BRANCH  68  85
ATOM     85  C   UNL A   1      42.509  29.461  33.534  1.00  0.00     0.057 A 
ATOM     86  C   UNL A   1      43.113  29.778  34.756  1.00  0.00     0.134 A 
ATOM     87  C   UNL A   1      41.756  28.278  33.490  1.00  0.00     0.134 A 
ATOM     88  F   UNL A   1      43.893  30.866  34.863  1.00  0.00    -0.206 F 
ATOM     89  C   UNL A   1      42.969  28.968  35.884  1.00  0.00     0.040 A 
ATOM     90  C   UNL A   1      41.574  27.476  34.621  1.00  0.00     0.040 A 
ATOM     91  F   UNL A   1      41.222  27.837  32.344  1.00  0.00    -0.206 F 
ATOM     92  C   UNL A   1      42.187  27.817  35.823  1.00  0.00     0.006 A 
ENDBRANCH  68  85
ENDBRANCH  42  43
ENDBRANCH  35  37
ENDBRANCH  34  35
ENDBRANCH  33  34
ENDBRANCH   1  33
TORSDOF 16
ENDMDL
MODEL 2
REMARK VINA RESULT:     -12.1      2.545      7.788
REMARK SMILES Cc1cc(C)c(S(=O)(=O)n2cc([C@@H](C)[C@@H]([NH3+])C(=O)OCCOC(=O)c3ccc(-c4c5nc(c(-c6c(F)cccc6F)c6ccc([nH]6)c(-c6c(F)cccc6F)c6nc(c(-c7c(F)cccc7F)c7ccc4[nH]7)C=C6)C=C5)cc3)c3ccccc32)c(C)c1
REMARK SMILES IDX 20 1 19 2 17 3 18 4 15 5 13 6 14 7 12 8 10 9 11 10 84 11
REMARK SMILES IDX 79 12 83 13 80 14 82 15 81 16 7 17 8 18 9 19 6 20 1 21 2 22
REMARK SMILES IDX 3 23 87 24 4 25 85 26 5 27 86 28 16 29 21 33 22 34 23 35
REMARK SMILES IDX 24 36 25 37 26 38 78 39 27 40 77 41 28 42 29 43 30 44 71 45
REMARK SMILES IDX 31 46 76 47 70 48 72 49 32 50 75 51 69 52 68 53 33 55 59 56
REMARK SMILES IDX 42 57 58 58 43 59 46 60 57 61 73 62 44 63 45 64 56 66 74 67
REMARK SMILES IDX 47 68 34 69 35 70 40 71 36 72 37 73 39 74 41 75 38 76 60 77
REMARK SMILES IDX 61 78 66 79 62 80 63 81 65 82 67 83 64 84 48 85 49 86 54 87
REMARK SMILES IDX 50 88 51 89 53 90 55 91 52 92
REMARK H PARENT 16 30 16 31 16 32 72 54 46 65
REMARK Flexibility Score: inf
ROOT
ATOM      1  C   UNL A   1      32.414  29.497  27.280  1.00  0.00     0.274 C 
ENDROOT
BRANCH   1   2
ATOM      2  O   UNL A   1      31.873  29.093  25.997  1.00  0.00    -0.458 OA
BRANCH   2   3
ATOM      3  C   UNL A   1      32.783  28.757  25.054  1.00  0.00     0.365 C 
ATOM      4  O   UNL A   1      33.936  28.418  25.320  1.00  0.00    -0.245 OA
BRANCH   3   5
ATOM      5  C   UNL A   1      32.310  28.864  23.586  1.00  0.00     0.299 C 
BRANCH   5   6
ATOM      6  C   UNL A   1      32.034  27.604  22.721  1.00  0.00     0.088 C 
ATOM      7  C   UNL A   1      30.646  27.418  22.110  1.00  0.00     0.020 C 
BRANCH   6   8
ATOM      8  C   UNL A   1      32.431  26.349  23.511  1.00  0.00    -0.012 A 
ATOM      9  N   UNL A   1      33.708  24.663  24.199  1.00  0.00    -0.241 N 
ATOM     10  C   UNL A   1      33.628  25.695  23.309  1.00  0.00     0.109 A 
ATOM     11  C   UNL A   1      32.668  24.693  25.100  1.00  0.00     0.064 A 
ATOM     12  C   UNL A   1      31.765  25.640  24.587  1.00  0.00     0.004 A 
ATOM     13  C   UNL A   1      32.388  23.915  26.243  1.00  0.00     0.028 A 
ATOM     14  C   UNL A   1      30.484  25.684  25.182  1.00  0.00     0.010 A 
ATOM     15  C   UNL A   1      31.130  24.035  26.834  1.00  0.00     0.002 A 
ATOM     16  C   UNL A   1      30.177  24.883  26.292  1.00  0.00     0.001 A 
BRANCH   9  17
ATOM     17  S   UNL A   1      34.877  23.454  24.080  1.00  0.00     0.268 S 
ATOM     18  O   UNL A   1      35.669  23.597  25.291  1.00  0.00    -0.201 OA
ATOM     19  O   UNL A   1      35.469  23.636  22.765  1.00  0.00    -0.201 OA
BRANCH  17  20
ATOM     20  C   UNL A   1      34.156  21.810  24.098  1.00  0.00     0.094 A 
ATOM     21  C   UNL A   1      32.589  17.823  24.768  1.00  0.00     0.044 C 
ATOM     22  C   UNL A   1      33.140  19.192  24.517  1.00  0.00    -0.051 A 
ATOM     23  C   UNL A   1      34.420  19.528  24.943  1.00  0.00     0.008 A 
ATOM     24  C   UNL A   1      32.399  20.147  23.829  1.00  0.00     0.008 A 
ATOM     25  C   UNL A   1      34.944  20.819  24.748  1.00  0.00    -0.030 A 
ATOM     26  C   UNL A   1      32.897  21.442  23.563  1.00  0.00    -0.030 A 
ATOM     27  C   UNL A   1      36.362  21.012  25.237  1.00  0.00     0.046 C 
ATOM     28  C   UNL A   1      31.973  22.266  22.713  1.00  0.00     0.046 C 
ENDBRANCH  17  20
ENDBRANCH   9  17
ENDBRANCH   6   8
ENDBRANCH   5   6
BRANCH   5  29
ATOM     29  N   UNL A   1      31.101  29.752  23.578  1.00  0.00    -0.345 N 
ATOM     30  H   UNL A   1      31.339  30.647  23.150  1.00  0.00     0.345 HD
ATOM     31  H   UNL A   1      30.786  29.907  24.536  1.00  0.00     0.345 HD
ATOM     32  H   UNL A   1      30.355  29.306  23.043  1.00  0.00     0.345 HD
ENDBRANCH   5  29
ENDBRANCH   3   5
ENDBRANCH   2   3
ENDBRANCH   1   2
BRANCH   1  33
ATOM     33  C   UNL A   1      32.985  30.918  27.218  1.00  0.00     0.275 C 
BRANCH  33  34
ATOM     34  O   UNL A   1      34.418  30.849  27.173  1.00  0.00    -0.458 OA
BRANCH  34  35
ATOM     35  C   UNL A   1      35.083  31.860  27.792  1.00  0.00     0.338 C 
ATOM     36  O   UNL A   1      34.688  32.980  28.008  1.00  0.00    -0.246 OA
BRANCH  35  37
ATOM     37  C   UNL A   1      36.180  31.198  28.532  1.00  0.00     0.060 A 
ATOM     38  C   UNL A   1      37.252  31.900  29.091  1.00  0.00     0.016 A 
ATOM     39  C   UNL A   1      36.248  29.821  28.365  1.00  0.00     0.016 A 
ATOM     40  C   UNL A   1      38.460  31.239  29.313  1.00  0.00     0.010 A 
ATOM     41  C   UNL A   1      37.464  29.188  28.538  1.00  0.00     0.010 A 
ATOM     42  C   UNL A   1      38.589  29.901  28.941  1.00  0.00    -0.014 A 
BRANCH  42  43
ATOM     43  C   UNL A   1      39.822  29.154  29.164  1.00  0.00     0.031 A 
ATOM     44  C   UNL A   1      40.135  28.997  30.602  1.00  0.00     0.074 A 
ATOM     45  C   UNL A   1      40.553  28.470  28.260  1.00  0.00     0.049 A 
ATOM     46  N   UNL A   1      40.976  29.699  31.284  1.00  0.00    -0.248 NA
ATOM     47  C   UNL A   1      39.312  28.090  31.413  1.00  0.00     0.031 C 
ATOM     48  C   UNL A   1      40.279  28.204  26.855  1.00  0.00     0.029 A 
ATOM     49  N   UNL A   1      41.721  27.794  28.466  1.00  0.00    -0.354 N 
ATOM     50  C   UNL A   1      40.929  29.183  32.571  1.00  0.00     0.074 A 
ATOM     51  C   UNL A   1      39.736  28.385  32.641  1.00  0.00     0.031 C 
ATOM     52  C   UNL A   1      41.131  27.258  26.386  1.00  0.00     0.029 A 
ATOM     53  C   UNL A   1      42.128  26.987  27.410  1.00  0.00     0.049 A 
ATOM     54  H   UNL A   1      42.238  27.872  29.300  1.00  0.00     0.167 HD
ATOM     55  C   UNL A   1      42.014  29.235  33.389  1.00  0.00     0.037 A 
ATOM     56  C   UNL A   1      43.215  26.174  27.380  1.00  0.00     0.037 A 
ATOM     57  C   UNL A   1      43.018  30.131  32.863  1.00  0.00     0.049 A 
ATOM     58  C   UNL A   1      44.148  26.647  28.429  1.00  0.00     0.074 A 
ATOM     59  C   UNL A   1      43.046  31.468  32.509  1.00  0.00     0.029 A 
ATOM     60  N   UNL A   1      44.119  29.569  32.265  1.00  0.00    -0.354 N 
ATOM     61  N   UNL A   1      44.815  27.765  28.360  1.00  0.00    -0.248 NA
ATOM     62  C   UNL A   1      44.024  26.077  29.762  1.00  0.00     0.031 C 
ATOM     63  C   UNL A   1      43.871  31.527  31.346  1.00  0.00     0.029 A 
ATOM     64  C   UNL A   1      44.336  30.237  31.089  1.00  0.00     0.049 A 
ATOM     65  H   UNL A   1      44.655  28.822  32.619  1.00  0.00     0.167 HD
ATOM     66  C   UNL A   1      44.800  28.262  29.653  1.00  0.00     0.074 A 
ATOM     67  C   UNL A   1      44.397  27.133  30.489  1.00  0.00     0.031 C 
ATOM     68  C   UNL A   1      44.835  29.607  29.888  1.00  0.00     0.037 A 
BRANCH  55  69
ATOM     69  C   UNL A   1      42.339  28.201  34.439  1.00  0.00     0.057 A 
ATOM     70  C   UNL A   1      42.020  28.308  35.809  1.00  0.00     0.134 A 
ATOM     71  C   UNL A   1      42.730  26.919  34.018  1.00  0.00     0.134 A 
ATOM     72  F   UNL A   1      41.562  29.435  36.364  1.00  0.00    -0.206 F 
ATOM     73  C   UNL A   1      42.054  27.218  36.682  1.00  0.00     0.040 A 
ATOM     74  C   UNL A   1      42.711  25.810  34.870  1.00  0.00     0.040 A 
ATOM     75  F   UNL A   1      43.060  26.686  32.738  1.00  0.00    -0.206 F 
ATOM     76  C   UNL A   1      42.363  25.956  36.205  1.00  0.00     0.006 A 
ENDBRANCH  55  69
BRANCH  56  77
ATOM     77  C   UNL A   1      43.452  24.903  26.658  1.00  0.00     0.057 A 
ATOM     78  C   UNL A   1      44.157  24.885  25.444  1.00  0.00     0.134 A 
ATOM     79  C   UNL A   1      42.744  23.734  26.978  1.00  0.00     0.134 A 
ATOM     80  F   UNL A   1      44.814  25.971  25.014  1.00  0.00    -0.206 F 
ATOM     81  C   UNL A   1      44.133  23.781  24.581  1.00  0.00     0.040 A 
ATOM     82  C   UNL A   1      42.709  22.622  26.123  1.00  0.00     0.040 A 
ATOM     83  F   UNL A   1      42.009  23.665  28.098  1.00  0.00    -0.206 F 
ATOM     84  C   UNL A   1      43.393  22.650  24.912  1.00  0.00     0.006 A 
ENDBRANCH  56  77
BRANCH  68  85
ATOM     85  C   UNL A   1      45.181  30.510  28.736  1.00  0.00     0.057 A 
ATOM     86  C   UNL A   1      46.492  30.987  28.628  1.00  0.00     0.134 A 
ATOM     87  C   UNL A   1      44.247  31.016  27.819  1.00  0.00     0.134 A 
ATOM     88  F   UNL A   1      47.431  30.590  29.502  1.00  0.00    -0.206 F 
ATOM     89  C   UNL A   1      46.863  31.914  27.651  1.00  0.00     0.040 A 
ATOM     90  C   UNL A   1      44.612  31.916  26.814  1.00  0.00     0.040 A 
ATOM     91  F   UNL A   1      42.949  30.697  27.902  1.00  0.00    -0.206 F 
ATOM     92  C   UNL A   1      45.924  32.373  26.730  1.00  0.00     0.006 A 
ENDBRANCH  68  85
ENDBRANCH  42  43
ENDBRANCH  35  37
ENDBRANCH  34  35
ENDBRANCH  33  34
ENDBRANCH   1  33
TORSDOF 16
ENDMDL
MODEL 3
REMARK VINA RESULT:     -12.1      2.638      7.871
REMARK SMILES Cc1cc(C)c(S(=O)(=O)n2cc([C@@H](C)[C@@H]([NH3+])C(=O)OCCOC(=O)c3ccc(-c4c5nc(c(-c6c(F)cccc6F)c6ccc([nH]6)c(-c6c(F)cccc6F)c6nc(c(-c7c(F)cccc7F)c7ccc4[nH]7)C=C6)C=C5)cc3)c3ccccc32)c(C)c1
REMARK SMILES IDX 20 1 19 2 17 3 18 4 15 5 13 6 14 7 12 8 10 9 11 10 84 11
REMARK SMILES IDX 79 12 83 13 80 14 82 15 81 16 7 17 8 18 9 19 6 20 1 21 2 22
REMARK SMILES IDX 3 23 87 24 4 25 85 26 5 27 86 28 16 29 21 33 22 34 23 35
REMARK SMILES IDX 24 36 25 37 26 38 78 39 27 40 77 41 28 42 29 43 30 44 71 45
REMARK SMILES IDX 31 46 76 47 70 48 72 49 32 50 75 51 69 52 68 53 33 55 59 56
REMARK SMILES IDX 42 57 58 58 43 59 46 60 57 61 73 62 44 63 45 64 56 66 74 67
REMARK SMILES IDX 47 68 34 69 35 70 40 71 36 72 37 73 39 74 41 75 38 76 60 77
REMARK SMILES IDX 61 78 66 79 62 80 63 81 65 82 67 83 64 84 48 85 49 86 54 87
REMARK SMILES IDX 50 88 51 89 53 90 55 91 52 92
REMARK H PARENT 16 30 16 31 16 32 72 54 46 65
REMARK Flexibility Score: inf
ROOT
ATOM      1  C   UNL A   1      32.954  29.544  27.435  1.00  0.00     0.274 C 
ENDROOT
BRANCH   1   2
ATOM      2  O   UNL A   1      32.285  28.964  26.287  1.00  0.00    -0.458 OA
BRANCH   2   3
ATOM      3  C   UNL A   1      33.049  28.801  25.183  1.00  0.00     0.365 C 
ATOM      4  O   UNL A   1      34.258  28.579  25.224  1.00  0.00    -0.245 OA
BRANCH   3   5
ATOM      5  C   UNL A   1      32.321  28.957  23.827  1.00  0.00     0.299 C 
BRANCH   5   6
ATOM      6  C   UNL A   1      32.088  27.749  22.879  1.00  0.00     0.088 C 
ATOM      7  C   UNL A   1      30.732  27.599  22.193  1.00  0.00     0.020 C 
BRANCH   6   8
ATOM      8  C   UNL A   1      32.450  26.451  23.614  1.00  0.00    -0.012 A 
ATOM      9  N   UNL A   1      33.691  24.719  24.252  1.00  0.00    -0.241 N 
ATOM     10  C   UNL A   1      33.648  25.796  23.416  1.00  0.00     0.109 A 
ATOM     11  C   UNL A   1      32.623  24.711  25.120  1.00  0.00     0.064 A 
ATOM     12  C   UNL A   1      31.744  25.693  24.630  1.00  0.00     0.004 A 
ATOM     13  C   UNL A   1      32.301  23.878  26.211  1.00  0.00     0.028 A 
ATOM     14  C   UNL A   1      30.446  25.717  25.185  1.00  0.00     0.010 A 
ATOM     15  C   UNL A   1      31.026  23.978  26.768  1.00  0.00     0.002 A 
ATOM     16  C   UNL A   1      30.097  24.863  26.242  1.00  0.00     0.001 A 
BRANCH   9  17
ATOM     17  S   UNL A   1      34.854  23.507  24.107  1.00  0.00     0.268 S 
ATOM     18  O   UNL A   1      35.651  23.623  25.317  1.00  0.00    -0.201 OA
ATOM     19  O   UNL A   1      35.442  23.710  22.793  1.00  0.00    -0.201 OA
BRANCH  17  20
ATOM     20  C   UNL A   1      34.124  21.866  24.098  1.00  0.00     0.094 A 
ATOM     21  C   UNL A   1      32.521  17.883  24.707  1.00  0.00     0.044 C 
ATOM     22  C   UNL A   1      33.085  19.251  24.478  1.00  0.00    -0.051 A 
ATOM     23  C   UNL A   1      34.354  19.579  24.940  1.00  0.00     0.008 A 
ATOM     24  C   UNL A   1      32.368  20.212  23.773  1.00  0.00     0.008 A 
ATOM     25  C   UNL A   1      34.890  20.868  24.766  1.00  0.00    -0.030 A 
ATOM     26  C   UNL A   1      32.879  21.506  23.526  1.00  0.00    -0.030 A 
ATOM     27  C   UNL A   1      36.295  21.053  25.295  1.00  0.00     0.046 C 
ATOM     28  C   UNL A   1      31.983  22.338  22.654  1.00  0.00     0.046 C 
ENDBRANCH  17  20
ENDBRANCH   9  17
ENDBRANCH   6   8
ENDBRANCH   5   6
BRANCH   5  29
ATOM     29  N   UNL A   1      31.011  29.633  24.107  1.00  0.00    -0.345 N 
ATOM     30  H   UNL A   1      30.427  29.602  23.270  1.00  0.00     0.345 HD
ATOM     31  H   UNL A   1      31.178  30.604  24.369  1.00  0.00     0.345 HD
ATOM     32  H   UNL A   1      30.536  29.152  24.871  1.00  0.00     0.345 HD
ENDBRANCH   5  29
ENDBRANCH   3   5
ENDBRANCH   2   3
ENDBRANCH   1   2
BRANCH   1  33
ATOM     33  C   UNL A   1      33.251  31.031  27.211  1.00  0.00     0.275 C 
BRANCH  33  34
ATOM     34  O   UNL A   1      34.052  31.521  28.297  1.00  0.00    -0.458 OA
BRANCH  34  35
ATOM     35  C   UNL A   1      35.197  32.165  27.949  1.00  0.00     0.338 C 
ATOM     36  O   UNL A   1      35.311  33.282  27.506  1.00  0.00    -0.246 OA
BRANCH  35  37
ATOM     37  C   UNL A   1      36.277  31.416  28.628  1.00  0.00     0.060 A 
ATOM     38  C   UNL A   1      37.381  32.039  29.216  1.00  0.00     0.016 A 
ATOM     39  C   UNL A   1      36.292  30.051  28.369  1.00  0.00     0.016 A 
ATOM     40  C   UNL A   1      38.566  31.322  29.377  1.00  0.00     0.010 A 
ATOM     41  C   UNL A   1      37.485  29.364  28.483  1.00  0.00     0.010 A 
ATOM     42  C   UNL A   1      38.641  30.007  28.916  1.00  0.00    -0.014 A 
BRANCH  42  43
ATOM     43  C   UNL A   1      39.848  29.202  29.072  1.00  0.00     0.031 A 
ATOM     44  C   UNL A   1      40.150  28.906  30.490  1.00  0.00     0.074 A 
ATOM     45  C   UNL A   1      40.559  28.579  28.110  1.00  0.00     0.049 A 
ATOM     46  N   UNL A   1      41.011  29.515  31.233  1.00  0.00    -0.248 NA
ATOM     47  C   UNL A   1      39.294  27.957  31.215  1.00  0.00     0.031 C 
ATOM     48  C   UNL A   1      40.282  28.450  26.687  1.00  0.00     0.029 A 
ATOM     49  N   UNL A   1      41.703  27.849  28.256  1.00  0.00    -0.354 N 
ATOM     50  C   UNL A   1      40.942  28.887  32.468  1.00  0.00     0.074 A 
ATOM     51  C   UNL A   1      39.723  28.126  32.465  1.00  0.00     0.031 C 
ATOM     52  C   UNL A   1      41.104  27.522  26.135  1.00  0.00     0.029 A 
ATOM     53  C   UNL A   1      42.087  27.127  27.131  1.00  0.00     0.049 A 
ATOM     54  H   UNL A   1      42.219  27.834  29.094  1.00  0.00     0.167 HD
ATOM     55  C   UNL A   1      42.025  28.829  33.288  1.00  0.00     0.037 A 
ATOM     56  C   UNL A   1      43.147  26.284  27.028  1.00  0.00     0.037 A 
ATOM     57  C   UNL A   1      43.060  29.735  32.847  1.00  0.00     0.049 A 
ATOM     58  C   UNL A   1      44.092  26.629  28.117  1.00  0.00     0.074 A 
ATOM     59  C   UNL A   1      43.134  31.097  32.615  1.00  0.00     0.029 A 
ATOM     60  N   UNL A   1      44.145  29.193  32.201  1.00  0.00    -0.354 N 
ATOM     61  N   UNL A   1      44.795  27.726  28.150  1.00  0.00    -0.248 NA
ATOM     62  C   UNL A   1      43.944  25.946  29.393  1.00  0.00     0.031 C 
ATOM     63  C   UNL A   1      43.965  31.232  31.462  1.00  0.00     0.029 A 
ATOM     64  C   UNL A   1      44.387  29.956  31.090  1.00  0.00     0.049 A 
ATOM     65  H   UNL A   1      44.654  28.400  32.487  1.00  0.00     0.167 HD
ATOM     66  C   UNL A   1      44.791  28.105  29.482  1.00  0.00     0.074 A 
ATOM     67  C   UNL A   1      44.348  26.919  30.213  1.00  0.00     0.031 C 
ATOM     68  C   UNL A   1      44.870  29.421  29.838  1.00  0.00     0.037 A 
BRANCH  55  69
ATOM     69  C   UNL A   1      42.311  27.695  34.241  1.00  0.00     0.057 A 
ATOM     70  C   UNL A   1      43.110  26.570  33.948  1.00  0.00     0.134 A 
ATOM     71  C   UNL A   1      42.014  27.874  35.603  1.00  0.00     0.134 A 
ATOM     72  F   UNL A   1      43.546  26.289  32.715  1.00  0.00    -0.206 F 
ATOM     73  C   UNL A   1      43.602  25.712  34.934  1.00  0.00     0.040 A 
ATOM     74  C   UNL A   1      42.550  27.055  36.603  1.00  0.00     0.040 A 
ATOM     75  F   UNL A   1      41.262  28.907  36.014  1.00  0.00    -0.206 F 
ATOM     76  C   UNL A   1      43.355  25.975  36.270  1.00  0.00     0.006 A 
ENDBRANCH  55  69
BRANCH  56  77
ATOM     77  C   UNL A   1      43.345  25.076  26.195  1.00  0.00     0.057 A 
ATOM     78  C   UNL A   1      42.704  23.868  26.514  1.00  0.00     0.134 A 
ATOM     79  C   UNL A   1      44.388  24.993  25.259  1.00  0.00     0.134 A 
ATOM     80  F   UNL A   1      41.739  23.827  27.443  1.00  0.00    -0.206 F 
ATOM     81  C   UNL A   1      43.099  22.643  25.960  1.00  0.00     0.040 A 
ATOM     82  C   UNL A   1      44.794  23.773  24.697  1.00  0.00     0.040 A 
ATOM     83  F   UNL A   1      45.086  26.085  24.916  1.00  0.00    -0.206 F 
ATOM     84  C   UNL A   1      44.158  22.590  25.060  1.00  0.00     0.006 A 
ENDBRANCH  56  77
BRANCH  68  85
ATOM     85  C   UNL A   1      45.250  30.412  28.772  1.00  0.00     0.057 A 
ATOM     86  C   UNL A   1      44.236  30.987  27.998  1.00  0.00     0.134 A 
ATOM     87  C   UNL A   1      46.572  30.713  28.407  1.00  0.00     0.134 A 
ATOM     88  F   UNL A   1      42.948  30.704  28.252  1.00  0.00    -0.206 F 
ATOM     89  C   UNL A   1      44.517  31.829  26.919  1.00  0.00     0.040 A 
ATOM     90  C   UNL A   1      46.866  31.583  27.352  1.00  0.00     0.040 A 
ATOM     91  F   UNL A   1      47.611  30.135  29.022  1.00  0.00    -0.206 F 
ATOM     92  C   UNL A   1      45.836  32.140  26.600  1.00  0.00     0.006 A 
ENDBRANCH  68  85
ENDBRANCH  42  43
ENDBRANCH  35  37
ENDBRANCH  34  35
ENDBRANCH  33  34
ENDBRANCH   1  33
TORSDOF 16
ENDMDL
