MODEL 1
REMARK VINA RESULT:     -10.2      0.000      0.000
REMARK SMILES CCn1cccc1C(=O)N1CC[C@H](C(=O)OCCOC(=O)c2ccc(-c3c4nc(c(-c5c(F)cccc5F)c5ccc([nH]5)c(-c5c(F)cccc5F)c5nc(c(-c6c(F)cccc6F)c6ccc3[nH]6)C=C5)C=C4)cc2)[C@H]1C
REMARK SMILES IDX 17 1 16 2 14 3 15 4 13 5 10 6 11 7 76 8 12 9 77 10 8 11 9 12
REMARK SMILES IDX 7 13 3 14 4 15 5 16 6 17 2 18 1 19 18 20 19 21 20 22 21 23
REMARK SMILES IDX 22 24 23 25 75 26 24 27 74 28 25 29 26 30 27 31 68 32 28 33
REMARK SMILES IDX 73 34 67 35 69 36 29 37 72 38 66 39 65 40 30 42 56 43 39 44
REMARK SMILES IDX 55 45 40 46 43 47 54 48 70 49 41 50 42 51 53 53 71 54 44 55
REMARK SMILES IDX 31 56 32 57 37 58 33 59 34 60 36 61 38 62 35 63 57 64 58 65
REMARK SMILES IDX 63 66 59 67 60 68 62 69 64 70 61 71 45 72 46 73 51 74 47 75
REMARK SMILES IDX 48 76 50 77 52 78 49 79
REMARK H PARENT 69 41 43 52
REMARK Flexibility Score: inf
ROOT
ATOM      1  C   UNL A   1      38.417  20.217  25.140  1.00  0.00     0.274 C 
ENDROOT
BRANCH   1   2
ATOM      2  O   UNL A   1      37.062  19.769  24.921  1.00  0.00    -0.462 OA
BRANCH   2   3
ATOM      3  C   UNL A   1      36.090  20.711  24.997  1.00  0.00     0.311 C 
ATOM      4  O   UNL A   1      34.907  20.464  25.223  1.00  0.00    -0.252 OA
BRANCH   3   5
ATOM      5  C   UNL A   1      36.568  22.134  24.760  1.00  0.00     0.123 C 
ATOM      6  N   UNL A   1      35.056  23.997  24.802  1.00  0.00    -0.334 N 
ATOM      7  C   UNL A   1      35.018  23.438  23.467  1.00  0.00     0.121 C 
ATOM      8  C   UNL A   1      35.984  23.238  25.656  1.00  0.00     0.096 C 
ATOM      9  C   UNL A   1      36.297  22.638  23.347  1.00  0.00     0.039 C 
ATOM     10  C   UNL A   1      37.129  24.116  26.157  1.00  0.00     0.032 C 
BRANCH   6  11
ATOM     11  C   UNL A   1      33.863  24.491  25.311  1.00  0.00     0.270 C 
ATOM     12  O   UNL A   1      33.101  23.769  25.952  1.00  0.00    -0.267 OA
BRANCH  11  13
ATOM     13  C   UNL A   1      33.534  25.878  25.023  1.00  0.00     0.107 A 
ATOM     14  N   UNL A   1      32.648  26.411  24.099  1.00  0.00    -0.344 N 
ATOM     15  C   UNL A   1      32.618  27.785  24.233  1.00  0.00     0.086 A 
ATOM     16  C   UNL A   1      33.426  28.141  25.283  1.00  0.00     0.020 A 
ATOM     17  C   UNL A   1      33.983  26.952  25.787  1.00  0.00     0.033 A 
BRANCH  14  18
ATOM     18  C   UNL A   1      31.717  25.705  23.231  1.00  0.00     0.119 C 
ATOM     19  C   UNL A   1      31.964  25.931  21.745  1.00  0.00     0.027 C 
ENDBRANCH  14  18
ENDBRANCH  11  13
ENDBRANCH   6  11
ENDBRANCH   3   5
ENDBRANCH   2   3
ENDBRANCH   1   2
BRANCH   1  20
ATOM     20  C   UNL A   1      39.327  19.210  25.858  1.00  0.00     0.275 C 
BRANCH  20  21
ATOM     21  O   UNL A   1      40.678  19.164  25.377  1.00  0.00    -0.458 OA
BRANCH  21  22
ATOM     22  C   UNL A   1      41.562  19.415  26.362  1.00  0.00     0.338 C 
ATOM     23  O   UNL A   1      42.126  18.593  27.061  1.00  0.00    -0.246 OA
BRANCH  22  24
ATOM     24  C   UNL A   1      41.709  20.826  26.689  1.00  0.00     0.060 A 
ATOM     25  C   UNL A   1      42.022  21.682  25.629  1.00  0.00     0.016 A 
ATOM     26  C   UNL A   1      41.939  21.184  28.018  1.00  0.00     0.016 A 
ATOM     27  C   UNL A   1      42.677  22.865  25.878  1.00  0.00     0.010 A 
ATOM     28  C   UNL A   1      42.575  22.390  28.277  1.00  0.00     0.010 A 
ATOM     29  C   UNL A   1      42.959  23.207  27.202  1.00  0.00    -0.014 A 
BRANCH  29  30
ATOM     30  C   UNL A   1      43.444  24.574  27.421  1.00  0.00     0.031 A 
ATOM     31  C   UNL A   1      42.252  25.544  27.543  1.00  0.00     0.074 A 
ATOM     32  C   UNL A   1      44.799  24.743  27.426  1.00  0.00     0.049 A 
ATOM     33  N   UNL A   1      42.189  26.828  27.371  1.00  0.00    -0.248 NA
ATOM     34  C   UNL A   1      40.900  24.981  27.841  1.00  0.00     0.031 C 
ATOM     35  C   UNL A   1      45.789  23.658  27.254  1.00  0.00     0.029 A 
ATOM     36  N   UNL A   1      45.622  25.842  27.562  1.00  0.00    -0.354 N 
ATOM     37  C   UNL A   1      40.896  27.235  27.768  1.00  0.00     0.074 A 
ATOM     38  C   UNL A   1      40.111  26.052  27.904  1.00  0.00     0.031 C 
ATOM     39  C   UNL A   1      47.047  24.151  27.230  1.00  0.00     0.029 A 
ATOM     40  C   UNL A   1      47.011  25.589  27.413  1.00  0.00     0.049 A 
ATOM     41  H   UNL A   1      45.269  26.742  27.749  1.00  0.00     0.167 HD
ATOM     42  C   UNL A   1      40.588  28.513  28.126  1.00  0.00     0.037 A 
ATOM     43  C   UNL A   1      48.050  26.484  27.406  1.00  0.00     0.037 A 
ATOM     44  C   UNL A   1      41.709  29.365  27.929  1.00  0.00     0.049 A 
ATOM     45  C   UNL A   1      47.439  27.771  27.770  1.00  0.00     0.074 A 
ATOM     46  C   UNL A   1      42.284  29.892  26.806  1.00  0.00     0.029 A 
ATOM     47  N   UNL A   1      42.577  29.494  28.984  1.00  0.00    -0.354 N 
ATOM     48  N   UNL A   1      47.037  28.087  28.966  1.00  0.00    -0.248 NA
ATOM     49  C   UNL A   1      47.159  28.744  26.708  1.00  0.00     0.031 C 
ATOM     50  C   UNL A   1      43.658  29.939  27.122  1.00  0.00     0.029 A 
ATOM     51  C   UNL A   1      43.844  29.589  28.464  1.00  0.00     0.049 A 
ATOM     52  H   UNL A   1      42.335  29.515  29.938  1.00  0.00     0.167 HD
ATOM     53  C   UNL A   1      46.177  29.130  28.721  1.00  0.00     0.074 A 
ATOM     54  C   UNL A   1      46.548  29.676  27.435  1.00  0.00     0.031 C 
ATOM     55  C   UNL A   1      44.946  29.142  29.289  1.00  0.00     0.037 A 
BRANCH  42  56
ATOM     56  C   UNL A   1      39.422  29.066  28.892  1.00  0.00     0.057 A 
ATOM     57  C   UNL A   1      39.305  28.732  30.259  1.00  0.00     0.134 A 
ATOM     58  C   UNL A   1      38.271  29.584  28.288  1.00  0.00     0.134 A 
ATOM     59  F   UNL A   1      40.360  28.271  30.951  1.00  0.00    -0.206 F 
ATOM     60  C   UNL A   1      38.088  28.782  30.943  1.00  0.00     0.040 A 
ATOM     61  C   UNL A   1      37.056  29.682  28.979  1.00  0.00     0.040 A 
ATOM     62  F   UNL A   1      38.248  29.920  26.992  1.00  0.00    -0.206 F 
ATOM     63  C   UNL A   1      36.951  29.239  30.294  1.00  0.00     0.006 A 
ENDBRANCH  42  56
BRANCH  43  64
ATOM     64  C   UNL A   1      49.532  26.506  27.095  1.00  0.00     0.057 A 
ATOM     65  C   UNL A   1      50.566  26.784  27.994  1.00  0.00     0.134 A 
ATOM     66  C   UNL A   1      49.996  26.178  25.787  1.00  0.00     0.134 A 
ATOM     67  F   UNL A   1      50.316  27.231  29.228  1.00  0.00    -0.206 F 
ATOM     68  C   UNL A   1      51.929  26.640  27.655  1.00  0.00     0.040 A 
ATOM     69  C   UNL A   1      51.341  25.998  25.446  1.00  0.00     0.040 A 
ATOM     70  F   UNL A   1      49.160  26.014  24.754  1.00  0.00    -0.206 F 
ATOM     71  C   UNL A   1      52.321  26.212  26.391  1.00  0.00     0.006 A 
ENDBRANCH  43  64
BRANCH  55  72
ATOM     72  C   UNL A   1      44.834  28.305  30.551  1.00  0.00     0.057 A 
ATOM     73  C   UNL A   1      45.524  28.674  31.711  1.00  0.00     0.134 A 
ATOM     74  C   UNL A   1      44.156  27.079  30.622  1.00  0.00     0.134 A 
ATOM     75  F   UNL A   1      46.195  29.835  31.753  1.00  0.00    -0.206 F 
ATOM     76  C   UNL A   1      45.546  27.866  32.857  1.00  0.00     0.040 A 
ATOM     77  C   UNL A   1      44.163  26.259  31.756  1.00  0.00     0.040 A 
ATOM     78  F   UNL A   1      43.457  26.630  29.586  1.00  0.00    -0.206 F 
ATOM     79  C   UNL A   1      44.869  26.650  32.882  1.00  0.00     0.006 A 
ENDBRANCH  55  72
ENDBRANCH  29  30
ENDBRANCH  22  24
ENDBRANCH  21  22
ENDBRANCH  20  21
ENDBRANCH   1  20
TORSDOF 14
ENDMDL
MODEL 2
REMARK VINA RESULT:     -10.2      4.191      9.603
REMARK SMILES CCn1cccc1C(=O)N1CC[C@H](C(=O)OCCOC(=O)c2ccc(-c3c4nc(c(-c5c(F)cccc5F)c5ccc([nH]5)c(-c5c(F)cccc5F)c5nc(c(-c6c(F)cccc6F)c6ccc3[nH]6)C=C5)C=C4)cc2)[C@H]1C
REMARK SMILES IDX 17 1 16 2 14 3 15 4 13 5 10 6 11 7 76 8 12 9 77 10 8 11 9 12
REMARK SMILES IDX 7 13 3 14 4 15 5 16 6 17 2 18 1 19 18 20 19 21 20 22 21 23
REMARK SMILES IDX 22 24 23 25 75 26 24 27 74 28 25 29 26 30 27 31 68 32 28 33
REMARK SMILES IDX 73 34 67 35 69 36 29 37 72 38 66 39 65 40 30 42 56 43 39 44
REMARK SMILES IDX 55 45 40 46 43 47 54 48 70 49 41 50 42 51 53 53 71 54 44 55
REMARK SMILES IDX 31 56 32 57 37 58 33 59 34 60 36 61 38 62 35 63 57 64 58 65
REMARK SMILES IDX 63 66 59 67 60 68 62 69 64 70 61 71 45 72 46 73 51 74 47 75
REMARK SMILES IDX 48 76 50 77 52 78 49 79
REMARK H PARENT 69 41 43 52
REMARK Flexibility Score: inf
ROOT
ATOM      1  C   UNL A   1      31.801  28.141  27.578  1.00  0.00     0.274 C 
ENDROOT
BRANCH   1   2
ATOM      2  O   UNL A   1      31.034  27.104  26.927  1.00  0.00    -0.462 OA
BRANCH   2   3
ATOM      3  C   UNL A   1      31.738  26.124  26.309  1.00  0.00     0.311 C 
ATOM      4  O   UNL A   1      32.961  26.124  26.189  1.00  0.00    -0.252 OA
BRANCH   3   5
ATOM      5  C   UNL A   1      30.889  24.999  25.740  1.00  0.00     0.123 C 
ATOM      6  N   UNL A   1      31.778  23.418  24.169  1.00  0.00    -0.334 N 
ATOM      7  C   UNL A   1      31.334  24.573  23.418  1.00  0.00     0.121 C 
ATOM      8  C   UNL A   1      31.543  23.614  25.608  1.00  0.00     0.096 C 
ATOM      9  C   UNL A   1      30.364  25.283  24.337  1.00  0.00     0.039 C 
ATOM     10  C   UNL A   1      30.582  22.566  26.166  1.00  0.00     0.032 C 
BRANCH   6  11
ATOM     11  C   UNL A   1      32.921  22.774  23.716  1.00  0.00     0.270 C 
ATOM     12  O   UNL A   1      33.807  23.394  23.129  1.00  0.00    -0.267 OA
BRANCH  11  13
ATOM     13  C   UNL A   1      33.010  21.338  23.926  1.00  0.00     0.107 A 
ATOM     14  N   UNL A   1      33.657  20.620  24.922  1.00  0.00    -0.344 N 
ATOM     15  C   UNL A   1      33.407  19.273  24.750  1.00  0.00     0.086 A 
ATOM     16  C   UNL A   1      32.547  19.117  23.692  1.00  0.00     0.020 A 
ATOM     17  C   UNL A   1      32.286  20.404  23.190  1.00  0.00     0.033 A 
BRANCH  14  18
ATOM     18  C   UNL A   1      34.340  21.130  26.101  1.00  0.00     0.119 C 
ATOM     19  C   UNL A   1      35.750  21.639  25.828  1.00  0.00     0.027 C 
ENDBRANCH  14  18
ENDBRANCH  11  13
ENDBRANCH   6  11
ENDBRANCH   3   5
ENDBRANCH   2   3
ENDBRANCH   1   2
BRANCH   1  20
ATOM     20  C   UNL A   1      31.867  29.474  26.819  1.00  0.00     0.275 C 
BRANCH  20  21
ATOM     21  O   UNL A   1      33.188  29.892  26.443  1.00  0.00    -0.458 OA
BRANCH  21  22
ATOM     22  C   UNL A   1      33.595  30.951  27.169  1.00  0.00     0.338 C 
ATOM     23  O   UNL A   1      32.992  31.995  27.335  1.00  0.00    -0.246 OA
BRANCH  22  24
ATOM     24  C   UNL A   1      34.963  30.850  27.658  1.00  0.00     0.060 A 
ATOM     25  C   UNL A   1      35.303  29.667  28.320  1.00  0.00     0.016 A 
ATOM     26  C   UNL A   1      35.705  32.022  27.815  1.00  0.00     0.016 A 
ATOM     27  C   UNL A   1      36.325  29.669  29.240  1.00  0.00     0.010 A 
ATOM     28  C   UNL A   1      36.755  32.023  28.721  1.00  0.00     0.010 A 
ATOM     29  C   UNL A   1      37.038  30.851  29.443  1.00  0.00    -0.014 A 
BRANCH  29  30
ATOM     30  C   UNL A   1      38.255  30.734  30.255  1.00  0.00     0.031 A 
ATOM     31  C   UNL A   1      39.308  29.890  29.510  1.00  0.00     0.074 A 
ATOM     32  C   UNL A   1      38.220  31.321  31.488  1.00  0.00     0.049 A 
ATOM     33  N   UNL A   1      40.333  29.234  29.957  1.00  0.00    -0.248 NA
ATOM     34  C   UNL A   1      39.155  29.696  28.035  1.00  0.00     0.031 C 
ATOM     35  C   UNL A   1      37.070  32.072  32.036  1.00  0.00     0.029 A 
ATOM     36  N   UNL A   1      39.118  31.401  32.531  1.00  0.00    -0.354 N 
ATOM     37  C   UNL A   1      41.053  28.775  28.833  1.00  0.00     0.074 A 
ATOM     38  C   UNL A   1      40.211  28.960  27.695  1.00  0.00     0.031 C 
ATOM     39  C   UNL A   1      37.311  32.465  33.306  1.00  0.00     0.029 A 
ATOM     40  C   UNL A   1      38.640  32.043  33.703  1.00  0.00     0.049 A 
ATOM     41  H   UNL A   1      40.031  31.037  32.466  1.00  0.00     0.167 HD
ATOM     42  C   UNL A   1      42.369  28.423  28.876  1.00  0.00     0.037 A 
ATOM     43  C   UNL A   1      39.265  32.192  34.915  1.00  0.00     0.037 A 
ATOM     44  C   UNL A   1      42.851  28.477  30.212  1.00  0.00     0.049 A 
ATOM     45  C   UNL A   1      40.632  31.697  34.697  1.00  0.00     0.074 A 
ATOM     46  C   UNL A   1      42.668  27.662  31.295  1.00  0.00     0.029 A 
ATOM     47  N   UNL A   1      43.367  29.677  30.632  1.00  0.00    -0.354 N 
ATOM     48  N   UNL A   1      41.549  32.330  34.028  1.00  0.00    -0.248 NA
ATOM     49  C   UNL A   1      40.978  30.351  35.168  1.00  0.00     0.031 C 
ATOM     50  C   UNL A   1      42.680  28.550  32.391  1.00  0.00     0.029 A 
ATOM     51  C   UNL A   1      43.020  29.834  31.951  1.00  0.00     0.049 A 
ATOM     52  H   UNL A   1      43.891  30.308  30.088  1.00  0.00     0.167 HD
ATOM     53  C   UNL A   1      42.439  31.327  33.727  1.00  0.00     0.074 A 
ATOM     54  C   UNL A   1      42.219  30.278  34.697  1.00  0.00     0.031 C 
ATOM     55  C   UNL A   1      42.897  31.184  32.459  1.00  0.00     0.037 A 
BRANCH  42  56
ATOM     56  C   UNL A   1      43.380  28.261  27.780  1.00  0.00     0.057 A 
ATOM     57  C   UNL A   1      43.949  26.983  27.580  1.00  0.00     0.134 A 
ATOM     58  C   UNL A   1      44.057  29.331  27.182  1.00  0.00     0.134 A 
ATOM     59  F   UNL A   1      43.358  25.881  28.068  1.00  0.00    -0.206 F 
ATOM     60  C   UNL A   1      45.180  26.799  26.947  1.00  0.00     0.040 A 
ATOM     61  C   UNL A   1      45.269  29.150  26.503  1.00  0.00     0.040 A 
ATOM     62  F   UNL A   1      43.630  30.593  27.314  1.00  0.00    -0.206 F 
ATOM     63  C   UNL A   1      45.856  27.891  26.423  1.00  0.00     0.006 A 
ENDBRANCH  42  56
BRANCH  43  64
ATOM     64  C   UNL A   1      38.930  32.646  36.321  1.00  0.00     0.057 A 
ATOM     65  C   UNL A   1      39.318  33.846  36.922  1.00  0.00     0.134 A 
ATOM     66  C   UNL A   1      38.102  31.839  37.157  1.00  0.00     0.134 A 
ATOM     67  F   UNL A   1      40.195  34.667  36.336  1.00  0.00    -0.206 F 
ATOM     68  C   UNL A   1      38.840  34.254  38.186  1.00  0.00     0.040 A 
ATOM     69  C   UNL A   1      37.593  32.245  38.395  1.00  0.00     0.040 A 
ATOM     70  F   UNL A   1      37.739  30.596  36.815  1.00  0.00    -0.206 F 
ATOM     71  C   UNL A   1      37.948  33.472  38.911  1.00  0.00     0.006 A 
ENDBRANCH  43  64
BRANCH  55  72
ATOM     72  C   UNL A   1      42.820  32.448  31.622  1.00  0.00     0.057 A 
ATOM     73  C   UNL A   1      43.631  33.549  31.922  1.00  0.00     0.134 A 
ATOM     74  C   UNL A   1      41.884  32.657  30.598  1.00  0.00     0.134 A 
ATOM     75  F   UNL A   1      44.568  33.452  32.877  1.00  0.00    -0.206 F 
ATOM     76  C   UNL A   1      43.504  34.775  31.254  1.00  0.00     0.040 A 
ATOM     77  C   UNL A   1      41.743  33.871  29.917  1.00  0.00     0.040 A 
ATOM     78  F   UNL A   1      41.067  31.681  30.219  1.00  0.00    -0.206 F 
ATOM     79  C   UNL A   1      42.554  34.943  30.251  1.00  0.00     0.006 A 
ENDBRANCH  55  72
ENDBRANCH  29  30
ENDBRANCH  22  24
ENDBRANCH  21  22
ENDBRANCH  20  21
ENDBRANCH   1  20
TORSDOF 14
ENDMDL
MODEL 3
REMARK VINA RESULT:     -10.2      3.074      7.695
REMARK SMILES CCn1cccc1C(=O)N1CC[C@H](C(=O)OCCOC(=O)c2ccc(-c3c4nc(c(-c5c(F)cccc5F)c5ccc([nH]5)c(-c5c(F)cccc5F)c5nc(c(-c6c(F)cccc6F)c6ccc3[nH]6)C=C5)C=C4)cc2)[C@H]1C
REMARK SMILES IDX 17 1 16 2 14 3 15 4 13 5 10 6 11 7 76 8 12 9 77 10 8 11 9 12
REMARK SMILES IDX 7 13 3 14 4 15 5 16 6 17 2 18 1 19 18 20 19 21 20 22 21 23
REMARK SMILES IDX 22 24 23 25 75 26 24 27 74 28 25 29 26 30 27 31 68 32 28 33
REMARK SMILES IDX 73 34 67 35 69 36 29 37 72 38 66 39 65 40 30 42 56 43 39 44
REMARK SMILES IDX 55 45 40 46 43 47 54 48 70 49 41 50 42 51 53 53 71 54 44 55
REMARK SMILES IDX 31 56 32 57 37 58 33 59 34 60 36 61 38 62 35 63 57 64 58 65
REMARK SMILES IDX 63 66 59 67 60 68 62 69 64 70 61 71 45 72 46 73 51 74 47 75
REMARK SMILES IDX 48 76 50 77 52 78 49 79
REMARK H PARENT 69 41 43 52
REMARK Flexibility Score: inf
ROOT
ATOM      1  C   UNL A   1      33.008  29.348  25.907  1.00  0.00     0.274 C 
ENDROOT
BRANCH   1   2
ATOM      2  O   UNL A   1      31.634  28.903  25.930  1.00  0.00    -0.462 OA
BRANCH   2   3
ATOM      3  C   UNL A   1      31.055  28.654  24.729  1.00  0.00     0.311 C 
ATOM      4  O   UNL A   1      30.770  29.524  23.908  1.00  0.00    -0.252 OA
BRANCH   3   5
ATOM      5  C   UNL A   1      30.754  27.189  24.464  1.00  0.00     0.123 C 
ATOM      6  N   UNL A   1      32.431  25.491  24.718  1.00  0.00    -0.334 N 
ATOM      7  C   UNL A   1      32.570  26.041  23.387  1.00  0.00     0.121 C 
ATOM      8  C   UNL A   1      31.337  26.157  25.443  1.00  0.00     0.096 C 
ATOM      9  C   UNL A   1      31.240  26.705  23.102  1.00  0.00     0.039 C 
ATOM     10  C   UNL A   1      30.235  25.169  25.823  1.00  0.00     0.032 C 
BRANCH   6  11
ATOM     11  C   UNL A   1      33.599  25.125  25.373  1.00  0.00     0.270 C 
ATOM     12  O   UNL A   1      34.405  25.974  25.752  1.00  0.00    -0.267 OA
BRANCH  11  13
ATOM     13  C   UNL A   1      33.849  23.704  25.555  1.00  0.00     0.107 A 
ATOM     14  N   UNL A   1      34.381  22.772  24.676  1.00  0.00    -0.344 N 
ATOM     15  C   UNL A   1      34.494  21.553  25.315  1.00  0.00     0.086 A 
ATOM     16  C   UNL A   1      34.104  21.704  26.622  1.00  0.00     0.020 A 
ATOM     17  C   UNL A   1      33.719  23.048  26.777  1.00  0.00     0.033 A 
BRANCH  14  18
ATOM     18  C   UNL A   1      34.938  22.998  23.351  1.00  0.00     0.119 C 
ATOM     19  C   UNL A   1      36.460  22.954  23.304  1.00  0.00     0.027 C 
ENDBRANCH  14  18
ENDBRANCH  11  13
ENDBRANCH   6  11
ENDBRANCH   3   5
ENDBRANCH   2   3
ENDBRANCH   1   2
BRANCH   1  20
ATOM     20  C   UNL A   1      33.815  29.031  27.173  1.00  0.00     0.275 C 
BRANCH  20  21
ATOM     21  O   UNL A   1      35.240  29.022  26.997  1.00  0.00    -0.458 OA
BRANCH  21  22
ATOM     22  C   UNL A   1      35.824  30.049  27.644  1.00  0.00     0.338 C 
ATOM     23  O   UNL A   1      35.476  31.216  27.622  1.00  0.00    -0.246 OA
BRANCH  22  24
ATOM     24  C   UNL A   1      37.078  29.709  28.299  1.00  0.00     0.060 A 
ATOM     25  C   UNL A   1      38.233  29.788  27.515  1.00  0.00     0.016 A 
ATOM     26  C   UNL A   1      37.037  28.960  29.476  1.00  0.00     0.016 A 
ATOM     27  C   UNL A   1      39.329  29.024  27.836  1.00  0.00     0.010 A 
ATOM     28  C   UNL A   1      38.151  28.209  29.821  1.00  0.00     0.010 A 
ATOM     29  C   UNL A   1      39.278  28.230  28.983  1.00  0.00    -0.014 A 
BRANCH  29  30
ATOM     30  C   UNL A   1      40.547  27.623  29.401  1.00  0.00     0.031 A 
ATOM     31  C   UNL A   1      40.822  26.352  28.572  1.00  0.00     0.074 A 
ATOM     32  C   UNL A   1      41.200  28.233  30.433  1.00  0.00     0.049 A 
ATOM     33  N   UNL A   1      41.581  25.330  28.822  1.00  0.00    -0.248 NA
ATOM     34  C   UNL A   1      40.081  26.163  27.287  1.00  0.00     0.031 C 
ATOM     35  C   UNL A   1      40.735  29.454  31.127  1.00  0.00     0.029 A 
ATOM     36  N   UNL A   1      42.366  27.959  31.117  1.00  0.00    -0.354 N 
ATOM     37  C   UNL A   1      41.593  24.531  27.658  1.00  0.00     0.074 A 
ATOM     38  C   UNL A   1      40.549  25.010  26.812  1.00  0.00     0.031 C 
ATOM     39  C   UNL A   1      41.556  29.768  32.153  1.00  0.00     0.029 A 
ATOM     40  C   UNL A   1      42.647  28.815  32.215  1.00  0.00     0.049 A 
ATOM     41  H   UNL A   1      42.962  27.218  30.863  1.00  0.00     0.167 HD
ATOM     42  C   UNL A   1      42.572  23.625  27.380  1.00  0.00     0.037 A 
ATOM     43  C   UNL A   1      43.671  28.736  33.124  1.00  0.00     0.037 A 
ATOM     44  C   UNL A   1      43.483  23.533  28.467  1.00  0.00     0.049 A 
ATOM     45  C   UNL A   1      44.541  27.663  32.618  1.00  0.00     0.074 A 
ATOM     46  C   UNL A   1      43.393  22.953  29.703  1.00  0.00     0.029 A 
ATOM     47  N   UNL A   1      44.553  24.392  28.449  1.00  0.00    -0.354 N 
ATOM     48  N   UNL A   1      45.325  27.773  31.587  1.00  0.00    -0.248 NA
ATOM     49  C   UNL A   1      44.460  26.337  33.239  1.00  0.00     0.031 C 
ATOM     50  C   UNL A   1      44.158  23.802  30.530  1.00  0.00     0.029 A 
ATOM     51  C   UNL A   1      44.803  24.766  29.746  1.00  0.00     0.049 A 
ATOM     52  H   UNL A   1      45.051  24.685  27.652  1.00  0.00     0.167 HD
ATOM     53  C   UNL A   1      45.560  26.461  31.255  1.00  0.00     0.074 A 
ATOM     54  C   UNL A   1      45.303  25.683  32.446  1.00  0.00     0.031 C 
ATOM     55  C   UNL A   1      45.427  26.053  29.968  1.00  0.00     0.037 A 
BRANCH  42  56
ATOM     56  C   UNL A   1      42.960  22.959  26.093  1.00  0.00     0.057 A 
ATOM     57  C   UNL A   1      43.072  21.551  26.077  1.00  0.00     0.134 A 
ATOM     58  C   UNL A   1      43.556  23.632  25.019  1.00  0.00     0.134 A 
ATOM     59  F   UNL A   1      42.497  20.802  27.032  1.00  0.00    -0.206 F 
ATOM     60  C   UNL A   1      43.841  20.869  25.132  1.00  0.00     0.040 A 
ATOM     61  C   UNL A   1      44.291  22.951  24.039  1.00  0.00     0.040 A 
ATOM     62  F   UNL A   1      43.537  24.968  24.929  1.00  0.00    -0.206 F 
ATOM     63  C   UNL A   1      44.472  21.574  24.118  1.00  0.00     0.006 A 
ENDBRANCH  42  56
BRANCH  43  64
ATOM     64  C   UNL A   1      44.081  29.373  34.436  1.00  0.00     0.057 A 
ATOM     65  C   UNL A   1      45.165  30.231  34.639  1.00  0.00     0.134 A 
ATOM     66  C   UNL A   1      43.306  29.155  35.612  1.00  0.00     0.134 A 
ATOM     67  F   UNL A   1      46.072  30.450  33.682  1.00  0.00    -0.206 F 
ATOM     68  C   UNL A   1      45.390  30.896  35.865  1.00  0.00     0.040 A 
ATOM     69  C   UNL A   1      43.496  29.833  36.822  1.00  0.00     0.040 A 
ATOM     70  F   UNL A   1      42.310  28.261  35.655  1.00  0.00    -0.206 F 
ATOM     71  C   UNL A   1      44.536  30.727  36.949  1.00  0.00     0.006 A 
ENDBRANCH  43  64
BRANCH  55  72
ATOM     72  C   UNL A   1      45.570  27.164  28.944  1.00  0.00     0.057 A 
ATOM     73  C   UNL A   1      46.803  27.795  28.748  1.00  0.00     0.134 A 
ATOM     74  C   UNL A   1      44.496  27.711  28.226  1.00  0.00     0.134 A 
ATOM     75  F   UNL A   1      47.897  27.342  29.378  1.00  0.00    -0.206 F 
ATOM     76  C   UNL A   1      46.950  28.905  27.903  1.00  0.00     0.040 A 
ATOM     77  C   UNL A   1      44.621  28.816  27.375  1.00  0.00     0.040 A 
ATOM     78  F   UNL A   1      43.279  27.189  28.323  1.00  0.00    -0.206 F 
ATOM     79  C   UNL A   1      45.856  29.424  27.216  1.00  0.00     0.006 A 
ENDBRANCH  55  72
ENDBRANCH  29  30
ENDBRANCH  22  24
ENDBRANCH  21  22
ENDBRANCH  20  21
ENDBRANCH   1  20
TORSDOF 14
ENDMDL
