MODEL 1
REMARK VINA RESULT:     -11.1      0.000      0.000
REMARK SMILES C[C@H]1C[C@@H]1c1nc(-c2ccccc2)c(CC(=O)OCCOC(=O)c2ccc(-c3c4nc(c(-c5c(F)cccc5F)c5ccc([nH]5)c(-c5c(F)cccc5F)c5nc(c(-c6c(F)cccc6F)c6ccc3[nH]6)C=C5)C=C4)cc2)s1
REMARK SMILES IDX 19 1 18 2 16 3 17 4 15 5 14 6 5 7 6 8 78 9 7 10 4 11 1 12
REMARK SMILES IDX 2 13 3 14 8 15 9 16 13 17 10 18 12 19 11 20 20 21 21 22
REMARK SMILES IDX 22 23 23 24 24 25 25 26 77 27 26 28 76 29 27 30 28 31 29 32
REMARK SMILES IDX 70 33 30 34 75 35 69 36 71 37 31 38 74 39 68 40 67 41 32 43
REMARK SMILES IDX 58 44 41 45 57 46 42 47 45 48 56 49 72 50 43 51 44 52 55 54
REMARK SMILES IDX 73 55 46 56 33 57 34 58 39 59 35 60 36 61 38 62 40 63 37 64
REMARK SMILES IDX 59 65 60 66 65 67 61 68 62 69 64 70 66 71 63 72 47 73 48 74
REMARK SMILES IDX 53 75 49 76 50 77 52 78 54 79 51 80
REMARK H PARENT 71 42 45 53
REMARK Flexibility Score: inf
ROOT
ATOM      1  C   UNL A   1      32.184  31.072  26.910  1.00  0.00     0.274 C 
ENDROOT
BRANCH   1   2
ATOM      2  O   UNL A   1      31.617  30.516  25.707  1.00  0.00    -0.462 OA
BRANCH   2   3
ATOM      3  C   UNL A   1      32.202  29.376  25.255  1.00  0.00     0.311 C 
ATOM      4  O   UNL A   1      33.230  29.343  24.583  1.00  0.00    -0.252 OA
BRANCH   3   5
ATOM      5  C   UNL A   1      31.473  28.103  25.618  1.00  0.00     0.171 C 
BRANCH   5   6
ATOM      6  C   UNL A   1      31.522  27.023  24.584  1.00  0.00     0.044 A 
ATOM      7  C   UNL A   1      32.016  25.078  23.231  1.00  0.00     0.097 A 
ATOM      8  N   UNL A   1      30.947  25.678  22.754  1.00  0.00    -0.241 NA
ATOM      9  S   UNL A   1      32.738  25.809  24.603  1.00  0.00    -0.122 S 
ATOM     10  C   UNL A   1      30.736  26.850  23.456  1.00  0.00     0.085 A 
BRANCH   7  11
ATOM     11  C   UNL A   1      32.542  23.795  22.587  1.00  0.00     0.052 C 
ATOM     12  C   UNL A   1      32.154  21.214  22.493  1.00  0.00     0.008 C 
ATOM     13  C   UNL A   1      32.427  22.454  23.274  1.00  0.00    -0.004 C 
ATOM     14  C   UNL A   1      33.770  23.141  23.160  1.00  0.00     0.015 C 
ENDBRANCH   7  11
BRANCH  10  15
ATOM     15  C   UNL A   1      29.746  27.828  23.045  1.00  0.00     0.001 A 
ATOM     16  C   UNL A   1      30.153  28.983  22.355  1.00  0.00     0.010 A 
ATOM     17  C   UNL A   1      28.407  27.675  23.403  1.00  0.00     0.010 A 
ATOM     18  C   UNL A   1      29.243  30.006  22.092  1.00  0.00     0.001 A 
ATOM     19  C   UNL A   1      27.495  28.696  23.128  1.00  0.00     0.001 A 
ATOM     20  C   UNL A   1      27.916  29.865  22.490  1.00  0.00     0.000 A 
ENDBRANCH  10  15
ENDBRANCH   5   6
ENDBRANCH   3   5
ENDBRANCH   2   3
ENDBRANCH   1   2
BRANCH   1  21
ATOM     21  C   UNL A   1      31.863  32.560  27.024  1.00  0.00     0.275 C 
BRANCH  21  22
ATOM     22  O   UNL A   1      33.084  33.316  27.122  1.00  0.00    -0.458 OA
BRANCH  22  23
ATOM     23  C   UNL A   1      33.220  34.072  28.233  1.00  0.00     0.338 C 
ATOM     24  O   UNL A   1      32.529  35.008  28.592  1.00  0.00    -0.246 OA
BRANCH  23  25
ATOM     25  C   UNL A   1      34.394  33.607  28.991  1.00  0.00     0.060 A 
ATOM     26  C   UNL A   1      35.629  34.238  28.831  1.00  0.00     0.016 A 
ATOM     27  C   UNL A   1      34.281  32.471  29.789  1.00  0.00     0.016 A 
ATOM     28  C   UNL A   1      36.768  33.715  29.439  1.00  0.00     0.010 A 
ATOM     29  C   UNL A   1      35.413  31.976  30.440  1.00  0.00     0.010 A 
ATOM     30  C   UNL A   1      36.668  32.578  30.250  1.00  0.00    -0.014 A 
BRANCH  30  31
ATOM     31  C   UNL A   1      37.878  31.979  30.864  1.00  0.00     0.031 A 
ATOM     32  C   UNL A   1      38.647  30.926  30.119  1.00  0.00     0.074 A 
ATOM     33  C   UNL A   1      38.280  32.366  32.089  1.00  0.00     0.049 A 
ATOM     34  N   UNL A   1      39.620  30.159  30.536  1.00  0.00    -0.248 NA
ATOM     35  C   UNL A   1      38.262  30.701  28.716  1.00  0.00     0.031 C 
ATOM     36  C   UNL A   1      37.651  33.411  32.897  1.00  0.00     0.029 A 
ATOM     37  N   UNL A   1      39.310  31.912  32.873  1.00  0.00    -0.354 N 
ATOM     38  C   UNL A   1      39.940  29.336  29.464  1.00  0.00     0.074 A 
ATOM     39  C   UNL A   1      39.052  29.692  28.378  1.00  0.00     0.031 C 
ATOM     40  C   UNL A   1      38.310  33.520  34.062  1.00  0.00     0.029 A 
ATOM     41  C   UNL A   1      39.366  32.514  34.106  1.00  0.00     0.049 A 
ATOM     42  H   UNL A   1      39.948  31.221  32.580  1.00  0.00     0.167 HD
ATOM     43  C   UNL A   1      40.887  28.372  29.394  1.00  0.00     0.037 A 
ATOM     44  C   UNL A   1      40.154  32.256  35.167  1.00  0.00     0.037 A 
ATOM     45  C   UNL A   1      41.787  28.039  30.466  1.00  0.00     0.049 A 
ATOM     46  C   UNL A   1      41.165  31.148  35.082  1.00  0.00     0.074 A 
ATOM     47  C   UNL A   1      42.787  27.082  30.490  1.00  0.00     0.029 A 
ATOM     48  N   UNL A   1      41.798  28.660  31.706  1.00  0.00    -0.354 N 
ATOM     49  N   UNL A   1      41.436  30.353  34.076  1.00  0.00    -0.248 NA
ATOM     50  C   UNL A   1      41.968  30.891  36.285  1.00  0.00     0.031 C 
ATOM     51  C   UNL A   1      43.386  27.106  31.755  1.00  0.00     0.029 A 
ATOM     52  C   UNL A   1      42.780  28.101  32.506  1.00  0.00     0.049 A 
ATOM     53  H   UNL A   1      41.198  29.391  31.977  1.00  0.00     0.167 HD
ATOM     54  C   UNL A   1      42.451  29.515  34.517  1.00  0.00     0.074 A 
ATOM     55  C   UNL A   1      42.756  29.906  35.878  1.00  0.00     0.031 C 
ATOM     56  C   UNL A   1      43.072  28.507  33.856  1.00  0.00     0.037 A 
BRANCH  43  57
ATOM     57  C   UNL A   1      40.979  27.587  28.120  1.00  0.00     0.057 A 
ATOM     58  C   UNL A   1      41.780  28.002  27.050  1.00  0.00     0.134 A 
ATOM     59  C   UNL A   1      40.274  26.385  27.974  1.00  0.00     0.134 A 
ATOM     60  F   UNL A   1      42.467  29.153  27.121  1.00  0.00    -0.206 F 
ATOM     61  C   UNL A   1      41.865  27.258  25.871  1.00  0.00     0.040 A 
ATOM     62  C   UNL A   1      40.367  25.622  26.810  1.00  0.00     0.040 A 
ATOM     63  F   UNL A   1      39.491  25.931  28.964  1.00  0.00    -0.206 F 
ATOM     64  C   UNL A   1      41.161  26.060  25.752  1.00  0.00     0.006 A 
ENDBRANCH  43  57
BRANCH  44  65
ATOM     65  C   UNL A   1      39.998  33.045  36.412  1.00  0.00     0.057 A 
ATOM     66  C   UNL A   1      40.806  34.158  36.669  1.00  0.00     0.134 A 
ATOM     67  C   UNL A   1      39.041  32.705  37.376  1.00  0.00     0.134 A 
ATOM     68  F   UNL A   1      41.757  34.517  35.794  1.00  0.00    -0.206 F 
ATOM     69  C   UNL A   1      40.674  34.901  37.843  1.00  0.00     0.040 A 
ATOM     70  C   UNL A   1      38.882  33.452  38.544  1.00  0.00     0.040 A 
ATOM     71  F   UNL A   1      38.236  31.648  37.188  1.00  0.00    -0.206 F 
ATOM     72  C   UNL A   1      39.705  34.550  38.782  1.00  0.00     0.006 A 
ENDBRANCH  44  65
BRANCH  56  73
ATOM     73  C   UNL A   1      44.162  27.784  34.587  1.00  0.00     0.057 A 
ATOM     74  C   UNL A   1      43.907  26.619  35.320  1.00  0.00     0.134 A 
ATOM     75  C   UNL A   1      45.484  28.240  34.529  1.00  0.00     0.134 A 
ATOM     76  F   UNL A   1      42.658  26.142  35.425  1.00  0.00    -0.206 F 
ATOM     77  C   UNL A   1      44.929  25.944  35.989  1.00  0.00     0.040 A 
ATOM     78  C   UNL A   1      46.517  27.562  35.176  1.00  0.00     0.040 A 
ATOM     79  F   UNL A   1      45.792  29.348  33.837  1.00  0.00    -0.206 F 
ATOM     80  C   UNL A   1      46.239  26.412  35.912  1.00  0.00     0.006 A 
ENDBRANCH  56  73
ENDBRANCH  30  31
ENDBRANCH  23  25
ENDBRANCH  22  23
ENDBRANCH  21  22
ENDBRANCH   1  21
TORSDOF 14
ENDMDL
MODEL 2
REMARK VINA RESULT:     -11.1      5.584     10.662
REMARK SMILES C[C@H]1C[C@@H]1c1nc(-c2ccccc2)c(CC(=O)OCCOC(=O)c2ccc(-c3c4nc(c(-c5c(F)cccc5F)c5ccc([nH]5)c(-c5c(F)cccc5F)c5nc(c(-c6c(F)cccc6F)c6ccc3[nH]6)C=C5)C=C4)cc2)s1
REMARK SMILES IDX 19 1 18 2 16 3 17 4 15 5 14 6 5 7 6 8 78 9 7 10 4 11 1 12
REMARK SMILES IDX 2 13 3 14 8 15 9 16 13 17 10 18 12 19 11 20 20 21 21 22
REMARK SMILES IDX 22 23 23 24 24 25 25 26 77 27 26 28 76 29 27 30 28 31 29 32
REMARK SMILES IDX 70 33 30 34 75 35 69 36 71 37 31 38 74 39 68 40 67 41 32 43
REMARK SMILES IDX 58 44 41 45 57 46 42 47 45 48 56 49 72 50 43 51 44 52 55 54
REMARK SMILES IDX 73 55 46 56 33 57 34 58 39 59 35 60 36 61 38 62 40 63 37 64
REMARK SMILES IDX 59 65 60 66 65 67 61 68 62 69 64 70 66 71 63 72 47 73 48 74
REMARK SMILES IDX 53 75 49 76 50 77 52 78 54 79 51 80
REMARK H PARENT 71 42 45 53
REMARK Flexibility Score: inf
ROOT
ATOM      1  C   UNL A   1      38.379  20.127  25.193  1.00  0.00     0.274 C 
ENDROOT
BRANCH   1   2
ATOM      2  O   UNL A   1      37.727  21.414  25.176  1.00  0.00    -0.462 OA
BRANCH   2   3
ATOM      3  C   UNL A   1      36.512  21.448  24.568  1.00  0.00     0.311 C 
ATOM      4  O   UNL A   1      36.176  22.289  23.738  1.00  0.00    -0.252 OA
BRANCH   3   5
ATOM      5  C   UNL A   1      35.554  20.366  25.008  1.00  0.00     0.171 C 
BRANCH   5   6
ATOM      6  C   UNL A   1      34.119  20.782  25.090  1.00  0.00     0.044 A 
ATOM      7  C   UNL A   1      32.016  21.961  25.314  1.00  0.00     0.097 A 
ATOM      8  N   UNL A   1      31.781  20.719  24.950  1.00  0.00    -0.241 NA
ATOM      9  S   UNL A   1      33.665  22.379  25.532  1.00  0.00    -0.122 S 
ATOM     10  C   UNL A   1      32.972  20.018  24.936  1.00  0.00     0.085 A 
BRANCH   7  11
ATOM     11  C   UNL A   1      30.866  22.950  25.500  1.00  0.00     0.052 C 
ATOM     12  C   UNL A   1      30.344  25.495  25.762  1.00  0.00     0.008 C 
ATOM     13  C   UNL A   1      31.057  24.267  26.216  1.00  0.00    -0.004 C 
ATOM     14  C   UNL A   1      30.287  23.144  26.876  1.00  0.00     0.015 C 
ENDBRANCH   7  11
BRANCH  10  15
ATOM     15  C   UNL A   1      33.019  18.579  24.759  1.00  0.00     0.001 A 
ATOM     16  C   UNL A   1      32.606  17.734  25.803  1.00  0.00     0.010 A 
ATOM     17  C   UNL A   1      33.551  18.026  23.594  1.00  0.00     0.010 A 
ATOM     18  C   UNL A   1      32.792  16.355  25.712  1.00  0.00     0.001 A 
ATOM     19  C   UNL A   1      33.725  16.643  23.501  1.00  0.00     0.001 A 
ATOM     20  C   UNL A   1      33.363  15.813  24.563  1.00  0.00     0.000 A 
ENDBRANCH  10  15
ENDBRANCH   5   6
ENDBRANCH   3   5
ENDBRANCH   2   3
ENDBRANCH   1   2
BRANCH   1  21
ATOM     21  C   UNL A   1      39.686  20.191  25.981  1.00  0.00     0.275 C 
BRANCH  21  22
ATOM     22  O   UNL A   1      40.453  18.996  25.750  1.00  0.00    -0.458 OA
BRANCH  22  23
ATOM     23  C   UNL A   1      41.791  19.120  25.890  1.00  0.00     0.338 C 
ATOM     24  O   UNL A   1      42.642  18.260  25.752  1.00  0.00    -0.246 OA
BRANCH  23  25
ATOM     25  C   UNL A   1      42.109  20.505  26.276  1.00  0.00     0.060 A 
ATOM     26  C   UNL A   1      42.372  21.465  25.298  1.00  0.00     0.016 A 
ATOM     27  C   UNL A   1      42.243  20.819  27.627  1.00  0.00     0.016 A 
ATOM     28  C   UNL A   1      42.807  22.737  25.662  1.00  0.00     0.010 A 
ATOM     29  C   UNL A   1      42.630  22.110  27.994  1.00  0.00     0.010 A 
ATOM     30  C   UNL A   1      42.939  23.071  27.015  1.00  0.00    -0.014 A 
BRANCH  30  31
ATOM     31  C   UNL A   1      43.448  24.404  27.419  1.00  0.00     0.031 A 
ATOM     32  C   UNL A   1      42.486  25.454  27.895  1.00  0.00     0.074 A 
ATOM     33  C   UNL A   1      44.764  24.678  27.348  1.00  0.00     0.049 A 
ATOM     34  N   UNL A   1      42.694  26.723  28.131  1.00  0.00    -0.248 NA
ATOM     35  C   UNL A   1      41.101  25.016  28.131  1.00  0.00     0.031 C 
ATOM     36  C   UNL A   1      45.807  23.733  26.948  1.00  0.00     0.029 A 
ATOM     37  N   UNL A   1      45.446  25.842  27.599  1.00  0.00    -0.354 N 
ATOM     38  C   UNL A   1      41.463  27.246  28.506  1.00  0.00     0.074 A 
ATOM     39  C   UNL A   1      40.510  26.157  28.460  1.00  0.00     0.031 C 
ATOM     40  C   UNL A   1      46.997  24.354  26.983  1.00  0.00     0.029 A 
ATOM     41  C   UNL A   1      46.793  25.753  27.347  1.00  0.00     0.049 A 
ATOM     42  H   UNL A   1      45.011  26.663  27.926  1.00  0.00     0.167 HD
ATOM     43  C   UNL A   1      41.157  28.517  28.855  1.00  0.00     0.037 A 
ATOM     44  C   UNL A   1      47.748  26.700  27.370  1.00  0.00     0.037 A 
ATOM     45  C   UNL A   1      42.112  29.591  28.927  1.00  0.00     0.049 A 
ATOM     46  C   UNL A   1      47.375  28.115  27.713  1.00  0.00     0.074 A 
ATOM     47  C   UNL A   1      41.901  30.913  29.278  1.00  0.00     0.029 A 
ATOM     48  N   UNL A   1      43.464  29.462  28.646  1.00  0.00    -0.354 N 
ATOM     49  N   UNL A   1      46.203  28.605  28.032  1.00  0.00    -0.248 NA
ATOM     50  C   UNL A   1      48.456  29.110  27.683  1.00  0.00     0.031 C 
ATOM     51  C   UNL A   1      43.122  31.591  29.184  1.00  0.00     0.029 A 
ATOM     52  C   UNL A   1      44.098  30.682  28.807  1.00  0.00     0.049 A 
ATOM     53  H   UNL A   1      43.908  28.626  28.375  1.00  0.00     0.167 HD
ATOM     54  C   UNL A   1      46.406  29.960  28.258  1.00  0.00     0.074 A 
ATOM     55  C   UNL A   1      47.818  30.212  28.051  1.00  0.00     0.031 C 
ATOM     56  C   UNL A   1      45.505  30.912  28.601  1.00  0.00     0.037 A 
BRANCH  43  57
ATOM     57  C   UNL A   1      39.721  28.821  29.160  1.00  0.00     0.057 A 
ATOM     58  C   UNL A   1      39.205  28.735  30.458  1.00  0.00     0.134 A 
ATOM     59  C   UNL A   1      38.851  29.232  28.142  1.00  0.00     0.134 A 
ATOM     60  F   UNL A   1      39.983  28.331  31.474  1.00  0.00    -0.206 F 
ATOM     61  C   UNL A   1      37.867  29.030  30.731  1.00  0.00     0.040 A 
ATOM     62  C   UNL A   1      37.518  29.550  28.406  1.00  0.00     0.040 A 
ATOM     63  F   UNL A   1      39.285  29.337  26.877  1.00  0.00    -0.206 F 
ATOM     64  C   UNL A   1      37.022  29.445  29.703  1.00  0.00     0.006 A 
ENDBRANCH  43  57
BRANCH  44  65
ATOM     65  C   UNL A   1      49.148  26.347  27.030  1.00  0.00     0.057 A 
ATOM     66  C   UNL A   1      50.075  26.027  28.027  1.00  0.00     0.134 A 
ATOM     67  C   UNL A   1      49.592  26.323  25.702  1.00  0.00     0.134 A 
ATOM     68  F   UNL A   1      49.714  26.058  29.318  1.00  0.00    -0.206 F 
ATOM     69  C   UNL A   1      51.397  25.704  27.718  1.00  0.00     0.040 A 
ATOM     70  C   UNL A   1      50.904  25.979  25.377  1.00  0.00     0.040 A 
ATOM     71  F   UNL A   1      48.749  26.619  24.701  1.00  0.00    -0.206 F 
ATOM     72  C   UNL A   1      51.813  25.674  26.387  1.00  0.00     0.006 A 
ENDBRANCH  44  65
BRANCH  56  73
ATOM     73  C   UNL A   1      46.026  32.301  28.805  1.00  0.00     0.057 A 
ATOM     74  C   UNL A   1      46.066  33.232  27.760  1.00  0.00     0.134 A 
ATOM     75  C   UNL A   1      46.463  32.721  30.067  1.00  0.00     0.134 A 
ATOM     76  F   UNL A   1      45.674  32.884  26.525  1.00  0.00    -0.206 F 
ATOM     77  C   UNL A   1      46.541  34.529  27.959  1.00  0.00     0.040 A 
ATOM     78  C   UNL A   1      46.922  34.021  30.283  1.00  0.00     0.040 A 
ATOM     79  F   UNL A   1      46.445  31.877  31.109  1.00  0.00    -0.206 F 
ATOM     80  C   UNL A   1      46.965  34.927  29.226  1.00  0.00     0.006 A 
ENDBRANCH  56  73
ENDBRANCH  30  31
ENDBRANCH  23  25
ENDBRANCH  22  23
ENDBRANCH  21  22
ENDBRANCH   1  21
TORSDOF 14
ENDMDL
MODEL 3
REMARK VINA RESULT:     -11.1      4.589      8.191
REMARK SMILES C[C@H]1C[C@@H]1c1nc(-c2ccccc2)c(CC(=O)OCCOC(=O)c2ccc(-c3c4nc(c(-c5c(F)cccc5F)c5ccc([nH]5)c(-c5c(F)cccc5F)c5nc(c(-c6c(F)cccc6F)c6ccc3[nH]6)C=C5)C=C4)cc2)s1
REMARK SMILES IDX 19 1 18 2 16 3 17 4 15 5 14 6 5 7 6 8 78 9 7 10 4 11 1 12
REMARK SMILES IDX 2 13 3 14 8 15 9 16 13 17 10 18 12 19 11 20 20 21 21 22
REMARK SMILES IDX 22 23 23 24 24 25 25 26 77 27 26 28 76 29 27 30 28 31 29 32
REMARK SMILES IDX 70 33 30 34 75 35 69 36 71 37 31 38 74 39 68 40 67 41 32 43
REMARK SMILES IDX 58 44 41 45 57 46 42 47 45 48 56 49 72 50 43 51 44 52 55 54
REMARK SMILES IDX 73 55 46 56 33 57 34 58 39 59 35 60 36 61 38 62 40 63 37 64
REMARK SMILES IDX 59 65 60 66 65 67 61 68 62 69 64 70 66 71 63 72 47 73 48 74
REMARK SMILES IDX 53 75 49 76 50 77 52 78 54 79 51 80
REMARK H PARENT 71 42 45 53
REMARK Flexibility Score: inf
ROOT
ATOM      1  C   UNL A   1      33.051  30.361  26.881  1.00  0.00     0.274 C 
ENDROOT
BRANCH   1   2
ATOM      2  O   UNL A   1      32.727  29.099  27.499  1.00  0.00    -0.462 OA
BRANCH   2   3
ATOM      3  C   UNL A   1      31.736  28.389  26.898  1.00  0.00     0.311 C 
ATOM      4  O   UNL A   1      31.104  27.485  27.440  1.00  0.00    -0.252 OA
BRANCH   3   5
ATOM      5  C   UNL A   1      31.462  28.774  25.463  1.00  0.00     0.171 C 
BRANCH   5   6
ATOM      6  C   UNL A   1      31.541  27.651  24.477  1.00  0.00     0.044 A 
ATOM      7  C   UNL A   1      32.084  25.658  23.214  1.00  0.00     0.097 A 
ATOM      8  N   UNL A   1      31.008  26.216  22.704  1.00  0.00    -0.241 NA
ATOM      9  S   UNL A   1      32.780  26.463  24.557  1.00  0.00    -0.122 S 
ATOM     10  C   UNL A   1      30.767  27.412  23.352  1.00  0.00     0.085 A 
BRANCH   7  11
ATOM     11  C   UNL A   1      32.640  24.360  22.630  1.00  0.00     0.052 C 
ATOM     12  C   UNL A   1      32.300  21.771  22.641  1.00  0.00     0.008 C 
ATOM     13  C   UNL A   1      32.541  23.047  23.372  1.00  0.00    -0.004 C 
ATOM     14  C   UNL A   1      33.874  23.753  23.243  1.00  0.00     0.015 C 
ENDBRANCH   7  11
BRANCH  10  15
ATOM     15  C   UNL A   1      29.762  28.352  22.892  1.00  0.00     0.001 A 
ATOM     16  C   UNL A   1      30.153  29.494  22.171  1.00  0.00     0.010 A 
ATOM     17  C   UNL A   1      28.421  28.177  23.231  1.00  0.00     0.010 A 
ATOM     18  C   UNL A   1      29.223  30.485  21.860  1.00  0.00     0.001 A 
ATOM     19  C   UNL A   1      27.489  29.166  22.906  1.00  0.00     0.001 A 
ATOM     20  C   UNL A   1      27.893  30.323  22.238  1.00  0.00     0.000 A 
ENDBRANCH  10  15
ENDBRANCH   5   6
ENDBRANCH   3   5
ENDBRANCH   2   3
ENDBRANCH   1   2
BRANCH   1  21
ATOM     21  C   UNL A   1      33.876  31.231  27.826  1.00  0.00     0.275 C 
BRANCH  21  22
ATOM     22  O   UNL A   1      35.239  30.769  27.849  1.00  0.00    -0.458 OA
BRANCH  22  23
ATOM     23  C   UNL A   1      35.866  30.843  29.043  1.00  0.00     0.338 C 
ATOM     24  O   UNL A   1      35.469  31.371  30.066  1.00  0.00    -0.246 OA
BRANCH  23  25
ATOM     25  C   UNL A   1      37.178  30.184  28.940  1.00  0.00     0.060 A 
ATOM     26  C   UNL A   1      37.883  29.836  30.094  1.00  0.00     0.016 A 
ATOM     27  C   UNL A   1      37.751  30.004  27.683  1.00  0.00     0.016 A 
ATOM     28  C   UNL A   1      39.182  29.341  30.001  1.00  0.00     0.010 A 
ATOM     29  C   UNL A   1      39.033  29.459  27.586  1.00  0.00     0.010 A 
ATOM     30  C   UNL A   1      39.767  29.147  28.744  1.00  0.00    -0.014 A 
BRANCH  30  31
ATOM     31  C   UNL A   1      41.166  28.667  28.627  1.00  0.00     0.031 A 
ATOM     32  C   UNL A   1      42.301  29.636  28.796  1.00  0.00     0.074 A 
ATOM     33  C   UNL A   1      41.419  27.373  28.359  1.00  0.00     0.049 A 
ATOM     34  N   UNL A   1      43.577  29.465  28.568  1.00  0.00    -0.248 NA
ATOM     35  C   UNL A   1      41.950  30.981  29.279  1.00  0.00     0.031 C 
ATOM     36  C   UNL A   1      40.410  26.322  28.220  1.00  0.00     0.029 A 
ATOM     37  N   UNL A   1      42.609  26.724  28.142  1.00  0.00    -0.354 N 
ATOM     38  C   UNL A   1      44.178  30.687  28.843  1.00  0.00     0.074 A 
ATOM     39  C   UNL A   1      43.125  31.594  29.248  1.00  0.00     0.031 C 
ATOM     40  C   UNL A   1      41.023  25.160  27.944  1.00  0.00     0.029 A 
ATOM     41  C   UNL A   1      42.459  25.396  27.826  1.00  0.00     0.049 A 
ATOM     42  H   UNL A   1      43.485  27.169  28.206  1.00  0.00     0.167 HD
ATOM     43  C   UNL A   1      45.487  31.020  28.763  1.00  0.00     0.037 A 
ATOM     44  C   UNL A   1      43.372  24.483  27.447  1.00  0.00     0.037 A 
ATOM     45  C   UNL A   1      46.535  30.109  28.387  1.00  0.00     0.049 A 
ATOM     46  C   UNL A   1      44.812  24.889  27.318  1.00  0.00     0.074 A 
ATOM     47  C   UNL A   1      47.894  30.349  28.284  1.00  0.00     0.029 A 
ATOM     48  N   UNL A   1      46.338  28.777  28.057  1.00  0.00    -0.354 N 
ATOM     49  N   UNL A   1      45.364  26.055  27.547  1.00  0.00    -0.248 NA
ATOM     50  C   UNL A   1      45.753  23.856  26.864  1.00  0.00     0.031 C 
ATOM     51  C   UNL A   1      48.517  29.168  27.866  1.00  0.00     0.029 A 
ATOM     52  C   UNL A   1      47.549  28.185  27.740  1.00  0.00     0.049 A 
ATOM     53  H   UNL A   1      45.467  28.318  28.050  1.00  0.00     0.167 HD
ATOM     54  C   UNL A   1      46.717  25.893  27.282  1.00  0.00     0.074 A 
ATOM     55  C   UNL A   1      46.905  24.512  26.887  1.00  0.00     0.031 C 
ATOM     56  C   UNL A   1      47.716  26.807  27.354  1.00  0.00     0.037 A 
BRANCH  43  57
ATOM     57  C   UNL A   1      45.855  32.442  29.063  1.00  0.00     0.057 A 
ATOM     58  C   UNL A   1      46.212  32.859  30.351  1.00  0.00     0.134 A 
ATOM     59  C   UNL A   1      45.879  33.401  28.042  1.00  0.00     0.134 A 
ATOM     60  F   UNL A   1      46.193  31.993  31.376  1.00  0.00    -0.206 F 
ATOM     61  C   UNL A   1      46.562  34.185  30.617  1.00  0.00     0.040 A 
ATOM     62  C   UNL A   1      46.248  34.723  28.290  1.00  0.00     0.040 A 
ATOM     63  F   UNL A   1      45.551  33.064  26.785  1.00  0.00    -0.206 F 
ATOM     64  C   UNL A   1      46.587  35.119  29.582  1.00  0.00     0.006 A 
ENDBRANCH  43  57
BRANCH  44  65
ATOM     65  C   UNL A   1      42.944  23.097  27.134  1.00  0.00     0.057 A 
ATOM     66  C   UNL A   1      42.806  22.667  25.810  1.00  0.00     0.134 A 
ATOM     67  C   UNL A   1      42.662  22.174  28.148  1.00  0.00     0.134 A 
ATOM     68  F   UNL A   1      43.038  23.514  24.797  1.00  0.00    -0.206 F 
ATOM     69  C   UNL A   1      42.394  21.369  25.504  1.00  0.00     0.040 A 
ATOM     70  C   UNL A   1      42.273  20.866  27.857  1.00  0.00     0.040 A 
ATOM     71  F   UNL A   1      42.778  22.527  29.437  1.00  0.00    -0.206 F 
ATOM     72  C   UNL A   1      42.132  20.462  26.531  1.00  0.00     0.006 A 
ENDBRANCH  44  65
BRANCH  56  73
ATOM     73  C   UNL A   1      49.099  26.332  27.030  1.00  0.00     0.057 A 
ATOM     74  C   UNL A   1      49.924  25.755  28.002  1.00  0.00     0.134 A 
ATOM     75  C   UNL A   1      49.596  26.423  25.724  1.00  0.00     0.134 A 
ATOM     76  F   UNL A   1      49.509  25.654  29.273  1.00  0.00    -0.206 F 
ATOM     77  C   UNL A   1      51.207  25.302  27.690  1.00  0.00     0.040 A 
ATOM     78  C   UNL A   1      50.869  25.955  25.396  1.00  0.00     0.040 A 
ATOM     79  F   UNL A   1      48.851  26.961  24.747  1.00  0.00    -0.206 F 
ATOM     80  C   UNL A   1      51.680  25.397  26.382  1.00  0.00     0.006 A 
ENDBRANCH  56  73
ENDBRANCH  30  31
ENDBRANCH  23  25
ENDBRANCH  22  23
ENDBRANCH  21  22
ENDBRANCH   1  21
TORSDOF 14
ENDMDL
