MODEL 1
REMARK VINA RESULT:     -11.8      0.000      0.000
REMARK SMILES CC[C@@H]1CCCN(S(=O)(=O)c2cc(C(=O)OCCOC(=O)c3ccc(-c4c5nc(c(-c6c(F)cccc6F)c6ccc([nH]6)c(-c6c(F)cccc6F)c6nc(c(-c7c(F)cccc7F)c7ccc4[nH]7)C=C6)C=C5)cc3)ccc2F)C1
REMARK SMILES IDX 17 1 16 2 14 3 15 4 13 5 11 6 12 7 78 8 77 9 79 10 76 11
REMARK SMILES IDX 8 12 9 13 10 14 7 15 3 16 4 17 80 18 5 19 6 20 2 21 1 22
REMARK SMILES IDX 18 23 19 24 20 25 21 26 22 27 23 28 75 29 24 30 74 31 25 32
REMARK SMILES IDX 26 33 27 34 68 35 28 36 73 37 67 38 69 39 29 40 72 41 66 42
REMARK SMILES IDX 65 43 30 45 56 46 39 47 55 48 40 49 43 50 54 51 70 52 41 53
REMARK SMILES IDX 42 54 53 56 71 57 44 58 31 59 32 60 37 61 33 62 34 63 36 64
REMARK SMILES IDX 38 65 35 66 57 67 58 68 63 69 59 70 60 71 62 72 64 73 61 74
REMARK SMILES IDX 45 75 46 76 51 77 47 78 48 79 50 80 52 81 49 82
REMARK H PARENT 69 44 43 55
REMARK Flexibility Score: inf
ROOT
ATOM      1  C   UNL A   1      42.553  20.412  26.509  1.00  0.00     0.275 C 
ENDROOT
BRANCH   1   2
ATOM      2  O   UNL A   1      41.273  20.977  26.860  1.00  0.00    -0.458 OA
BRANCH   2   3
ATOM      3  C   UNL A   1      40.206  20.539  26.150  1.00  0.00     0.338 C 
ATOM      4  O   UNL A   1      40.012  19.405  25.751  1.00  0.00    -0.246 OA
BRANCH   3   5
ATOM      5  C   UNL A   1      39.198  21.625  26.009  1.00  0.00     0.061 A 
ATOM      6  C   UNL A   1      36.982  22.293  25.271  1.00  0.00     0.119 A 
ATOM      7  C   UNL A   1      38.008  21.344  25.320  1.00  0.00     0.040 A 
ATOM      8  C   UNL A   1      37.171  23.542  25.846  1.00  0.00     0.143 A 
ATOM      9  C   UNL A   1      38.382  23.856  26.464  1.00  0.00     0.041 A 
ATOM     10  F   UNL A   1      36.226  24.489  25.788  1.00  0.00    -0.206 F 
ATOM     11  C   UNL A   1      39.390  22.893  26.566  1.00  0.00     0.019 A 
BRANCH   6  12
ATOM     12  S   UNL A   1      35.395  21.814  24.662  1.00  0.00     0.246 S 
ATOM     13  O   UNL A   1      35.237  20.381  24.832  1.00  0.00    -0.207 OA
ATOM     14  O   UNL A   1      35.254  22.403  23.351  1.00  0.00    -0.207 OA
BRANCH  12  15
ATOM     15  N   UNL A   1      34.264  22.602  25.702  1.00  0.00    -0.197 NA
ATOM     16  C   UNL A   1      32.153  23.980  25.768  1.00  0.00     0.004 C 
ATOM     17  C   UNL A   1      31.666  23.115  26.940  1.00  0.00     0.006 C 
ATOM     18  C   UNL A   1      33.133  23.176  24.898  1.00  0.00     0.106 C 
ATOM     19  C   UNL A   1      32.829  22.511  27.719  1.00  0.00     0.017 C 
ATOM     20  C   UNL A   1      33.757  21.730  26.800  1.00  0.00     0.102 C 
BRANCH  16  21
ATOM     21  C   UNL A   1      32.760  25.326  26.216  1.00  0.00     0.001 C 
ATOM     22  C   UNL A   1      33.390  26.096  25.061  1.00  0.00     0.004 C 
ENDBRANCH  16  21
ENDBRANCH  12  15
ENDBRANCH   6  12
ENDBRANCH   3   5
ENDBRANCH   2   3
ENDBRANCH   1   2
BRANCH   1  23
ATOM     23  C   UNL A   1      43.318  21.320  25.543  1.00  0.00     0.275 C 
BRANCH  23  24
ATOM     24  O   UNL A   1      42.596  22.542  25.305  1.00  0.00    -0.458 OA
BRANCH  24  25
ATOM     25  C   UNL A   1      43.352  23.662  25.294  1.00  0.00     0.338 C 
ATOM     26  O   UNL A   1      44.310  23.908  24.580  1.00  0.00    -0.246 OA
BRANCH  25  27
ATOM     27  C   UNL A   1      42.796  24.644  26.231  1.00  0.00     0.060 A 
ATOM     28  C   UNL A   1      43.139  25.979  26.052  1.00  0.00     0.016 A 
ATOM     29  C   UNL A   1      42.083  24.248  27.361  1.00  0.00     0.016 A 
ATOM     30  C   UNL A   1      42.857  26.917  27.038  1.00  0.00     0.010 A 
ATOM     31  C   UNL A   1      41.715  25.212  28.309  1.00  0.00     0.010 A 
ATOM     32  C   UNL A   1      42.124  26.553  28.175  1.00  0.00    -0.014 A 
BRANCH  32  33
ATOM     33  C   UNL A   1      41.809  27.559  29.227  1.00  0.00     0.031 A 
ATOM     34  C   UNL A   1      42.635  27.616  30.484  1.00  0.00     0.074 A 
ATOM     35  C   UNL A   1      40.785  28.424  29.067  1.00  0.00     0.049 A 
ATOM     36  N   UNL A   1      42.381  28.226  31.614  1.00  0.00    -0.248 NA
ATOM     37  C   UNL A   1      43.909  26.880  30.475  1.00  0.00     0.031 C 
ATOM     38  C   UNL A   1      39.950  28.540  27.869  1.00  0.00     0.029 A 
ATOM     39  N   UNL A   1      40.267  29.368  29.920  1.00  0.00    -0.354 N 
ATOM     40  C   UNL A   1      43.433  27.905  32.463  1.00  0.00     0.074 A 
ATOM     41  C   UNL A   1      44.329  27.044  31.721  1.00  0.00     0.031 C 
ATOM     42  C   UNL A   1      39.045  29.511  28.054  1.00  0.00     0.029 A 
ATOM     43  C   UNL A   1      39.162  30.014  29.417  1.00  0.00     0.049 A 
ATOM     44  H   UNL A   1      40.650  29.564  30.806  1.00  0.00     0.167 HD
ATOM     45  C   UNL A   1      43.628  28.298  33.744  1.00  0.00     0.037 A 
ATOM     46  C   UNL A   1      38.297  30.867  30.000  1.00  0.00     0.037 A 
ATOM     47  C   UNL A   1      42.762  29.206  34.449  1.00  0.00     0.049 A 
ATOM     48  C   UNL A   1      38.491  31.233  31.444  1.00  0.00     0.074 A 
ATOM     49  C   UNL A   1      42.879  29.672  35.747  1.00  0.00     0.029 A 
ATOM     50  N   UNL A   1      41.634  29.803  33.908  1.00  0.00    -0.354 N 
ATOM     51  N   UNL A   1      39.445  30.864  32.263  1.00  0.00    -0.248 NA
ATOM     52  C   UNL A   1      37.479  32.107  32.055  1.00  0.00     0.031 C 
ATOM     53  C   UNL A   1      41.798  30.515  36.007  1.00  0.00     0.029 A 
ATOM     54  C   UNL A   1      41.036  30.619  34.855  1.00  0.00     0.049 A 
ATOM     55  H   UNL A   1      41.306  29.668  32.990  1.00  0.00     0.167 HD
ATOM     56  C   UNL A   1      39.162  31.476  33.477  1.00  0.00     0.074 A 
ATOM     57  C   UNL A   1      37.951  32.245  33.287  1.00  0.00     0.031 C 
ATOM     58  C   UNL A   1      39.844  31.398  34.643  1.00  0.00     0.037 A 
BRANCH  45  59
ATOM     59  C   UNL A   1      44.806  27.742  34.491  1.00  0.00     0.057 A 
ATOM     60  C   UNL A   1      46.050  28.386  34.427  1.00  0.00     0.134 A 
ATOM     61  C   UNL A   1      44.743  26.526  35.180  1.00  0.00     0.134 A 
ATOM     62  F   UNL A   1      46.181  29.549  33.772  1.00  0.00    -0.206 F 
ATOM     63  C   UNL A   1      47.193  27.827  35.001  1.00  0.00     0.040 A 
ATOM     64  C   UNL A   1      45.874  25.970  35.781  1.00  0.00     0.040 A 
ATOM     65  F   UNL A   1      43.582  25.863  35.285  1.00  0.00    -0.206 F 
ATOM     66  C   UNL A   1      47.106  26.614  35.680  1.00  0.00     0.006 A 
ENDBRANCH  45  59
BRANCH  46  67
ATOM     67  C   UNL A   1      37.140  31.385  29.224  1.00  0.00     0.057 A 
ATOM     68  C   UNL A   1      37.131  32.686  28.705  1.00  0.00     0.134 A 
ATOM     69  C   UNL A   1      36.001  30.601  29.009  1.00  0.00     0.134 A 
ATOM     70  F   UNL A   1      38.191  33.492  28.874  1.00  0.00    -0.206 F 
ATOM     71  C   UNL A   1      36.022  33.201  28.031  1.00  0.00     0.040 A 
ATOM     72  C   UNL A   1      34.897  31.091  28.310  1.00  0.00     0.040 A 
ATOM     73  F   UNL A   1      35.957  29.338  29.458  1.00  0.00    -0.206 F 
ATOM     74  C   UNL A   1      34.902  32.400  27.828  1.00  0.00     0.006 A 
ENDBRANCH  46  67
BRANCH  58  75
ATOM     75  C   UNL A   1      39.336  32.192  35.808  1.00  0.00     0.057 A 
ATOM     76  C   UNL A   1      38.358  31.656  36.656  1.00  0.00     0.134 A 
ATOM     77  C   UNL A   1      39.720  33.520  36.015  1.00  0.00     0.134 A 
ATOM     78  F   UNL A   1      37.939  30.390  36.501  1.00  0.00    -0.206 F 
ATOM     79  C   UNL A   1      37.757  32.426  37.652  1.00  0.00     0.040 A 
ATOM     80  C   UNL A   1      39.143  34.294  37.024  1.00  0.00     0.040 A 
ATOM     81  F   UNL A   1      40.659  34.086  35.242  1.00  0.00    -0.206 F 
ATOM     82  C   UNL A   1      38.148  33.751  37.835  1.00  0.00     0.006 A 
ENDBRANCH  58  75
ENDBRANCH  32  33
ENDBRANCH  25  27
ENDBRANCH  24  25
ENDBRANCH  23  24
ENDBRANCH   1  23
TORSDOF 14
ENDMDL
MODEL 2
REMARK VINA RESULT:     -11.6      5.152      9.973
REMARK SMILES CC[C@@H]1CCCN(S(=O)(=O)c2cc(C(=O)OCCOC(=O)c3ccc(-c4c5nc(c(-c6c(F)cccc6F)c6ccc([nH]6)c(-c6c(F)cccc6F)c6nc(c(-c7c(F)cccc7F)c7ccc4[nH]7)C=C6)C=C5)cc3)ccc2F)C1
REMARK SMILES IDX 17 1 16 2 14 3 15 4 13 5 11 6 12 7 78 8 77 9 79 10 76 11
REMARK SMILES IDX 8 12 9 13 10 14 7 15 3 16 4 17 80 18 5 19 6 20 2 21 1 22
REMARK SMILES IDX 18 23 19 24 20 25 21 26 22 27 23 28 75 29 24 30 74 31 25 32
REMARK SMILES IDX 26 33 27 34 68 35 28 36 73 37 67 38 69 39 29 40 72 41 66 42
REMARK SMILES IDX 65 43 30 45 56 46 39 47 55 48 40 49 43 50 54 51 70 52 41 53
REMARK SMILES IDX 42 54 53 56 71 57 44 58 31 59 32 60 37 61 33 62 34 63 36 64
REMARK SMILES IDX 38 65 35 66 57 67 58 68 63 69 59 70 60 71 62 72 64 73 61 74
REMARK SMILES IDX 45 75 46 76 51 77 47 78 48 79 50 80 52 81 49 82
REMARK H PARENT 69 44 43 55
REMARK Flexibility Score: inf
ROOT
ATOM      1  C   UNL A   1      33.731  34.418  29.109  1.00  0.00     0.275 C 
ENDROOT
BRANCH   1   2
ATOM      2  O   UNL A   1      34.043  33.380  28.157  1.00  0.00    -0.458 OA
BRANCH   2   3
ATOM      3  C   UNL A   1      32.989  32.731  27.605  1.00  0.00     0.338 C 
ATOM      4  O   UNL A   1      31.935  33.226  27.247  1.00  0.00    -0.246 OA
BRANCH   3   5
ATOM      5  C   UNL A   1      33.328  31.302  27.370  1.00  0.00     0.061 A 
ATOM      6  C   UNL A   1      32.683  29.164  26.412  1.00  0.00     0.119 A 
ATOM      7  C   UNL A   1      32.364  30.480  26.766  1.00  0.00     0.040 A 
ATOM      8  C   UNL A   1      33.934  28.651  26.724  1.00  0.00     0.143 A 
ATOM      9  C   UNL A   1      34.870  29.438  27.395  1.00  0.00     0.041 A 
ATOM     10  F   UNL A   1      34.263  27.386  26.434  1.00  0.00    -0.206 F 
ATOM     11  C   UNL A   1      34.578  30.771  27.701  1.00  0.00     0.019 A 
BRANCH   6  12
ATOM     12  S   UNL A   1      31.564  28.252  25.395  1.00  0.00     0.246 S 
ATOM     13  O   UNL A   1      30.700  29.182  24.692  1.00  0.00    -0.207 OA
ATOM     14  O   UNL A   1      30.987  27.222  26.227  1.00  0.00    -0.207 OA
BRANCH  12  15
ATOM     15  N   UNL A   1      32.565  27.467  24.228  1.00  0.00    -0.197 NA
ATOM     16  C   UNL A   1      32.996  25.293  23.025  1.00  0.00     0.004 C 
ATOM     17  C   UNL A   1      33.192  26.090  21.726  1.00  0.00     0.006 C 
ATOM     18  C   UNL A   1      32.074  26.070  23.980  1.00  0.00     0.106 C 
ATOM     19  C   UNL A   1      33.653  27.517  22.003  1.00  0.00     0.017 C 
ATOM     20  C   UNL A   1      32.697  28.227  22.952  1.00  0.00     0.102 C 
BRANCH  16  21
ATOM     21  C   UNL A   1      34.324  24.903  23.706  1.00  0.00     0.001 C 
ATOM     22  C   UNL A   1      34.535  23.394  23.752  1.00  0.00     0.004 C 
ENDBRANCH  16  21
ENDBRANCH  12  15
ENDBRANCH   6  12
ENDBRANCH   3   5
ENDBRANCH   2   3
ENDBRANCH   1   2
BRANCH   1  23
ATOM     23  C   UNL A   1      34.334  34.115  30.482  1.00  0.00     0.275 C 
BRANCH  23  24
ATOM     24  O   UNL A   1      34.562  32.703  30.645  1.00  0.00    -0.458 OA
BRANCH  24  25
ATOM     25  C   UNL A   1      35.437  32.371  31.620  1.00  0.00     0.338 C 
ATOM     26  O   UNL A   1      35.326  32.564  32.819  1.00  0.00    -0.246 OA
BRANCH  25  27
ATOM     27  C   UNL A   1      36.560  31.625  31.042  1.00  0.00     0.060 A 
ATOM     28  C   UNL A   1      37.359  30.884  31.905  1.00  0.00     0.016 A 
ATOM     29  C   UNL A   1      36.923  31.775  29.706  1.00  0.00     0.016 A 
ATOM     30  C   UNL A   1      38.572  30.364  31.470  1.00  0.00     0.010 A 
ATOM     31  C   UNL A   1      38.098  31.169  29.245  1.00  0.00     0.010 A 
ATOM     32  C   UNL A   1      38.954  30.481  30.128  1.00  0.00    -0.014 A 
BRANCH  32  33
ATOM     33  C   UNL A   1      40.247  29.913  29.655  1.00  0.00     0.031 A 
ATOM     34  C   UNL A   1      41.468  30.790  29.572  1.00  0.00     0.074 A 
ATOM     35  C   UNL A   1      40.338  28.615  29.298  1.00  0.00     0.049 A 
ATOM     36  N   UNL A   1      42.604  30.572  28.960  1.00  0.00    -0.248 NA
ATOM     37  C   UNL A   1      41.399  32.090  30.258  1.00  0.00     0.031 C 
ATOM     38  C   UNL A   1      39.262  27.628  29.403  1.00  0.00     0.029 A 
ATOM     39  N   UNL A   1      41.386  27.902  28.767  1.00  0.00    -0.354 N 
ATOM     40  C   UNL A   1      43.360  31.723  29.141  1.00  0.00     0.074 A 
ATOM     41  C   UNL A   1      42.556  32.641  29.918  1.00  0.00     0.031 C 
ATOM     42  C   UNL A   1      39.709  26.438  28.975  1.00  0.00     0.029 A 
ATOM     43  C   UNL A   1      41.066  26.599  28.466  1.00  0.00     0.049 A 
ATOM     44  H   UNL A   1      42.280  28.287  28.616  1.00  0.00     0.167 HD
ATOM     45  C   UNL A   1      44.612  31.983  28.697  1.00  0.00     0.037 A 
ATOM     46  C   UNL A   1      41.755  25.653  27.800  1.00  0.00     0.037 A 
ATOM     47  C   UNL A   1      45.426  31.037  27.979  1.00  0.00     0.049 A 
ATOM     48  C   UNL A   1      43.114  25.986  27.252  1.00  0.00     0.074 A 
ATOM     49  C   UNL A   1      46.711  31.203  27.494  1.00  0.00     0.029 A 
ATOM     50  N   UNL A   1      45.042  29.742  27.665  1.00  0.00    -0.354 N 
ATOM     51  N   UNL A   1      43.792  27.103  27.360  1.00  0.00    -0.248 NA
ATOM     52  C   UNL A   1      43.794  24.945  26.468  1.00  0.00     0.031 C 
ATOM     53  C   UNL A   1      47.089  30.025  26.847  1.00  0.00     0.029 A 
ATOM     54  C   UNL A   1      46.061  29.106  26.975  1.00  0.00     0.049 A 
ATOM     55  H   UNL A   1      44.176  29.336  27.897  1.00  0.00     0.167 HD
ATOM     56  C   UNL A   1      44.983  26.893  26.678  1.00  0.00     0.074 A 
ATOM     57  C   UNL A   1      44.940  25.540  26.165  1.00  0.00     0.031 C 
ATOM     58  C   UNL A   1      46.014  27.750  26.492  1.00  0.00     0.037 A 
BRANCH  45  59
ATOM     59  C   UNL A   1      45.191  33.346  28.945  1.00  0.00     0.057 A 
ATOM     60  C   UNL A   1      45.038  34.362  27.991  1.00  0.00     0.134 A 
ATOM     61  C   UNL A   1      45.984  33.625  30.063  1.00  0.00     0.134 A 
ATOM     62  F   UNL A   1      44.300  34.156  26.889  1.00  0.00    -0.206 F 
ATOM     63  C   UNL A   1      45.672  35.598  28.130  1.00  0.00     0.040 A 
ATOM     64  C   UNL A   1      46.602  34.866  30.226  1.00  0.00     0.040 A 
ATOM     65  F   UNL A   1      46.165  32.699  31.017  1.00  0.00    -0.206 F 
ATOM     66  C   UNL A   1      46.458  35.852  29.251  1.00  0.00     0.006 A 
ENDBRANCH  45  59
BRANCH  46  67
ATOM     67  C   UNL A   1      41.140  24.320  27.569  1.00  0.00     0.057 A 
ATOM     68  C   UNL A   1      41.579  23.182  28.259  1.00  0.00     0.134 A 
ATOM     69  C   UNL A   1      40.116  24.145  26.631  1.00  0.00     0.134 A 
ATOM     70  F   UNL A   1      42.557  23.278  29.173  1.00  0.00    -0.206 F 
ATOM     71  C   UNL A   1      41.049  21.916  28.002  1.00  0.00     0.040 A 
ATOM     72  C   UNL A   1      39.555  22.891  26.385  1.00  0.00     0.040 A 
ATOM     73  F   UNL A   1      39.633  25.199  25.956  1.00  0.00    -0.206 F 
ATOM     74  C   UNL A   1      40.030  21.769  27.065  1.00  0.00     0.006 A 
ENDBRANCH  46  67
BRANCH  58  75
ATOM     75  C   UNL A   1      47.210  27.256  25.737  1.00  0.00     0.057 A 
ATOM     76  C   UNL A   1      48.270  26.641  26.414  1.00  0.00     0.134 A 
ATOM     77  C   UNL A   1      47.365  27.500  24.369  1.00  0.00     0.134 A 
ATOM     78  F   UNL A   1      48.185  26.390  27.730  1.00  0.00    -0.206 F 
ATOM     79  C   UNL A   1      49.457  26.311  25.760  1.00  0.00     0.040 A 
ATOM     80  C   UNL A   1      48.540  27.153  23.699  1.00  0.00     0.040 A 
ATOM     81  F   UNL A   1      46.380  28.077  23.663  1.00  0.00    -0.206 F 
ATOM     82  C   UNL A   1      49.595  26.572  24.399  1.00  0.00     0.006 A 
ENDBRANCH  58  75
ENDBRANCH  32  33
ENDBRANCH  25  27
ENDBRANCH  24  25
ENDBRANCH  23  24
ENDBRANCH   1  23
TORSDOF 14
ENDMDL
MODEL 3
REMARK VINA RESULT:     -11.4      4.900      9.329
REMARK SMILES CC[C@@H]1CCCN(S(=O)(=O)c2cc(C(=O)OCCOC(=O)c3ccc(-c4c5nc(c(-c6c(F)cccc6F)c6ccc([nH]6)c(-c6c(F)cccc6F)c6nc(c(-c7c(F)cccc7F)c7ccc4[nH]7)C=C6)C=C5)cc3)ccc2F)C1
REMARK SMILES IDX 17 1 16 2 14 3 15 4 13 5 11 6 12 7 78 8 77 9 79 10 76 11
REMARK SMILES IDX 8 12 9 13 10 14 7 15 3 16 4 17 80 18 5 19 6 20 2 21 1 22
REMARK SMILES IDX 18 23 19 24 20 25 21 26 22 27 23 28 75 29 24 30 74 31 25 32
REMARK SMILES IDX 26 33 27 34 68 35 28 36 73 37 67 38 69 39 29 40 72 41 66 42
REMARK SMILES IDX 65 43 30 45 56 46 39 47 55 48 40 49 43 50 54 51 70 52 41 53
REMARK SMILES IDX 42 54 53 56 71 57 44 58 31 59 32 60 37 61 33 62 34 63 36 64
REMARK SMILES IDX 38 65 35 66 57 67 58 68 63 69 59 70 60 71 62 72 64 73 61 74
REMARK SMILES IDX 45 75 46 76 51 77 47 78 48 79 50 80 52 81 49 82
REMARK H PARENT 69 44 43 55
REMARK Flexibility Score: inf
ROOT
ATOM      1  C   UNL A   1      32.028  30.291  26.810  1.00  0.00     0.275 C 
ENDROOT
BRANCH   1   2
ATOM      2  O   UNL A   1      31.543  29.136  26.093  1.00  0.00    -0.458 OA
BRANCH   2   3
ATOM      3  C   UNL A   1      31.424  27.990  26.807  1.00  0.00     0.338 C 
ATOM      4  O   UNL A   1      31.383  27.888  28.020  1.00  0.00    -0.246 OA
BRANCH   3   5
ATOM      5  C   UNL A   1      31.222  26.833  25.895  1.00  0.00     0.061 A 
ATOM      6  C   UNL A   1      31.227  24.421  25.597  1.00  0.00     0.119 A 
ATOM      7  C   UNL A   1      31.519  25.547  26.374  1.00  0.00     0.040 A 
ATOM      8  C   UNL A   1      30.707  24.582  24.321  1.00  0.00     0.143 A 
ATOM      9  C   UNL A   1      30.482  25.859  23.807  1.00  0.00     0.041 A 
ATOM     10  F   UNL A   1      30.448  23.529  23.534  1.00  0.00    -0.206 F 
ATOM     11  C   UNL A   1      30.719  26.987  24.599  1.00  0.00     0.019 A 
BRANCH   6  12
ATOM     12  S   UNL A   1      31.332  22.819  26.332  1.00  0.00     0.246 S 
ATOM     13  O   UNL A   1      30.075  22.122  26.126  1.00  0.00    -0.207 OA
ATOM     14  O   UNL A   1      31.841  23.005  27.671  1.00  0.00    -0.207 OA
BRANCH  12  15
ATOM     15  N   UNL A   1      32.552  21.996  25.429  1.00  0.00    -0.197 NA
ATOM     16  C   UNL A   1      34.987  21.341  25.394  1.00  0.00     0.004 C 
ATOM     17  C   UNL A   1      34.570  19.949  24.895  1.00  0.00     0.006 C 
ATOM     18  C   UNL A   1      33.840  21.971  26.201  1.00  0.00     0.106 C 
ATOM     19  C   UNL A   1      33.242  19.991  24.148  1.00  0.00     0.017 C 
ATOM     20  C   UNL A   1      32.152  20.624  25.003  1.00  0.00     0.102 C 
BRANCH  16  21
ATOM     21  C   UNL A   1      35.469  22.274  24.264  1.00  0.00     0.001 C 
ATOM     22  C   UNL A   1      35.645  23.714  24.731  1.00  0.00     0.004 C 
ENDBRANCH  16  21
ENDBRANCH  12  15
ENDBRANCH   6  12
ENDBRANCH   3   5
ENDBRANCH   2   3
ENDBRANCH   1   2
BRANCH   1  23
ATOM     23  C   UNL A   1      33.553  30.392  26.738  1.00  0.00     0.275 C 
BRANCH  23  24
ATOM     24  O   UNL A   1      34.162  29.839  27.920  1.00  0.00    -0.458 OA
BRANCH  24  25
ATOM     25  C   UNL A   1      35.083  30.630  28.514  1.00  0.00     0.338 C 
ATOM     26  O   UNL A   1      34.899  31.695  29.079  1.00  0.00    -0.246 OA
BRANCH  25  27
ATOM     27  C   UNL A   1      36.394  29.973  28.480  1.00  0.00     0.060 A 
ATOM     28  C   UNL A   1      36.853  29.377  29.649  1.00  0.00     0.016 A 
ATOM     29  C   UNL A   1      37.231  30.078  27.371  1.00  0.00     0.016 A 
ATOM     30  C   UNL A   1      38.175  28.964  29.757  1.00  0.00     0.010 A 
ATOM     31  C   UNL A   1      38.535  29.573  27.450  1.00  0.00     0.010 A 
ATOM     32  C   UNL A   1      39.033  29.037  28.654  1.00  0.00    -0.014 A 
BRANCH  32  33
ATOM     33  C   UNL A   1      40.448  28.582  28.762  1.00  0.00     0.031 A 
ATOM     34  C   UNL A   1      41.515  29.545  29.207  1.00  0.00     0.074 A 
ATOM     35  C   UNL A   1      40.785  27.310  28.466  1.00  0.00     0.049 A 
ATOM     36  N   UNL A   1      42.817  29.434  29.125  1.00  0.00    -0.248 NA
ATOM     37  C   UNL A   1      41.061  30.807  29.811  1.00  0.00     0.031 C 
ATOM     38  C   UNL A   1      39.848  26.245  28.101  1.00  0.00     0.029 A 
ATOM     39  N   UNL A   1      42.014  26.695  28.417  1.00  0.00    -0.354 N 
ATOM     40  C   UNL A   1      43.332  30.627  29.617  1.00  0.00     0.074 A 
ATOM     41  C   UNL A   1      42.205  31.452  29.993  1.00  0.00     0.031 C 
ATOM     42  C   UNL A   1      40.528  25.109  27.890  1.00  0.00     0.029 A 
ATOM     43  C   UNL A   1      41.956  25.386  27.998  1.00  0.00     0.049 A 
ATOM     44  H   UNL A   1      42.854  27.147  28.659  1.00  0.00     0.167 HD
ATOM     45  C   UNL A   1      44.630  30.992  29.741  1.00  0.00     0.037 A 
ATOM     46  C   UNL A   1      42.935  24.519  27.675  1.00  0.00     0.037 A 
ATOM     47  C   UNL A   1      45.743  30.137  29.424  1.00  0.00     0.049 A 
ATOM     48  C   UNL A   1      44.366  24.971  27.750  1.00  0.00     0.074 A 
ATOM     49  C   UNL A   1      47.095  30.413  29.523  1.00  0.00     0.029 A 
ATOM     50  N   UNL A   1      45.632  28.832  28.966  1.00  0.00    -0.354 N 
ATOM     51  N   UNL A   1      44.843  26.127  28.143  1.00  0.00    -0.248 NA
ATOM     52  C   UNL A   1      45.393  24.014  27.315  1.00  0.00     0.031 C 
ATOM     53  C   UNL A   1      47.803  29.293  29.085  1.00  0.00     0.029 A 
ATOM     54  C   UNL A   1      46.894  28.299  28.762  1.00  0.00     0.049 A 
ATOM     55  H   UNL A   1      44.784  28.357  28.810  1.00  0.00     0.167 HD
ATOM     56  C   UNL A   1      46.223  26.030  28.021  1.00  0.00     0.074 A 
ATOM     57  C   UNL A   1      46.508  24.700  27.526  1.00  0.00     0.031 C 
ATOM     58  C   UNL A   1      47.163  26.965  28.292  1.00  0.00     0.037 A 
BRANCH  45  59
ATOM     59  C   UNL A   1      44.938  32.381  30.220  1.00  0.00     0.057 A 
ATOM     60  C   UNL A   1      45.094  33.427  29.300  1.00  0.00     0.134 A 
ATOM     61  C   UNL A   1      45.187  32.665  31.568  1.00  0.00     0.134 A 
ATOM     62  F   UNL A   1      44.884  33.220  27.992  1.00  0.00    -0.206 F 
ATOM     63  C   UNL A   1      45.509  34.699  29.701  1.00  0.00     0.040 A 
ATOM     64  C   UNL A   1      45.577  33.939  31.984  1.00  0.00     0.040 A 
ATOM     65  F   UNL A   1      45.049  31.711  32.501  1.00  0.00    -0.206 F 
ATOM     66  C   UNL A   1      45.752  34.957  31.048  1.00  0.00     0.006 A 
ENDBRANCH  45  59
BRANCH  46  67
ATOM     67  C   UNL A   1      42.583  23.157  27.196  1.00  0.00     0.057 A 
ATOM     68  C   UNL A   1      42.276  22.124  28.092  1.00  0.00     0.134 A 
ATOM     69  C   UNL A   1      42.573  22.848  25.832  1.00  0.00     0.134 A 
ATOM     70  F   UNL A   1      42.266  22.353  29.414  1.00  0.00    -0.206 F 
ATOM     71  C   UNL A   1      42.007  20.827  27.652  1.00  0.00     0.040 A 
ATOM     72  C   UNL A   1      42.275  21.562  25.375  1.00  0.00     0.040 A 
ATOM     73  F   UNL A   1      42.833  23.798  24.922  1.00  0.00    -0.206 F 
ATOM     74  C   UNL A   1      42.002  20.544  26.289  1.00  0.00     0.006 A 
ENDBRANCH  46  67
BRANCH  58  75
ATOM     75  C   UNL A   1      48.602  26.588  28.104  1.00  0.00     0.057 A 
ATOM     76  C   UNL A   1      49.228  26.785  26.867  1.00  0.00     0.134 A 
ATOM     77  C   UNL A   1      49.322  25.923  29.100  1.00  0.00     0.134 A 
ATOM     78  F   UNL A   1      48.584  27.408  25.867  1.00  0.00    -0.206 F 
ATOM     79  C   UNL A   1      50.514  26.306  26.618  1.00  0.00     0.040 A 
ATOM     80  C   UNL A   1      50.619  25.459  28.871  1.00  0.00     0.040 A 
ATOM     81  F   UNL A   1      48.780  25.714  30.309  1.00  0.00    -0.206 F 
ATOM     82  C   UNL A   1      51.211  25.636  27.622  1.00  0.00     0.006 A 
ENDBRANCH  58  75
ENDBRANCH  32  33
ENDBRANCH  25  27
ENDBRANCH  24  25
ENDBRANCH  23  24
ENDBRANCH   1  23
TORSDOF 14
ENDMDL
