MODEL 1
REMARK VINA RESULT:     -11.9      0.000      0.000
REMARK SMILES CCC[C@@H]1CCc2nc3c(F)cccc3c(C(=O)OCCOC(=O)c3ccc(-c4c5nc(c(-c6c(F)cccc6F)c6ccc([nH]6)c(-c6c(F)cccc6F)c6nc(c(-c7c(F)cccc7F)c7ccc4[nH]7)C=C6)C=C5)cc3)c2C1
REMARK SMILES IDX 20 1 19 2 17 3 18 4 16 5 4 6 5 7 80 8 6 9 79 10 7 11 8 12
REMARK SMILES IDX 15 13 9 14 14 15 10 16 13 17 11 18 12 19 3 20 2 21 1 22
REMARK SMILES IDX 21 23 22 24 23 25 24 26 25 27 26 28 78 29 27 30 77 31 28 32
REMARK SMILES IDX 29 33 30 34 71 35 31 36 76 37 70 38 72 39 32 40 75 41 69 42
REMARK SMILES IDX 68 43 33 45 59 46 42 47 58 48 43 49 46 50 57 51 73 52 44 53
REMARK SMILES IDX 45 54 56 56 74 57 47 58 34 59 35 60 40 61 36 62 37 63 39 64
REMARK SMILES IDX 41 65 38 66 60 67 61 68 66 69 62 70 63 71 65 72 67 73 64 74
REMARK SMILES IDX 48 75 49 76 54 77 50 78 51 79 53 80 55 81 52 82
REMARK H PARENT 72 44 46 55
REMARK Flexibility Score: inf
ROOT
ATOM      1  C   UNL A   1      38.178  22.810  26.112  1.00  0.00     0.275 C 
ENDROOT
BRANCH   1   2
ATOM      2  O   UNL A   1      37.137  21.821  25.930  1.00  0.00    -0.458 OA
BRANCH   2   3
ATOM      3  C   UNL A   1      36.463  21.854  24.753  1.00  0.00     0.339 C 
ATOM      4  O   UNL A   1      36.937  22.171  23.672  1.00  0.00    -0.246 OA
BRANCH   3   5
ATOM      5  C   UNL A   1      35.042  21.411  24.914  1.00  0.00     0.074 A 
ATOM      6  C   UNL A   1      33.265  24.593  24.774  1.00  0.00    -0.006 C 
ATOM      7  C   UNL A   1      32.036  24.456  25.671  1.00  0.00     0.010 C 
ATOM      8  C   UNL A   1      34.388  23.814  25.444  1.00  0.00     0.042 C 
ATOM      9  C   UNL A   1      31.602  22.967  25.602  1.00  0.00     0.057 C 
ATOM     10  C   UNL A   1      34.070  22.363  25.270  1.00  0.00    -0.011 A 
ATOM     11  C   UNL A   1      32.739  21.960  25.428  1.00  0.00     0.045 A 
ATOM     12  N   UNL A   1      32.379  20.670  25.300  1.00  0.00    -0.249 NA
ATOM     13  C   UNL A   1      34.676  20.054  24.797  1.00  0.00     0.018 A 
ATOM     14  C   UNL A   1      33.316  19.736  25.024  1.00  0.00     0.107 A 
ATOM     15  C   UNL A   1      35.587  19.002  24.518  1.00  0.00     0.011 A 
ATOM     16  C   UNL A   1      32.946  18.395  24.982  1.00  0.00     0.149 A 
ATOM     17  C   UNL A   1      35.181  17.673  24.485  1.00  0.00     0.004 A 
ATOM     18  F   UNL A   1      31.669  18.047  25.217  1.00  0.00    -0.205 F 
ATOM     19  C   UNL A   1      33.853  17.368  24.730  1.00  0.00     0.041 A 
BRANCH   6  20
ATOM     20  C   UNL A   1      33.758  25.971  24.334  1.00  0.00     0.003 C 
BRANCH  20  21
ATOM     21  C   UNL A   1      33.001  26.551  22.814  1.00  0.00    -0.003 C 
ATOM     22  C   UNL A   1      32.612  25.626  20.876  1.00  0.00     0.004 C 
ENDBRANCH  20  21
ENDBRANCH   6  20
ENDBRANCH   3   5
ENDBRANCH   2   3
ENDBRANCH   1   2
BRANCH   1  23
ATOM     23  C   UNL A   1      39.519  22.150  26.442  1.00  0.00     0.275 C 
BRANCH  23  24
ATOM     24  O   UNL A   1      40.497  23.160  26.741  1.00  0.00    -0.458 OA
BRANCH  24  25
ATOM     25  C   UNL A   1      41.757  22.680  26.776  1.00  0.00     0.338 C 
ATOM     26  O   UNL A   1      42.127  21.529  26.621  1.00  0.00    -0.246 OA
BRANCH  25  27
ATOM     27  C   UNL A   1      42.702  23.784  26.872  1.00  0.00     0.060 A 
ATOM     28  C   UNL A   1      43.215  24.501  25.308  1.00  0.00     0.016 A 
ATOM     29  C   UNL A   1      43.351  24.424  28.424  1.00  0.00     0.016 A 
ATOM     30  C   UNL A   1      44.477  25.796  25.289  1.00  0.00     0.010 A 
ATOM     31  C   UNL A   1      44.625  25.705  28.413  1.00  0.00     0.010 A 
ATOM     32  C   UNL A   1      45.145  26.453  26.851  1.00  0.00    -0.014 A 
BRANCH  32  33
ATOM     33  C   UNL A   1      46.083  27.591  26.816  1.00  0.00     0.031 A 
ATOM     34  C   UNL A   1      47.541  27.315  26.613  1.00  0.00     0.074 A 
ATOM     35  C   UNL A   1      45.590  28.846  26.808  1.00  0.00     0.049 A 
ATOM     36  N   UNL A   1      48.519  28.156  26.409  1.00  0.00    -0.248 NA
ATOM     37  C   UNL A   1      47.960  25.904  26.601  1.00  0.00     0.031 C 
ATOM     38  C   UNL A   1      44.171  29.212  26.850  1.00  0.00     0.029 A 
ATOM     39  N   UNL A   1      46.223  30.057  26.706  1.00  0.00    -0.354 N 
ATOM     40  C   UNL A   1      49.649  27.373  26.210  1.00  0.00     0.074 A 
ATOM     41  C   UNL A   1      49.239  25.993  26.291  1.00  0.00     0.031 C 
ATOM     42  C   UNL A   1      44.039  30.542  26.746  1.00  0.00     0.029 A 
ATOM     43  C   UNL A   1      45.363  31.134  26.708  1.00  0.00     0.049 A 
ATOM     44  H   UNL A   1      47.201  30.150  26.638  1.00  0.00     0.167 HD
ATOM     45  C   UNL A   1      50.929  27.768  26.033  1.00  0.00     0.037 A 
ATOM     46  C   UNL A   1      45.622  32.454  26.718  1.00  0.00     0.037 A 
ATOM     47  C   UNL A   1      51.331  29.141  26.131  1.00  0.00     0.049 A 
ATOM     48  C   UNL A   1      47.068  32.857  26.718  1.00  0.00     0.074 A 
ATOM     49  C   UNL A   1      52.603  29.675  26.140  1.00  0.00     0.029 A 
ATOM     50  N   UNL A   1      50.442  30.198  26.294  1.00  0.00    -0.354 N 
ATOM     51  N   UNL A   1      48.135  32.104  26.586  1.00  0.00    -0.248 NA
ATOM     52  C   UNL A   1      47.351  34.284  26.897  1.00  0.00     0.031 C 
ATOM     53  C   UNL A   1      52.485  31.049  26.379  1.00  0.00     0.029 A 
ATOM     54  C   UNL A   1      51.139  31.382  26.434  1.00  0.00     0.049 A 
ATOM     55  H   UNL A   1      49.462  30.114  26.308  1.00  0.00     0.167 HD
ATOM     56  C   UNL A   1      49.218  32.965  26.649  1.00  0.00     0.074 A 
ATOM     57  C   UNL A   1      48.672  34.301  26.802  1.00  0.00     0.031 C 
ATOM     58  C   UNL A   1      50.545  32.686  26.593  1.00  0.00     0.037 A 
BRANCH  45  59
ATOM     59  C   UNL A   1      51.943  26.671  25.890  1.00  0.00     0.057 A 
ATOM     60  C   UNL A   1      52.332  26.230  24.620  1.00  0.00     0.134 A 
ATOM     61  C   UNL A   1      52.642  26.159  26.993  1.00  0.00     0.134 A 
ATOM     62  F   UNL A   1      51.721  26.695  23.520  1.00  0.00    -0.206 F 
ATOM     63  C   UNL A   1      53.392  25.339  24.449  1.00  0.00     0.040 A 
ATOM     64  C   UNL A   1      53.724  25.289  26.833  1.00  0.00     0.040 A 
ATOM     65  F   UNL A   1      52.351  26.576  28.236  1.00  0.00    -0.206 F 
ATOM     66  C   UNL A   1      54.103  24.880  25.556  1.00  0.00     0.006 A 
ENDBRANCH  45  59
BRANCH  46  67
ATOM     67  C   UNL A   1      44.530  33.464  26.811  1.00  0.00     0.057 A 
ATOM     68  C   UNL A   1      44.079  33.944  28.050  1.00  0.00     0.134 A 
ATOM     69  C   UNL A   1      43.949  34.022  25.666  1.00  0.00     0.134 A 
ATOM     70  F   UNL A   1      44.587  33.458  29.192  1.00  0.00    -0.206 F 
ATOM     71  C   UNL A   1      43.099  34.935  28.146  1.00  0.00     0.040 A 
ATOM     72  C   UNL A   1      42.991  35.039  25.747  1.00  0.00     0.040 A 
ATOM     73  F   UNL A   1      44.340  33.624  24.447  1.00  0.00    -0.206 F 
ATOM     74  C   UNL A   1      42.563  35.497  26.991  1.00  0.00     0.006 A 
ENDBRANCH  46  67
BRANCH  58  75
ATOM     75  C   UNL A   1      51.474  33.857  26.658  1.00  0.00     0.057 A 
ATOM     76  C   UNL A   1      51.863  34.508  25.482  1.00  0.00     0.134 A 
ATOM     77  C   UNL A   1      52.003  34.321  27.869  1.00  0.00     0.134 A 
ATOM     78  F   UNL A   1      51.398  34.100  24.291  1.00  0.00    -0.206 F 
ATOM     79  C   UNL A   1      52.752  35.579  25.506  1.00  0.00     0.040 A 
ATOM     80  C   UNL A   1      52.862  35.417  27.908  1.00  0.00     0.040 A 
ATOM     81  F   UNL A   1      51.655  33.746  29.030  1.00  0.00    -0.206 F 
ATOM     82  C   UNL A   1      53.245  36.044  26.724  1.00  0.00     0.006 A 
ENDBRANCH  58  75
ENDBRANCH  32  33
ENDBRANCH  25  27
ENDBRANCH  24  25
ENDBRANCH  23  24
ENDBRANCH   1  23
TORSDOF 13
ENDMDL
MODEL 2
REMARK VINA RESULT:     -11.8      3.820      8.561
REMARK SMILES CCC[C@@H]1CCc2nc3c(F)cccc3c(C(=O)OCCOC(=O)c3ccc(-c4c5nc(c(-c6c(F)cccc6F)c6ccc([nH]6)c(-c6c(F)cccc6F)c6nc(c(-c7c(F)cccc7F)c7ccc4[nH]7)C=C6)C=C5)cc3)c2C1
REMARK SMILES IDX 20 1 19 2 17 3 18 4 16 5 4 6 5 7 80 8 6 9 79 10 7 11 8 12
REMARK SMILES IDX 15 13 9 14 14 15 10 16 13 17 11 18 12 19 3 20 2 21 1 22
REMARK SMILES IDX 21 23 22 24 23 25 24 26 25 27 26 28 78 29 27 30 77 31 28 32
REMARK SMILES IDX 29 33 30 34 71 35 31 36 76 37 70 38 72 39 32 40 75 41 69 42
REMARK SMILES IDX 68 43 33 45 59 46 42 47 58 48 43 49 46 50 57 51 73 52 44 53
REMARK SMILES IDX 45 54 56 56 74 57 47 58 34 59 35 60 40 61 36 62 37 63 39 64
REMARK SMILES IDX 41 65 38 66 60 67 61 68 66 69 62 70 63 71 65 72 67 73 64 74
REMARK SMILES IDX 48 75 49 76 54 77 50 78 51 79 53 80 55 81 52 82
REMARK H PARENT 72 44 46 55
REMARK Flexibility Score: inf
ROOT
ATOM      1  C   UNL A   1      42.841  20.375  25.910  1.00  0.00     0.275 C 
ENDROOT
BRANCH   1   2
ATOM      2  O   UNL A   1      41.463  20.648  25.560  1.00  0.00    -0.458 OA
BRANCH   2   3
ATOM      3  C   UNL A   1      40.582  20.749  26.587  1.00  0.00     0.339 C 
ATOM      4  O   UNL A   1      40.398  19.904  27.450  1.00  0.00    -0.246 OA
BRANCH   3   5
ATOM      5  C   UNL A   1      39.861  22.061  26.573  1.00  0.00     0.074 A 
ATOM      6  C   UNL A   1      36.623  21.101  25.198  1.00  0.00    -0.006 C 
ATOM      7  C   UNL A   1      36.107  22.296  24.399  1.00  0.00     0.010 C 
ATOM      8  C   UNL A   1      38.131  21.056  24.998  1.00  0.00     0.042 C 
ATOM      9  C   UNL A   1      36.652  23.567  25.103  1.00  0.00     0.057 C 
ATOM     10  C   UNL A   1      38.703  22.191  25.785  1.00  0.00    -0.011 A 
ATOM     11  C   UNL A   1      38.024  23.415  25.761  1.00  0.00     0.045 A 
ATOM     12  N   UNL A   1      38.485  24.486  26.433  1.00  0.00    -0.249 NA
ATOM     13  C   UNL A   1      40.362  23.184  27.264  1.00  0.00     0.018 A 
ATOM     14  C   UNL A   1      39.633  24.390  27.139  1.00  0.00     0.107 A 
ATOM     15  C   UNL A   1      41.560  23.184  28.026  1.00  0.00     0.011 A 
ATOM     16  C   UNL A   1      40.147  25.527  27.756  1.00  0.00     0.149 A 
ATOM     17  C   UNL A   1      42.043  24.340  28.627  1.00  0.00     0.004 A 
ATOM     18  F   UNL A   1      39.500  26.700  27.641  1.00  0.00    -0.205 F 
ATOM     19  C   UNL A   1      41.337  25.521  28.482  1.00  0.00     0.041 A 
BRANCH   6  20
ATOM     20  C   UNL A   1      36.015  19.712  25.001  1.00  0.00     0.003 C 
BRANCH  20  21
ATOM     21  C   UNL A   1      34.221  19.709  24.998  1.00  0.00    -0.003 C 
ATOM     22  C   UNL A   1      32.714  20.902  23.964  1.00  0.00     0.004 C 
ENDBRANCH  20  21
ENDBRANCH   6  20
ENDBRANCH   3   5
ENDBRANCH   2   3
ENDBRANCH   1   2
BRANCH   1  23
ATOM     23  C   UNL A   1      43.772  21.482  25.409  1.00  0.00     0.275 C 
BRANCH  23  24
ATOM     24  O   UNL A   1      44.243  22.261  26.520  1.00  0.00    -0.458 OA
BRANCH  24  25
ATOM     25  C   UNL A   1      45.372  22.945  26.245  1.00  0.00     0.338 C 
ATOM     26  O   UNL A   1      46.403  22.524  25.747  1.00  0.00    -0.246 OA
BRANCH  25  27
ATOM     27  C   UNL A   1      45.158  24.366  26.481  1.00  0.00     0.060 A 
ATOM     28  C   UNL A   1      45.704  24.974  28.079  1.00  0.00     0.016 A 
ATOM     29  C   UNL A   1      44.396  25.482  25.293  1.00  0.00     0.016 A 
ATOM     30  C   UNL A   1      45.383  26.693  28.539  1.00  0.00     0.010 A 
ATOM     31  C   UNL A   1      44.056  27.197  25.751  1.00  0.00     0.010 A 
ATOM     32  C   UNL A   1      44.611  27.835  27.349  1.00  0.00    -0.014 A 
BRANCH  32  33
ATOM     33  C   UNL A   1      44.468  29.261  27.701  1.00  0.00     0.031 A 
ATOM     34  C   UNL A   1      43.244  29.699  28.444  1.00  0.00     0.074 A 
ATOM     35  C   UNL A   1      45.505  30.096  27.486  1.00  0.00     0.049 A 
ATOM     36  N   UNL A   1      42.974  30.860  28.977  1.00  0.00    -0.248 NA
ATOM     37  C   UNL A   1      42.192  28.691  28.654  1.00  0.00     0.031 C 
ATOM     38  C   UNL A   1      46.799  29.726  26.903  1.00  0.00     0.029 A 
ATOM     39  N   UNL A   1      45.663  31.424  27.783  1.00  0.00    -0.354 N 
ATOM     40  C   UNL A   1      41.746  30.704  29.608  1.00  0.00     0.074 A 
ATOM     41  C   UNL A   1      41.333  29.337  29.420  1.00  0.00     0.031 C 
ATOM     42  C   UNL A   1      47.622  30.784  26.912  1.00  0.00     0.029 A 
ATOM     43  C   UNL A   1      46.895  31.929  27.427  1.00  0.00     0.049 A 
ATOM     44  H   UNL A   1      44.962  31.967  28.210  1.00  0.00     0.167 HD
ATOM     45  C   UNL A   1      41.000  31.636  30.241  1.00  0.00     0.037 A 
ATOM     46  C   UNL A   1      47.366  33.188  27.477  1.00  0.00     0.037 A 
ATOM     47  C   UNL A   1      41.356  33.025  30.261  1.00  0.00     0.049 A 
ATOM     48  C   UNL A   1      46.433  34.237  28.008  1.00  0.00     0.074 A 
ATOM     49  C   UNL A   1      40.624  34.102  30.715  1.00  0.00     0.029 A 
ATOM     50  N   UNL A   1      42.546  33.526  29.746  1.00  0.00    -0.354 N 
ATOM     51  N   UNL A   1      45.248  34.087  28.553  1.00  0.00    -0.248 NA
ATOM     52  C   UNL A   1      46.883  35.628  27.907  1.00  0.00     0.031 C 
ATOM     53  C   UNL A   1      41.343  35.263  30.411  1.00  0.00     0.029 A 
ATOM     54  C   UNL A   1      42.558  34.903  29.844  1.00  0.00     0.049 A 
ATOM     55  H   UNL A   1      43.272  32.980  29.368  1.00  0.00     0.167 HD
ATOM     56  C   UNL A   1      44.815  35.362  28.877  1.00  0.00     0.074 A 
ATOM     57  C   UNL A   1      45.882  36.269  28.491  1.00  0.00     0.031 C 
ATOM     58  C   UNL A   1      43.644  35.759  29.435  1.00  0.00     0.037 A 
BRANCH  45  59
ATOM     59  C   UNL A   1      39.683  31.164  30.787  1.00  0.00     0.057 A 
ATOM     60  C   UNL A   1      39.569  30.791  32.131  1.00  0.00     0.134 A 
ATOM     61  C   UNL A   1      38.503  31.223  30.031  1.00  0.00     0.134 A 
ATOM     62  F   UNL A   1      40.653  30.734  32.918  1.00  0.00    -0.206 F 
ATOM     63  C   UNL A   1      38.329  30.515  32.710  1.00  0.00     0.040 A 
ATOM     64  C   UNL A   1      37.254  30.978  30.606  1.00  0.00     0.040 A 
ATOM     65  F   UNL A   1      38.537  31.619  28.748  1.00  0.00    -0.206 F 
ATOM     66  C   UNL A   1      37.166  30.625  31.951  1.00  0.00     0.006 A 
ENDBRANCH  45  59
BRANCH  46  67
ATOM     67  C   UNL A   1      48.716  33.538  26.951  1.00  0.00     0.057 A 
ATOM     68  C   UNL A   1      48.874  34.241  25.747  1.00  0.00     0.134 A 
ATOM     69  C   UNL A   1      49.882  33.236  27.665  1.00  0.00     0.134 A 
ATOM     70  F   UNL A   1      47.805  34.566  25.005  1.00  0.00    -0.206 F 
ATOM     71  C   UNL A   1      50.131  34.627  25.276  1.00  0.00     0.040 A 
ATOM     72  C   UNL A   1      51.144  33.646  27.223  1.00  0.00     0.040 A 
ATOM     73  F   UNL A   1      49.808  32.580  28.832  1.00  0.00    -0.206 F 
ATOM     74  C   UNL A   1      51.271  34.343  26.023  1.00  0.00     0.006 A 
ENDBRANCH  46  67
BRANCH  58  75
ATOM     75  C   UNL A   1      43.491  37.225  29.690  1.00  0.00     0.057 A 
ATOM     76  C   UNL A   1      43.934  37.775  30.899  1.00  0.00     0.134 A 
ATOM     77  C   UNL A   1      42.888  38.083  28.763  1.00  0.00     0.134 A 
ATOM     78  F   UNL A   1      44.509  37.001  31.830  1.00  0.00    -0.206 F 
ATOM     79  C   UNL A   1      43.776  39.130  31.179  1.00  0.00     0.040 A 
ATOM     80  C   UNL A   1      42.761  39.447  29.016  1.00  0.00     0.040 A 
ATOM     81  F   UNL A   1      42.457  37.615  27.580  1.00  0.00    -0.206 F 
ATOM     82  C   UNL A   1      43.198  39.972  30.231  1.00  0.00     0.006 A 
ENDBRANCH  58  75
ENDBRANCH  32  33
ENDBRANCH  25  27
ENDBRANCH  24  25
ENDBRANCH  23  24
ENDBRANCH   1  23
TORSDOF 13
ENDMDL
MODEL 3
REMARK VINA RESULT:     -11.8      9.185     14.981
REMARK SMILES CCC[C@@H]1CCc2nc3c(F)cccc3c(C(=O)OCCOC(=O)c3ccc(-c4c5nc(c(-c6c(F)cccc6F)c6ccc([nH]6)c(-c6c(F)cccc6F)c6nc(c(-c7c(F)cccc7F)c7ccc4[nH]7)C=C6)C=C5)cc3)c2C1
REMARK SMILES IDX 20 1 19 2 17 3 18 4 16 5 4 6 5 7 80 8 6 9 79 10 7 11 8 12
REMARK SMILES IDX 15 13 9 14 14 15 10 16 13 17 11 18 12 19 3 20 2 21 1 22
REMARK SMILES IDX 21 23 22 24 23 25 24 26 25 27 26 28 78 29 27 30 77 31 28 32
REMARK SMILES IDX 29 33 30 34 71 35 31 36 76 37 70 38 72 39 32 40 75 41 69 42
REMARK SMILES IDX 68 43 33 45 59 46 42 47 58 48 43 49 46 50 57 51 73 52 44 53
REMARK SMILES IDX 45 54 56 56 74 57 47 58 34 59 35 60 40 61 36 62 37 63 39 64
REMARK SMILES IDX 41 65 38 66 60 67 61 68 66 69 62 70 63 71 65 72 67 73 64 74
REMARK SMILES IDX 48 75 49 76 54 77 50 78 51 79 53 80 55 81 52 82
REMARK H PARENT 72 44 46 55
REMARK Flexibility Score: inf
ROOT
ATOM      1  C   UNL A   1      48.198  23.227  39.502  1.00  0.00     0.275 C 
ENDROOT
BRANCH   1   2
ATOM      2  O   UNL A   1      48.045  21.888  40.029  1.00  0.00    -0.458 OA
BRANCH   2   3
ATOM      3  C   UNL A   1      48.576  20.878  39.293  1.00  0.00     0.339 C 
ATOM      4  O   UNL A   1      49.750  20.774  38.974  1.00  0.00    -0.246 OA
BRANCH   3   5
ATOM      5  C   UNL A   1      47.545  19.854  38.933  1.00  0.00     0.074 A 
ATOM      6  C   UNL A   1      47.231  20.368  35.336  1.00  0.00    -0.006 C 
ATOM      7  C   UNL A   1      45.784  20.050  34.966  1.00  0.00     0.010 C 
ATOM      8  C   UNL A   1      47.199  21.035  36.704  1.00  0.00     0.042 C 
ATOM      9  C   UNL A   1      45.308  18.947  35.949  1.00  0.00     0.057 C 
ATOM     10  C   UNL A   1      46.881  19.964  37.698  1.00  0.00    -0.011 A 
ATOM     11  C   UNL A   1      45.912  19.015  37.352  1.00  0.00     0.045 A 
ATOM     12  N   UNL A   1      45.564  18.029  38.200  1.00  0.00    -0.249 NA
ATOM     13  C   UNL A   1      47.171  18.836  39.835  1.00  0.00     0.018 A 
ATOM     14  C   UNL A   1      46.147  17.954  39.416  1.00  0.00     0.107 A 
ATOM     15  C   UNL A   1      47.721  18.680  41.135  1.00  0.00     0.011 A 
ATOM     16  C   UNL A   1      45.715  16.985  40.318  1.00  0.00     0.149 A 
ATOM     17  C   UNL A   1      47.262  17.700  42.008  1.00  0.00     0.004 A 
ATOM     18  F   UNL A   1      44.726  16.143  39.969  1.00  0.00    -0.205 F 
ATOM     19  C   UNL A   1      46.245  16.855  41.600  1.00  0.00     0.041 A 
BRANCH   6  20
ATOM     20  C   UNL A   1      48.125  21.155  34.377  1.00  0.00     0.003 C 
BRANCH  20  21
ATOM     21  C   UNL A   1      49.554  20.232  33.810  1.00  0.00    -0.003 C 
ATOM     22  C   UNL A   1      51.400  19.571  34.770  1.00  0.00     0.004 C 
ENDBRANCH  20  21
ENDBRANCH   6  20
ENDBRANCH   3   5
ENDBRANCH   2   3
ENDBRANCH   1   2
BRANCH   1  23
ATOM     23  C   UNL A   1      46.868  23.774  38.978  1.00  0.00     0.275 C 
BRANCH  23  24
ATOM     24  O   UNL A   1      47.070  25.074  38.400  1.00  0.00    -0.458 OA
BRANCH  24  25
ATOM     25  C   UNL A   1      47.423  25.024  37.100  1.00  0.00     0.338 C 
ATOM     26  O   UNL A   1      48.326  24.383  36.591  1.00  0.00    -0.246 OA
BRANCH  25  27
ATOM     27  C   UNL A   1      46.448  25.749  36.296  1.00  0.00     0.060 A 
ATOM     28  C   UNL A   1      44.914  24.875  35.969  1.00  0.00     0.016 A 
ATOM     29  C   UNL A   1      46.710  27.405  35.643  1.00  0.00     0.016 A 
ATOM     30  C   UNL A   1      43.675  25.619  34.883  1.00  0.00     0.010 A 
ATOM     31  C   UNL A   1      45.485  28.149  34.542  1.00  0.00     0.010 A 
ATOM     32  C   UNL A   1      43.926  27.294  34.212  1.00  0.00    -0.014 A 
BRANCH  32  33
ATOM     33  C   UNL A   1      42.850  27.929  33.427  1.00  0.00     0.031 A 
ATOM     34  C   UNL A   1      41.968  28.936  34.099  1.00  0.00     0.074 A 
ATOM     35  C   UNL A   1      42.790  27.706  32.099  1.00  0.00     0.049 A 
ATOM     36  N   UNL A   1      41.061  29.717  33.577  1.00  0.00    -0.248 NA
ATOM     37  C   UNL A   1      42.149  29.124  35.548  1.00  0.00     0.031 C 
ATOM     38  C   UNL A   1      43.703  26.856  31.328  1.00  0.00     0.029 A 
ATOM     39  N   UNL A   1      41.956  28.219  31.141  1.00  0.00    -0.354 N 
ATOM     40  C   UNL A   1      40.598  30.502  34.624  1.00  0.00     0.074 A 
ATOM     41  C   UNL A   1      41.336  30.130  35.805  1.00  0.00     0.031 C 
ATOM     42  C   UNL A   1      43.400  26.927  30.025  1.00  0.00     0.029 A 
ATOM     43  C   UNL A   1      42.226  27.764  29.869  1.00  0.00     0.049 A 
ATOM     44  H   UNL A   1      41.230  28.853  31.343  1.00  0.00     0.167 HD
ATOM     45  C   UNL A   1      39.603  31.417  34.616  1.00  0.00     0.037 A 
ATOM     46  C   UNL A   1      41.571  27.973  28.713  1.00  0.00     0.037 A 
ATOM     47  C   UNL A   1      38.772  31.641  33.469  1.00  0.00     0.049 A 
ATOM     48  C   UNL A   1      40.348  28.842  28.778  1.00  0.00     0.074 A 
ATOM     49  C   UNL A   1      37.630  32.407  33.360  1.00  0.00     0.029 A 
ATOM     50  N   UNL A   1      38.981  31.038  32.233  1.00  0.00    -0.354 N 
ATOM     51  N   UNL A   1      39.884  29.539  29.789  1.00  0.00    -0.248 NA
ATOM     52  C   UNL A   1      39.542  28.933  27.557  1.00  0.00     0.031 C 
ATOM     53  C   UNL A   1      37.109  32.212  32.076  1.00  0.00     0.029 A 
ATOM     54  C   UNL A   1      37.970  31.392  31.361  1.00  0.00     0.049 A 
ATOM     55  H   UNL A   1      39.736  30.447  32.014  1.00  0.00     0.167 HD
ATOM     56  C   UNL A   1      38.740  30.167  29.325  1.00  0.00     0.074 A 
ATOM     57  C   UNL A   1      38.601  29.787  27.930  1.00  0.00     0.031 C 
ATOM     58  C   UNL A   1      37.874  30.977  29.983  1.00  0.00     0.037 A 
BRANCH  45  59
ATOM     59  C   UNL A   1      39.303  32.076  35.931  1.00  0.00     0.057 A 
ATOM     60  C   UNL A   1      39.855  33.325  36.237  1.00  0.00     0.134 A 
ATOM     61  C   UNL A   1      38.358  31.551  36.825  1.00  0.00     0.134 A 
ATOM     62  F   UNL A   1      40.748  33.896  35.416  1.00  0.00    -0.206 F 
ATOM     63  C   UNL A   1      39.461  34.040  37.369  1.00  0.00     0.040 A 
ATOM     64  C   UNL A   1      37.935  32.270  37.946  1.00  0.00     0.040 A 
ATOM     65  F   UNL A   1      37.757  30.379  36.568  1.00  0.00    -0.206 F 
ATOM     66  C   UNL A   1      38.486  33.520  38.218  1.00  0.00     0.006 A 
ENDBRANCH  45  59
BRANCH  46  67
ATOM     67  C   UNL A   1      41.987  27.305  27.447  1.00  0.00     0.057 A 
ATOM     68  C   UNL A   1      42.795  27.958  26.505  1.00  0.00     0.134 A 
ATOM     69  C   UNL A   1      41.641  25.976  27.172  1.00  0.00     0.134 A 
ATOM     70  F   UNL A   1      43.169  29.231  26.696  1.00  0.00    -0.206 F 
ATOM     71  C   UNL A   1      43.241  27.320  25.344  1.00  0.00     0.040 A 
ATOM     72  C   UNL A   1      42.107  25.315  26.031  1.00  0.00     0.040 A 
ATOM     73  F   UNL A   1      40.883  25.283  28.034  1.00  0.00    -0.206 F 
ATOM     74  C   UNL A   1      42.909  25.988  25.112  1.00  0.00     0.006 A 
ENDBRANCH  46  67
BRANCH  58  75
ATOM     75  C   UNL A   1      36.738  31.527  29.181  1.00  0.00     0.057 A 
ATOM     76  C   UNL A   1      35.640  30.715  28.875  1.00  0.00     0.134 A 
ATOM     77  C   UNL A   1      36.739  32.839  28.692  1.00  0.00     0.134 A 
ATOM     78  F   UNL A   1      35.589  29.446  29.306  1.00  0.00    -0.206 F 
ATOM     79  C   UNL A   1      34.582  31.187  28.103  1.00  0.00     0.040 A 
ATOM     80  C   UNL A   1      35.666  33.334  27.952  1.00  0.00     0.040 A 
ATOM     81  F   UNL A   1      37.757  33.669  28.966  1.00  0.00    -0.206 F 
ATOM     82  C   UNL A   1      34.588  32.504  27.648  1.00  0.00     0.006 A 
ENDBRANCH  58  75
ENDBRANCH  32  33
ENDBRANCH  25  27
ENDBRANCH  24  25
ENDBRANCH  23  24
ENDBRANCH   1  23
TORSDOF 13
ENDMDL
