MODEL 1
REMARK VINA RESULT:     -11.1      0.000      0.000
REMARK SMILES O=C(OCCOC(=O)[C@]1([NH2+]C2CC2)CCC[C@H](SC2CCCCC2)C1)c1ccc(-c2c3nc(c(-c4c(F)cccc4F)c4ccc([nH]4)c(-c4c(F)cccc4F)c4nc(c(-c5c(F)cccc5F)c5ccc2[nH]5)C=C4)C=C3)cc1
REMARK SMILES IDX 4 1 3 2 2 3 1 4 26 5 27 6 79 7 28 8 78 9 29 10 30 11 31 12
REMARK SMILES IDX 72 13 32 14 77 15 71 16 73 17 33 18 76 19 70 20 69 21 34 23
REMARK SMILES IDX 60 24 43 25 59 26 44 27 47 28 58 29 74 30 45 31 46 32 57 34
REMARK SMILES IDX 75 35 48 36 35 37 36 38 41 39 37 40 38 41 40 42 42 43 39 44
REMARK SMILES IDX 61 45 62 46 67 47 63 48 64 49 66 50 68 51 65 52 49 53 50 54
REMARK SMILES IDX 55 55 51 56 52 57 54 58 56 59 53 60 5 61 6 62 7 63 8 64 9 65
REMARK SMILES IDX 14 66 25 67 15 68 17 69 16 70 10 71 11 74 12 75 13 76 18 77
REMARK SMILES IDX 19 78 20 79 24 80 21 81 23 82 22 83
REMARK H PARENT 73 22 47 33 10 72 10 73
REMARK Flexibility Score: inf
ROOT
ATOM      1  C   UNL A   1      33.398  30.184  26.751  1.00  0.00     0.275 C 
ENDROOT
BRANCH   1   2
ATOM      2  O   UNL A   1      33.654  31.182  27.742  1.00  0.00    -0.458 OA
BRANCH   2   3
ATOM      3  C   UNL A   1      34.888  31.689  27.962  1.00  0.00     0.338 C 
ATOM      4  O   UNL A   1      35.194  32.833  27.635  1.00  0.00    -0.246 OA
BRANCH   3   5
ATOM      5  C   UNL A   1      35.944  30.776  28.433  1.00  0.00     0.060 A 
ATOM      6  C   UNL A   1      35.845  29.933  29.542  1.00  0.00     0.016 A 
ATOM      7  C   UNL A   1      37.132  30.847  27.726  1.00  0.00     0.016 A 
ATOM      8  C   UNL A   1      36.960  29.174  29.937  1.00  0.00     0.010 A 
ATOM      9  C   UNL A   1      38.225  30.078  28.097  1.00  0.00     0.010 A 
ATOM     10  C   UNL A   1      38.168  29.274  29.230  1.00  0.00    -0.014 A 
BRANCH  10  11
ATOM     11  C   UNL A   1      39.443  28.699  29.709  1.00  0.00     0.031 A 
ATOM     12  C   UNL A   1      40.103  29.318  30.914  1.00  0.00     0.074 A 
ATOM     13  C   UNL A   1      40.102  27.773  28.992  1.00  0.00     0.049 A 
ATOM     14  N   UNL A   1      41.120  28.889  31.614  1.00  0.00    -0.248 NA
ATOM     15  C   UNL A   1      39.583  30.625  31.358  1.00  0.00     0.031 C 
ATOM     16  C   UNL A   1      39.711  27.278  27.671  1.00  0.00     0.029 A 
ATOM     17  N   UNL A   1      41.268  27.106  29.267  1.00  0.00    -0.354 N 
ATOM     18  C   UNL A   1      41.318  29.842  32.607  1.00  0.00     0.074 A 
ATOM     19  C   UNL A   1      40.414  30.935  32.340  1.00  0.00     0.031 C 
ATOM     20  C   UNL A   1      40.619  26.376  27.256  1.00  0.00     0.029 A 
ATOM     21  C   UNL A   1      41.618  26.190  28.306  1.00  0.00     0.049 A 
ATOM     22  H   UNL A   1      41.804  27.269  30.076  1.00  0.00     0.167 HD
ATOM     23  C   UNL A   1      42.131  29.775  33.686  1.00  0.00     0.037 A 
ATOM     24  C   UNL A   1      42.593  25.262  28.321  1.00  0.00     0.037 A 
ATOM     25  C   UNL A   1      43.034  28.681  33.913  1.00  0.00     0.049 A 
ATOM     26  C   UNL A   1      43.397  25.093  29.584  1.00  0.00     0.074 A 
ATOM     27  C   UNL A   1      43.832  28.413  35.010  1.00  0.00     0.029 A 
ATOM     28  N   UNL A   1      43.261  27.667  32.992  1.00  0.00    -0.354 N 
ATOM     29  N   UNL A   1      43.412  25.843  30.661  1.00  0.00    -0.248 NA
ATOM     30  C   UNL A   1      44.259  23.906  29.669  1.00  0.00     0.031 C 
ATOM     31  C   UNL A   1      44.554  27.243  34.743  1.00  0.00     0.029 A 
ATOM     32  C   UNL A   1      44.179  26.767  33.496  1.00  0.00     0.049 A 
ATOM     33  H   UNL A   1      42.830  27.600  32.110  1.00  0.00     0.167 HD
ATOM     34  C   UNL A   1      44.251  25.202  31.564  1.00  0.00     0.074 A 
ATOM     35  C   UNL A   1      44.709  23.991  30.913  1.00  0.00     0.031 C 
ATOM     36  C   UNL A   1      44.611  25.572  32.820  1.00  0.00     0.037 A 
BRANCH  23  37
ATOM     37  C   UNL A   1      42.004  30.858  34.721  1.00  0.00     0.057 A 
ATOM     38  C   UNL A   1      42.874  31.961  34.721  1.00  0.00     0.134 A 
ATOM     39  C   UNL A   1      41.005  30.832  35.700  1.00  0.00     0.134 A 
ATOM     40  F   UNL A   1      43.858  32.051  33.813  1.00  0.00    -0.206 F 
ATOM     41  C   UNL A   1      42.777  32.976  35.674  1.00  0.00     0.040 A 
ATOM     42  C   UNL A   1      40.878  31.859  36.641  1.00  0.00     0.040 A 
ATOM     43  F   UNL A   1      40.132  29.816  35.758  1.00  0.00    -0.206 F 
ATOM     44  C   UNL A   1      41.771  32.929  36.635  1.00  0.00     0.006 A 
ENDBRANCH  23  37
BRANCH  24  45
ATOM     45  C   UNL A   1      42.738  24.316  27.184  1.00  0.00     0.057 A 
ATOM     46  C   UNL A   1      43.629  24.584  26.138  1.00  0.00     0.134 A 
ATOM     47  C   UNL A   1      42.006  23.126  27.115  1.00  0.00     0.134 A 
ATOM     48  F   UNL A   1      44.355  25.712  26.143  1.00  0.00    -0.206 F 
ATOM     49  C   UNL A   1      43.765  23.722  25.047  1.00  0.00     0.040 A 
ATOM     50  C   UNL A   1      42.146  22.243  26.040  1.00  0.00     0.040 A 
ATOM     51  F   UNL A   1      41.151  22.798  28.095  1.00  0.00    -0.206 F 
ATOM     52  C   UNL A   1      43.023  22.545  24.998  1.00  0.00     0.006 A 
ENDBRANCH  24  45
BRANCH  36  53
ATOM     53  C   UNL A   1      45.524  24.646  33.565  1.00  0.00     0.057 A 
ATOM     54  C   UNL A   1      45.041  23.506  34.218  1.00  0.00     0.134 A 
ATOM     55  C   UNL A   1      46.903  24.883  33.600  1.00  0.00     0.134 A 
ATOM     56  F   UNL A   1      43.727  23.231  34.226  1.00  0.00    -0.206 F 
ATOM     57  C   UNL A   1      45.896  22.649  34.911  1.00  0.00     0.040 A 
ATOM     58  C   UNL A   1      47.772  24.018  34.265  1.00  0.00     0.040 A 
ATOM     59  F   UNL A   1      47.428  25.951  32.982  1.00  0.00    -0.206 F 
ATOM     60  C   UNL A   1      47.267  22.902  34.931  1.00  0.00     0.006 A 
ENDBRANCH  36  53
ENDBRANCH  10  11
ENDBRANCH   3   5
ENDBRANCH   2   3
ENDBRANCH   1   2
BRANCH   1  61
ATOM     61  C   UNL A   1      32.512  29.040  27.227  1.00  0.00     0.274 C 
BRANCH  61  62
ATOM     62  O   UNL A   1      32.607  27.798  26.496  1.00  0.00    -0.457 OA
BRANCH  62  63
ATOM     63  C   UNL A   1      31.419  27.265  26.052  1.00  0.00     0.368 C 
ATOM     64  O   UNL A   1      30.632  26.684  26.793  1.00  0.00    -0.245 OA
BRANCH  63  65
ATOM     65  C   UNL A   1      31.207  27.407  24.496  1.00  0.00     0.195 C 
ATOM     66  C   UNL A   1      30.046  26.492  24.035  1.00  0.00     0.081 C 
ATOM     67  C   UNL A   1      32.513  27.010  23.708  1.00  0.00     0.095 C 
ATOM     68  C   UNL A   1      30.392  25.011  24.018  1.00  0.00     0.008 C 
ATOM     69  C   UNL A   1      32.845  25.487  23.622  1.00  0.00     0.053 C 
ATOM     70  C   UNL A   1      31.606  24.746  23.140  1.00  0.00     0.015 C 
BRANCH  65  71
ATOM     71  N   UNL A   1      30.886  28.837  24.137  1.00  0.00    -0.330 N 
ATOM     72  H   UNL A   1      31.673  29.187  23.591  1.00  0.00     0.347 HD
ATOM     73  H   UNL A   1      30.714  29.272  25.043  1.00  0.00     0.347 HD
BRANCH  71  74
ATOM     74  C   UNL A   1      29.658  29.153  23.369  1.00  0.00     0.183 C 
ATOM     75  C   UNL A   1      29.161  30.558  23.134  1.00  0.00     0.071 C 
ATOM     76  C   UNL A   1      29.873  29.845  22.035  1.00  0.00     0.071 C 
ENDBRANCH  71  74
ENDBRANCH  65  71
BRANCH  69  77
ATOM     77  S   UNL A   1      33.647  24.967  25.192  1.00  0.00    -0.155 SA
BRANCH  77  78
ATOM     78  C   UNL A   1      35.273  24.203  24.864  1.00  0.00     0.047 C 
ATOM     79  C   UNL A   1      36.046  23.737  26.099  1.00  0.00     0.014 C 
ATOM     80  C   UNL A   1      35.237  23.188  23.725  1.00  0.00     0.014 C 
ATOM     81  C   UNL A   1      37.428  23.195  25.745  1.00  0.00     0.001 C 
ATOM     82  C   UNL A   1      36.650  22.696  23.404  1.00  0.00     0.001 C 
ATOM     83  C   UNL A   1      37.339  22.139  24.646  1.00  0.00     0.000 C 
ENDBRANCH  77  78
ENDBRANCH  69  77
ENDBRANCH  63  65
ENDBRANCH  62  63
ENDBRANCH  61  62
ENDBRANCH   1  61
TORSDOF 15
ENDMDL
MODEL 2
REMARK VINA RESULT:     -11.0      1.355      1.647
REMARK SMILES O=C(OCCOC(=O)[C@]1([NH2+]C2CC2)CCC[C@H](SC2CCCCC2)C1)c1ccc(-c2c3nc(c(-c4c(F)cccc4F)c4ccc([nH]4)c(-c4c(F)cccc4F)c4nc(c(-c5c(F)cccc5F)c5ccc2[nH]5)C=C4)C=C3)cc1
REMARK SMILES IDX 4 1 3 2 2 3 1 4 26 5 27 6 79 7 28 8 78 9 29 10 30 11 31 12
REMARK SMILES IDX 72 13 32 14 77 15 71 16 73 17 33 18 76 19 70 20 69 21 34 23
REMARK SMILES IDX 60 24 43 25 59 26 44 27 47 28 58 29 74 30 45 31 46 32 57 34
REMARK SMILES IDX 75 35 48 36 35 37 36 38 41 39 37 40 38 41 40 42 42 43 39 44
REMARK SMILES IDX 61 45 62 46 67 47 63 48 64 49 66 50 68 51 65 52 49 53 50 54
REMARK SMILES IDX 55 55 51 56 52 57 54 58 56 59 53 60 5 61 6 62 7 63 8 64 9 65
REMARK SMILES IDX 14 66 25 67 15 68 17 69 16 70 10 71 11 74 12 75 13 76 18 77
REMARK SMILES IDX 19 78 20 79 24 80 21 81 23 82 22 83
REMARK H PARENT 73 22 47 33 10 72 10 73
REMARK Flexibility Score: inf
ROOT
ATOM      1  C   UNL A   1      31.845  30.634  26.892  1.00  0.00     0.275 C 
ENDROOT
BRANCH   1   2
ATOM      2  O   UNL A   1      33.126  31.203  26.606  1.00  0.00    -0.458 OA
BRANCH   2   3
ATOM      3  C   UNL A   1      33.896  31.776  27.557  1.00  0.00     0.338 C 
ATOM      4  O   UNL A   1      33.654  32.891  28.012  1.00  0.00    -0.246 OA
BRANCH   3   5
ATOM      5  C   UNL A   1      35.166  31.120  27.916  1.00  0.00     0.060 A 
ATOM      6  C   UNL A   1      35.372  29.740  27.974  1.00  0.00     0.016 A 
ATOM      7  C   UNL A   1      36.183  31.984  28.281  1.00  0.00     0.016 A 
ATOM      8  C   UNL A   1      36.609  29.243  28.417  1.00  0.00     0.010 A 
ATOM      9  C   UNL A   1      37.415  31.495  28.691  1.00  0.00     0.010 A 
ATOM     10  C   UNL A   1      37.625  30.126  28.810  1.00  0.00    -0.014 A 
BRANCH  10  11
ATOM     11  C   UNL A   1      38.858  29.695  29.502  1.00  0.00     0.031 A 
ATOM     12  C   UNL A   1      39.142  30.244  30.877  1.00  0.00     0.074 A 
ATOM     13  C   UNL A   1      39.802  28.982  28.862  1.00  0.00     0.049 A 
ATOM     14  N   UNL A   1      40.056  29.886  31.740  1.00  0.00    -0.248 NA
ATOM     15  C   UNL A   1      38.320  31.386  31.318  1.00  0.00     0.031 C 
ATOM     16  C   UNL A   1      39.779  28.611  27.447  1.00  0.00     0.029 A 
ATOM     17  N   UNL A   1      40.988  28.470  29.323  1.00  0.00    -0.354 N 
ATOM     18  C   UNL A   1      39.878  30.719  32.838  1.00  0.00     0.074 A 
ATOM     19  C   UNL A   1      38.868  31.687  32.484  1.00  0.00     0.031 C 
ATOM     20  C   UNL A   1      40.897  27.921  27.158  1.00  0.00     0.029 A 
ATOM     21  C   UNL A   1      41.680  27.752  28.380  1.00  0.00     0.049 A 
ATOM     22  H   UNL A   1      41.312  28.606  30.242  1.00  0.00     0.167 HD
ATOM     23  C   UNL A   1      40.456  30.636  34.059  1.00  0.00     0.037 A 
ATOM     24  C   UNL A   1      42.781  26.990  28.520  1.00  0.00     0.037 A 
ATOM     25  C   UNL A   1      41.473  29.672  34.373  1.00  0.00     0.049 A 
ATOM     26  C   UNL A   1      43.331  26.781  29.908  1.00  0.00     0.074 A 
ATOM     27  C   UNL A   1      42.068  29.388  35.588  1.00  0.00     0.029 A 
ATOM     28  N   UNL A   1      42.057  28.834  33.432  1.00  0.00    -0.354 N 
ATOM     29  N   UNL A   1      42.996  27.377  31.029  1.00  0.00    -0.248 NA
ATOM     30  C   UNL A   1      44.355  25.739  30.067  1.00  0.00     0.031 C 
ATOM     31  C   UNL A   1      43.025  28.386  35.377  1.00  0.00     0.029 A 
ATOM     32  C   UNL A   1      43.000  28.027  34.038  1.00  0.00     0.049 A 
ATOM     33  H   UNL A   1      41.832  28.819  32.474  1.00  0.00     0.167 HD
ATOM     34  C   UNL A   1      43.735  26.758  32.029  1.00  0.00     0.074 A 
ATOM     35  C   UNL A   1      44.522  25.727  31.382  1.00  0.00     0.031 C 
ATOM     36  C   UNL A   1      43.763  27.010  33.362  1.00  0.00     0.037 A 
BRANCH  23  37
ATOM     37  C   UNL A   1      39.933  31.542  35.138  1.00  0.00     0.057 A 
ATOM     38  C   UNL A   1      40.561  32.766  35.419  1.00  0.00     0.134 A 
ATOM     39  C   UNL A   1      38.792  31.224  35.882  1.00  0.00     0.134 A 
ATOM     40  F   UNL A   1      41.662  33.136  34.747  1.00  0.00    -0.206 F 
ATOM     41  C   UNL A   1      40.095  33.621  36.420  1.00  0.00     0.040 A 
ATOM     42  C   UNL A   1      38.298  32.086  36.866  1.00  0.00     0.040 A 
ATOM     43  F   UNL A   1      38.133  30.075  35.666  1.00  0.00    -0.206 F 
ATOM     44  C   UNL A   1      38.955  33.284  37.142  1.00  0.00     0.006 A 
ENDBRANCH  23  37
BRANCH  24  45
ATOM     45  C   UNL A   1      43.317  26.235  27.359  1.00  0.00     0.057 A 
ATOM     46  C   UNL A   1      44.334  26.774  26.561  1.00  0.00     0.134 A 
ATOM     47  C   UNL A   1      42.843  24.963  27.021  1.00  0.00     0.134 A 
ATOM     48  F   UNL A   1      44.828  27.992  26.830  1.00  0.00    -0.206 F 
ATOM     49  C   UNL A   1      44.837  26.093  25.450  1.00  0.00     0.040 A 
ATOM     50  C   UNL A   1      43.350  24.261  25.924  1.00  0.00     0.040 A 
ATOM     51  F   UNL A   1      41.884  24.380  27.756  1.00  0.00    -0.206 F 
ATOM     52  C   UNL A   1      44.346  24.831  25.130  1.00  0.00     0.006 A 
ENDBRANCH  24  45
BRANCH  36  53
ATOM     53  C   UNL A   1      44.656  26.145  34.199  1.00  0.00     0.057 A 
ATOM     54  C   UNL A   1      44.199  24.950  34.768  1.00  0.00     0.134 A 
ATOM     55  C   UNL A   1      45.995  26.496  34.407  1.00  0.00     0.134 A 
ATOM     56  F   UNL A   1      42.923  24.565  34.609  1.00  0.00    -0.206 F 
ATOM     57  C   UNL A   1      45.035  24.150  35.546  1.00  0.00     0.040 A 
ATOM     58  C   UNL A   1      46.848  25.691  35.160  1.00  0.00     0.040 A 
ATOM     59  F   UNL A   1      46.496  27.622  33.877  1.00  0.00    -0.206 F 
ATOM     60  C   UNL A   1      46.366  24.518  35.739  1.00  0.00     0.006 A 
ENDBRANCH  36  53
ENDBRANCH  10  11
ENDBRANCH   3   5
ENDBRANCH   2   3
ENDBRANCH   1   2
BRANCH   1  61
ATOM     61  C   UNL A   1      31.882  29.153  27.248  1.00  0.00     0.274 C 
BRANCH  61  62
ATOM     62  O   UNL A   1      32.325  28.248  26.213  1.00  0.00    -0.457 OA
BRANCH  62  63
ATOM     63  C   UNL A   1      31.353  27.464  25.638  1.00  0.00     0.368 C 
ATOM     64  O   UNL A   1      30.663  26.679  26.282  1.00  0.00    -0.245 OA
BRANCH  63  65
ATOM     65  C   UNL A   1      31.265  27.616  24.072  1.00  0.00     0.195 C 
ATOM     66  C   UNL A   1      30.142  26.706  23.514  1.00  0.00     0.081 C 
ATOM     67  C   UNL A   1      32.628  27.222  23.387  1.00  0.00     0.095 C 
ATOM     68  C   UNL A   1      30.487  25.225  23.515  1.00  0.00     0.008 C 
ATOM     69  C   UNL A   1      32.964  25.698  23.317  1.00  0.00     0.053 C 
ATOM     70  C   UNL A   1      31.766  24.963  22.734  1.00  0.00     0.015 C 
BRANCH  65  71
ATOM     71  N   UNL A   1      30.976  29.049  23.698  1.00  0.00    -0.330 N 
ATOM     72  H   UNL A   1      31.506  29.244  22.849  1.00  0.00     0.347 HD
ATOM     73  H   UNL A   1      31.230  29.565  24.539  1.00  0.00     0.347 HD
BRANCH  71  74
ATOM     74  C   UNL A   1      29.581  29.483  23.441  1.00  0.00     0.183 C 
ATOM     75  C   UNL A   1      29.136  30.924  23.493  1.00  0.00     0.071 C 
ATOM     76  C   UNL A   1      29.361  30.278  22.168  1.00  0.00     0.071 C 
ENDBRANCH  71  74
ENDBRANCH  65  71
BRANCH  69  77
ATOM     77  S   UNL A   1      33.638  25.167  24.942  1.00  0.00    -0.155 SA
BRANCH  77  78
ATOM     78  C   UNL A   1      35.228  24.293  24.727  1.00  0.00     0.047 C 
ATOM     79  C   UNL A   1      35.807  23.652  25.990  1.00  0.00     0.014 C 
ATOM     80  C   UNL A   1      35.252  23.392  23.496  1.00  0.00     0.014 C 
ATOM     81  C   UNL A   1      37.175  23.024  25.743  1.00  0.00     0.001 C 
ATOM     82  C   UNL A   1      36.651  22.806  23.291  1.00  0.00     0.001 C 
ATOM     83  C   UNL A   1      37.139  22.082  24.542  1.00  0.00     0.000 C 
ENDBRANCH  77  78
ENDBRANCH  69  77
ENDBRANCH  63  65
ENDBRANCH  62  63
ENDBRANCH  61  62
ENDBRANCH   1  61
TORSDOF 15
ENDMDL
MODEL 3
REMARK VINA RESULT:     -11.0      4.427      9.059
REMARK SMILES O=C(OCCOC(=O)[C@]1([NH2+]C2CC2)CCC[C@H](SC2CCCCC2)C1)c1ccc(-c2c3nc(c(-c4c(F)cccc4F)c4ccc([nH]4)c(-c4c(F)cccc4F)c4nc(c(-c5c(F)cccc5F)c5ccc2[nH]5)C=C4)C=C3)cc1
REMARK SMILES IDX 4 1 3 2 2 3 1 4 26 5 27 6 79 7 28 8 78 9 29 10 30 11 31 12
REMARK SMILES IDX 72 13 32 14 77 15 71 16 73 17 33 18 76 19 70 20 69 21 34 23
REMARK SMILES IDX 60 24 43 25 59 26 44 27 47 28 58 29 74 30 45 31 46 32 57 34
REMARK SMILES IDX 75 35 48 36 35 37 36 38 41 39 37 40 38 41 40 42 42 43 39 44
REMARK SMILES IDX 61 45 62 46 67 47 63 48 64 49 66 50 68 51 65 52 49 53 50 54
REMARK SMILES IDX 55 55 51 56 52 57 54 58 56 59 53 60 5 61 6 62 7 63 8 64 9 65
REMARK SMILES IDX 14 66 25 67 15 68 17 69 16 70 10 71 11 74 12 75 13 76 18 77
REMARK SMILES IDX 19 78 20 79 24 80 21 81 23 82 22 83
REMARK H PARENT 73 22 47 33 10 72 10 73
REMARK Flexibility Score: inf
ROOT
ATOM      1  C   UNL A   1      37.504  21.094  24.607  1.00  0.00     0.275 C 
ENDROOT
BRANCH   1   2
ATOM      2  O   UNL A   1      38.040  21.062  25.932  1.00  0.00    -0.458 OA
BRANCH   2   3
ATOM      3  C   UNL A   1      39.328  21.369  26.204  1.00  0.00     0.338 C 
ATOM      4  O   UNL A   1      40.222  20.528  26.177  1.00  0.00    -0.246 OA
BRANCH   3   5
ATOM      5  C   UNL A   1      39.629  22.713  26.729  1.00  0.00     0.060 A 
ATOM      6  C   UNL A   1      38.971  23.888  26.363  1.00  0.00     0.016 A 
ATOM      7  C   UNL A   1      40.702  22.767  27.603  1.00  0.00     0.016 A 
ATOM      8  C   UNL A   1      39.415  25.119  26.875  1.00  0.00     0.010 A 
ATOM      9  C   UNL A   1      41.124  23.978  28.131  1.00  0.00     0.010 A 
ATOM     10  C   UNL A   1      40.520  25.167  27.738  1.00  0.00    -0.014 A 
BRANCH  10  11
ATOM     11  C   UNL A   1      41.192  26.423  28.132  1.00  0.00     0.031 A 
ATOM     12  C   UNL A   1      42.631  26.626  27.732  1.00  0.00     0.074 A 
ATOM     13  C   UNL A   1      40.610  27.287  28.983  1.00  0.00     0.049 A 
ATOM     14  N   UNL A   1      43.370  27.701  27.812  1.00  0.00    -0.248 NA
ATOM     15  C   UNL A   1      43.352  25.443  27.225  1.00  0.00     0.031 C 
ATOM     16  C   UNL A   1      39.328  27.085  29.660  1.00  0.00     0.029 A 
ATOM     17  N   UNL A   1      41.047  28.500  29.449  1.00  0.00    -0.354 N 
ATOM     18  C   UNL A   1      44.615  27.335  27.313  1.00  0.00     0.074 A 
ATOM     19  C   UNL A   1      44.578  25.914  27.065  1.00  0.00     0.031 C 
ATOM     20  C   UNL A   1      39.079  28.147  30.448  1.00  0.00     0.029 A 
ATOM     21  C   UNL A   1      40.153  29.124  30.283  1.00  0.00     0.049 A 
ATOM     22  H   UNL A   1      41.920  28.887  29.209  1.00  0.00     0.167 HD
ATOM     23  C   UNL A   1      45.670  28.131  27.021  1.00  0.00     0.037 A 
ATOM     24  C   UNL A   1      40.178  30.371  30.788  1.00  0.00     0.037 A 
ATOM     25  C   UNL A   1      45.683  29.540  27.300  1.00  0.00     0.049 A 
ATOM     26  C   UNL A   1      41.277  31.300  30.339  1.00  0.00     0.074 A 
ATOM     27  C   UNL A   1      46.623  30.494  26.960  1.00  0.00     0.029 A 
ATOM     28  N   UNL A   1      44.686  30.192  28.012  1.00  0.00    -0.354 N 
ATOM     29  N   UNL A   1      42.351  31.030  29.633  1.00  0.00    -0.248 NA
ATOM     30  C   UNL A   1      41.130  32.720  30.687  1.00  0.00     0.031 C 
ATOM     31  C   UNL A   1      46.200  31.723  27.482  1.00  0.00     0.029 A 
ATOM     32  C   UNL A   1      44.981  31.537  28.117  1.00  0.00     0.049 A 
ATOM     33  H   UNL A   1      43.886  29.759  28.388  1.00  0.00     0.167 HD
ATOM     34  C   UNL A   1      42.985  32.248  29.419  1.00  0.00     0.074 A 
ATOM     35  C   UNL A   1      42.163  33.259  30.054  1.00  0.00     0.031 C 
ATOM     36  C   UNL A   1      44.139  32.514  28.755  1.00  0.00     0.037 A 
BRANCH  23  37
ATOM     37  C   UNL A   1      46.831  27.507  26.297  1.00  0.00     0.057 A 
ATOM     38  C   UNL A   1      46.840  27.414  24.895  1.00  0.00     0.134 A 
ATOM     39  C   UNL A   1      47.954  27.026  26.977  1.00  0.00     0.134 A 
ATOM     40  F   UNL A   1      45.795  27.852  24.177  1.00  0.00    -0.206 F 
ATOM     41  C   UNL A   1      47.905  26.835  24.203  1.00  0.00     0.040 A 
ATOM     42  C   UNL A   1      49.041  26.473  26.292  1.00  0.00     0.040 A 
ATOM     43  F   UNL A   1      48.022  27.088  28.315  1.00  0.00    -0.206 F 
ATOM     44  C   UNL A   1      49.014  26.369  24.902  1.00  0.00     0.006 A 
ENDBRANCH  23  37
BRANCH  24  45
ATOM     45  C   UNL A   1      39.047  30.862  31.618  1.00  0.00     0.057 A 
ATOM     46  C   UNL A   1      39.080  30.747  33.013  1.00  0.00     0.134 A 
ATOM     47  C   UNL A   1      37.919  31.461  31.049  1.00  0.00     0.134 A 
ATOM     48  F   UNL A   1      40.133  30.177  33.618  1.00  0.00    -0.206 F 
ATOM     49  C   UNL A   1      38.019  31.179  33.812  1.00  0.00     0.040 A 
ATOM     50  C   UNL A   1      36.858  31.916  31.837  1.00  0.00     0.040 A 
ATOM     51  F   UNL A   1      37.833  31.621  29.720  1.00  0.00    -0.206 F 
ATOM     52  C   UNL A   1      36.904  31.768  33.223  1.00  0.00     0.006 A 
ENDBRANCH  24  45
BRANCH  36  53
ATOM     53  C   UNL A   1      44.558  33.950  28.672  1.00  0.00     0.057 A 
ATOM     54  C   UNL A   1      44.175  34.767  27.600  1.00  0.00     0.134 A 
ATOM     55  C   UNL A   1      45.325  34.528  29.690  1.00  0.00     0.134 A 
ATOM     56  F   UNL A   1      43.447  34.267  26.590  1.00  0.00    -0.206 F 
ATOM     57  C   UNL A   1      44.570  36.102  27.529  1.00  0.00     0.040 A 
ATOM     58  C   UNL A   1      45.702  35.869  29.644  1.00  0.00     0.040 A 
ATOM     59  F   UNL A   1      45.711  33.801  30.749  1.00  0.00    -0.206 F 
ATOM     60  C   UNL A   1      45.332  36.658  28.555  1.00  0.00     0.006 A 
ENDBRANCH  36  53
ENDBRANCH  10  11
ENDBRANCH   3   5
ENDBRANCH   2   3
ENDBRANCH   1   2
BRANCH   1  61
ATOM     61  C   UNL A   1      36.347  22.068  24.422  1.00  0.00     0.274 C 
BRANCH  61  62
ATOM     62  O   UNL A   1      35.038  21.490  24.222  1.00  0.00    -0.457 OA
BRANCH  62  63
ATOM     63  C   UNL A   1      34.227  21.431  25.331  1.00  0.00     0.368 C 
ATOM     64  O   UNL A   1      34.644  21.609  26.472  1.00  0.00    -0.245 OA
BRANCH  63  65
ATOM     65  C   UNL A   1      32.736  21.042  25.001  1.00  0.00     0.195 C 
ATOM     66  C   UNL A   1      32.531  20.984  23.467  1.00  0.00     0.081 C 
ATOM     67  C   UNL A   1      31.728  22.088  25.611  1.00  0.00     0.095 C 
ATOM     68  C   UNL A   1      32.495  22.347  22.795  1.00  0.00     0.008 C 
ATOM     69  C   UNL A   1      31.628  23.469  24.889  1.00  0.00     0.053 C 
ATOM     70  C   UNL A   1      31.413  23.225  23.402  1.00  0.00     0.015 C 
BRANCH  65  71
ATOM     71  N   UNL A   1      32.399  19.697  25.599  1.00  0.00    -0.330 N 
ATOM     72  H   UNL A   1      31.420  19.738  25.883  1.00  0.00     0.347 HD
ATOM     73  H   UNL A   1      33.097  19.587  26.334  1.00  0.00     0.347 HD
BRANCH  71  74
ATOM     74  C   UNL A   1      32.558  18.464  24.791  1.00  0.00     0.183 C 
ATOM     75  C   UNL A   1      33.872  17.740  24.628  1.00  0.00     0.071 C 
ATOM     76  C   UNL A   1      32.853  17.197  25.572  1.00  0.00     0.071 C 
ENDBRANCH  71  74
ENDBRANCH  65  71
BRANCH  69  77
ATOM     77  S   UNL A   1      33.034  24.522  25.431  1.00  0.00    -0.155 SA
BRANCH  77  78
ATOM     78  C   UNL A   1      33.040  26.107  24.524  1.00  0.00     0.047 C 
ATOM     79  C   UNL A   1      33.582  27.310  25.299  1.00  0.00     0.014 C 
ATOM     80  C   UNL A   1      33.577  25.980  23.102  1.00  0.00     0.014 C 
ATOM     81  C   UNL A   1      33.468  28.607  24.503  1.00  0.00     0.001 C 
ATOM     82  C   UNL A   1      33.420  27.304  22.351  1.00  0.00     0.001 C 
ATOM     83  C   UNL A   1      34.073  28.454  23.111  1.00  0.00     0.000 C 
ENDBRANCH  77  78
ENDBRANCH  69  77
ENDBRANCH  63  65
ENDBRANCH  62  63
ENDBRANCH  61  62
ENDBRANCH   1  61
TORSDOF 15
ENDMDL
