MODEL 1
REMARK VINA RESULT:     -11.6      0.000      0.000
REMARK SMILES Cc1c[nH]c(C[N@H+]2C[C@@H]3CN(S(C)(=O)=O)C[C@]3(C(=O)OCCOC(=O)c3ccc(-c4c5nc(c(-c6c(F)cccc6F)c6ccc([nH]6)c(-c6c(F)cccc6F)c6nc(c(-c7c(F)cccc7F)c7ccc4[nH]7)C=C6)C=C5)cc3)C2)n1
REMARK SMILES IDX 21 1 20 2 18 3 19 4 17 5 7 6 8 7 80 8 9 10 10 11 16 12 11 13
REMARK SMILES IDX 6 14 5 15 1 16 2 17 3 18 81 19 4 20 12 22 13 23 14 24 15 25
REMARK SMILES IDX 22 26 23 27 24 28 25 29 26 30 27 31 79 32 28 33 78 34 29 35
REMARK SMILES IDX 30 36 31 37 72 38 32 39 77 40 71 41 73 42 33 43 76 44 70 45
REMARK SMILES IDX 69 46 34 48 60 49 43 50 59 51 44 52 47 53 58 54 74 55 45 56
REMARK SMILES IDX 46 57 57 59 75 60 48 61 35 62 36 63 41 64 37 65 38 66 40 67
REMARK SMILES IDX 42 68 39 69 61 70 62 71 67 72 63 73 64 74 66 75 68 76 65 77
REMARK SMILES IDX 49 78 50 79 55 80 51 81 52 82 54 83 56 84 53 85
REMARK H PARENT 7 9 4 21 73 47 47 58
REMARK Flexibility Score: inf
ROOT
ATOM      1  C   UNL A   1      35.484  22.134  26.295  1.00  0.00     0.274 C 
ENDROOT
BRANCH   1   2
ATOM      2  O   UNL A   1      34.287  21.635  26.952  1.00  0.00    -0.461 OA
BRANCH   2   3
ATOM      3  C   UNL A   1      33.129  22.301  26.649  1.00  0.00     0.319 C 
ATOM      4  O   UNL A   1      32.377  22.627  27.558  1.00  0.00    -0.251 OA
BRANCH   3   5
ATOM      5  C   UNL A   1      32.874  22.465  25.054  1.00  0.00     0.140 C 
ATOM      6  N   UNL A   1      32.785  20.311  23.632  1.00  0.00    -0.327 N 
ATOM      7  C   UNL A   1      32.204  21.344  22.821  1.00  0.00     0.268 C 
ATOM      8  C   UNL A   1      32.795  20.854  24.995  1.00  0.00     0.283 C 
ATOM      9  H   UNL A   1      33.720  20.092  23.289  1.00  0.00     0.348 HD
ATOM     10  C   UNL A   1      31.767  22.366  23.854  1.00  0.00     0.084 C 
ATOM     11  C   UNL A   1      31.604  23.701  23.138  1.00  0.00     0.113 C 
ATOM     12  C   UNL A   1      32.102  23.829  25.401  1.00  0.00     0.127 C 
ATOM     13  N   UNL A   1      32.073  24.628  24.145  1.00  0.00    -0.200 NA
BRANCH   6  14
ATOM     14  C   UNL A   1      32.107  18.998  23.556  1.00  0.00     0.338 C 
BRANCH  14  15
ATOM     15  C   UNL A   1      32.771  17.831  24.245  1.00  0.00     0.161 A 
ATOM     16  C   UNL A   1      35.445  15.719  25.318  1.00  0.00     0.068 C 
ATOM     17  C   UNL A   1      34.145  16.378  25.062  1.00  0.00     0.056 A 
ATOM     18  C   UNL A   1      32.893  15.981  25.469  1.00  0.00     0.107 A 
ATOM     19  N   UNL A   1      34.056  17.527  24.307  1.00  0.00    -0.233 NA
ATOM     20  N   UNL A   1      32.034  16.900  24.940  1.00  0.00    -0.344 N 
ATOM     21  H   UNL A   1      31.054  16.897  25.041  1.00  0.00     0.167 HD
ENDBRANCH  14  15
ENDBRANCH   6  14
BRANCH  13  22
ATOM     22  S   UNL A   1      33.397  25.609  23.748  1.00  0.00     0.211 S 
ATOM     23  C   UNL A   1      32.663  27.206  23.410  1.00  0.00     0.176 C 
ATOM     24  O   UNL A   1      34.209  25.750  24.932  1.00  0.00    -0.213 OA
ATOM     25  O   UNL A   1      33.962  25.121  22.503  1.00  0.00    -0.213 OA
ENDBRANCH  13  22
ENDBRANCH   3   5
ENDBRANCH   2   3
ENDBRANCH   1   2
BRANCH   1  26
ATOM     26  C   UNL A   1      36.266  21.070  25.485  1.00  0.00     0.275 C 
BRANCH  26  27
ATOM     27  O   UNL A   1      37.563  21.545  25.047  1.00  0.00    -0.458 OA
BRANCH  27  28
ATOM     28  C   UNL A   1      38.643  21.153  25.771  1.00  0.00     0.338 C 
ATOM     29  O   UNL A   1      39.072  20.018  25.884  1.00  0.00    -0.246 OA
BRANCH  28  30
ATOM     30  C   UNL A   1      39.345  22.323  26.345  1.00  0.00     0.060 A 
ATOM     31  C   UNL A   1      38.960  23.587  25.917  1.00  0.00     0.016 A 
ATOM     32  C   UNL A   1      40.467  22.203  27.162  1.00  0.00     0.016 A 
ATOM     33  C   UNL A   1      39.638  24.730  26.319  1.00  0.00     0.010 A 
ATOM     34  C   UNL A   1      41.145  23.363  27.593  1.00  0.00     0.010 A 
ATOM     35  C   UNL A   1      40.731  24.645  27.179  1.00  0.00    -0.014 A 
BRANCH  35  36
ATOM     36  C   UNL A   1      41.442  25.896  27.571  1.00  0.00     0.031 A 
ATOM     37  C   UNL A   1      40.760  26.920  28.438  1.00  0.00     0.074 A 
ATOM     38  C   UNL A   1      42.736  26.084  27.233  1.00  0.00     0.049 A 
ATOM     39  N   UNL A   1      41.163  28.118  28.781  1.00  0.00    -0.248 NA
ATOM     40  C   UNL A   1      39.462  26.538  29.015  1.00  0.00     0.031 C 
ATOM     41  C   UNL A   1      43.568  25.125  26.500  1.00  0.00     0.029 A 
ATOM     42  N   UNL A   1      43.586  27.139  27.469  1.00  0.00    -0.354 N 
ATOM     43  C   UNL A   1      40.157  28.644  29.583  1.00  0.00     0.074 A 
ATOM     44  C   UNL A   1      39.127  27.633  29.683  1.00  0.00     0.031 C 
ATOM     45  C   UNL A   1      44.807  25.623  26.369  1.00  0.00     0.029 A 
ATOM     46  C   UNL A   1      44.831  26.978  26.907  1.00  0.00     0.049 A 
ATOM     47  H   UNL A   1      43.328  27.933  27.989  1.00  0.00     0.167 HD
ATOM     48  C   UNL A   1      40.097  29.863  30.171  1.00  0.00     0.037 A 
ATOM     49  C   UNL A   1      45.857  27.841  26.774  1.00  0.00     0.037 A 
ATOM     50  C   UNL A   1      41.127  30.864  30.071  1.00  0.00     0.049 A 
ATOM     51  C   UNL A   1      45.701  29.243  27.290  1.00  0.00     0.074 A 
ATOM     52  C   UNL A   1      41.145  32.142  30.603  1.00  0.00     0.029 A 
ATOM     53  N   UNL A   1      42.323  30.700  29.386  1.00  0.00    -0.354 N 
ATOM     54  N   UNL A   1      44.717  29.762  27.983  1.00  0.00    -0.248 NA
ATOM     55  C   UNL A   1      46.779  30.192  26.973  1.00  0.00     0.031 C 
ATOM     56  C   UNL A   1      42.324  32.772  30.191  1.00  0.00     0.029 A 
ATOM     57  C   UNL A   1      43.066  31.869  29.447  1.00  0.00     0.049 A 
ATOM     58  H   UNL A   1      42.601  29.877  28.925  1.00  0.00     0.167 HD
ATOM     59  C   UNL A   1      45.055  31.093  28.186  1.00  0.00     0.074 A 
ATOM     60  C   UNL A   1      46.348  31.296  27.567  1.00  0.00     0.031 C 
ATOM     61  C   UNL A   1      44.349  32.060  28.821  1.00  0.00     0.037 A 
BRANCH  48  62
ATOM     62  C   UNL A   1      38.842  30.208  30.919  1.00  0.00     0.057 A 
ATOM     63  C   UNL A   1      38.671  29.911  32.276  1.00  0.00     0.134 A 
ATOM     64  C   UNL A   1      37.793  30.870  30.265  1.00  0.00     0.134 A 
ATOM     65  F   UNL A   1      39.630  29.266  32.956  1.00  0.00    -0.206 F 
ATOM     66  C   UNL A   1      37.494  30.242  32.952  1.00  0.00     0.040 A 
ATOM     67  C   UNL A   1      36.622  31.226  30.935  1.00  0.00     0.040 A 
ATOM     68  F   UNL A   1      37.894  31.188  28.965  1.00  0.00    -0.206 F 
ATOM     69  C   UNL A   1      36.467  30.906  32.281  1.00  0.00     0.006 A 
ENDBRANCH  48  62
BRANCH  49  70
ATOM     70  C   UNL A   1      47.080  27.434  26.031  1.00  0.00     0.057 A 
ATOM     71  C   UNL A   1      47.183  27.598  24.645  1.00  0.00     0.134 A 
ATOM     72  C   UNL A   1      48.177  26.863  26.693  1.00  0.00     0.134 A 
ATOM     73  F   UNL A   1      46.159  28.108  23.947  1.00  0.00    -0.206 F 
ATOM     74  C   UNL A   1      48.331  27.212  23.947  1.00  0.00     0.040 A 
ATOM     75  C   UNL A   1      49.341  26.504  26.013  1.00  0.00     0.040 A 
ATOM     76  F   UNL A   1      48.140  26.666  28.019  1.00  0.00    -0.206 F 
ATOM     77  C   UNL A   1      49.417  26.673  24.633  1.00  0.00     0.006 A 
ENDBRANCH  49  70
BRANCH  61  78
ATOM     78  C   UNL A   1      44.968  33.425  28.889  1.00  0.00     0.057 A 
ATOM     79  C   UNL A   1      44.670  34.414  27.943  1.00  0.00     0.134 A 
ATOM     80  C   UNL A   1      45.831  33.769  29.937  1.00  0.00     0.134 A 
ATOM     81  F   UNL A   1      43.863  34.143  26.906  1.00  0.00    -0.206 F 
ATOM     82  C   UNL A   1      45.221  35.693  28.030  1.00  0.00     0.040 A 
ATOM     83  C   UNL A   1      46.368  35.051  30.048  1.00  0.00     0.040 A 
ATOM     84  F   UNL A   1      46.153  32.868  30.878  1.00  0.00    -0.206 F 
ATOM     85  C   UNL A   1      46.066  36.017  29.090  1.00  0.00     0.006 A 
ENDBRANCH  61  78
ENDBRANCH  35  36
ENDBRANCH  28  30
ENDBRANCH  27  28
ENDBRANCH  26  27
ENDBRANCH   1  26
TORSDOF 14
ENDMDL
MODEL 2
REMARK VINA RESULT:     -11.6      4.325      8.606
REMARK SMILES Cc1c[nH]c(C[N@H+]2C[C@@H]3CN(S(C)(=O)=O)C[C@]3(C(=O)OCCOC(=O)c3ccc(-c4c5nc(c(-c6c(F)cccc6F)c6ccc([nH]6)c(-c6c(F)cccc6F)c6nc(c(-c7c(F)cccc7F)c7ccc4[nH]7)C=C6)C=C5)cc3)C2)n1
REMARK SMILES IDX 21 1 20 2 18 3 19 4 17 5 7 6 8 7 80 8 9 10 10 11 16 12 11 13
REMARK SMILES IDX 6 14 5 15 1 16 2 17 3 18 81 19 4 20 12 22 13 23 14 24 15 25
REMARK SMILES IDX 22 26 23 27 24 28 25 29 26 30 27 31 79 32 28 33 78 34 29 35
REMARK SMILES IDX 30 36 31 37 72 38 32 39 77 40 71 41 73 42 33 43 76 44 70 45
REMARK SMILES IDX 69 46 34 48 60 49 43 50 59 51 44 52 47 53 58 54 74 55 45 56
REMARK SMILES IDX 46 57 57 59 75 60 48 61 35 62 36 63 41 64 37 65 38 66 40 67
REMARK SMILES IDX 42 68 39 69 61 70 62 71 67 72 63 73 64 74 66 75 68 76 65 77
REMARK SMILES IDX 49 78 50 79 55 80 51 81 52 82 54 83 56 84 53 85
REMARK H PARENT 7 9 4 21 73 47 47 58
REMARK Flexibility Score: inf
ROOT
ATOM      1  C   UNL A   1      32.018  27.801  27.057  1.00  0.00     0.274 C 
ENDROOT
BRANCH   1   2
ATOM      2  O   UNL A   1      30.853  27.002  26.714  1.00  0.00    -0.461 OA
BRANCH   2   3
ATOM      3  C   UNL A   1      31.118  25.824  26.067  1.00  0.00     0.319 C 
ATOM      4  O   UNL A   1      30.930  24.768  26.658  1.00  0.00    -0.251 OA
BRANCH   3   5
ATOM      5  C   UNL A   1      31.769  26.026  24.594  1.00  0.00     0.140 C 
ATOM      6  N   UNL A   1      33.911  24.691  24.043  1.00  0.00    -0.327 N 
ATOM      7  C   UNL A   1      33.393  25.144  22.784  1.00  0.00     0.268 C 
ATOM      8  C   UNL A   1      32.803  24.853  24.993  1.00  0.00     0.283 C 
ATOM      9  H   UNL A   1      34.730  25.243  24.296  1.00  0.00     0.348 HD
ATOM     10  C   UNL A   1      31.929  25.386  23.097  1.00  0.00     0.084 C 
ATOM     11  C   UNL A   1      31.380  26.327  22.031  1.00  0.00     0.113 C 
ATOM     12  C   UNL A   1      30.292  26.388  24.080  1.00  0.00     0.127 C 
ATOM     13  N   UNL A   1      30.461  27.134  22.803  1.00  0.00    -0.200 NA
BRANCH   6  14
ATOM     14  C   UNL A   1      34.450  23.313  24.041  1.00  0.00     0.338 C 
BRANCH  14  15
ATOM     15  C   UNL A   1      35.787  23.087  24.705  1.00  0.00     0.161 A 
ATOM     16  C   UNL A   1      38.762  23.918  26.499  1.00  0.00     0.068 C 
ATOM     17  C   UNL A   1      37.657  23.254  25.771  1.00  0.00     0.056 A 
ATOM     18  C   UNL A   1      37.553  21.933  25.400  1.00  0.00     0.107 A 
ATOM     19  N   UNL A   1      36.556  23.957  25.336  1.00  0.00    -0.233 NA
ATOM     20  N   UNL A   1      36.373  21.842  24.720  1.00  0.00    -0.344 N 
ATOM     21  H   UNL A   1      36.005  21.025  24.312  1.00  0.00     0.167 HD
ENDBRANCH  14  15
ENDBRANCH   6  14
BRANCH  13  22
ATOM     22  S   UNL A   1      30.737  28.807  22.844  1.00  0.00     0.211 S 
ATOM     23  C   UNL A   1      32.518  28.952  22.755  1.00  0.00     0.176 C 
ATOM     24  O   UNL A   1      30.198  29.368  21.628  1.00  0.00    -0.213 OA
ATOM     25  O   UNL A   1      30.327  29.300  24.145  1.00  0.00    -0.213 OA
ENDBRANCH  13  22
ENDBRANCH   3   5
ENDBRANCH   2   3
ENDBRANCH   1   2
BRANCH   1  26
ATOM     26  C   UNL A   1      31.776  29.330  27.047  1.00  0.00     0.275 C 
BRANCH  26  27
ATOM     27  O   UNL A   1      32.841  30.059  26.388  1.00  0.00    -0.458 OA
BRANCH  27  28
ATOM     28  C   UNL A   1      33.275  31.198  26.988  1.00  0.00     0.338 C 
ATOM     29  O   UNL A   1      32.659  32.243  27.102  1.00  0.00    -0.246 OA
BRANCH  28  30
ATOM     30  C   UNL A   1      34.598  30.988  27.620  1.00  0.00     0.060 A 
ATOM     31  C   UNL A   1      34.928  29.701  28.026  1.00  0.00     0.016 A 
ATOM     32  C   UNL A   1      35.444  32.039  27.966  1.00  0.00     0.016 A 
ATOM     33  C   UNL A   1      36.097  29.435  28.726  1.00  0.00     0.010 A 
ATOM     34  C   UNL A   1      36.645  31.771  28.655  1.00  0.00     0.010 A 
ATOM     35  C   UNL A   1      36.989  30.460  29.039  1.00  0.00    -0.014 A 
BRANCH  35  36
ATOM     36  C   UNL A   1      38.225  30.133  29.807  1.00  0.00     0.031 A 
ATOM     37  C   UNL A   1      39.288  29.257  29.203  1.00  0.00     0.074 A 
ATOM     38  C   UNL A   1      38.448  30.694  31.015  1.00  0.00     0.049 A 
ATOM     39  N   UNL A   1      40.367  28.761  29.755  1.00  0.00    -0.248 NA
ATOM     40  C   UNL A   1      39.129  28.908  27.783  1.00  0.00     0.031 C 
ATOM     41  C   UNL A   1      37.567  31.660  31.677  1.00  0.00     0.029 A 
ATOM     42  N   UNL A   1      39.491  30.544  31.900  1.00  0.00    -0.354 N 
ATOM     43  C   UNL A   1      40.997  28.017  28.764  1.00  0.00     0.074 A 
ATOM     44  C   UNL A   1      40.183  28.132  27.572  1.00  0.00     0.031 C 
ATOM     45  C   UNL A   1      38.115  32.033  32.843  1.00  0.00     0.029 A 
ATOM     46  C   UNL A   1      39.326  31.253  33.067  1.00  0.00     0.049 A 
ATOM     47  H   UNL A   1      40.278  29.983  31.716  1.00  0.00     0.167 HD
ATOM     48  C   UNL A   1      42.142  27.298  28.846  1.00  0.00     0.037 A 
ATOM     49  C   UNL A   1      40.026  31.230  34.219  1.00  0.00     0.037 A 
ATOM     50  C   UNL A   1      42.949  27.191  30.033  1.00  0.00     0.049 A 
ATOM     51  C   UNL A   1      41.197  30.297  34.342  1.00  0.00     0.074 A 
ATOM     52  C   UNL A   1      44.108  26.459  30.227  1.00  0.00     0.029 A 
ATOM     53  N   UNL A   1      42.676  27.830  31.234  1.00  0.00    -0.354 N 
ATOM     54  N   UNL A   1      41.745  29.538  33.425  1.00  0.00    -0.248 NA
ATOM     55  C   UNL A   1      41.823  30.187  35.667  1.00  0.00     0.031 C 
ATOM     56  C   UNL A   1      44.504  26.609  31.561  1.00  0.00     0.029 A 
ATOM     57  C   UNL A   1      43.621  27.476  32.184  1.00  0.00     0.049 A 
ATOM     58  H   UNL A   1      41.922  28.444  31.388  1.00  0.00     0.167 HD
ATOM     59  C   UNL A   1      42.778  28.861  34.060  1.00  0.00     0.074 A 
ATOM     60  C   UNL A   1      42.799  29.321  35.433  1.00  0.00     0.031 C 
ATOM     61  C   UNL A   1      43.626  27.936  33.549  1.00  0.00     0.037 A 
BRANCH  48  62
ATOM     62  C   UNL A   1      42.551  26.512  27.635  1.00  0.00     0.057 A 
ATOM     63  C   UNL A   1      43.344  27.058  26.619  1.00  0.00     0.134 A 
ATOM     64  C   UNL A   1      42.159  25.173  27.499  1.00  0.00     0.134 A 
ATOM     65  F   UNL A   1      43.742  28.337  26.680  1.00  0.00    -0.206 F 
ATOM     66  C   UNL A   1      43.715  26.307  25.500  1.00  0.00     0.040 A 
ATOM     67  C   UNL A   1      42.541  24.406  26.397  1.00  0.00     0.040 A 
ATOM     68  F   UNL A   1      41.401  24.587  28.439  1.00  0.00    -0.206 F 
ATOM     69  C   UNL A   1      43.316  24.976  25.390  1.00  0.00     0.006 A 
ENDBRANCH  48  62
BRANCH  49  70
ATOM     70  C   UNL A   1      39.574  32.042  35.381  1.00  0.00     0.057 A 
ATOM     71  C   UNL A   1      40.076  33.326  35.616  1.00  0.00     0.134 A 
ATOM     72  C   UNL A   1      38.629  31.545  36.291  1.00  0.00     0.134 A 
ATOM     73  F   UNL A   1      41.005  33.848  34.802  1.00  0.00    -0.206 F 
ATOM     74  C   UNL A   1      39.654  34.087  36.710  1.00  0.00     0.040 A 
ATOM     75  C   UNL A   1      38.175  32.307  37.368  1.00  0.00     0.040 A 
ATOM     76  F   UNL A   1      38.116  30.316  36.133  1.00  0.00    -0.206 F 
ATOM     77  C   UNL A   1      38.693  33.582  37.583  1.00  0.00     0.006 A 
ENDBRANCH  49  70
BRANCH  61  78
ATOM     78  C   UNL A   1      44.658  27.367  34.478  1.00  0.00     0.057 A 
ATOM     79  C   UNL A   1      44.432  26.179  35.186  1.00  0.00     0.134 A 
ATOM     80  C   UNL A   1      45.905  27.985  34.629  1.00  0.00     0.134 A 
ATOM     81  F   UNL A   1      43.252  25.547  35.097  1.00  0.00    -0.206 F 
ATOM     82  C   UNL A   1      45.408  25.635  36.023  1.00  0.00     0.040 A 
ATOM     83  C   UNL A   1      46.896  27.437  35.443  1.00  0.00     0.040 A 
ATOM     84  F   UNL A   1      46.185  29.123  33.975  1.00  0.00    -0.206 F 
ATOM     85  C   UNL A   1      46.647  26.260  36.146  1.00  0.00     0.006 A 
ENDBRANCH  61  78
ENDBRANCH  35  36
ENDBRANCH  28  30
ENDBRANCH  27  28
ENDBRANCH  26  27
ENDBRANCH   1  26
TORSDOF 14
ENDMDL
MODEL 3
REMARK VINA RESULT:     -11.6      4.494      9.655
REMARK SMILES Cc1c[nH]c(C[N@H+]2C[C@@H]3CN(S(C)(=O)=O)C[C@]3(C(=O)OCCOC(=O)c3ccc(-c4c5nc(c(-c6c(F)cccc6F)c6ccc([nH]6)c(-c6c(F)cccc6F)c6nc(c(-c7c(F)cccc7F)c7ccc4[nH]7)C=C6)C=C5)cc3)C2)n1
REMARK SMILES IDX 21 1 20 2 18 3 19 4 17 5 7 6 8 7 80 8 9 10 10 11 16 12 11 13
REMARK SMILES IDX 6 14 5 15 1 16 2 17 3 18 81 19 4 20 12 22 13 23 14 24 15 25
REMARK SMILES IDX 22 26 23 27 24 28 25 29 26 30 27 31 79 32 28 33 78 34 29 35
REMARK SMILES IDX 30 36 31 37 72 38 32 39 77 40 71 41 73 42 33 43 76 44 70 45
REMARK SMILES IDX 69 46 34 48 60 49 43 50 59 51 44 52 47 53 58 54 74 55 45 56
REMARK SMILES IDX 46 57 57 59 75 60 48 61 35 62 36 63 41 64 37 65 38 66 40 67
REMARK SMILES IDX 42 68 39 69 61 70 62 71 67 72 63 73 64 74 66 75 68 76 65 77
REMARK SMILES IDX 49 78 50 79 55 80 51 81 52 82 54 83 56 84 53 85
REMARK H PARENT 7 9 4 21 73 47 47 58
REMARK Flexibility Score: inf
ROOT
ATOM      1  C   UNL A   1      33.079  29.118  24.618  1.00  0.00     0.274 C 
ENDROOT
BRANCH   1   2
ATOM      2  O   UNL A   1      32.997  28.972  23.174  1.00  0.00    -0.461 OA
BRANCH   2   3
ATOM      3  C   UNL A   1      32.950  27.683  22.715  1.00  0.00     0.319 C 
ATOM      4  O   UNL A   1      33.653  27.365  21.764  1.00  0.00    -0.251 OA
BRANCH   3   5
ATOM      5  C   UNL A   1      31.841  26.767  23.469  1.00  0.00     0.140 C 
ATOM      6  N   UNL A   1      29.430  27.680  23.602  1.00  0.00    -0.327 N 
ATOM      7  C   UNL A   1      29.338  26.279  23.903  1.00  0.00     0.268 C 
ATOM      8  C   UNL A   1      30.751  27.855  22.989  1.00  0.00     0.283 C 
ATOM      9  H   UNL A   1      29.318  28.222  24.458  1.00  0.00     0.348 HD
ATOM     10  C   UNL A   1      30.599  25.724  23.266  1.00  0.00     0.084 C 
ATOM     11  C   UNL A   1      30.890  24.379  23.922  1.00  0.00     0.113 C 
ATOM     12  C   UNL A   1      32.732  25.496  23.059  1.00  0.00     0.127 C 
ATOM     13  N   UNL A   1      32.336  24.391  23.973  1.00  0.00    -0.200 NA
BRANCH   6  14
ATOM     14  C   UNL A   1      28.342  28.211  22.751  1.00  0.00     0.338 C 
BRANCH  14  15
ATOM     15  C   UNL A   1      28.338  29.694  22.469  1.00  0.00     0.161 A 
ATOM     16  C   UNL A   1      28.778  33.178  23.125  1.00  0.00     0.068 C 
ATOM     17  C   UNL A   1      28.516  31.845  22.537  1.00  0.00     0.056 A 
ATOM     18  C   UNL A   1      28.066  31.545  21.272  1.00  0.00     0.107 A 
ATOM     19  N   UNL A   1      28.683  30.689  23.267  1.00  0.00    -0.233 NA
ATOM     20  N   UNL A   1      27.949  30.185  21.245  1.00  0.00    -0.344 N 
ATOM     21  H   UNL A   1      27.641  29.649  20.478  1.00  0.00     0.167 HD
ENDBRANCH  14  15
ENDBRANCH   6  14
BRANCH  13  22
ATOM     22  S   UNL A   1      33.064  24.267  25.500  1.00  0.00     0.211 S 
ATOM     23  C   UNL A   1      31.681  24.235  26.635  1.00  0.00     0.176 C 
ATOM     24  O   UNL A   1      33.711  22.980  25.573  1.00  0.00    -0.213 OA
ATOM     25  O   UNL A   1      33.799  25.493  25.749  1.00  0.00    -0.213 OA
ENDBRANCH  13  22
ENDBRANCH   3   5
ENDBRANCH   2   3
ENDBRANCH   1   2
BRANCH   1  26
ATOM     26  C   UNL A   1      32.015  30.060  25.232  1.00  0.00     0.275 C 
BRANCH  26  27
ATOM     27  O   UNL A   1      32.226  30.294  26.646  1.00  0.00    -0.458 OA
BRANCH  27  28
ATOM     28  C   UNL A   1      32.787  31.479  27.001  1.00  0.00     0.338 C 
ATOM     29  O   UNL A   1      32.274  32.582  26.923  1.00  0.00    -0.246 OA
BRANCH  28  30
ATOM     30  C   UNL A   1      34.112  31.268  27.628  1.00  0.00     0.060 A 
ATOM     31  C   UNL A   1      34.455  29.974  28.001  1.00  0.00     0.016 A 
ATOM     32  C   UNL A   1      34.947  32.318  28.001  1.00  0.00     0.016 A 
ATOM     33  C   UNL A   1      35.627  29.703  28.695  1.00  0.00     0.010 A 
ATOM     34  C   UNL A   1      36.150  32.046  28.685  1.00  0.00     0.010 A 
ATOM     35  C   UNL A   1      36.507  30.729  29.035  1.00  0.00    -0.014 A 
BRANCH  35  36
ATOM     36  C   UNL A   1      37.746  30.396  29.796  1.00  0.00     0.031 A 
ATOM     37  C   UNL A   1      38.820  29.547  29.170  1.00  0.00     0.074 A 
ATOM     38  C   UNL A   1      37.963  30.928  31.018  1.00  0.00     0.049 A 
ATOM     39  N   UNL A   1      39.904  29.050  29.710  1.00  0.00    -0.248 NA
ATOM     40  C   UNL A   1      38.666  29.234  27.741  1.00  0.00     0.031 C 
ATOM     41  C   UNL A   1      37.071  31.866  31.704  1.00  0.00     0.029 A 
ATOM     42  N   UNL A   1      39.006  30.766  31.900  1.00  0.00    -0.354 N 
ATOM     43  C   UNL A   1      40.543  28.339  28.700  1.00  0.00     0.074 A 
ATOM     44  C   UNL A   1      39.729  28.476  27.511  1.00  0.00     0.031 C 
ATOM     45  C   UNL A   1      37.614  32.214  32.881  1.00  0.00     0.029 A 
ATOM     46  C   UNL A   1      38.833  31.442  33.085  1.00  0.00     0.049 A 
ATOM     47  H   UNL A   1      39.800  30.219  31.702  1.00  0.00     0.167 HD
ATOM     48  C   UNL A   1      41.696  27.631  28.764  1.00  0.00     0.037 A 
ATOM     49  C   UNL A   1      39.532  31.397  34.237  1.00  0.00     0.037 A 
ATOM     50  C   UNL A   1      42.503  27.502  29.950  1.00  0.00     0.049 A 
ATOM     51  C   UNL A   1      40.713  30.474  34.336  1.00  0.00     0.074 A 
ATOM     52  C   UNL A   1      43.670  26.778  30.125  1.00  0.00     0.029 A 
ATOM     53  N   UNL A   1      42.222  28.106  31.166  1.00  0.00    -0.354 N 
ATOM     54  N   UNL A   1      41.271  29.745  33.400  1.00  0.00    -0.248 NA
ATOM     55  C   UNL A   1      41.339  30.336  35.659  1.00  0.00     0.031 C 
ATOM     56  C   UNL A   1      44.063  26.898  31.463  1.00  0.00     0.029 A 
ATOM     57  C   UNL A   1      43.171  27.738  32.107  1.00  0.00     0.049 A 
ATOM     58  H   UNL A   1      41.461  28.707  31.335  1.00  0.00     0.167 HD
ATOM     59  C   UNL A   1      42.311  29.064  34.018  1.00  0.00     0.074 A 
ATOM     60  C   UNL A   1      42.325  29.488  35.403  1.00  0.00     0.031 C 
ATOM     61  C   UNL A   1      43.170  28.162  33.484  1.00  0.00     0.037 A 
BRANCH  48  62
ATOM     62  C   UNL A   1      42.115  26.881  27.533  1.00  0.00     0.057 A 
ATOM     63  C   UNL A   1      42.868  27.475  26.514  1.00  0.00     0.134 A 
ATOM     64  C   UNL A   1      41.773  25.530  27.381  1.00  0.00     0.134 A 
ATOM     65  F   UNL A   1      43.216  28.768  26.590  1.00  0.00    -0.206 F 
ATOM     66  C   UNL A   1      43.248  26.758  25.376  1.00  0.00     0.040 A 
ATOM     67  C   UNL A   1      42.166  24.797  26.261  1.00  0.00     0.040 A 
ATOM     68  F   UNL A   1      41.056  24.899  28.324  1.00  0.00    -0.206 F 
ATOM     69  C   UNL A   1      42.900  25.413  25.251  1.00  0.00     0.006 A 
ENDBRANCH  48  62
BRANCH  49  70
ATOM     70  C   UNL A   1      39.070  32.173  35.419  1.00  0.00     0.057 A 
ATOM     71  C   UNL A   1      39.450  33.505  35.614  1.00  0.00     0.134 A 
ATOM     72  C   UNL A   1      38.239  31.594  36.389  1.00  0.00     0.134 A 
ATOM     73  F   UNL A   1      40.269  34.109  34.741  1.00  0.00    -0.206 F 
ATOM     74  C   UNL A   1      39.019  34.233  36.727  1.00  0.00     0.040 A 
ATOM     75  C   UNL A   1      37.775  32.319  37.488  1.00  0.00     0.040 A 
ATOM     76  F   UNL A   1      37.847  30.316  36.272  1.00  0.00    -0.206 F 
ATOM     77  C   UNL A   1      38.171  33.642  37.661  1.00  0.00     0.006 A 
ENDBRANCH  49  70
BRANCH  61  78
ATOM     78  C   UNL A   1      44.207  27.580  34.398  1.00  0.00     0.057 A 
ATOM     79  C   UNL A   1      44.003  26.362  35.059  1.00  0.00     0.134 A 
ATOM     80  C   UNL A   1      45.439  28.219  34.584  1.00  0.00     0.134 A 
ATOM     81  F   UNL A   1      42.837  25.708  34.936  1.00  0.00    -0.206 F 
ATOM     82  C   UNL A   1      44.984  25.807  35.882  1.00  0.00     0.040 A 
ATOM     83  C   UNL A   1      46.436  27.662  35.384  1.00  0.00     0.040 A 
ATOM     84  F   UNL A   1      45.698  29.387  33.976  1.00  0.00    -0.206 F 
ATOM     85  C   UNL A   1      46.208  26.454  36.039  1.00  0.00     0.006 A 
ENDBRANCH  61  78
ENDBRANCH  35  36
ENDBRANCH  28  30
ENDBRANCH  27  28
ENDBRANCH  26  27
ENDBRANCH   1  26
TORSDOF 14
ENDMDL
