MODEL 1
REMARK VINA RESULT:     -11.7      0.000      0.000
REMARK SMILES O=C(CCOc1cc(-c2ccncc2)nc(-c2ccc(C(F)(F)F)cc2)n1)OCCOC(=O)c1ccc(-c2c3nc(c(-c4c(F)cccc4F)c4ccc([nH]4)c(-c4c(F)cccc4F)c4nc(c(-c5c(F)cccc5F)c5ccc2[nH]5)C=C4)C=C3)cc1
REMARK SMILES IDX 28 1 2 2 1 3 3 4 4 5 5 6 6 7 7 8 27 9 8 10 16 11 15 12 9 13
REMARK SMILES IDX 10 14 14 15 11 16 13 17 12 18 17 19 18 20 26 21 19 22 25 23
REMARK SMILES IDX 20 24 21 25 22 26 23 27 24 28 29 29 30 30 31 31 32 32 33 33
REMARK SMILES IDX 34 34 35 35 87 36 36 37 86 38 37 39 38 40 39 41 80 42 40 43
REMARK SMILES IDX 85 44 79 45 81 46 41 47 84 48 78 49 77 50 42 52 68 53 51 54
REMARK SMILES IDX 67 55 52 56 55 57 66 58 82 59 53 60 54 61 65 63 83 64 56 65
REMARK SMILES IDX 43 66 44 67 49 68 45 69 46 70 48 71 50 72 47 73 69 74 70 75
REMARK SMILES IDX 75 76 71 77 72 78 74 79 76 80 73 81 57 82 58 83 63 84 59 85
REMARK SMILES IDX 60 86 62 87 64 88 61 89
REMARK H PARENT 81 51 55 62
REMARK Flexibility Score: inf
ROOT
ATOM      1  O   UNL A   1      31.903  27.371  24.983  1.00  0.00    -0.462 OA
ENDROOT
BRANCH   1   2
ATOM      2  C   UNL A   1      32.027  26.422  24.033  1.00  0.00     0.309 C 
ATOM      3  O   UNL A   1      32.712  26.640  23.033  1.00  0.00    -0.252 OA
BRANCH   2   4
ATOM      4  C   UNL A   1      31.466  25.053  24.261  1.00  0.00     0.164 C 
BRANCH   4   5
ATOM      5  C   UNL A   1      32.222  24.049  23.398  1.00  0.00     0.243 C 
BRANCH   5   6
ATOM      6  O   UNL A   1      31.849  22.696  23.645  1.00  0.00    -0.477 OA
BRANCH   6   7
ATOM      7  C   UNL A   1      32.743  21.812  24.166  1.00  0.00     0.217 A 
ATOM      8  C   UNL A   1      32.499  20.512  24.529  1.00  0.00     0.097 A 
ATOM      9  N   UNL A   1      33.967  22.338  24.235  1.00  0.00    -0.193 NA
ATOM     10  C   UNL A   1      33.611  19.704  24.701  1.00  0.00     0.078 A 
ATOM     11  C   UNL A   1      34.965  21.526  24.620  1.00  0.00     0.163 A 
ATOM     12  N   UNL A   1      34.862  20.197  24.764  1.00  0.00    -0.228 NA
BRANCH  10  13
ATOM     13  C   UNL A   1      33.483  18.244  24.681  1.00  0.00     0.003 A 
ATOM     14  C   UNL A   1      32.669  17.600  25.624  1.00  0.00     0.030 A 
ATOM     15  C   UNL A   1      34.205  17.447  23.792  1.00  0.00     0.030 A 
ATOM     16  C   UNL A   1      32.632  16.216  25.657  1.00  0.00     0.111 A 
ATOM     17  C   UNL A   1      34.088  16.067  23.889  1.00  0.00     0.111 A 
ATOM     18  N   UNL A   1      33.321  15.434  24.804  1.00  0.00    -0.265 NA
ENDBRANCH  10  13
BRANCH  11  19
ATOM     19  C   UNL A   1      36.151  22.193  25.157  1.00  0.00     0.019 A 
ATOM     20  C   UNL A   1      36.030  23.521  25.610  1.00  0.00     0.012 A 
ATOM     21  C   UNL A   1      37.396  21.562  25.287  1.00  0.00     0.012 A 
ATOM     22  C   UNL A   1      37.103  24.198  26.181  1.00  0.00     0.014 A 
ATOM     23  C   UNL A   1      38.484  22.246  25.846  1.00  0.00     0.014 A 
ATOM     24  C   UNL A   1      38.345  23.567  26.302  1.00  0.00     0.056 A 
BRANCH  24  25
ATOM     25  C   UNL A   1      39.489  24.321  26.931  1.00  0.00     0.416 C 
ATOM     26  F   UNL A   1      39.103  25.024  28.032  1.00  0.00    -0.166 F 
ATOM     27  F   UNL A   1      40.485  23.492  27.351  1.00  0.00    -0.166 F 
ATOM     28  F   UNL A   1      40.076  25.222  26.098  1.00  0.00    -0.166 F 
ENDBRANCH  24  25
ENDBRANCH  11  19
ENDBRANCH   6   7
ENDBRANCH   5   6
ENDBRANCH   4   5
ENDBRANCH   2   4
ENDBRANCH   1   2
BRANCH   1  29
ATOM     29  C   UNL A   1      31.632  28.779  24.786  1.00  0.00     0.274 C 
BRANCH  29  30
ATOM     30  C   UNL A   1      32.872  29.578  25.178  1.00  0.00     0.275 C 
BRANCH  30  31
ATOM     31  O   UNL A   1      32.970  29.597  26.608  1.00  0.00    -0.458 OA
BRANCH  31  32
ATOM     32  C   UNL A   1      33.282  30.804  27.154  1.00  0.00     0.338 C 
ATOM     33  O   UNL A   1      32.534  31.733  27.366  1.00  0.00    -0.246 OA
BRANCH  32  34
ATOM     34  C   UNL A   1      34.668  30.702  27.657  1.00  0.00     0.060 A 
ATOM     35  C   UNL A   1      35.180  29.441  27.994  1.00  0.00     0.016 A 
ATOM     36  C   UNL A   1      35.464  31.843  27.753  1.00  0.00     0.016 A 
ATOM     37  C   UNL A   1      36.495  29.319  28.441  1.00  0.00     0.010 A 
ATOM     38  C   UNL A   1      36.765  31.728  28.223  1.00  0.00     0.010 A 
ATOM     39  C   UNL A   1      37.271  30.472  28.600  1.00  0.00    -0.014 A 
BRANCH  39  40
ATOM     40  C   UNL A   1      38.499  30.456  29.418  1.00  0.00     0.031 A 
ATOM     41  C   UNL A   1      39.647  29.641  28.901  1.00  0.00     0.074 A 
ATOM     42  C   UNL A   1      38.542  31.033  30.627  1.00  0.00     0.049 A 
ATOM     43  N   UNL A   1      40.737  29.258  29.508  1.00  0.00    -0.248 NA
ATOM     44  C   UNL A   1      39.525  29.162  27.512  1.00  0.00     0.031 C 
ATOM     45  C   UNL A   1      37.490  31.862  31.211  1.00  0.00     0.029 A 
ATOM     46  N   UNL A   1      39.505  30.967  31.601  1.00  0.00    -0.354 N 
ATOM     47  C   UNL A   1      41.419  28.478  28.584  1.00  0.00     0.074 A 
ATOM     48  C   UNL A   1      40.611  28.419  27.388  1.00  0.00     0.031 C 
ATOM     49  C   UNL A   1      37.849  32.198  32.463  1.00  0.00     0.029 A 
ATOM     50  C   UNL A   1      39.134  31.573  32.775  1.00  0.00     0.049 A 
ATOM     51  H   UNL A   1      40.377  30.529  31.470  1.00  0.00     0.167 HD
ATOM     52  C   UNL A   1      42.614  27.861  28.726  1.00  0.00     0.037 A 
ATOM     53  C   UNL A   1      39.751  31.582  33.972  1.00  0.00     0.037 A 
ATOM     54  C   UNL A   1      43.395  27.911  29.930  1.00  0.00     0.049 A 
ATOM     55  C   UNL A   1      41.057  30.848  34.128  1.00  0.00     0.074 A 
ATOM     56  C   UNL A   1      44.628  27.341  30.185  1.00  0.00     0.029 A 
ATOM     57  N   UNL A   1      43.002  28.565  31.090  1.00  0.00    -0.354 N 
ATOM     58  N   UNL A   1      41.718  30.137  33.246  1.00  0.00    -0.248 NA
ATOM     59  C   UNL A   1      41.704  30.918  35.446  1.00  0.00     0.031 C 
ATOM     60  C   UNL A   1      44.960  27.611  31.517  1.00  0.00     0.029 A 
ATOM     61  C   UNL A   1      43.960  28.397  32.072  1.00  0.00     0.049 A 
ATOM     62  H   UNL A   1      42.166  29.073  31.197  1.00  0.00     0.167 HD
ATOM     63  C   UNL A   1      42.873  29.706  33.886  1.00  0.00     0.074 A 
ATOM     64  C   UNL A   1      42.821  30.232  35.234  1.00  0.00     0.031 C 
ATOM     65  C   UNL A   1      43.890  28.949  33.402  1.00  0.00     0.037 A 
BRANCH  52  66
ATOM     66  C   UNL A   1      43.104  27.051  27.562  1.00  0.00     0.057 A 
ATOM     67  C   UNL A   1      42.993  25.654  27.532  1.00  0.00     0.134 A 
ATOM     68  C   UNL A   1      43.723  27.673  26.472  1.00  0.00     0.134 A 
ATOM     69  F   UNL A   1      42.432  24.993  28.556  1.00  0.00    -0.206 F 
ATOM     70  C   UNL A   1      43.514  24.903  26.476  1.00  0.00     0.040 A 
ATOM     71  C   UNL A   1      44.220  26.936  25.397  1.00  0.00     0.040 A 
ATOM     72  F   UNL A   1      43.866  29.006  26.438  1.00  0.00    -0.206 F 
ATOM     73  C   UNL A   1      44.126  25.545  25.403  1.00  0.00     0.006 A 
ENDBRANCH  52  66
BRANCH  53  74
ATOM     74  C   UNL A   1      39.136  32.305  35.113  1.00  0.00     0.057 A 
ATOM     75  C   UNL A   1      38.343  31.632  36.049  1.00  0.00     0.134 A 
ATOM     76  C   UNL A   1      39.338  33.677  35.307  1.00  0.00     0.134 A 
ATOM     77  F   UNL A   1      38.098  30.321  35.906  1.00  0.00    -0.206 F 
ATOM     78  C   UNL A   1      37.766  32.298  37.131  1.00  0.00     0.040 A 
ATOM     79  C   UNL A   1      38.785  34.351  36.396  1.00  0.00     0.040 A 
ATOM     80  F   UNL A   1      40.091  34.379  34.447  1.00  0.00    -0.206 F 
ATOM     81  C   UNL A   1      37.992  33.661  37.312  1.00  0.00     0.006 A 
ENDBRANCH  53  74
BRANCH  65  82
ATOM     82  C   UNL A   1      45.056  28.691  34.310  1.00  0.00     0.057 A 
ATOM     83  C   UNL A   1      45.130  27.555  35.123  1.00  0.00     0.134 A 
ATOM     84  C   UNL A   1      46.160  29.556  34.300  1.00  0.00     0.134 A 
ATOM     85  F   UNL A   1      44.102  26.694  35.184  1.00  0.00    -0.206 F 
ATOM     86  C   UNL A   1      46.256  27.293  35.905  1.00  0.00     0.040 A 
ATOM     87  C   UNL A   1      47.300  29.291  35.057  1.00  0.00     0.040 A 
ATOM     88  F   UNL A   1      46.156  30.656  33.532  1.00  0.00    -0.206 F 
ATOM     89  C   UNL A   1      47.349  28.157  35.865  1.00  0.00     0.006 A 
ENDBRANCH  65  82
ENDBRANCH  39  40
ENDBRANCH  32  34
ENDBRANCH  31  32
ENDBRANCH  30  31
ENDBRANCH  29  30
ENDBRANCH   1  29
TORSDOF 17
ENDMDL
MODEL 2
REMARK VINA RESULT:     -11.7      3.284      7.576
REMARK SMILES O=C(CCOc1cc(-c2ccncc2)nc(-c2ccc(C(F)(F)F)cc2)n1)OCCOC(=O)c1ccc(-c2c3nc(c(-c4c(F)cccc4F)c4ccc([nH]4)c(-c4c(F)cccc4F)c4nc(c(-c5c(F)cccc5F)c5ccc2[nH]5)C=C4)C=C3)cc1
REMARK SMILES IDX 28 1 2 2 1 3 3 4 4 5 5 6 6 7 7 8 27 9 8 10 16 11 15 12 9 13
REMARK SMILES IDX 10 14 14 15 11 16 13 17 12 18 17 19 18 20 26 21 19 22 25 23
REMARK SMILES IDX 20 24 21 25 22 26 23 27 24 28 29 29 30 30 31 31 32 32 33 33
REMARK SMILES IDX 34 34 35 35 87 36 36 37 86 38 37 39 38 40 39 41 80 42 40 43
REMARK SMILES IDX 85 44 79 45 81 46 41 47 84 48 78 49 77 50 42 52 68 53 51 54
REMARK SMILES IDX 67 55 52 56 55 57 66 58 82 59 53 60 54 61 65 63 83 64 56 65
REMARK SMILES IDX 43 66 44 67 49 68 45 69 46 70 48 71 50 72 47 73 69 74 70 75
REMARK SMILES IDX 75 76 71 77 72 78 74 79 76 80 73 81 57 82 58 83 63 84 59 85
REMARK SMILES IDX 60 86 62 87 64 88 61 89
REMARK H PARENT 81 51 55 62
REMARK Flexibility Score: inf
ROOT
ATOM      1  O   UNL A   1      41.897  21.347  25.434  1.00  0.00    -0.462 OA
ENDROOT
BRANCH   1   2
ATOM      2  C   UNL A   1      40.880  20.851  26.167  1.00  0.00     0.309 C 
ATOM      3  O   UNL A   1      40.652  19.641  26.160  1.00  0.00    -0.252 OA
BRANCH   2   4
ATOM      4  C   UNL A   1      40.128  21.740  27.108  1.00  0.00     0.164 C 
BRANCH   4   5
ATOM      5  C   UNL A   1      38.980  22.409  26.359  1.00  0.00     0.243 C 
BRANCH   5   6
ATOM      6  O   UNL A   1      38.443  21.606  25.312  1.00  0.00    -0.477 OA
BRANCH   6   7
ATOM      7  C   UNL A   1      37.099  21.426  25.193  1.00  0.00     0.217 A 
ATOM      8  C   UNL A   1      36.457  20.314  24.711  1.00  0.00     0.097 A 
ATOM      9  N   UNL A   1      36.422  22.467  25.679  1.00  0.00    -0.193 NA
ATOM     10  C   UNL A   1      35.108  20.210  25.004  1.00  0.00     0.078 A 
ATOM     11  C   UNL A   1      35.084  22.362  25.730  1.00  0.00     0.163 A 
ATOM     12  N   UNL A   1      34.393  21.235  25.505  1.00  0.00    -0.228 NA
BRANCH  10  13
ATOM     13  C   UNL A   1      34.421  18.918  24.910  1.00  0.00     0.003 A 
ATOM     14  C   UNL A   1      35.131  17.775  24.516  1.00  0.00     0.030 A 
ATOM     15  C   UNL A   1      33.049  18.789  25.134  1.00  0.00     0.030 A 
ATOM     16  C   UNL A   1      34.451  16.582  24.338  1.00  0.00     0.111 A 
ATOM     17  C   UNL A   1      32.459  17.546  24.948  1.00  0.00     0.111 A 
ATOM     18  N   UNL A   1      33.128  16.441  24.552  1.00  0.00    -0.265 NA
ENDBRANCH  10  13
BRANCH  11  19
ATOM     19  C   UNL A   1      34.351  23.627  25.782  1.00  0.00     0.019 A 
ATOM     20  C   UNL A   1      33.109  23.659  26.444  1.00  0.00     0.012 A 
ATOM     21  C   UNL A   1      34.844  24.824  25.244  1.00  0.00     0.012 A 
ATOM     22  C   UNL A   1      32.384  24.839  26.578  1.00  0.00     0.014 A 
ATOM     23  C   UNL A   1      34.108  26.011  25.361  1.00  0.00     0.014 A 
ATOM     24  C   UNL A   1      32.876  26.030  26.034  1.00  0.00     0.056 A 
BRANCH  24  25
ATOM     25  C   UNL A   1      32.073  27.295  26.199  1.00  0.00     0.416 C 
ATOM     26  F   UNL A   1      31.642  27.471  27.479  1.00  0.00    -0.166 F 
ATOM     27  F   UNL A   1      32.796  28.409  25.895  1.00  0.00    -0.166 F 
ATOM     28  F   UNL A   1      30.960  27.344  25.419  1.00  0.00    -0.166 F 
ENDBRANCH  24  25
ENDBRANCH  11  19
ENDBRANCH   6   7
ENDBRANCH   5   6
ENDBRANCH   4   5
ENDBRANCH   2   4
ENDBRANCH   1   2
BRANCH   1  29
ATOM     29  C   UNL A   1      43.079  22.026  25.921  1.00  0.00     0.274 C 
BRANCH  29  30
ATOM     30  C   UNL A   1      43.749  22.747  24.754  1.00  0.00     0.275 C 
BRANCH  30  31
ATOM     31  O   UNL A   1      43.226  24.080  24.680  1.00  0.00    -0.458 OA
BRANCH  31  32
ATOM     32  C   UNL A   1      44.065  25.059  25.116  1.00  0.00     0.338 C 
ATOM     33  O   UNL A   1      45.120  25.400  24.625  1.00  0.00    -0.246 OA
BRANCH  32  34
ATOM     34  C   UNL A   1      43.350  25.796  26.178  1.00  0.00     0.060 A 
ATOM     35  C   UNL A   1      43.777  27.088  26.517  1.00  0.00     0.016 A 
ATOM     36  C   UNL A   1      42.240  25.226  26.802  1.00  0.00     0.016 A 
ATOM     37  C   UNL A   1      43.097  27.814  27.495  1.00  0.00     0.010 A 
ATOM     38  C   UNL A   1      41.577  25.935  27.794  1.00  0.00     0.010 A 
ATOM     39  C   UNL A   1      42.025  27.215  28.166  1.00  0.00    -0.014 A 
BRANCH  39  40
ATOM     40  C   UNL A   1      41.529  27.760  29.444  1.00  0.00     0.031 A 
ATOM     41  C   UNL A   1      40.327  28.654  29.378  1.00  0.00     0.074 A 
ATOM     42  C   UNL A   1      42.197  27.572  30.592  1.00  0.00     0.049 A 
ATOM     43  N   UNL A   1      39.827  29.446  30.286  1.00  0.00    -0.248 NA
ATOM     44  C   UNL A   1      39.612  28.681  28.090  1.00  0.00     0.031 C 
ATOM     45  C   UNL A   1      43.361  26.708  30.765  1.00  0.00     0.029 A 
ATOM     46  N   UNL A   1      42.007  28.141  31.824  1.00  0.00    -0.354 N 
ATOM     47  C   UNL A   1      38.755  30.081  29.673  1.00  0.00     0.074 A 
ATOM     48  C   UNL A   1      38.692  29.603  28.311  1.00  0.00     0.031 C 
ATOM     49  C   UNL A   1      43.809  26.833  32.027  1.00  0.00     0.029 A 
ATOM     50  C   UNL A   1      42.984  27.816  32.730  1.00  0.00     0.049 A 
ATOM     51  H   UNL A   1      41.244  28.726  32.038  1.00  0.00     0.167 HD
ATOM     52  C   UNL A   1      37.901  30.987  30.202  1.00  0.00     0.037 A 
ATOM     53  C   UNL A   1      43.203  28.293  33.970  1.00  0.00     0.037 A 
ATOM     54  C   UNL A   1      37.991  31.468  31.552  1.00  0.00     0.049 A 
ATOM     55  C   UNL A   1      42.273  29.339  34.528  1.00  0.00     0.074 A 
ATOM     56  C   UNL A   1      37.173  32.371  32.205  1.00  0.00     0.029 A 
ATOM     57  N   UNL A   1      38.976  31.089  32.454  1.00  0.00    -0.354 N 
ATOM     58  N   UNL A   1      41.240  29.915  33.959  1.00  0.00    -0.248 NA
ATOM     59  C   UNL A   1      42.537  29.801  35.897  1.00  0.00     0.031 C 
ATOM     60  C   UNL A   1      37.692  32.574  33.487  1.00  0.00     0.029 A 
ATOM     61  C   UNL A   1      38.799  31.754  33.652  1.00  0.00     0.049 A 
ATOM     62  H   UNL A   1      39.694  30.441  32.267  1.00  0.00     0.167 HD
ATOM     63  C   UNL A   1      40.709  30.778  34.911  1.00  0.00     0.074 A 
ATOM     64  C   UNL A   1      41.538  30.652  36.092  1.00  0.00     0.031 C 
ATOM     65  C   UNL A   1      39.631  31.594  34.820  1.00  0.00     0.037 A 
BRANCH  52  66
ATOM     66  C   UNL A   1      36.841  31.534  29.293  1.00  0.00     0.057 A 
ATOM     67  C   UNL A   1      36.915  32.830  28.762  1.00  0.00     0.134 A 
ATOM     68  C   UNL A   1      35.715  30.767  28.970  1.00  0.00     0.134 A 
ATOM     69  F   UNL A   1      37.956  33.625  29.053  1.00  0.00    -0.206 F 
ATOM     70  C   UNL A   1      35.891  33.355  27.973  1.00  0.00     0.040 A 
ATOM     71  C   UNL A   1      34.699  31.271  28.157  1.00  0.00     0.040 A 
ATOM     72  F   UNL A   1      35.578  29.522  29.447  1.00  0.00    -0.206 F 
ATOM     73  C   UNL A   1      34.780  32.573  27.665  1.00  0.00     0.006 A 
ENDBRANCH  52  66
BRANCH  53  74
ATOM     74  C   UNL A   1      44.353  27.789  34.763  1.00  0.00     0.057 A 
ATOM     75  C   UNL A   1      44.235  26.641  35.552  1.00  0.00     0.134 A 
ATOM     76  C   UNL A   1      45.598  28.430  34.738  1.00  0.00     0.134 A 
ATOM     77  F   UNL A   1      43.062  25.994  35.632  1.00  0.00    -0.206 F 
ATOM     78  C   UNL A   1      45.310  26.151  36.296  1.00  0.00     0.040 A 
ATOM     79  C   UNL A   1      46.687  27.939  35.459  1.00  0.00     0.040 A 
ATOM     80  F   UNL A   1      45.777  29.533  33.997  1.00  0.00    -0.206 F 
ATOM     81  C   UNL A   1      46.544  26.797  36.244  1.00  0.00     0.006 A 
ENDBRANCH  53  74
BRANCH  65  82
ATOM     82  C   UNL A   1      39.244  32.374  36.042  1.00  0.00     0.057 A 
ATOM     83  C   UNL A   1      39.726  33.665  36.284  1.00  0.00     0.134 A 
ATOM     84  C   UNL A   1      38.308  31.849  36.944  1.00  0.00     0.134 A 
ATOM     85  F   UNL A   1      40.631  34.219  35.464  1.00  0.00    -0.206 F 
ATOM     86  C   UNL A   1      39.298  34.404  37.389  1.00  0.00     0.040 A 
ATOM     87  C   UNL A   1      37.854  32.588  38.036  1.00  0.00     0.040 A 
ATOM     88  F   UNL A   1      37.800  30.621  36.760  1.00  0.00    -0.206 F 
ATOM     89  C   UNL A   1      38.351  33.870  38.262  1.00  0.00     0.006 A 
ENDBRANCH  65  82
ENDBRANCH  39  40
ENDBRANCH  32  34
ENDBRANCH  31  32
ENDBRANCH  30  31
ENDBRANCH  29  30
ENDBRANCH   1  29
TORSDOF 17
ENDMDL
MODEL 3
REMARK VINA RESULT:     -11.6      3.393      7.394
REMARK SMILES O=C(CCOc1cc(-c2ccncc2)nc(-c2ccc(C(F)(F)F)cc2)n1)OCCOC(=O)c1ccc(-c2c3nc(c(-c4c(F)cccc4F)c4ccc([nH]4)c(-c4c(F)cccc4F)c4nc(c(-c5c(F)cccc5F)c5ccc2[nH]5)C=C4)C=C3)cc1
REMARK SMILES IDX 28 1 2 2 1 3 3 4 4 5 5 6 6 7 7 8 27 9 8 10 16 11 15 12 9 13
REMARK SMILES IDX 10 14 14 15 11 16 13 17 12 18 17 19 18 20 26 21 19 22 25 23
REMARK SMILES IDX 20 24 21 25 22 26 23 27 24 28 29 29 30 30 31 31 32 32 33 33
REMARK SMILES IDX 34 34 35 35 87 36 36 37 86 38 37 39 38 40 39 41 80 42 40 43
REMARK SMILES IDX 85 44 79 45 81 46 41 47 84 48 78 49 77 50 42 52 68 53 51 54
REMARK SMILES IDX 67 55 52 56 55 57 66 58 82 59 53 60 54 61 65 63 83 64 56 65
REMARK SMILES IDX 43 66 44 67 49 68 45 69 46 70 48 71 50 72 47 73 69 74 70 75
REMARK SMILES IDX 75 76 71 77 72 78 74 79 76 80 73 81 57 82 58 83 63 84 59 85
REMARK SMILES IDX 60 86 62 87 64 88 61 89
REMARK H PARENT 81 51 55 62
REMARK Flexibility Score: inf
ROOT
ATOM      1  O   UNL A   1      39.916  21.659  26.290  1.00  0.00    -0.462 OA
ENDROOT
BRANCH   1   2
ATOM      2  C   UNL A   1      38.655  21.643  25.813  1.00  0.00     0.309 C 
ATOM      3  O   UNL A   1      38.313  20.774  25.010  1.00  0.00    -0.252 OA
BRANCH   2   4
ATOM      4  C   UNL A   1      37.629  22.577  26.374  1.00  0.00     0.164 C 
BRANCH   4   5
ATOM      5  C   UNL A   1      37.592  23.849  25.533  1.00  0.00     0.243 C 
BRANCH   5   6
ATOM      6  O   UNL A   1      37.000  23.662  24.250  1.00  0.00    -0.477 OA
BRANCH   6   7
ATOM      7  C   UNL A   1      35.678  23.362  24.132  1.00  0.00     0.217 A 
ATOM      8  C   UNL A   1      35.132  22.124  23.903  1.00  0.00     0.097 A 
ATOM      9  N   UNL A   1      34.912  24.435  24.337  1.00  0.00    -0.193 NA
ATOM     10  C   UNL A   1      33.779  21.993  24.168  1.00  0.00     0.078 A 
ATOM     11  C   UNL A   1      33.583  24.247  24.367  1.00  0.00     0.163 A 
ATOM     12  N   UNL A   1      32.977  23.051  24.389  1.00  0.00    -0.228 NA
BRANCH  10  13
ATOM     13  C   UNL A   1      33.181  20.667  24.357  1.00  0.00     0.003 A 
ATOM     14  C   UNL A   1      33.249  20.041  25.609  1.00  0.00     0.030 A 
ATOM     15  C   UNL A   1      32.597  19.960  23.305  1.00  0.00     0.030 A 
ATOM     16  C   UNL A   1      32.766  18.751  25.750  1.00  0.00     0.111 A 
ATOM     17  C   UNL A   1      32.123  18.678  23.547  1.00  0.00     0.111 A 
ATOM     18  N   UNL A   1      32.198  18.056  24.745  1.00  0.00    -0.265 NA
ENDBRANCH  10  13
BRANCH  11  19
ATOM     19  C   UNL A   1      32.770  25.433  24.096  1.00  0.00     0.019 A 
ATOM     20  C   UNL A   1      31.526  25.265  23.457  1.00  0.00     0.012 A 
ATOM     21  C   UNL A   1      33.146  26.727  24.481  1.00  0.00     0.012 A 
ATOM     22  C   UNL A   1      30.679  26.341  23.217  1.00  0.00     0.014 A 
ATOM     23  C   UNL A   1      32.302  27.817  24.225  1.00  0.00     0.014 A 
ATOM     24  C   UNL A   1      31.060  27.632  23.597  1.00  0.00     0.056 A 
BRANCH  24  25
ATOM     25  C   UNL A   1      30.120  28.780  23.331  1.00  0.00     0.416 C 
ATOM     26  F   UNL A   1      30.279  29.797  24.222  1.00  0.00    -0.166 F 
ATOM     27  F   UNL A   1      30.313  29.331  22.100  1.00  0.00    -0.166 F 
ATOM     28  F   UNL A   1      28.805  28.435  23.386  1.00  0.00    -0.166 F 
ENDBRANCH  24  25
ENDBRANCH  11  19
ENDBRANCH   6   7
ENDBRANCH   5   6
ENDBRANCH   4   5
ENDBRANCH   2   4
ENDBRANCH   1   2
BRANCH   1  29
ATOM     29  C   UNL A   1      40.830  20.541  26.391  1.00  0.00     0.274 C 
BRANCH  29  30
ATOM     30  C   UNL A   1      42.244  21.031  26.094  1.00  0.00     0.275 C 
BRANCH  30  31
ATOM     31  O   UNL A   1      42.168  22.383  25.620  1.00  0.00    -0.458 OA
BRANCH  31  32
ATOM     32  C   UNL A   1      43.243  23.163  25.915  1.00  0.00     0.338 C 
ATOM     33  O   UNL A   1      44.377  23.043  25.506  1.00  0.00    -0.246 OA
BRANCH  32  34
ATOM     34  C   UNL A   1      42.732  24.335  26.657  1.00  0.00     0.060 A 
ATOM     35  C   UNL A   1      43.348  25.581  26.471  1.00  0.00     0.016 A 
ATOM     36  C   UNL A   1      41.625  24.206  27.496  1.00  0.00     0.016 A 
ATOM     37  C   UNL A   1      42.863  26.706  27.138  1.00  0.00     0.010 A 
ATOM     38  C   UNL A   1      41.156  25.318  28.181  1.00  0.00     0.010 A 
ATOM     39  C   UNL A   1      41.794  26.561  28.030  1.00  0.00    -0.014 A 
BRANCH  39  40
ATOM     40  C   UNL A   1      41.496  27.600  29.034  1.00  0.00     0.031 A 
ATOM     41  C   UNL A   1      42.254  27.531  30.326  1.00  0.00     0.074 A 
ATOM     42  C   UNL A   1      40.504  28.484  28.854  1.00  0.00     0.049 A 
ATOM     43  N   UNL A   1      42.036  28.150  31.454  1.00  0.00    -0.248 NA
ATOM     44  C   UNL A   1      43.398  26.602  30.356  1.00  0.00     0.031 C 
ATOM     45  C   UNL A   1      39.722  28.645  27.630  1.00  0.00     0.029 A 
ATOM     46  N   UNL A   1      39.957  29.385  29.730  1.00  0.00    -0.354 N 
ATOM     47  C   UNL A   1      43.000  27.671  32.331  1.00  0.00     0.074 A 
ATOM     48  C   UNL A   1      43.786  26.692  31.616  1.00  0.00     0.031 C 
ATOM     49  C   UNL A   1      38.767  29.567  27.846  1.00  0.00     0.029 A 
ATOM     50  C   UNL A   1      38.850  30.024  29.233  1.00  0.00     0.049 A 
ATOM     51  H   UNL A   1      40.324  29.557  30.627  1.00  0.00     0.167 HD
ATOM     52  C   UNL A   1      43.206  28.015  33.622  1.00  0.00     0.037 A 
ATOM     53  C   UNL A   1      37.984  30.852  29.848  1.00  0.00     0.037 A 
ATOM     54  C   UNL A   1      42.401  28.974  34.326  1.00  0.00     0.049 A 
ATOM     55  C   UNL A   1      38.198  31.188  31.301  1.00  0.00     0.074 A 
ATOM     56  C   UNL A   1      42.526  29.418  35.629  1.00  0.00     0.029 A 
ATOM     57  N   UNL A   1      41.306  29.629  33.778  1.00  0.00    -0.354 N 
ATOM     58  N   UNL A   1      39.128  30.759  32.121  1.00  0.00    -0.248 NA
ATOM     59  C   UNL A   1      37.244  32.122  31.914  1.00  0.00     0.031 C 
ATOM     60  C   UNL A   1      41.476  30.306  35.884  1.00  0.00     0.029 A 
ATOM     61  C   UNL A   1      40.733  30.459  34.723  1.00  0.00     0.049 A 
ATOM     62  H   UNL A   1      40.987  29.518  32.853  1.00  0.00     0.167 HD
ATOM     63  C   UNL A   1      38.895  31.397  33.334  1.00  0.00     0.074 A 
ATOM     64  C   UNL A   1      37.733  32.238  33.143  1.00  0.00     0.031 C 
ATOM     65  C   UNL A   1      39.584  31.301  34.498  1.00  0.00     0.037 A 
BRANCH  52  66
ATOM     66  C   UNL A   1      44.314  27.309  34.346  1.00  0.00     0.057 A 
ATOM     67  C   UNL A   1      44.107  26.093  35.012  1.00  0.00     0.134 A 
ATOM     68  C   UNL A   1      45.595  27.868  34.406  1.00  0.00     0.134 A 
ATOM     69  F   UNL A   1      42.896  25.515  35.015  1.00  0.00    -0.206 F 
ATOM     70  C   UNL A   1      45.127  25.478  35.741  1.00  0.00     0.040 A 
ATOM     71  C   UNL A   1      46.630  27.247  35.106  1.00  0.00     0.040 A 
ATOM     72  F   UNL A   1      45.861  29.032  33.795  1.00  0.00    -0.206 F 
ATOM     73  C   UNL A   1      46.394  26.054  35.785  1.00  0.00     0.006 A 
ENDBRANCH  52  66
BRANCH  53  74
ATOM     74  C   UNL A   1      36.836  31.414  29.092  1.00  0.00     0.057 A 
ATOM     75  C   UNL A   1      35.726  30.623  28.778  1.00  0.00     0.134 A 
ATOM     76  C   UNL A   1      36.812  32.752  28.682  1.00  0.00     0.134 A 
ATOM     77  F   UNL A   1      35.699  29.328  29.127  1.00  0.00    -0.206 F 
ATOM     78  C   UNL A   1      34.636  31.140  28.075  1.00  0.00     0.040 A 
ATOM     79  C   UNL A   1      35.720  33.288  27.998  1.00  0.00     0.040 A 
ATOM     80  F   UNL A   1      37.844  33.563  28.957  1.00  0.00    -0.206 F 
ATOM     81  C   UNL A   1      34.628  32.479  27.689  1.00  0.00     0.006 A 
ENDBRANCH  53  74
BRANCH  65  82
ATOM     82  C   UNL A   1      39.141  32.167  35.641  1.00  0.00     0.057 A 
ATOM     83  C   UNL A   1      38.296  31.692  36.650  1.00  0.00     0.134 A 
ATOM     84  C   UNL A   1      39.640  33.471  35.770  1.00  0.00     0.134 A 
ATOM     85  F   UNL A   1      37.777  30.456  36.578  1.00  0.00    -0.206 F 
ATOM     86  C   UNL A   1      37.954  32.488  37.744  1.00  0.00     0.040 A 
ATOM     87  C   UNL A   1      39.325  34.265  36.872  1.00  0.00     0.040 A 
ATOM     88  F   UNL A   1      40.464  33.980  34.842  1.00  0.00    -0.206 F 
ATOM     89  C   UNL A   1      38.478  33.774  37.862  1.00  0.00     0.006 A 
ENDBRANCH  65  82
ENDBRANCH  39  40
ENDBRANCH  32  34
ENDBRANCH  31  32
ENDBRANCH  30  31
ENDBRANCH  29  30
ENDBRANCH   1  29
TORSDOF 17
ENDMDL
