MODEL 1
REMARK VINA RESULT:      -9.8      0.000      0.000
REMARK SMILES CCc1cc2c(-c3ccccc3)cc(=O)oc2cc1OCC(=O)OCCOC(=O)c1ccc(-c2c3nc(c(-c4c(F)cccc4F)c4ccc([nH]4)c(-c4c(F)cccc4F)c4nc(c(-c5c(F)cccc5F)c5ccc2[nH]5)C=C4)C=C3)cc1
REMARK SMILES IDX 25 1 24 2 22 3 23 4 21 5 20 6 19 7 3 8 4 9 5 10 18 11 6 12
REMARK SMILES IDX 17 13 13 14 16 15 14 16 15 17 2 18 1 19 7 20 8 21 12 22 9 23
REMARK SMILES IDX 11 24 10 25 26 26 27 27 28 28 29 29 30 30 31 31 83 32 32 33
REMARK SMILES IDX 82 34 33 35 34 36 35 37 76 38 36 39 81 40 75 41 77 42 37 43
REMARK SMILES IDX 80 44 74 45 73 46 38 48 64 49 47 50 63 51 48 52 51 53 62 54
REMARK SMILES IDX 78 55 49 56 50 57 61 59 79 60 52 61 39 62 40 63 45 64 41 65
REMARK SMILES IDX 42 66 44 67 46 68 43 69 65 70 66 71 71 72 67 73 68 74 70 75
REMARK SMILES IDX 72 76 69 77 53 78 54 79 59 80 55 81 56 82 58 83 60 84 57 85
REMARK H PARENT 77 47 51 58
REMARK Flexibility Score: inf
ROOT
ATOM      1  C   UNL A   1      41.300  20.052  26.523  1.00  0.00     0.274 C 
ENDROOT
BRANCH   1   2
ATOM      2  O   UNL A   1      41.939  19.457  25.375  1.00  0.00    -0.460 OA
BRANCH   2   3
ATOM      3  C   UNL A   1      43.298  19.464  25.385  1.00  0.00     0.344 C 
ATOM      4  O   UNL A   1      44.004  18.469  25.523  1.00  0.00    -0.248 OA
BRANCH   3   5
ATOM      5  C   UNL A   1      43.896  20.862  25.224  1.00  0.00     0.351 C 
BRANCH   5   6
ATOM      6  O   UNL A   1      44.277  21.602  26.368  1.00  0.00    -0.481 OA
BRANCH   6   7
ATOM      7  C   UNL A   1      44.597  22.927  26.256  1.00  0.00     0.127 A 
ATOM      8  C   UNL A   1      43.819  23.815  27.027  1.00  0.00    -0.005 A 
ATOM      9  C   UNL A   1      44.059  25.202  26.927  1.00  0.00     0.020 A 
ATOM     10  C   UNL A   1      45.042  25.718  26.075  1.00  0.00     0.026 A 
ATOM     11  C   UNL A   1      45.609  23.435  25.445  1.00  0.00     0.094 A 
ATOM     12  C   UNL A   1      45.280  27.162  25.907  1.00  0.00    -0.000 A 
ATOM     13  C   UNL A   1      45.809  24.814  25.355  1.00  0.00     0.142 A 
ATOM     14  C   UNL A   1      46.215  27.546  25.025  1.00  0.00     0.103 A 
ATOM     15  O   UNL A   1      46.825  25.253  24.486  1.00  0.00    -0.423 OA
ATOM     16  C   UNL A   1      47.028  26.601  24.250  1.00  0.00     0.336 A 
ATOM     17  O   UNL A   1      47.882  27.009  23.469  1.00  0.00    -0.246 OA
BRANCH   8  18
ATOM     18  C   UNL A   1      42.803  23.280  28.019  1.00  0.00     0.036 C 
ATOM     19  C   UNL A   1      43.317  23.064  29.436  1.00  0.00     0.009 C 
ENDBRANCH   8  18
BRANCH  12  20
ATOM     20  C   UNL A   1      44.591  28.240  26.641  1.00  0.00    -0.017 A 
ATOM     21  C   UNL A   1      43.314  28.649  26.237  1.00  0.00     0.009 A 
ATOM     22  C   UNL A   1      45.202  28.869  27.732  1.00  0.00     0.009 A 
ATOM     23  C   UNL A   1      42.662  29.684  26.909  1.00  0.00     0.001 A 
ATOM     24  C   UNL A   1      44.546  29.901  28.405  1.00  0.00     0.001 A 
ATOM     25  C   UNL A   1      43.279  30.310  27.991  1.00  0.00     0.000 A 
ENDBRANCH  12  20
ENDBRANCH   6   7
ENDBRANCH   5   6
ENDBRANCH   3   5
ENDBRANCH   2   3
ENDBRANCH   1   2
BRANCH   1  26
ATOM     26  C   UNL A   1      40.018  20.775  26.115  1.00  0.00     0.275 C 
BRANCH  26  27
ATOM     27  O   UNL A   1      40.247  22.194  26.126  1.00  0.00    -0.458 OA
BRANCH  27  28
ATOM     28  C   UNL A   1      39.135  22.961  26.108  1.00  0.00     0.338 C 
ATOM     29  O   UNL A   1      38.052  22.660  25.624  1.00  0.00    -0.246 OA
BRANCH  28  30
ATOM     30  C   UNL A   1      39.383  24.248  26.803  1.00  0.00     0.060 A 
ATOM     31  C   UNL A   1      40.190  25.245  26.243  1.00  0.00     0.016 A 
ATOM     32  C   UNL A   1      38.895  24.406  28.102  1.00  0.00     0.016 A 
ATOM     33  C   UNL A   1      40.580  26.345  27.009  1.00  0.00     0.010 A 
ATOM     34  C   UNL A   1      39.217  25.549  28.837  1.00  0.00     0.010 A 
ATOM     35  C   UNL A   1      40.084  26.519  28.310  1.00  0.00    -0.014 A 
BRANCH  35  36
ATOM     36  C   UNL A   1      40.431  27.718  29.118  1.00  0.00     0.031 A 
ATOM     37  C   UNL A   1      41.699  27.761  29.929  1.00  0.00     0.074 A 
ATOM     38  C   UNL A   1      39.578  28.758  29.163  1.00  0.00     0.049 A 
ATOM     39  N   UNL A   1      42.065  28.618  30.849  1.00  0.00    -0.248 NA
ATOM     40  C   UNL A   1      42.683  26.700  29.673  1.00  0.00     0.031 C 
ATOM     41  C   UNL A   1      38.330  28.867  28.405  1.00  0.00     0.029 A 
ATOM     42  N   UNL A   1      39.623  29.917  29.897  1.00  0.00    -0.354 N 
ATOM     43  C   UNL A   1      43.305  28.182  31.304  1.00  0.00     0.074 A 
ATOM     44  C   UNL A   1      43.626  26.981  30.562  1.00  0.00     0.031 C 
ATOM     45  C   UNL A   1      37.733  30.029  28.705  1.00  0.00     0.029 A 
ATOM     46  C   UNL A   1      38.513  30.709  29.733  1.00  0.00     0.049 A 
ATOM     47  H   UNL A   1      40.376  30.158  30.483  1.00  0.00     0.167 HD
ATOM     48  C   UNL A   1      44.098  28.731  32.254  1.00  0.00     0.037 A 
ATOM     49  C   UNL A   1      38.134  31.829  30.373  1.00  0.00     0.037 A 
ATOM     50  C   UNL A   1      43.784  29.932  32.985  1.00  0.00     0.049 A 
ATOM     51  C   UNL A   1      38.993  32.380  31.471  1.00  0.00     0.074 A 
ATOM     52  C   UNL A   1      44.522  30.564  33.971  1.00  0.00     0.029 A 
ATOM     53  N   UNL A   1      42.635  30.686  32.802  1.00  0.00    -0.354 N 
ATOM     54  N   UNL A   1      40.139  31.933  31.925  1.00  0.00    -0.248 NA
ATOM     55  C   UNL A   1      38.496  33.579  32.159  1.00  0.00     0.031 C 
ATOM     56  C   UNL A   1      43.809  31.688  34.403  1.00  0.00     0.029 A 
ATOM     57  C   UNL A   1      42.641  31.772  33.662  1.00  0.00     0.049 A 
ATOM     58  H   UNL A   1      41.920  30.480  32.157  1.00  0.00     0.167 HD
ATOM     59  C   UNL A   1      40.506  32.802  32.943  1.00  0.00     0.074 A 
ATOM     60  C   UNL A   1      39.469  33.809  33.030  1.00  0.00     0.031 C 
ATOM     61  C   UNL A   1      41.603  32.765  33.736  1.00  0.00     0.037 A 
BRANCH  48  62
ATOM     62  C   UNL A   1      45.386  28.034  32.577  1.00  0.00     0.057 A 
ATOM     63  C   UNL A   1      45.439  26.966  33.481  1.00  0.00     0.134 A 
ATOM     64  C   UNL A   1      46.574  28.391  31.925  1.00  0.00     0.134 A 
ATOM     65  F   UNL A   1      44.338  26.581  34.143  1.00  0.00    -0.206 F 
ATOM     66  C   UNL A   1      46.630  26.281  33.730  1.00  0.00     0.040 A 
ATOM     67  C   UNL A   1      47.766  27.702  32.154  1.00  0.00     0.040 A 
ATOM     68  F   UNL A   1      46.589  29.399  31.041  1.00  0.00    -0.206 F 
ATOM     69  C   UNL A   1      47.797  26.644  33.060  1.00  0.00     0.006 A 
ENDBRANCH  48  62
BRANCH  49  70
ATOM     70  C   UNL A   1      36.850  32.477  30.017  1.00  0.00     0.057 A 
ATOM     71  C   UNL A   1      36.789  33.448  29.012  1.00  0.00     0.134 A 
ATOM     72  C   UNL A   1      35.655  32.131  30.658  1.00  0.00     0.134 A 
ATOM     73  F   UNL A   1      37.906  33.834  28.379  1.00  0.00    -0.206 F 
ATOM     74  C   UNL A   1      35.584  34.056  28.660  1.00  0.00     0.040 A 
ATOM     75  C   UNL A   1      34.440  32.714  30.301  1.00  0.00     0.040 A 
ATOM     76  F   UNL A   1      35.651  31.203  31.627  1.00  0.00    -0.206 F 
ATOM     77  C   UNL A   1      34.403  33.683  29.301  1.00  0.00     0.006 A 
ENDBRANCH  49  70
BRANCH  61  78
ATOM     78  C   UNL A   1      41.746  33.865  34.741  1.00  0.00     0.057 A 
ATOM     79  C   UNL A   1      42.299  35.104  34.400  1.00  0.00     0.134 A 
ATOM     80  C   UNL A   1      41.318  33.684  36.062  1.00  0.00     0.134 A 
ATOM     81  F   UNL A   1      42.744  35.331  33.154  1.00  0.00    -0.206 F 
ATOM     82  C   UNL A   1      42.441  36.122  35.345  1.00  0.00     0.040 A 
ATOM     83  C   UNL A   1      41.437  34.700  37.011  1.00  0.00     0.040 A 
ATOM     84  F   UNL A   1      40.776  32.519  36.449  1.00  0.00    -0.206 F 
ATOM     85  C   UNL A   1      42.006  35.921  36.654  1.00  0.00     0.006 A 
ENDBRANCH  61  78
ENDBRANCH  35  36
ENDBRANCH  28  30
ENDBRANCH  27  28
ENDBRANCH  26  27
ENDBRANCH   1  26
TORSDOF 15
ENDMDL
MODEL 2
REMARK VINA RESULT:      -9.8      2.784      8.245
REMARK SMILES CCc1cc2c(-c3ccccc3)cc(=O)oc2cc1OCC(=O)OCCOC(=O)c1ccc(-c2c3nc(c(-c4c(F)cccc4F)c4ccc([nH]4)c(-c4c(F)cccc4F)c4nc(c(-c5c(F)cccc5F)c5ccc2[nH]5)C=C4)C=C3)cc1
REMARK SMILES IDX 25 1 24 2 22 3 23 4 21 5 20 6 19 7 3 8 4 9 5 10 18 11 6 12
REMARK SMILES IDX 17 13 13 14 16 15 14 16 15 17 2 18 1 19 7 20 8 21 12 22 9 23
REMARK SMILES IDX 11 24 10 25 26 26 27 27 28 28 29 29 30 30 31 31 83 32 32 33
REMARK SMILES IDX 82 34 33 35 34 36 35 37 76 38 36 39 81 40 75 41 77 42 37 43
REMARK SMILES IDX 80 44 74 45 73 46 38 48 64 49 47 50 63 51 48 52 51 53 62 54
REMARK SMILES IDX 78 55 49 56 50 57 61 59 79 60 52 61 39 62 40 63 45 64 41 65
REMARK SMILES IDX 42 66 44 67 46 68 43 69 65 70 66 71 71 72 67 73 68 74 70 75
REMARK SMILES IDX 72 76 69 77 53 78 54 79 59 80 55 81 56 82 58 83 60 84 57 85
REMARK H PARENT 77 47 51 58
REMARK Flexibility Score: inf
ROOT
ATOM      1  C   UNL A   1      44.430  21.901  25.707  1.00  0.00     0.274 C 
ENDROOT
BRANCH   1   2
ATOM      2  O   UNL A   1      43.096  21.879  26.255  1.00  0.00    -0.460 OA
BRANCH   2   3
ATOM      3  C   UNL A   1      42.369  20.759  25.999  1.00  0.00     0.344 C 
ATOM      4  O   UNL A   1      42.825  19.718  25.533  1.00  0.00    -0.248 OA
BRANCH   3   5
ATOM      5  C   UNL A   1      40.886  20.912  26.333  1.00  0.00     0.351 C 
BRANCH   5   6
ATOM      6  O   UNL A   1      40.267  22.180  26.230  1.00  0.00    -0.481 OA
BRANCH   6   7
ATOM      7  C   UNL A   1      38.923  22.274  25.991  1.00  0.00     0.127 A 
ATOM      8  C   UNL A   1      38.344  23.538  26.219  1.00  0.00    -0.005 A 
ATOM      9  C   UNL A   1      36.953  23.699  26.040  1.00  0.00     0.020 A 
ATOM     10  C   UNL A   1      36.134  22.632  25.653  1.00  0.00     0.026 A 
ATOM     11  C   UNL A   1      38.118  21.223  25.557  1.00  0.00     0.094 A 
ATOM     12  C   UNL A   1      34.673  22.754  25.510  1.00  0.00    -0.000 A 
ATOM     13  C   UNL A   1      36.742  21.410  25.407  1.00  0.00     0.142 A 
ATOM     14  C   UNL A   1      33.980  21.652  25.182  1.00  0.00     0.103 A 
ATOM     15  O   UNL A   1      35.990  20.293  25.001  1.00  0.00    -0.423 OA
ATOM     16  C   UNL A   1      34.609  20.351  24.927  1.00  0.00     0.336 A 
ATOM     17  O   UNL A   1      33.928  19.381  24.613  1.00  0.00    -0.246 OA
BRANCH   8  18
ATOM     18  C   UNL A   1      39.218  24.731  26.561  1.00  0.00     0.036 C 
ATOM     19  C   UNL A   1      39.176  25.182  28.015  1.00  0.00     0.009 C 
ENDBRANCH   8  18
BRANCH  12  20
ATOM     20  C   UNL A   1      33.891  23.993  25.680  1.00  0.00    -0.017 A 
ATOM     21  C   UNL A   1      34.393  25.205  25.188  1.00  0.00     0.009 A 
ATOM     22  C   UNL A   1      32.655  23.976  26.337  1.00  0.00     0.009 A 
ATOM     23  C   UNL A   1      33.672  26.387  25.363  1.00  0.00     0.001 A 
ATOM     24  C   UNL A   1      31.934  25.159  26.507  1.00  0.00     0.001 A 
ATOM     25  C   UNL A   1      32.445  26.363  26.023  1.00  0.00     0.000 A 
ENDBRANCH  12  20
ENDBRANCH   6   7
ENDBRANCH   5   6
ENDBRANCH   3   5
ENDBRANCH   2   3
ENDBRANCH   1   2
BRANCH   1  26
ATOM     26  C   UNL A   1      44.512  22.862  24.523  1.00  0.00     0.275 C 
BRANCH  26  27
ATOM     27  O   UNL A   1      43.712  24.025  24.796  1.00  0.00    -0.458 OA
BRANCH  27  28
ATOM     28  C   UNL A   1      44.401  25.131  25.152  1.00  0.00     0.338 C 
ATOM     29  O   UNL A   1      45.451  25.524  24.659  1.00  0.00    -0.246 OA
BRANCH  28  30
ATOM     30  C   UNL A   1      43.688  25.860  26.229  1.00  0.00     0.060 A 
ATOM     31  C   UNL A   1      43.855  27.235  26.424  1.00  0.00     0.016 A 
ATOM     32  C   UNL A   1      42.929  25.122  27.140  1.00  0.00     0.016 A 
ATOM     33  C   UNL A   1      43.346  27.849  27.571  1.00  0.00     0.010 A 
ATOM     34  C   UNL A   1      42.349  25.754  28.243  1.00  0.00     0.010 A 
ATOM     35  C   UNL A   1      42.572  27.118  28.485  1.00  0.00    -0.014 A 
BRANCH  35  36
ATOM     36  C   UNL A   1      41.962  27.767  29.676  1.00  0.00     0.031 A 
ATOM     37  C   UNL A   1      40.727  28.619  29.543  1.00  0.00     0.074 A 
ATOM     38  C   UNL A   1      42.549  27.631  30.880  1.00  0.00     0.049 A 
ATOM     39  N   UNL A   1      40.179  29.427  30.416  1.00  0.00    -0.248 NA
ATOM     40  C   UNL A   1      40.015  28.554  28.259  1.00  0.00     0.031 C 
ATOM     41  C   UNL A   1      43.729  26.812  31.162  1.00  0.00     0.029 A 
ATOM     42  N   UNL A   1      42.241  28.200  32.090  1.00  0.00    -0.354 N 
ATOM     43  C   UNL A   1      39.081  29.990  29.777  1.00  0.00     0.074 A 
ATOM     44  C   UNL A   1      39.041  29.436  28.440  1.00  0.00     0.031 C 
ATOM     45  C   UNL A   1      44.041  26.924  32.461  1.00  0.00     0.029 A 
ATOM     46  C   UNL A   1      43.134  27.880  33.084  1.00  0.00     0.049 A 
ATOM     47  H   UNL A   1      41.458  28.779  32.234  1.00  0.00     0.167 HD
ATOM     48  C   UNL A   1      38.191  30.889  30.261  1.00  0.00     0.037 A 
ATOM     49  C   UNL A   1      43.247  28.343  34.342  1.00  0.00     0.037 A 
ATOM     50  C   UNL A   1      38.223  31.433  31.594  1.00  0.00     0.049 A 
ATOM     51  C   UNL A   1      42.294  29.391  34.833  1.00  0.00     0.074 A 
ATOM     52  C   UNL A   1      37.367  32.353  32.174  1.00  0.00     0.029 A 
ATOM     53  N   UNL A   1      39.162  31.099  32.558  1.00  0.00    -0.354 N 
ATOM     54  N   UNL A   1      41.289  29.951  34.205  1.00  0.00    -0.248 NA
ATOM     55  C   UNL A   1      42.504  29.885  36.200  1.00  0.00     0.031 C 
ATOM     56  C   UNL A   1      37.802  32.595  33.483  1.00  0.00     0.029 A 
ATOM     57  C   UNL A   1      38.910  31.800  33.725  1.00  0.00     0.049 A 
ATOM     58  H   UNL A   1      39.898  30.457  32.431  1.00  0.00     0.167 HD
ATOM     59  C   UNL A   1      40.739  30.854  35.104  1.00  0.00     0.074 A 
ATOM     60  C   UNL A   1      41.512  30.757  36.324  1.00  0.00     0.031 C 
ATOM     61  C   UNL A   1      39.688  31.692  34.931  1.00  0.00     0.037 A 
BRANCH  48  62
ATOM     62  C   UNL A   1      37.104  31.360  29.340  1.00  0.00     0.057 A 
ATOM     63  C   UNL A   1      35.985  30.568  29.057  1.00  0.00     0.134 A 
ATOM     64  C   UNL A   1      37.147  32.646  28.785  1.00  0.00     0.134 A 
ATOM     65  F   UNL A   1      35.889  29.325  29.552  1.00  0.00    -0.206 F 
ATOM     66  C   UNL A   1      34.948  31.037  28.248  1.00  0.00     0.040 A 
ATOM     67  C   UNL A   1      36.107  33.130  27.988  1.00  0.00     0.040 A 
ATOM     68  F   UNL A   1      38.187  33.458  29.024  1.00  0.00    -0.206 F 
ATOM     69  C   UNL A   1      35.004  32.324  27.716  1.00  0.00     0.006 A 
ENDBRANCH  48  62
BRANCH  49  70
ATOM     70  C   UNL A   1      44.341  27.845  35.209  1.00  0.00     0.057 A 
ATOM     71  C   UNL A   1      44.156  26.726  36.028  1.00  0.00     0.134 A 
ATOM     72  C   UNL A   1      45.596  28.464  35.228  1.00  0.00     0.134 A 
ATOM     73  F   UNL A   1      42.968  26.107  36.066  1.00  0.00    -0.206 F 
ATOM     74  C   UNL A   1      45.182  26.243  36.840  1.00  0.00     0.040 A 
ATOM     75  C   UNL A   1      46.637  27.978  36.017  1.00  0.00     0.040 A 
ATOM     76  F   UNL A   1      45.833  29.539  34.461  1.00  0.00    -0.206 F 
ATOM     77  C   UNL A   1      46.430  26.864  36.830  1.00  0.00     0.006 A 
ENDBRANCH  49  70
BRANCH  61  78
ATOM     78  C   UNL A   1      39.303  32.540  36.101  1.00  0.00     0.057 A 
ATOM     79  C   UNL A   1      38.376  32.101  37.053  1.00  0.00     0.134 A 
ATOM     80  C   UNL A   1      39.870  33.807  36.281  1.00  0.00     0.134 A 
ATOM     81  F   UNL A   1      37.784  30.903  36.924  1.00  0.00    -0.206 F 
ATOM     82  C   UNL A   1      38.011  32.902  38.136  1.00  0.00     0.040 A 
ATOM     83  C   UNL A   1      39.528  34.610  37.370  1.00  0.00     0.040 A 
ATOM     84  F   UNL A   1      40.768  34.283  35.404  1.00  0.00    -0.206 F 
ATOM     85  C   UNL A   1      38.590  34.160  38.297  1.00  0.00     0.006 A 
ENDBRANCH  61  78
ENDBRANCH  35  36
ENDBRANCH  28  30
ENDBRANCH  27  28
ENDBRANCH  26  27
ENDBRANCH   1  26
TORSDOF 15
ENDMDL
MODEL 3
REMARK VINA RESULT:      -9.7      2.837      5.939
REMARK SMILES CCc1cc2c(-c3ccccc3)cc(=O)oc2cc1OCC(=O)OCCOC(=O)c1ccc(-c2c3nc(c(-c4c(F)cccc4F)c4ccc([nH]4)c(-c4c(F)cccc4F)c4nc(c(-c5c(F)cccc5F)c5ccc2[nH]5)C=C4)C=C3)cc1
REMARK SMILES IDX 25 1 24 2 22 3 23 4 21 5 20 6 19 7 3 8 4 9 5 10 18 11 6 12
REMARK SMILES IDX 17 13 13 14 16 15 14 16 15 17 2 18 1 19 7 20 8 21 12 22 9 23
REMARK SMILES IDX 11 24 10 25 26 26 27 27 28 28 29 29 30 30 31 31 83 32 32 33
REMARK SMILES IDX 82 34 33 35 34 36 35 37 76 38 36 39 81 40 75 41 77 42 37 43
REMARK SMILES IDX 80 44 74 45 73 46 38 48 64 49 47 50 63 51 48 52 51 53 62 54
REMARK SMILES IDX 78 55 49 56 50 57 61 59 79 60 52 61 39 62 40 63 45 64 41 65
REMARK SMILES IDX 42 66 44 67 46 68 43 69 65 70 66 71 71 72 67 73 68 74 70 75
REMARK SMILES IDX 72 76 69 77 53 78 54 79 59 80 55 81 56 82 58 83 60 84 57 85
REMARK H PARENT 77 47 51 58
REMARK Flexibility Score: inf
ROOT
ATOM      1  C   UNL A   1      43.779  20.144  25.372  1.00  0.00     0.274 C 
ENDROOT
BRANCH   1   2
ATOM      2  O   UNL A   1      42.365  20.401  25.486  1.00  0.00    -0.460 OA
BRANCH   2   3
ATOM      3  C   UNL A   1      41.799  20.076  26.679  1.00  0.00     0.344 C 
ATOM      4  O   UNL A   1      42.212  19.202  27.437  1.00  0.00    -0.248 OA
BRANCH   3   5
ATOM      5  C   UNL A   1      40.556  20.904  27.004  1.00  0.00     0.351 C 
BRANCH   5   6
ATOM      6  O   UNL A   1      40.096  21.876  26.085  1.00  0.00    -0.481 OA
BRANCH   6   7
ATOM      7  C   UNL A   1      38.756  22.032  25.858  1.00  0.00     0.127 A 
ATOM      8  C   UNL A   1      38.231  23.311  26.128  1.00  0.00    -0.005 A 
ATOM      9  C   UNL A   1      36.847  23.534  25.963  1.00  0.00     0.020 A 
ATOM     10  C   UNL A   1      35.982  22.514  25.549  1.00  0.00     0.026 A 
ATOM     11  C   UNL A   1      37.906  21.029  25.397  1.00  0.00     0.094 A 
ATOM     12  C   UNL A   1      34.528  22.699  25.419  1.00  0.00    -0.000 A 
ATOM     13  C   UNL A   1      36.539  21.276  25.262  1.00  0.00     0.142 A 
ATOM     14  C   UNL A   1      33.788  21.637  25.063  1.00  0.00     0.103 A 
ATOM     15  O   UNL A   1      35.739  20.203  24.828  1.00  0.00    -0.423 OA
ATOM     16  C   UNL A   1      34.362  20.320  24.764  1.00  0.00     0.336 A 
ATOM     17  O   UNL A   1      33.640  19.389  24.426  1.00  0.00    -0.246 OA
BRANCH   8  18
ATOM     18  C   UNL A   1      39.155  24.456  26.500  1.00  0.00     0.036 C 
ATOM     19  C   UNL A   1      38.923  25.069  27.874  1.00  0.00     0.009 C 
ENDBRANCH   8  18
BRANCH  12  20
ATOM     20  C   UNL A   1      33.797  23.963  25.631  1.00  0.00    -0.017 A 
ATOM     21  C   UNL A   1      34.349  25.169  25.178  1.00  0.00     0.009 A 
ATOM     22  C   UNL A   1      32.562  23.976  26.291  1.00  0.00     0.009 A 
ATOM     23  C   UNL A   1      33.678  26.373  25.394  1.00  0.00     0.001 A 
ATOM     24  C   UNL A   1      31.891  25.182  26.501  1.00  0.00     0.001 A 
ATOM     25  C   UNL A   1      32.451  26.379  26.056  1.00  0.00     0.000 A 
ENDBRANCH  12  20
ENDBRANCH   6   7
ENDBRANCH   5   6
ENDBRANCH   3   5
ENDBRANCH   2   3
ENDBRANCH   1   2
BRANCH   1  26
ATOM     26  C   UNL A   1      44.545  21.439  25.109  1.00  0.00     0.275 C 
BRANCH  26  27
ATOM     27  O   UNL A   1      44.195  22.410  26.109  1.00  0.00    -0.458 OA
BRANCH  27  28
ATOM     28  C   UNL A   1      43.589  23.526  25.646  1.00  0.00     0.338 C 
ATOM     29  O   UNL A   1      43.267  23.749  24.487  1.00  0.00    -0.246 OA
BRANCH  28  30
ATOM     30  C   UNL A   1      43.319  24.467  26.759  1.00  0.00     0.060 A 
ATOM     31  C   UNL A   1      42.599  24.079  27.895  1.00  0.00     0.016 A 
ATOM     32  C   UNL A   1      43.693  25.804  26.604  1.00  0.00     0.016 A 
ATOM     33  C   UNL A   1      42.175  25.037  28.818  1.00  0.00     0.010 A 
ATOM     34  C   UNL A   1      43.340  26.747  27.572  1.00  0.00     0.010 A 
ATOM     35  C   UNL A   1      42.556  26.380  28.677  1.00  0.00    -0.014 A 
BRANCH  35  36
ATOM     36  C   UNL A   1      42.175  27.404  29.685  1.00  0.00     0.031 A 
ATOM     37  C   UNL A   1      42.906  27.504  30.998  1.00  0.00     0.074 A 
ATOM     38  C   UNL A   1      41.131  28.219  29.443  1.00  0.00     0.049 A 
ATOM     39  N   UNL A   1      42.589  28.180  32.074  1.00  0.00    -0.248 NA
ATOM     40  C   UNL A   1      44.158  26.744  31.116  1.00  0.00     0.031 C 
ATOM     41  C   UNL A   1      40.352  28.256  28.204  1.00  0.00     0.029 A 
ATOM     42  N   UNL A   1      40.533  29.163  30.240  1.00  0.00    -0.354 N 
ATOM     43  C   UNL A   1      43.583  27.900  33.006  1.00  0.00     0.074 A 
ATOM     44  C   UNL A   1      44.511  26.989  32.371  1.00  0.00     0.031 C 
ATOM     45  C   UNL A   1      39.385  29.178  28.320  1.00  0.00     0.029 A 
ATOM     46  C   UNL A   1      39.427  29.740  29.665  1.00  0.00     0.049 A 
ATOM     47  H   UNL A   1      40.863  29.403  31.135  1.00  0.00     0.167 HD
ATOM     48  C   UNL A   1      43.705  28.358  34.275  1.00  0.00     0.037 A 
ATOM     49  C   UNL A   1      38.515  30.585  30.175  1.00  0.00     0.037 A 
ATOM     50  C   UNL A   1      42.787  29.273  34.904  1.00  0.00     0.049 A 
ATOM     51  C   UNL A   1      38.631  31.024  31.604  1.00  0.00     0.074 A 
ATOM     52  C   UNL A   1      42.825  29.790  36.188  1.00  0.00     0.029 A 
ATOM     53  N   UNL A   1      41.667  29.810  34.290  1.00  0.00    -0.354 N 
ATOM     54  N   UNL A   1      39.547  30.715  32.489  1.00  0.00    -0.248 NA
ATOM     55  C   UNL A   1      37.575  31.910  32.110  1.00  0.00     0.031 C 
ATOM     56  C   UNL A   1      41.713  30.623  36.358  1.00  0.00     0.029 A 
ATOM     57  C   UNL A   1      41.002  30.647  35.170  1.00  0.00     0.049 A 
ATOM     58  H   UNL A   1      41.385  29.624  33.364  1.00  0.00     0.167 HD
ATOM     59  C   UNL A   1      39.185  31.380  33.653  1.00  0.00     0.074 A 
ATOM     60  C   UNL A   1      37.975  32.118  33.357  1.00  0.00     0.031 C 
ATOM     61  C   UNL A   1      39.800  31.375  34.860  1.00  0.00     0.037 A 
BRANCH  48  62
ATOM     62  C   UNL A   1      44.870  27.869  35.084  1.00  0.00     0.057 A 
ATOM     63  C   UNL A   1      46.063  28.597  35.170  1.00  0.00     0.134 A 
ATOM     64  C   UNL A   1      44.772  26.692  35.837  1.00  0.00     0.134 A 
ATOM     65  F   UNL A   1      46.222  29.727  34.466  1.00  0.00    -0.206 F 
ATOM     66  C   UNL A   1      47.121  28.167  35.974  1.00  0.00     0.040 A 
ATOM     67  C   UNL A   1      45.817  26.262  36.656  1.00  0.00     0.040 A 
ATOM     68  F   UNL A   1      43.653  25.954  35.805  1.00  0.00    -0.206 F 
ATOM     69  C   UNL A   1      46.997  27.000  36.725  1.00  0.00     0.006 A 
ENDBRANCH  48  62
BRANCH  49  70
ATOM     70  C   UNL A   1      37.382  31.036  29.332  1.00  0.00     0.057 A 
ATOM     71  C   UNL A   1      36.288  30.198  29.091  1.00  0.00     0.134 A 
ATOM     72  C   UNL A   1      37.358  32.315  28.765  1.00  0.00     0.134 A 
ATOM     73  F   UNL A   1      36.268  28.954  29.591  1.00  0.00    -0.206 F 
ATOM     74  C   UNL A   1      35.212  30.615  28.308  1.00  0.00     0.040 A 
ATOM     75  C   UNL A   1      36.278  32.754  28.001  1.00  0.00     0.040 A 
ATOM     76  F   UNL A   1      38.377  33.164  28.966  1.00  0.00    -0.206 F 
ATOM     77  C   UNL A   1      35.201  31.901  27.767  1.00  0.00     0.006 A 
ENDBRANCH  49  70
BRANCH  61  78
ATOM     78  C   UNL A   1      39.186  32.218  35.933  1.00  0.00     0.057 A 
ATOM     79  C   UNL A   1      38.210  31.710  36.798  1.00  0.00     0.134 A 
ATOM     80  C   UNL A   1      39.581  33.549  36.107  1.00  0.00     0.134 A 
ATOM     81  F   UNL A   1      37.778  30.445  36.668  1.00  0.00    -0.206 F 
ATOM     82  C   UNL A   1      37.632  32.505  37.789  1.00  0.00     0.040 A 
ATOM     83  C   UNL A   1      39.023  34.349  37.106  1.00  0.00     0.040 A 
ATOM     84  F   UNL A   1      40.514  34.093  35.311  1.00  0.00    -0.206 F 
ATOM     85  C   UNL A   1      38.041  33.828  37.946  1.00  0.00     0.006 A 
ENDBRANCH  61  78
ENDBRANCH  35  36
ENDBRANCH  28  30
ENDBRANCH  27  28
ENDBRANCH  26  27
ENDBRANCH   1  26
TORSDOF 15
ENDMDL
