MODEL 1
REMARK VINA RESULT:     -13.7      0.000      0.000
REMARK SMILES Cc1ccc(-c2csc(NC(=O)[C@H]3[C@@H](C(=O)OCCOC(=O)c4ccc(-c5c6nc(c(-c7c(F)cccc7F)c7ccc([nH]7)c(-c7c(F)cccc7F)c7nc(c(-c8c(F)cccc8F)c8ccc5[nH]8)C=C7)C=C6)cc4)[C@H]4C=C[C@@H]3C4)c2C(=O)NC2CC2)cc1
REMARK SMILES IDX 18 1 17 2 15 3 16 4 14 5 13 6 80 7 77 8 79 9 81 10 78 11
REMARK SMILES IDX 11 12 10 13 12 15 9 16 6 17 7 18 82 19 8 20 5 21 1 22 2 23
REMARK SMILES IDX 3 24 90 25 4 26 89 27 83 28 84 29 85 30 86 32 87 33 88 34
REMARK SMILES IDX 19 35 20 36 21 37 22 38 23 39 24 40 76 41 25 42 75 43 26 44
REMARK SMILES IDX 27 45 28 46 69 47 29 48 74 49 68 50 70 51 30 52 73 53 67 54
REMARK SMILES IDX 66 55 31 57 57 58 40 59 56 60 41 61 44 62 55 63 71 64 42 65
REMARK SMILES IDX 43 66 54 68 72 69 45 70 32 71 33 72 38 73 34 74 35 75 37 76
REMARK SMILES IDX 39 77 36 78 58 79 59 80 64 81 60 82 61 83 63 84 65 85 62 86
REMARK SMILES IDX 46 87 47 88 52 89 48 90 49 91 51 92 53 93 50 94
REMARK H PARENT 10 14 85 31 70 56 44 67
REMARK Flexibility Score: inf
ROOT
ATOM      1  C   UNL A   1      32.522  30.688  26.411  1.00  0.00     0.274 C 
ENDROOT
BRANCH   1   2
ATOM      2  O   UNL A   1      31.438  29.960  25.782  1.00  0.00    -0.462 OA
BRANCH   2   3
ATOM      3  C   UNL A   1      31.702  29.054  24.814  1.00  0.00     0.310 C 
ATOM      4  O   UNL A   1      32.780  29.004  24.252  1.00  0.00    -0.252 OA
BRANCH   3   5
ATOM      5  C   UNL A   1      30.593  28.030  24.651  1.00  0.00     0.119 C 
ATOM      6  C   UNL A   1      30.878  26.587  25.211  1.00  0.00     0.100 C 
ATOM      7  C   UNL A   1      30.273  25.696  24.100  1.00  0.00     0.025 C 
ATOM      8  C   UNL A   1      29.938  27.748  23.259  1.00  0.00     0.027 C 
ATOM      9  C   UNL A   1      31.056  25.770  22.823  1.00  0.00    -0.027 C 
ATOM     10  C   UNL A   1      29.067  26.547  23.651  1.00  0.00     0.017 C 
ATOM     11  C   UNL A   1      30.802  26.971  22.296  1.00  0.00    -0.027 C 
BRANCH   6  12
ATOM     12  C   UNL A   1      32.280  26.322  25.810  1.00  0.00     0.229 C 
ATOM     13  N   UNL A   1      33.150  25.469  25.186  1.00  0.00    -0.317 N 
ATOM     14  H   UNL A   1      33.924  25.846  24.707  1.00  0.00     0.170 HD
ATOM     15  O   UNL A   1      32.628  26.911  26.838  1.00  0.00    -0.274 OA
BRANCH  13  16
ATOM     16  C   UNL A   1      32.980  24.090  25.203  1.00  0.00     0.108 A 
ATOM     17  C   UNL A   1      32.736  21.864  24.636  1.00  0.00     0.007 A 
ATOM     18  C   UNL A   1      31.799  22.048  25.642  1.00  0.00     0.076 A 
ATOM     19  C   UNL A   1      33.493  23.095  24.362  1.00  0.00     0.082 A 
ATOM     20  S   UNL A   1      32.184  23.413  26.552  1.00  0.00    -0.125 S 
BRANCH  17  21
ATOM     21  C   UNL A   1      32.877  20.470  24.242  1.00  0.00    -0.017 A 
ATOM     22  C   UNL A   1      34.124  16.572  22.995  1.00  0.00     0.044 C 
ATOM     23  C   UNL A   1      33.541  17.846  23.528  1.00  0.00    -0.051 A 
ATOM     24  C   UNL A   1      34.142  18.428  24.641  1.00  0.00     0.004 A 
ATOM     25  C   UNL A   1      32.514  18.535  22.856  1.00  0.00     0.004 A 
ATOM     26  C   UNL A   1      33.793  19.717  25.004  1.00  0.00     0.009 A 
ATOM     27  C   UNL A   1      32.172  19.851  23.215  1.00  0.00     0.009 A 
ENDBRANCH  17  21
BRANCH  19  28
ATOM     28  C   UNL A   1      34.482  23.486  23.344  1.00  0.00     0.255 C 
ATOM     29  O   UNL A   1      34.108  24.177  22.387  1.00  0.00    -0.269 OA
ATOM     30  N   UNL A   1      35.847  23.293  23.386  1.00  0.00    -0.349 N 
ATOM     31  H   UNL A   1      36.289  23.721  22.618  1.00  0.00     0.164 HD
BRANCH  30  32
ATOM     32  C   UNL A   1      36.795  22.649  24.228  1.00  0.00     0.082 C 
ATOM     33  C   UNL A   1      37.495  23.247  25.393  1.00  0.00     0.027 C 
ATOM     34  C   UNL A   1      36.385  22.246  25.605  1.00  0.00     0.027 C 
ENDBRANCH  30  32
ENDBRANCH  19  28
ENDBRANCH  13  16
ENDBRANCH   6  12
ENDBRANCH   3   5
ENDBRANCH   2   3
ENDBRANCH   1   2
BRANCH   1  35
ATOM     35  C   UNL A   1      33.529  30.112  27.460  1.00  0.00     0.275 C 
BRANCH  35  36
ATOM     36  O   UNL A   1      34.992  30.035  27.384  1.00  0.00    -0.458 OA
BRANCH  36  37
ATOM     37  C   UNL A   1      35.959  30.784  27.946  1.00  0.00     0.338 C 
ATOM     38  O   UNL A   1      35.911  31.996  28.116  1.00  0.00    -0.246 OA
BRANCH  37  39
ATOM     39  C   UNL A   1      37.142  30.034  28.293  1.00  0.00     0.060 A 
ATOM     40  C   UNL A   1      37.096  29.183  29.400  1.00  0.00     0.016 A 
ATOM     41  C   UNL A   1      38.221  30.104  27.410  1.00  0.00     0.016 A 
ATOM     42  C   UNL A   1      38.125  28.289  29.564  1.00  0.00     0.010 A 
ATOM     43  C   UNL A   1      39.196  29.160  27.529  1.00  0.00     0.010 A 
ATOM     44  C   UNL A   1      39.138  28.284  28.620  1.00  0.00    -0.014 A 
BRANCH  44  45
ATOM     45  C   UNL A   1      40.400  27.689  28.951  1.00  0.00     0.031 A 
ATOM     46  C   UNL A   1      40.669  26.312  28.515  1.00  0.00     0.074 A 
ATOM     47  C   UNL A   1      41.181  28.668  29.464  1.00  0.00     0.049 A 
ATOM     48  N   UNL A   1      41.590  25.561  29.005  1.00  0.00    -0.248 NA
ATOM     49  C   UNL A   1      39.819  25.578  27.558  1.00  0.00     0.031 C 
ATOM     50  C   UNL A   1      42.613  28.854  29.495  1.00  0.00     0.029 A 
ATOM     51  N   UNL A   1      40.735  29.811  30.153  1.00  0.00    -0.354 N 
ATOM     52  C   UNL A   1      41.779  24.564  28.068  1.00  0.00     0.074 A 
ATOM     53  C   UNL A   1      40.510  24.439  27.407  1.00  0.00     0.031 C 
ATOM     54  C   UNL A   1      42.894  29.781  30.439  1.00  0.00     0.029 A 
ATOM     55  C   UNL A   1      41.657  30.074  31.155  1.00  0.00     0.049 A 
ATOM     56  H   UNL A   1      39.920  30.327  29.959  1.00  0.00     0.167 HD
ATOM     57  C   UNL A   1      43.066  24.232  27.747  1.00  0.00     0.037 A 
ATOM     58  C   UNL A   1      41.383  29.704  32.450  1.00  0.00     0.037 A 
ATOM     59  C   UNL A   1      43.980  25.010  28.595  1.00  0.00     0.049 A 
ATOM     60  C   UNL A   1      42.222  28.506  32.873  1.00  0.00     0.074 A 
ATOM     61  C   UNL A   1      44.700  26.177  28.397  1.00  0.00     0.029 A 
ATOM     62  N   UNL A   1      43.922  24.828  29.960  1.00  0.00    -0.354 N 
ATOM     63  N   UNL A   1      42.809  27.695  32.033  1.00  0.00    -0.248 NA
ATOM     64  C   UNL A   1      42.425  28.100  34.262  1.00  0.00     0.031 C 
ATOM     65  C   UNL A   1      45.028  26.711  29.685  1.00  0.00     0.029 A 
ATOM     66  C   UNL A   1      44.479  25.884  30.651  1.00  0.00     0.049 A 
ATOM     67  H   UNL A   1      43.530  24.036  30.394  1.00  0.00     0.167 HD
ATOM     68  C   UNL A   1      43.536  26.768  32.712  1.00  0.00     0.074 A 
ATOM     69  C   UNL A   1      43.207  27.017  34.108  1.00  0.00     0.031 C 
ATOM     70  C   UNL A   1      44.372  25.877  32.102  1.00  0.00     0.037 A 
BRANCH  57  71
ATOM     71  C   UNL A   1      43.549  23.495  26.513  1.00  0.00     0.057 A 
ATOM     72  C   UNL A   1      43.427  22.089  26.456  1.00  0.00     0.134 A 
ATOM     73  C   UNL A   1      44.162  24.058  25.378  1.00  0.00     0.134 A 
ATOM     74  F   UNL A   1      42.788  21.399  27.411  1.00  0.00    -0.206 F 
ATOM     75  C   UNL A   1      43.941  21.310  25.412  1.00  0.00     0.040 A 
ATOM     76  C   UNL A   1      44.686  23.287  24.325  1.00  0.00     0.040 A 
ATOM     77  F   UNL A   1      44.270  25.376  25.199  1.00  0.00    -0.206 F 
ATOM     78  C   UNL A   1      44.589  21.907  24.345  1.00  0.00     0.006 A 
ENDBRANCH  57  71
BRANCH  58  79
ATOM     79  C   UNL A   1      39.962  29.919  32.878  1.00  0.00     0.057 A 
ATOM     80  C   UNL A   1      39.489  31.235  33.056  1.00  0.00     0.134 A 
ATOM     81  C   UNL A   1      38.994  28.911  32.815  1.00  0.00     0.134 A 
ATOM     82  F   UNL A   1      40.355  32.253  33.177  1.00  0.00    -0.206 F 
ATOM     83  C   UNL A   1      38.129  31.549  33.002  1.00  0.00     0.040 A 
ATOM     84  C   UNL A   1      37.627  29.211  32.797  1.00  0.00     0.040 A 
ATOM     85  F   UNL A   1      39.345  27.626  32.667  1.00  0.00    -0.206 F 
ATOM     86  C   UNL A   1      37.196  30.533  32.837  1.00  0.00     0.006 A 
ENDBRANCH  58  79
BRANCH  70  87
ATOM     87  C   UNL A   1      45.187  24.895  32.875  1.00  0.00     0.057 A 
ATOM     88  C   UNL A   1      44.666  23.664  33.286  1.00  0.00     0.134 A 
ATOM     89  C   UNL A   1      46.484  25.203  33.329  1.00  0.00     0.134 A 
ATOM     90  F   UNL A   1      43.410  23.307  32.978  1.00  0.00    -0.206 F 
ATOM     91  C   UNL A   1      45.416  22.763  34.042  1.00  0.00     0.040 A 
ATOM     92  C   UNL A   1      47.215  24.343  34.144  1.00  0.00     0.040 A 
ATOM     93  F   UNL A   1      47.113  26.334  32.980  1.00  0.00    -0.206 F 
ATOM     94  C   UNL A   1      46.690  23.107  34.484  1.00  0.00     0.006 A 
ENDBRANCH  70  87
ENDBRANCH  44  45
ENDBRANCH  37  39
ENDBRANCH  36  37
ENDBRANCH  35  36
ENDBRANCH   1  35
TORSDOF 16
ENDMDL
MODEL 2
REMARK VINA RESULT:     -13.3      3.250      8.854
REMARK SMILES Cc1ccc(-c2csc(NC(=O)[C@H]3[C@@H](C(=O)OCCOC(=O)c4ccc(-c5c6nc(c(-c7c(F)cccc7F)c7ccc([nH]7)c(-c7c(F)cccc7F)c7nc(c(-c8c(F)cccc8F)c8ccc5[nH]8)C=C7)C=C6)cc4)[C@H]4C=C[C@@H]3C4)c2C(=O)NC2CC2)cc1
REMARK SMILES IDX 18 1 17 2 15 3 16 4 14 5 13 6 80 7 77 8 79 9 81 10 78 11
REMARK SMILES IDX 11 12 10 13 12 15 9 16 6 17 7 18 82 19 8 20 5 21 1 22 2 23
REMARK SMILES IDX 3 24 90 25 4 26 89 27 83 28 84 29 85 30 86 32 87 33 88 34
REMARK SMILES IDX 19 35 20 36 21 37 22 38 23 39 24 40 76 41 25 42 75 43 26 44
REMARK SMILES IDX 27 45 28 46 69 47 29 48 74 49 68 50 70 51 30 52 73 53 67 54
REMARK SMILES IDX 66 55 31 57 57 58 40 59 56 60 41 61 44 62 55 63 71 64 42 65
REMARK SMILES IDX 43 66 54 68 72 69 45 70 32 71 33 72 38 73 34 74 35 75 37 76
REMARK SMILES IDX 39 77 36 78 58 79 59 80 64 81 60 82 61 83 63 84 65 85 62 86
REMARK SMILES IDX 46 87 47 88 52 89 48 90 49 91 51 92 53 93 50 94
REMARK H PARENT 10 14 85 31 70 56 44 67
REMARK Flexibility Score: inf
ROOT
ATOM      1  C   UNL A   1      36.982  21.768  24.430  1.00  0.00     0.274 C 
ENDROOT
BRANCH   1   2
ATOM      2  O   UNL A   1      35.540  21.870  24.313  1.00  0.00    -0.462 OA
BRANCH   2   3
ATOM      3  C   UNL A   1      34.749  20.901  24.826  1.00  0.00     0.310 C 
ATOM      4  O   UNL A   1      34.973  19.719  24.644  1.00  0.00    -0.252 OA
BRANCH   3   5
ATOM      5  C   UNL A   1      33.693  21.446  25.771  1.00  0.00     0.119 C 
ATOM      6  C   UNL A   1      32.603  22.390  25.139  1.00  0.00     0.100 C 
ATOM      7  C   UNL A   1      32.469  23.483  26.227  1.00  0.00     0.025 C 
ATOM      8  C   UNL A   1      34.081  22.186  27.093  1.00  0.00     0.027 C 
ATOM      9  C   UNL A   1      33.699  24.336  26.329  1.00  0.00    -0.027 C 
ATOM     10  C   UNL A   1      32.683  22.659  27.514  1.00  0.00     0.017 C 
ATOM     11  C   UNL A   1      34.635  23.577  26.903  1.00  0.00    -0.027 C 
BRANCH   6  12
ATOM     12  C   UNL A   1      32.744  22.733  23.637  1.00  0.00     0.229 C 
ATOM     13  N   UNL A   1      32.926  24.030  23.237  1.00  0.00    -0.317 N 
ATOM     14  H   UNL A   1      33.816  24.309  22.920  1.00  0.00     0.170 HD
ATOM     15  O   UNL A   1      32.730  21.827  22.797  1.00  0.00    -0.274 OA
BRANCH  13  16
ATOM     16  C   UNL A   1      31.899  24.966  23.262  1.00  0.00     0.108 A 
ATOM     17  C   UNL A   1      30.599  26.844  23.610  1.00  0.00     0.007 A 
ATOM     18  C   UNL A   1      29.722  25.793  23.839  1.00  0.00     0.076 A 
ATOM     19  C   UNL A   1      31.937  26.366  23.230  1.00  0.00     0.082 A 
ATOM     20  S   UNL A   1      30.301  24.385  23.118  1.00  0.00    -0.125 S 
BRANCH  17  21
ATOM     21  C   UNL A   1      29.939  28.140  23.606  1.00  0.00    -0.017 A 
ATOM     22  C   UNL A   1      27.873  31.790  22.759  1.00  0.00     0.044 C 
ATOM     23  C   UNL A   1      28.528  30.531  23.240  1.00  0.00    -0.051 A 
ATOM     24  C   UNL A   1      27.910  29.317  22.951  1.00  0.00     0.004 A 
ATOM     25  C   UNL A   1      29.804  30.534  23.834  1.00  0.00     0.004 A 
ATOM     26  C   UNL A   1      28.603  28.137  23.156  1.00  0.00     0.009 A 
ATOM     27  C   UNL A   1      30.515  29.335  24.026  1.00  0.00     0.009 A 
ENDBRANCH  17  21
BRANCH  19  28
ATOM     28  C   UNL A   1      33.236  27.022  23.008  1.00  0.00     0.255 C 
ATOM     29  O   UNL A   1      33.814  26.845  21.928  1.00  0.00    -0.269 OA
ATOM     30  N   UNL A   1      33.854  27.951  23.820  1.00  0.00    -0.349 N 
ATOM     31  H   UNL A   1      34.677  28.293  23.403  1.00  0.00     0.164 HD
BRANCH  30  32
ATOM     32  C   UNL A   1      33.636  28.551  25.090  1.00  0.00     0.082 C 
ATOM     33  C   UNL A   1      32.996  27.918  26.270  1.00  0.00     0.027 C 
ATOM     34  C   UNL A   1      34.489  28.137  26.243  1.00  0.00     0.027 C 
ENDBRANCH  30  32
ENDBRANCH  19  28
ENDBRANCH  13  16
ENDBRANCH   6  12
ENDBRANCH   3   5
ENDBRANCH   2   3
ENDBRANCH   1   2
BRANCH   1  35
ATOM     35  C   UNL A   1      37.819  22.026  25.726  1.00  0.00     0.275 C 
BRANCH  35  36
ATOM     36  O   UNL A   1      38.554  23.233  26.121  1.00  0.00    -0.458 OA
BRANCH  36  37
ATOM     37  C   UNL A   1      39.726  23.398  26.762  1.00  0.00     0.338 C 
ATOM     38  O   UNL A   1      40.558  22.520  26.960  1.00  0.00    -0.246 OA
BRANCH  37  39
ATOM     39  C   UNL A   1      39.915  24.729  27.286  1.00  0.00     0.060 A 
ATOM     40  C   UNL A   1      40.383  25.727  26.427  1.00  0.00     0.016 A 
ATOM     41  C   UNL A   1      39.484  24.967  28.591  1.00  0.00     0.016 A 
ATOM     42  C   UNL A   1      40.311  27.029  26.858  1.00  0.00     0.010 A 
ATOM     43  C   UNL A   1      39.335  26.264  28.982  1.00  0.00     0.010 A 
ATOM     44  C   UNL A   1      39.774  27.269  28.112  1.00  0.00    -0.014 A 
BRANCH  44  45
ATOM     45  C   UNL A   1      40.049  28.517  28.763  1.00  0.00     0.031 A 
ATOM     46  C   UNL A   1      39.044  29.585  28.696  1.00  0.00     0.074 A 
ATOM     47  C   UNL A   1      41.172  28.346  29.498  1.00  0.00     0.049 A 
ATOM     48  N   UNL A   1      39.282  30.825  28.942  1.00  0.00    -0.248 NA
ATOM     49  C   UNL A   1      37.668  29.384  28.202  1.00  0.00     0.031 C 
ATOM     50  C   UNL A   1      41.650  28.978  30.705  1.00  0.00     0.029 A 
ATOM     51  N   UNL A   1      42.218  27.447  29.219  1.00  0.00    -0.354 N 
ATOM     52  C   UNL A   1      38.044  31.390  29.182  1.00  0.00     0.074 A 
ATOM     53  C   UNL A   1      37.123  30.588  28.425  1.00  0.00     0.031 C 
ATOM     54  C   UNL A   1      42.973  28.722  30.816  1.00  0.00     0.029 A 
ATOM     55  C   UNL A   1      43.404  28.069  29.583  1.00  0.00     0.049 A 
ATOM     56  H   UNL A   1      42.126  26.545  28.836  1.00  0.00     0.167 HD
ATOM     57  C   UNL A   1      37.930  32.230  30.254  1.00  0.00     0.037 A 
ATOM     58  C   UNL A   1      44.200  28.639  28.620  1.00  0.00     0.037 A 
ATOM     59  C   UNL A   1      39.255  32.397  30.867  1.00  0.00     0.049 A 
ATOM     60  C   UNL A   1      44.131  30.159  28.672  1.00  0.00     0.074 A 
ATOM     61  C   UNL A   1      39.879  31.811  31.957  1.00  0.00     0.029 A 
ATOM     62  N   UNL A   1      40.261  32.961  30.112  1.00  0.00    -0.354 N 
ATOM     63  N   UNL A   1      43.170  30.825  29.254  1.00  0.00    -0.248 NA
ATOM     64  C   UNL A   1      45.105  31.044  28.036  1.00  0.00     0.031 C 
ATOM     65  C   UNL A   1      41.291  31.999  31.803  1.00  0.00     0.029 A 
ATOM     66  C   UNL A   1      41.513  32.667  30.611  1.00  0.00     0.049 A 
ATOM     67  H   UNL A   1      40.105  33.509  29.310  1.00  0.00     0.167 HD
ATOM     68  C   UNL A   1      43.423  32.159  29.191  1.00  0.00     0.074 A 
ATOM     69  C   UNL A   1      44.610  32.253  28.355  1.00  0.00     0.031 C 
ATOM     70  C   UNL A   1      42.668  33.096  29.837  1.00  0.00     0.037 A 
BRANCH  57  71
ATOM     71  C   UNL A   1      36.658  32.652  30.965  1.00  0.00     0.057 A 
ATOM     72  C   UNL A   1      35.864  33.680  30.409  1.00  0.00     0.134 A 
ATOM     73  C   UNL A   1      36.163  32.148  32.181  1.00  0.00     0.134 A 
ATOM     74  F   UNL A   1      36.141  34.211  29.209  1.00  0.00    -0.206 F 
ATOM     75  C   UNL A   1      34.736  34.214  31.043  1.00  0.00     0.040 A 
ATOM     76  C   UNL A   1      35.034  32.678  32.831  1.00  0.00     0.040 A 
ATOM     77  F   UNL A   1      36.714  31.105  32.805  1.00  0.00    -0.206 F 
ATOM     78  C   UNL A   1      34.322  33.724  32.269  1.00  0.00     0.006 A 
ENDBRANCH  57  71
BRANCH  58  79
ATOM     79  C   UNL A   1      44.309  27.853  27.348  1.00  0.00     0.057 A 
ATOM     80  C   UNL A   1      44.976  26.611  27.361  1.00  0.00     0.134 A 
ATOM     81  C   UNL A   1      43.526  28.129  26.221  1.00  0.00     0.134 A 
ATOM     82  F   UNL A   1      45.787  26.292  28.382  1.00  0.00    -0.206 F 
ATOM     83  C   UNL A   1      44.744  25.632  26.393  1.00  0.00     0.040 A 
ATOM     84  C   UNL A   1      43.315  27.167  25.225  1.00  0.00     0.040 A 
ATOM     85  F   UNL A   1      42.868  29.291  26.107  1.00  0.00    -0.206 F 
ATOM     86  C   UNL A   1      43.881  25.902  25.338  1.00  0.00     0.006 A 
ENDBRANCH  58  79
BRANCH  70  87
ATOM     87  C   UNL A   1      42.991  34.552  29.782  1.00  0.00     0.057 A 
ATOM     88  C   UNL A   1      43.557  35.225  30.870  1.00  0.00     0.134 A 
ATOM     89  C   UNL A   1      42.638  35.349  28.676  1.00  0.00     0.134 A 
ATOM     90  F   UNL A   1      43.856  34.575  32.005  1.00  0.00    -0.206 F 
ATOM     91  C   UNL A   1      43.822  36.594  30.831  1.00  0.00     0.040 A 
ATOM     92  C   UNL A   1      42.831  36.727  28.655  1.00  0.00     0.040 A 
ATOM     93  F   UNL A   1      42.118  34.826  27.556  1.00  0.00    -0.206 F 
ATOM     94  C   UNL A   1      43.448  37.352  29.726  1.00  0.00     0.006 A 
ENDBRANCH  70  87
ENDBRANCH  44  45
ENDBRANCH  37  39
ENDBRANCH  36  37
ENDBRANCH  35  36
ENDBRANCH   1  35
TORSDOF 16
ENDMDL
MODEL 3
REMARK VINA RESULT:     -13.0      1.405      2.128
REMARK SMILES Cc1ccc(-c2csc(NC(=O)[C@H]3[C@@H](C(=O)OCCOC(=O)c4ccc(-c5c6nc(c(-c7c(F)cccc7F)c7ccc([nH]7)c(-c7c(F)cccc7F)c7nc(c(-c8c(F)cccc8F)c8ccc5[nH]8)C=C7)C=C6)cc4)[C@H]4C=C[C@@H]3C4)c2C(=O)NC2CC2)cc1
REMARK SMILES IDX 18 1 17 2 15 3 16 4 14 5 13 6 80 7 77 8 79 9 81 10 78 11
REMARK SMILES IDX 11 12 10 13 12 15 9 16 6 17 7 18 82 19 8 20 5 21 1 22 2 23
REMARK SMILES IDX 3 24 90 25 4 26 89 27 83 28 84 29 85 30 86 32 87 33 88 34
REMARK SMILES IDX 19 35 20 36 21 37 22 38 23 39 24 40 76 41 25 42 75 43 26 44
REMARK SMILES IDX 27 45 28 46 69 47 29 48 74 49 68 50 70 51 30 52 73 53 67 54
REMARK SMILES IDX 66 55 31 57 57 58 40 59 56 60 41 61 44 62 55 63 71 64 42 65
REMARK SMILES IDX 43 66 54 68 72 69 45 70 32 71 33 72 38 73 34 74 35 75 37 76
REMARK SMILES IDX 39 77 36 78 58 79 59 80 64 81 60 82 61 83 63 84 65 85 62 86
REMARK SMILES IDX 46 87 47 88 52 89 48 90 49 91 51 92 53 93 50 94
REMARK H PARENT 10 14 85 31 70 56 44 67
REMARK Flexibility Score: inf
ROOT
ATOM      1  C   UNL A   1      32.094  28.778  27.175  1.00  0.00     0.274 C 
ENDROOT
BRANCH   1   2
ATOM      2  O   UNL A   1      31.279  28.272  26.089  1.00  0.00    -0.462 OA
BRANCH   2   3
ATOM      3  C   UNL A   1      31.348  26.967  25.741  1.00  0.00     0.310 C 
ATOM      4  O   UNL A   1      31.061  26.075  26.516  1.00  0.00    -0.252 OA
BRANCH   3   5
ATOM      5  C   UNL A   1      31.641  26.770  24.265  1.00  0.00     0.119 C 
ATOM      6  C   UNL A   1      33.038  26.142  23.902  1.00  0.00     0.100 C 
ATOM      7  C   UNL A   1      33.452  26.990  22.675  1.00  0.00     0.025 C 
ATOM      8  C   UNL A   1      31.501  27.942  23.238  1.00  0.00     0.027 C 
ATOM      9  C   UNL A   1      33.758  28.412  23.044  1.00  0.00    -0.027 C 
ATOM     10  C   UNL A   1      32.086  27.241  22.004  1.00  0.00     0.017 C 
ATOM     11  C   UNL A   1      32.585  28.988  23.318  1.00  0.00    -0.027 C 
BRANCH   6  12
ATOM     12  C   UNL A   1      34.010  25.850  25.070  1.00  0.00     0.229 C 
ATOM     13  N   UNL A   1      34.872  24.787  25.005  1.00  0.00    -0.317 N 
ATOM     14  H   UNL A   1      35.829  24.961  24.849  1.00  0.00     0.170 HD
ATOM     15  O   UNL A   1      34.034  26.601  26.050  1.00  0.00    -0.274 OA
BRANCH  13  16
ATOM     16  C   UNL A   1      34.444  23.474  25.151  1.00  0.00     0.108 A 
ATOM     17  C   UNL A   1      33.943  21.241  24.833  1.00  0.00     0.007 A 
ATOM     18  C   UNL A   1      32.820  21.737  25.479  1.00  0.00     0.076 A 
ATOM     19  C   UNL A   1      34.966  22.279  24.640  1.00  0.00     0.082 A 
ATOM     20  S   UNL A   1      33.196  23.174  26.276  1.00  0.00    -0.125 S 
BRANCH  17  21
ATOM     21  C   UNL A   1      33.918  19.794  24.686  1.00  0.00    -0.017 A 
ATOM     22  C   UNL A   1      33.372  15.559  24.974  1.00  0.00     0.044 C 
ATOM     23  C   UNL A   1      33.578  17.014  24.678  1.00  0.00    -0.051 A 
ATOM     24  C   UNL A   1      32.460  17.843  24.644  1.00  0.00     0.004 A 
ATOM     25  C   UNL A   1      34.863  17.581  24.584  1.00  0.00     0.004 A 
ATOM     26  C   UNL A   1      32.633  19.216  24.623  1.00  0.00     0.009 A 
ATOM     27  C   UNL A   1      35.039  18.977  24.581  1.00  0.00     0.009 A 
ENDBRANCH  17  21
BRANCH  19  28
ATOM     28  C   UNL A   1      36.251  22.333  23.923  1.00  0.00     0.255 C 
ATOM     29  O   UNL A   1      36.302  22.927  22.838  1.00  0.00    -0.269 OA
ATOM     30  N   UNL A   1      37.483  21.913  24.380  1.00  0.00    -0.349 N 
ATOM     31  H   UNL A   1      38.194  22.135  23.738  1.00  0.00     0.164 HD
BRANCH  30  32
ATOM     32  C   UNL A   1      38.013  21.246  25.520  1.00  0.00     0.082 C 
ATOM     33  C   UNL A   1      39.190  20.342  25.548  1.00  0.00     0.027 C 
ATOM     34  C   UNL A   1      39.290  21.737  26.116  1.00  0.00     0.027 C 
ENDBRANCH  30  32
ENDBRANCH  19  28
ENDBRANCH  13  16
ENDBRANCH   6  12
ENDBRANCH   3   5
ENDBRANCH   2   3
ENDBRANCH   1   2
BRANCH   1  35
ATOM     35  C   UNL A   1      33.394  29.637  27.026  1.00  0.00     0.275 C 
BRANCH  35  36
ATOM     36  O   UNL A   1      34.105  30.412  28.049  1.00  0.00    -0.458 OA
BRANCH  36  37
ATOM     37  C   UNL A   1      35.185  31.212  27.975  1.00  0.00     0.338 C 
ATOM     38  O   UNL A   1      35.177  32.386  27.625  1.00  0.00    -0.246 OA
BRANCH  37  39
ATOM     39  C   UNL A   1      36.423  30.542  28.288  1.00  0.00     0.060 A 
ATOM     40  C   UNL A   1      36.531  29.865  29.506  1.00  0.00     0.016 A 
ATOM     41  C   UNL A   1      37.393  30.495  27.285  1.00  0.00     0.016 A 
ATOM     42  C   UNL A   1      37.600  29.022  29.678  1.00  0.00     0.010 A 
ATOM     43  C   UNL A   1      38.406  29.595  27.427  1.00  0.00     0.010 A 
ATOM     44  C   UNL A   1      38.500  28.891  28.634  1.00  0.00    -0.014 A 
BRANCH  44  45
ATOM     45  C   UNL A   1      39.811  28.373  28.899  1.00  0.00     0.031 A 
ATOM     46  C   UNL A   1      40.059  26.940  28.692  1.00  0.00     0.074 A 
ATOM     47  C   UNL A   1      40.624  29.432  29.117  1.00  0.00     0.049 A 
ATOM     48  N   UNL A   1      41.056  26.296  29.186  1.00  0.00    -0.248 NA
ATOM     49  C   UNL A   1      39.114  26.038  28.006  1.00  0.00     0.031 C 
ATOM     50  C   UNL A   1      42.041  29.626  28.925  1.00  0.00     0.029 A 
ATOM     51  N   UNL A   1      40.238  30.682  29.637  1.00  0.00    -0.354 N 
ATOM     52  C   UNL A   1      41.151  25.143  28.431  1.00  0.00     0.074 A 
ATOM     53  C   UNL A   1      39.811  24.893  27.977  1.00  0.00     0.031 C 
ATOM     54  C   UNL A   1      42.416  30.713  29.637  1.00  0.00     0.029 A 
ATOM     55  C   UNL A   1      41.273  31.130  30.444  1.00  0.00     0.049 A 
ATOM     56  H   UNL A   1      39.390  31.151  29.461  1.00  0.00     0.167 HD
ATOM     57  C   UNL A   1      42.395  24.762  28.011  1.00  0.00     0.037 A 
ATOM     58  C   UNL A   1      41.179  31.006  31.809  1.00  0.00     0.037 A 
ATOM     59  C   UNL A   1      43.387  25.687  28.574  1.00  0.00     0.049 A 
ATOM     60  C   UNL A   1      42.098  29.910  32.331  1.00  0.00     0.074 A 
ATOM     61  C   UNL A   1      44.044  26.799  28.072  1.00  0.00     0.029 A 
ATOM     62  N   UNL A   1      43.511  25.761  29.945  1.00  0.00    -0.354 N 
ATOM     63  N   UNL A   1      42.595  28.960  31.585  1.00  0.00    -0.248 NA
ATOM     64  C   UNL A   1      42.489  29.769  33.732  1.00  0.00     0.031 C 
ATOM     65  C   UNL A   1      44.520  27.564  29.186  1.00  0.00     0.029 A 
ATOM     66  C   UNL A   1      44.123  26.929  30.350  1.00  0.00     0.049 A 
ATOM     67  H   UNL A   1      43.200  25.062  30.564  1.00  0.00     0.167 HD
ATOM     68  C   UNL A   1      43.429  28.177  32.321  1.00  0.00     0.074 A 
ATOM     69  C   UNL A   1      43.275  28.679  33.678  1.00  0.00     0.031 C 
ATOM     70  C   UNL A   1      44.203  27.191  31.779  1.00  0.00     0.037 A 
BRANCH  57  71
ATOM     71  C   UNL A   1      42.735  23.810  26.880  1.00  0.00     0.057 A 
ATOM     72  C   UNL A   1      42.762  22.420  27.131  1.00  0.00     0.134 A 
ATOM     73  C   UNL A   1      43.075  24.155  25.559  1.00  0.00     0.134 A 
ATOM     74  F   UNL A   1      42.379  21.911  28.311  1.00  0.00    -0.206 F 
ATOM     75  C   UNL A   1      43.171  21.472  26.185  1.00  0.00     0.040 A 
ATOM     76  C   UNL A   1      43.491  23.213  24.601  1.00  0.00     0.040 A 
ATOM     77  F   UNL A   1      43.004  25.407  25.101  1.00  0.00    -0.206 F 
ATOM     78  C   UNL A   1      43.554  21.867  24.916  1.00  0.00     0.006 A 
ENDBRANCH  57  71
BRANCH  58  79
ATOM     79  C   UNL A   1      39.819  31.291  32.373  1.00  0.00     0.057 A 
ATOM     80  C   UNL A   1      39.026  30.220  32.833  1.00  0.00     0.134 A 
ATOM     81  C   UNL A   1      39.414  32.576  32.754  1.00  0.00     0.134 A 
ATOM     82  F   UNL A   1      39.317  28.962  32.470  1.00  0.00    -0.206 F 
ATOM     83  C   UNL A   1      37.993  30.403  33.755  1.00  0.00     0.040 A 
ATOM     84  C   UNL A   1      38.357  32.773  33.650  1.00  0.00     0.040 A 
ATOM     85  F   UNL A   1      40.092  33.660  32.351  1.00  0.00    -0.206 F 
ATOM     86  C   UNL A   1      37.681  31.684  34.191  1.00  0.00     0.006 A 
ENDBRANCH  58  79
BRANCH  70  87
ATOM     87  C   UNL A   1      45.138  26.372  32.605  1.00  0.00     0.057 A 
ATOM     88  C   UNL A   1      46.522  26.402  32.402  1.00  0.00     0.134 A 
ATOM     89  C   UNL A   1      44.670  25.442  33.553  1.00  0.00     0.134 A 
ATOM     90  F   UNL A   1      47.066  27.193  31.465  1.00  0.00    -0.206 F 
ATOM     91  C   UNL A   1      47.392  25.607  33.148  1.00  0.00     0.040 A 
ATOM     92  C   UNL A   1      45.523  24.592  34.251  1.00  0.00     0.040 A 
ATOM     93  F   UNL A   1      43.371  25.334  33.866  1.00  0.00    -0.206 F 
ATOM     94  C   UNL A   1      46.893  24.689  34.067  1.00  0.00     0.006 A 
ENDBRANCH  70  87
ENDBRANCH  44  45
ENDBRANCH  37  39
ENDBRANCH  36  37
ENDBRANCH  35  36
ENDBRANCH   1  35
TORSDOF 16
ENDMDL
