MODEL 1
REMARK VINA RESULT:     -11.9      0.000      0.000
REMARK SMILES COc1ccc(C2=NN(C(=O)CCC(=O)OCCOC(=O)c3ccc(-c4c5nc(c(-c6c(F)cccc6F)c6ccc([nH]6)c(-c6c(F)cccc6F)c6nc(c(-c7c(F)cccc7F)c7ccc4[nH]7)C=C6)C=C5)cc3)[C@H](c3ccc(Cl)cc3Cl)C2)cc1
REMARK SMILES IDX 16 1 14 2 15 3 13 4 12 5 10 6 11 7 9 8 7 9 8 10 85 11 76 12
REMARK SMILES IDX 6 13 3 14 4 15 87 16 5 17 86 18 2 19 1 20 77 21 78 22 83 23
REMARK SMILES IDX 79 24 82 25 84 26 80 27 81 28 17 29 18 30 19 31 20 32 21 33
REMARK SMILES IDX 22 34 23 35 75 36 24 37 74 38 25 39 26 40 27 41 68 42 28 43
REMARK SMILES IDX 73 44 67 45 69 46 29 47 72 48 66 49 65 50 30 52 56 53 39 54
REMARK SMILES IDX 55 55 40 56 43 57 54 58 70 59 41 60 42 61 53 63 71 64 44 65
REMARK SMILES IDX 31 66 32 67 37 68 33 69 34 70 36 71 38 72 35 73 57 74 58 75
REMARK SMILES IDX 63 76 59 77 60 78 62 79 64 80 61 81 45 82 46 83 51 84 47 85
REMARK SMILES IDX 48 86 50 87 52 88 49 89
REMARK H PARENT 69 51 43 62
REMARK Flexibility Score: inf
ROOT
ATOM      1  O   UNL A   1      39.188  21.872  26.031  1.00  0.00    -0.462 OA
ENDROOT
BRANCH   1   2
ATOM      2  C   UNL A   1      38.174  22.775  25.962  1.00  0.00     0.306 C 
ATOM      3  O   UNL A   1      38.151  23.844  26.559  1.00  0.00    -0.252 OA
BRANCH   2   4
ATOM      4  C   UNL A   1      37.040  22.290  25.094  1.00  0.00     0.132 C 
BRANCH   4   5
ATOM      5  C   UNL A   1      35.960  23.339  24.843  1.00  0.00     0.114 C 
BRANCH   5   6
ATOM      6  C   UNL A   1      35.268  23.077  23.519  1.00  0.00     0.243 C 
ATOM      7  O   UNL A   1      35.977  22.955  22.512  1.00  0.00    -0.273 OA
BRANCH   6   8
ATOM      8  N   UNL A   1      33.874  23.083  23.473  1.00  0.00    -0.225 N 
ATOM      9  C   UNL A   1      32.139  24.369  23.455  1.00  0.00     0.071 C 
ATOM     10  N   UNL A   1      33.333  24.271  22.978  1.00  0.00    -0.174 NA
ATOM     11  C   UNL A   1      31.620  23.188  24.189  1.00  0.00     0.091 C 
ATOM     12  C   UNL A   1      32.903  22.375  24.334  1.00  0.00     0.149 C 
BRANCH   9  13
ATOM     13  C   UNL A   1      31.308  25.563  23.384  1.00  0.00    -0.002 A 
ATOM     14  C   UNL A   1      29.542  27.676  23.043  1.00  0.00     0.118 A 
ATOM     15  C   UNL A   1      30.773  27.669  22.376  1.00  0.00     0.047 A 
ATOM     16  C   UNL A   1      29.192  26.611  23.877  1.00  0.00     0.047 A 
ATOM     17  C   UNL A   1      31.667  26.614  22.548  1.00  0.00     0.014 A 
ATOM     18  C   UNL A   1      30.080  25.549  24.053  1.00  0.00     0.014 A 
BRANCH  14  19
ATOM     19  O   UNL A   1      28.737  28.748  22.771  1.00  0.00    -0.497 OA
ATOM     20  C   UNL A   1      27.368  28.581  23.126  1.00  0.00     0.278 C 
ENDBRANCH  14  19
ENDBRANCH   9  13
BRANCH  12  21
ATOM     21  C   UNL A   1      32.607  20.872  24.250  1.00  0.00    -0.004 A 
ATOM     22  C   UNL A   1      32.874  20.136  25.444  1.00  0.00     0.009 A 
ATOM     23  C   UNL A   1      32.315  20.112  23.108  1.00  0.00     0.047 A 
ATOM     24  C   UNL A   1      32.951  18.743  25.472  1.00  0.00     0.021 A 
ATOM     25  C   UNL A   1      32.427  18.708  23.128  1.00  0.00     0.041 A 
ATOM     26  Cl  UNL A   1      31.778  20.783  21.616  1.00  0.00    -0.084 Cl
ATOM     27  C   UNL A   1      32.769  18.037  24.297  1.00  0.00     0.042 A 
ATOM     28  Cl  UNL A   1      32.986  16.330  24.287  1.00  0.00    -0.084 Cl
ENDBRANCH  12  21
ENDBRANCH   6   8
ENDBRANCH   5   6
ENDBRANCH   4   5
ENDBRANCH   2   4
ENDBRANCH   1   2
BRANCH   1  29
ATOM     29  C   UNL A   1      38.932  20.579  25.443  1.00  0.00     0.274 C 
BRANCH  29  30
ATOM     30  C   UNL A   1      39.711  19.438  26.113  1.00  0.00     0.275 C 
BRANCH  30  31
ATOM     31  O   UNL A   1      40.922  19.091  25.413  1.00  0.00    -0.458 OA
BRANCH  31  32
ATOM     32  C   UNL A   1      42.040  19.272  26.143  1.00  0.00     0.338 C 
ATOM     33  O   UNL A   1      42.808  18.404  26.509  1.00  0.00    -0.246 OA
BRANCH  32  34
ATOM     34  C   UNL A   1      42.350  20.666  26.418  1.00  0.00     0.060 A 
ATOM     35  C   UNL A   1      42.277  21.085  27.750  1.00  0.00     0.016 A 
ATOM     36  C   UNL A   1      42.555  21.572  25.378  1.00  0.00     0.016 A 
ATOM     37  C   UNL A   1      42.475  22.421  28.056  1.00  0.00     0.010 A 
ATOM     38  C   UNL A   1      42.767  22.913  25.688  1.00  0.00     0.010 A 
ATOM     39  C   UNL A   1      42.757  23.332  27.029  1.00  0.00    -0.014 A 
BRANCH  39  40
ATOM     40  C   UNL A   1      43.228  24.681  27.391  1.00  0.00     0.031 A 
ATOM     41  C   UNL A   1      44.664  25.070  27.274  1.00  0.00     0.074 A 
ATOM     42  C   UNL A   1      42.298  25.551  27.825  1.00  0.00     0.049 A 
ATOM     43  N   UNL A   1      45.221  26.224  27.532  1.00  0.00    -0.248 NA
ATOM     44  C   UNL A   1      45.598  24.032  26.815  1.00  0.00     0.031 C 
ATOM     45  C   UNL A   1      40.870  25.245  27.972  1.00  0.00     0.029 A 
ATOM     46  N   UNL A   1      42.401  26.860  28.207  1.00  0.00    -0.354 N 
ATOM     47  C   UNL A   1      46.572  26.058  27.271  1.00  0.00     0.074 A 
ATOM     48  C   UNL A   1      46.755  24.682  26.852  1.00  0.00     0.031 C 
ATOM     49  C   UNL A   1      40.228  26.344  28.391  1.00  0.00     0.029 A 
ATOM     50  C   UNL A   1      41.200  27.414  28.571  1.00  0.00     0.049 A 
ATOM     51  H   UNL A   1      43.252  27.354  28.219  1.00  0.00     0.167 HD
ATOM     52  C   UNL A   1      47.561  26.977  27.374  1.00  0.00     0.037 A 
ATOM     53  C   UNL A   1      40.917  28.653  29.008  1.00  0.00     0.037 A 
ATOM     54  C   UNL A   1      47.354  28.339  27.804  1.00  0.00     0.049 A 
ATOM     55  C   UNL A   1      42.034  29.645  29.118  1.00  0.00     0.074 A 
ATOM     56  C   UNL A   1      48.283  29.357  27.930  1.00  0.00     0.029 A 
ATOM     57  N   UNL A   1      46.128  28.868  28.186  1.00  0.00    -0.354 N 
ATOM     58  N   UNL A   1      43.305  29.485  28.842  1.00  0.00    -0.248 NA
ATOM     59  C   UNL A   1      41.679  30.984  29.599  1.00  0.00     0.031 C 
ATOM     60  C   UNL A   1      47.624  30.492  28.422  1.00  0.00     0.029 A 
ATOM     61  C   UNL A   1      46.279  30.192  28.567  1.00  0.00     0.049 A 
ATOM     62  H   UNL A   1      45.276  28.375  28.186  1.00  0.00     0.167 HD
ATOM     63  C   UNL A   1      43.907  30.705  29.112  1.00  0.00     0.074 A 
ATOM     64  C   UNL A   1      42.852  31.601  29.547  1.00  0.00     0.031 C 
ATOM     65  C   UNL A   1      45.214  31.051  29.019  1.00  0.00     0.037 A 
BRANCH  52  66
ATOM     66  C   UNL A   1      48.954  26.535  27.040  1.00  0.00     0.057 A 
ATOM     67  C   UNL A   1      49.812  26.002  28.011  1.00  0.00     0.134 A 
ATOM     68  C   UNL A   1      49.434  26.613  25.727  1.00  0.00     0.134 A 
ATOM     69  F   UNL A   1      49.418  25.911  29.291  1.00  0.00    -0.206 F 
ATOM     70  C   UNL A   1      51.103  25.579  27.691  1.00  0.00     0.040 A 
ATOM     71  C   UNL A   1      50.716  26.176  25.391  1.00  0.00     0.040 A 
ATOM     72  F   UNL A   1      48.663  27.112  24.749  1.00  0.00    -0.206 F 
ATOM     73  C   UNL A   1      51.557  25.661  26.375  1.00  0.00     0.006 A 
ENDBRANCH  52  66
BRANCH  53  74
ATOM     74  C   UNL A   1      39.520  29.007  29.350  1.00  0.00     0.057 A 
ATOM     75  C   UNL A   1      38.640  29.493  28.377  1.00  0.00     0.134 A 
ATOM     76  C   UNL A   1      39.020  28.824  30.645  1.00  0.00     0.134 A 
ATOM     77  F   UNL A   1      39.067  29.697  27.123  1.00  0.00    -0.206 F 
ATOM     78  C   UNL A   1      37.313  29.792  28.681  1.00  0.00     0.040 A 
ATOM     79  C   UNL A   1      37.688  29.099  30.957  1.00  0.00     0.040 A 
ATOM     80  F   UNL A   1      39.812  28.348  31.617  1.00  0.00    -0.206 F 
ATOM     81  C   UNL A   1      36.832  29.588  29.974  1.00  0.00     0.006 A 
ENDBRANCH  53  74
BRANCH  65  82
ATOM     82  C   UNL A   1      45.554  32.458  29.404  1.00  0.00     0.057 A 
ATOM     83  C   UNL A   1      45.926  32.785  30.715  1.00  0.00     0.134 A 
ATOM     84  C   UNL A   1      45.501  33.492  28.464  1.00  0.00     0.134 A 
ATOM     85  F   UNL A   1      45.976  31.838  31.663  1.00  0.00    -0.206 F 
ATOM     86  C   UNL A   1      46.207  34.101  31.083  1.00  0.00     0.040 A 
ATOM     87  C   UNL A   1      45.801  34.808  28.815  1.00  0.00     0.040 A 
ATOM     88  F   UNL A   1      45.153  33.241  27.192  1.00  0.00    -0.206 F 
ATOM     89  C   UNL A   1      46.147  35.117  30.130  1.00  0.00     0.006 A 
ENDBRANCH  65  82
ENDBRANCH  39  40
ENDBRANCH  32  34
ENDBRANCH  31  32
ENDBRANCH  30  31
ENDBRANCH  29  30
ENDBRANCH   1  29
TORSDOF 17
ENDMDL
MODEL 2
REMARK VINA RESULT:     -11.9      1.632      7.182
REMARK SMILES COc1ccc(C2=NN(C(=O)CCC(=O)OCCOC(=O)c3ccc(-c4c5nc(c(-c6c(F)cccc6F)c6ccc([nH]6)c(-c6c(F)cccc6F)c6nc(c(-c7c(F)cccc7F)c7ccc4[nH]7)C=C6)C=C5)cc3)[C@H](c3ccc(Cl)cc3Cl)C2)cc1
REMARK SMILES IDX 16 1 14 2 15 3 13 4 12 5 10 6 11 7 9 8 7 9 8 10 85 11 76 12
REMARK SMILES IDX 6 13 3 14 4 15 87 16 5 17 86 18 2 19 1 20 77 21 78 22 83 23
REMARK SMILES IDX 79 24 82 25 84 26 80 27 81 28 17 29 18 30 19 31 20 32 21 33
REMARK SMILES IDX 22 34 23 35 75 36 24 37 74 38 25 39 26 40 27 41 68 42 28 43
REMARK SMILES IDX 73 44 67 45 69 46 29 47 72 48 66 49 65 50 30 52 56 53 39 54
REMARK SMILES IDX 55 55 40 56 43 57 54 58 70 59 41 60 42 61 53 63 71 64 44 65
REMARK SMILES IDX 31 66 32 67 37 68 33 69 34 70 36 71 38 72 35 73 57 74 58 75
REMARK SMILES IDX 63 76 59 77 60 78 62 79 64 80 61 81 45 82 46 83 51 84 47 85
REMARK SMILES IDX 48 86 50 87 52 88 49 89
REMARK H PARENT 69 51 43 62
REMARK Flexibility Score: inf
ROOT
ATOM      1  O   UNL A   1      37.808  21.768  24.754  1.00  0.00    -0.462 OA
ENDROOT
BRANCH   1   2
ATOM      2  C   UNL A   1      37.993  22.671  25.754  1.00  0.00     0.306 C 
ATOM      3  O   UNL A   1      38.910  22.635  26.564  1.00  0.00    -0.252 OA
BRANCH   2   4
ATOM      4  C   UNL A   1      36.902  23.712  25.786  1.00  0.00     0.132 C 
BRANCH   4   5
ATOM      5  C   UNL A   1      36.027  23.731  24.535  1.00  0.00     0.114 C 
BRANCH   5   6
ATOM      6  C   UNL A   1      34.693  24.386  24.835  1.00  0.00     0.243 C 
ATOM      7  O   UNL A   1      34.706  25.513  25.347  1.00  0.00    -0.273 OA
BRANCH   6   8
ATOM      8  N   UNL A   1      33.520  23.663  24.615  1.00  0.00    -0.225 N 
ATOM      9  C   UNL A   1      32.724  21.669  24.379  1.00  0.00     0.071 C 
ATOM     10  N   UNL A   1      33.581  22.345  25.068  1.00  0.00    -0.174 NA
ATOM     11  C   UNL A   1      31.826  22.449  23.492  1.00  0.00     0.091 C 
ATOM     12  C   UNL A   1      32.511  23.813  23.545  1.00  0.00     0.149 C 
BRANCH   9  13
ATOM     13  C   UNL A   1      32.627  20.216  24.362  1.00  0.00    -0.002 A 
ATOM     14  C   UNL A   1      32.759  17.445  24.351  1.00  0.00     0.118 A 
ATOM     15  C   UNL A   1      32.583  18.148  23.154  1.00  0.00     0.047 A 
ATOM     16  C   UNL A   1      32.881  18.138  25.558  1.00  0.00     0.047 A 
ATOM     17  C   UNL A   1      32.509  19.541  23.152  1.00  0.00     0.014 A 
ATOM     18  C   UNL A   1      32.811  19.531  25.566  1.00  0.00     0.014 A 
BRANCH  14  19
ATOM     19  O   UNL A   1      32.848  16.086  24.222  1.00  0.00    -0.497 OA
ATOM     20  C   UNL A   1      32.748  15.355  25.439  1.00  0.00     0.278 C 
ENDBRANCH  14  19
ENDBRANCH   9  13
BRANCH  12  21
ATOM     21  C   UNL A   1      31.477  24.944  23.483  1.00  0.00    -0.004 A 
ATOM     22  C   UNL A   1      31.520  25.736  22.295  1.00  0.00     0.009 A 
ATOM     23  C   UNL A   1      30.654  25.420  24.514  1.00  0.00     0.047 A 
ATOM     24  C   UNL A   1      30.875  26.968  22.185  1.00  0.00     0.021 A 
ATOM     25  C   UNL A   1      30.032  26.680  24.416  1.00  0.00     0.041 A 
ATOM     26  Cl  UNL A   1      30.303  24.538  25.949  1.00  0.00    -0.084 Cl
ATOM     27  C   UNL A   1      30.167  27.455  23.269  1.00  0.00     0.042 A 
ATOM     28  Cl  UNL A   1      29.474  29.027  23.197  1.00  0.00    -0.084 Cl
ENDBRANCH  12  21
ENDBRANCH   6   8
ENDBRANCH   5   6
ENDBRANCH   4   5
ENDBRANCH   2   4
ENDBRANCH   1   2
BRANCH   1  29
ATOM     29  C   UNL A   1      37.717  20.384  25.153  1.00  0.00     0.274 C 
BRANCH  29  30
ATOM     30  C   UNL A   1      39.030  19.609  24.973  1.00  0.00     0.275 C 
BRANCH  30  31
ATOM     31  O   UNL A   1      39.720  19.367  26.216  1.00  0.00    -0.458 OA
BRANCH  31  32
ATOM     32  C   UNL A   1      41.062  19.445  26.114  1.00  0.00     0.338 C 
ATOM     33  O   UNL A   1      41.800  18.590  25.667  1.00  0.00    -0.246 OA
BRANCH  32  34
ATOM     34  C   UNL A   1      41.614  20.729  26.517  1.00  0.00     0.060 A 
ATOM     35  C   UNL A   1      42.039  21.589  25.500  1.00  0.00     0.016 A 
ATOM     36  C   UNL A   1      41.852  21.014  27.862  1.00  0.00     0.016 A 
ATOM     37  C   UNL A   1      42.653  22.785  25.831  1.00  0.00     0.010 A 
ATOM     38  C   UNL A   1      42.459  22.223  28.194  1.00  0.00     0.010 A 
ATOM     39  C   UNL A   1      42.832  23.121  27.180  1.00  0.00    -0.014 A 
BRANCH  39  40
ATOM     40  C   UNL A   1      43.234  24.499  27.517  1.00  0.00     0.031 A 
ATOM     41  C   UNL A   1      42.241  25.523  27.957  1.00  0.00     0.074 A 
ATOM     42  C   UNL A   1      44.545  24.788  27.418  1.00  0.00     0.049 A 
ATOM     43  N   UNL A   1      42.451  26.764  28.309  1.00  0.00    -0.248 NA
ATOM     44  C   UNL A   1      40.833  25.106  28.004  1.00  0.00     0.031 C 
ATOM     45  C   UNL A   1      45.581  23.841  26.989  1.00  0.00     0.029 A 
ATOM     46  N   UNL A   1      45.232  25.941  27.677  1.00  0.00    -0.354 N 
ATOM     47  C   UNL A   1      41.204  27.284  28.618  1.00  0.00     0.074 A 
ATOM     48  C   UNL A   1      40.238  26.226  28.394  1.00  0.00     0.031 C 
ATOM     49  C   UNL A   1      46.775  24.447  27.038  1.00  0.00     0.029 A 
ATOM     50  C   UNL A   1      46.584  25.825  27.467  1.00  0.00     0.049 A 
ATOM     51  H   UNL A   1      44.800  26.770  27.984  1.00  0.00     0.167 HD
ATOM     52  C   UNL A   1      40.904  28.532  29.050  1.00  0.00     0.037 A 
ATOM     53  C   UNL A   1      47.560  26.738  27.604  1.00  0.00     0.037 A 
ATOM     54  C   UNL A   1      41.883  29.571  29.256  1.00  0.00     0.049 A 
ATOM     55  C   UNL A   1      47.195  28.111  28.077  1.00  0.00     0.074 A 
ATOM     56  C   UNL A   1      41.690  30.865  29.707  1.00  0.00     0.029 A 
ATOM     57  N   UNL A   1      43.244  29.431  29.017  1.00  0.00    -0.354 N 
ATOM     58  N   UNL A   1      46.014  28.585  28.394  1.00  0.00    -0.248 NA
ATOM     59  C   UNL A   1      48.293  29.074  28.211  1.00  0.00     0.031 C 
ATOM     60  C   UNL A   1      42.930  31.519  29.705  1.00  0.00     0.029 A 
ATOM     61  C   UNL A   1      43.900  30.621  29.290  1.00  0.00     0.049 A 
ATOM     62  H   UNL A   1      43.679  28.607  28.700  1.00  0.00     0.167 HD
ATOM     63  C   UNL A   1      46.224  29.903  28.769  1.00  0.00     0.074 A 
ATOM     64  C   UNL A   1      47.651  30.142  28.666  1.00  0.00     0.031 C 
ATOM     65  C   UNL A   1      45.319  30.835  29.155  1.00  0.00     0.037 A 
BRANCH  52  66
ATOM     66  C   UNL A   1      39.460  28.846  29.305  1.00  0.00     0.057 A 
ATOM     67  C   UNL A   1      38.876  28.661  30.565  1.00  0.00     0.134 A 
ATOM     68  C   UNL A   1      38.652  29.370  28.289  1.00  0.00     0.134 A 
ATOM     69  F   UNL A   1      39.592  28.151  31.579  1.00  0.00    -0.206 F 
ATOM     70  C   UNL A   1      37.535  28.969  30.800  1.00  0.00     0.040 A 
ATOM     71  C   UNL A   1      37.315  29.700  28.516  1.00  0.00     0.040 A 
ATOM     72  F   UNL A   1      39.149  29.573  27.060  1.00  0.00    -0.206 F 
ATOM     73  C   UNL A   1      36.751  29.496  29.774  1.00  0.00     0.006 A 
ENDBRANCH  52  66
BRANCH  53  74
ATOM     74  C   UNL A   1      48.960  26.361  27.302  1.00  0.00     0.057 A 
ATOM     75  C   UNL A   1      49.475  26.479  26.007  1.00  0.00     0.134 A 
ATOM     76  C   UNL A   1      49.828  25.919  28.308  1.00  0.00     0.134 A 
ATOM     77  F   UNL A   1      48.688  26.888  25.002  1.00  0.00    -0.206 F 
ATOM     78  C   UNL A   1      50.803  26.164  25.720  1.00  0.00     0.040 A 
ATOM     79  C   UNL A   1      51.164  25.621  28.039  1.00  0.00     0.040 A 
ATOM     80  F   UNL A   1      49.395  25.799  29.572  1.00  0.00    -0.206 F 
ATOM     81  C   UNL A   1      51.654  25.740  26.741  1.00  0.00     0.006 A 
ENDBRANCH  53  74
BRANCH  65  82
ATOM     82  C   UNL A   1      45.864  32.191  29.482  1.00  0.00     0.057 A 
ATOM     83  C   UNL A   1      46.295  32.511  30.776  1.00  0.00     0.134 A 
ATOM     84  C   UNL A   1      45.950  33.185  28.502  1.00  0.00     0.134 A 
ATOM     85  F   UNL A   1      46.219  31.604  31.762  1.00  0.00    -0.206 F 
ATOM     86  C   UNL A   1      46.768  33.785  31.090  1.00  0.00     0.040 A 
ATOM     87  C   UNL A   1      46.442  34.456  28.798  1.00  0.00     0.040 A 
ATOM     88  F   UNL A   1      45.554  32.939  27.243  1.00  0.00    -0.206 F 
ATOM     89  C   UNL A   1      46.845  34.761  30.098  1.00  0.00     0.006 A 
ENDBRANCH  65  82
ENDBRANCH  39  40
ENDBRANCH  32  34
ENDBRANCH  31  32
ENDBRANCH  30  31
ENDBRANCH  29  30
ENDBRANCH   1  29
TORSDOF 17
ENDMDL
MODEL 3
REMARK VINA RESULT:     -11.9      2.936      8.545
REMARK SMILES COc1ccc(C2=NN(C(=O)CCC(=O)OCCOC(=O)c3ccc(-c4c5nc(c(-c6c(F)cccc6F)c6ccc([nH]6)c(-c6c(F)cccc6F)c6nc(c(-c7c(F)cccc7F)c7ccc4[nH]7)C=C6)C=C5)cc3)[C@H](c3ccc(Cl)cc3Cl)C2)cc1
REMARK SMILES IDX 16 1 14 2 15 3 13 4 12 5 10 6 11 7 9 8 7 9 8 10 85 11 76 12
REMARK SMILES IDX 6 13 3 14 4 15 87 16 5 17 86 18 2 19 1 20 77 21 78 22 83 23
REMARK SMILES IDX 79 24 82 25 84 26 80 27 81 28 17 29 18 30 19 31 20 32 21 33
REMARK SMILES IDX 22 34 23 35 75 36 24 37 74 38 25 39 26 40 27 41 68 42 28 43
REMARK SMILES IDX 73 44 67 45 69 46 29 47 72 48 66 49 65 50 30 52 56 53 39 54
REMARK SMILES IDX 55 55 40 56 43 57 54 58 70 59 41 60 42 61 53 63 71 64 44 65
REMARK SMILES IDX 31 66 32 67 37 68 33 69 34 70 36 71 38 72 35 73 57 74 58 75
REMARK SMILES IDX 63 76 59 77 60 78 62 79 64 80 61 81 45 82 46 83 51 84 47 85
REMARK SMILES IDX 48 86 50 87 52 88 49 89
REMARK H PARENT 69 51 43 62
REMARK Flexibility Score: inf
ROOT
ATOM      1  O   UNL A   1      33.128  31.610  27.700  1.00  0.00    -0.462 OA
ENDROOT
BRANCH   1   2
ATOM      2  C   UNL A   1      32.064  31.727  26.861  1.00  0.00     0.306 C 
ATOM      3  O   UNL A   1      31.358  32.722  26.767  1.00  0.00    -0.252 OA
BRANCH   2   4
ATOM      4  C   UNL A   1      31.817  30.461  26.079  1.00  0.00     0.132 C 
BRANCH   4   5
ATOM      5  C   UNL A   1      31.849  29.193  26.929  1.00  0.00     0.114 C 
BRANCH   5   6
ATOM      6  C   UNL A   1      33.060  28.352  26.574  1.00  0.00     0.243 C 
ATOM      7  O   UNL A   1      34.149  28.672  27.067  1.00  0.00    -0.273 OA
BRANCH   6   8
ATOM      8  N   UNL A   1      32.918  27.324  25.642  1.00  0.00    -0.225 N 
ATOM      9  C   UNL A   1      33.828  25.511  24.899  1.00  0.00     0.071 C 
ATOM     10  N   UNL A   1      33.589  26.151  25.993  1.00  0.00    -0.174 NA
ATOM     11  C   UNL A   1      33.201  26.050  23.667  1.00  0.00     0.091 C 
ATOM     12  C   UNL A   1      32.715  27.404  24.180  1.00  0.00     0.149 C 
BRANCH   9  13
ATOM     13  C   UNL A   1      34.710  24.359  24.782  1.00  0.00    -0.002 A 
ATOM     14  C   UNL A   1      36.633  22.370  24.561  1.00  0.00     0.118 A 
ATOM     15  C   UNL A   1      35.925  22.797  23.432  1.00  0.00     0.047 A 
ATOM     16  C   UNL A   1      36.381  22.954  25.806  1.00  0.00     0.047 A 
ATOM     17  C   UNL A   1      34.953  23.791  23.536  1.00  0.00     0.014 A 
ATOM     18  C   UNL A   1      35.412  23.951  25.920  1.00  0.00     0.014 A 
BRANCH  14  19
ATOM     19  O   UNL A   1      37.582  21.413  24.329  1.00  0.00    -0.497 OA
ATOM     20  C   UNL A   1      38.360  21.046  25.463  1.00  0.00     0.278 C 
ENDBRANCH  14  19
ENDBRANCH   9  13
BRANCH  12  21
ATOM     21  C   UNL A   1      31.392  27.796  23.510  1.00  0.00    -0.004 A 
ATOM     22  C   UNL A   1      31.474  28.910  22.621  1.00  0.00     0.009 A 
ATOM     23  C   UNL A   1      30.101  27.343  23.817  1.00  0.00     0.047 A 
ATOM     24  C   UNL A   1      30.348  29.591  22.157  1.00  0.00     0.021 A 
ATOM     25  C   UNL A   1      28.966  28.052  23.377  1.00  0.00     0.041 A 
ATOM     26  Cl  UNL A   1      29.771  25.908  24.707  1.00  0.00    -0.084 Cl
ATOM     27  C   UNL A   1      29.095  29.181  22.576  1.00  0.00     0.042 A 
ATOM     28  Cl  UNL A   1      27.705  30.086  22.118  1.00  0.00    -0.084 Cl
ENDBRANCH  12  21
ENDBRANCH   6   8
ENDBRANCH   5   6
ENDBRANCH   4   5
ENDBRANCH   2   4
ENDBRANCH   1   2
BRANCH   1  29
ATOM     29  C   UNL A   1      33.821  32.834  28.025  1.00  0.00     0.274 C 
BRANCH  29  30
ATOM     30  C   UNL A   1      35.329  32.643  28.239  1.00  0.00     0.275 C 
BRANCH  30  31
ATOM     31  O   UNL A   1      35.717  31.258  28.334  1.00  0.00    -0.458 OA
BRANCH  31  32
ATOM     32  C   UNL A   1      36.378  30.957  29.470  1.00  0.00     0.338 C 
ATOM     33  O   UNL A   1      35.962  31.097  30.603  1.00  0.00    -0.246 OA
BRANCH  32  34
ATOM     34  C   UNL A   1      37.675  30.334  29.255  1.00  0.00     0.060 A 
ATOM     35  C   UNL A   1      38.028  30.033  27.935  1.00  0.00     0.016 A 
ATOM     36  C   UNL A   1      38.455  29.916  30.333  1.00  0.00     0.016 A 
ATOM     37  C   UNL A   1      39.210  29.359  27.683  1.00  0.00     0.010 A 
ATOM     38  C   UNL A   1      39.651  29.250  30.077  1.00  0.00     0.010 A 
ATOM     39  C   UNL A   1      40.043  28.998  28.751  1.00  0.00    -0.014 A 
BRANCH  39  40
ATOM     40  C   UNL A   1      41.410  28.532  28.455  1.00  0.00     0.031 A 
ATOM     41  C   UNL A   1      41.697  27.110  28.104  1.00  0.00     0.074 A 
ATOM     42  C   UNL A   1      42.388  29.454  28.506  1.00  0.00     0.049 A 
ATOM     43  N   UNL A   1      42.842  26.560  27.796  1.00  0.00    -0.248 NA
ATOM     44  C   UNL A   1      40.557  26.182  28.105  1.00  0.00     0.031 C 
ATOM     45  C   UNL A   1      42.190  30.868  28.846  1.00  0.00     0.029 A 
ATOM     46  N   UNL A   1      43.730  29.354  28.264  1.00  0.00    -0.354 N 
ATOM     47  C   UNL A   1      42.568  25.221  27.567  1.00  0.00     0.074 A 
ATOM     48  C   UNL A   1      41.148  25.036  27.791  1.00  0.00     0.031 C 
ATOM     49  C   UNL A   1      43.365  31.506  28.768  1.00  0.00     0.029 A 
ATOM     50  C   UNL A   1      44.397  30.545  28.406  1.00  0.00     0.049 A 
ATOM     51  H   UNL A   1      44.173  28.512  28.013  1.00  0.00     0.167 HD
ATOM     52  C   UNL A   1      43.431  24.244  27.202  1.00  0.00     0.037 A 
ATOM     53  C   UNL A   1      45.703  30.826  28.263  1.00  0.00     0.037 A 
ATOM     54  C   UNL A   1      44.844  24.452  26.995  1.00  0.00     0.049 A 
ATOM     55  C   UNL A   1      46.633  29.722  27.866  1.00  0.00     0.074 A 
ATOM     56  C   UNL A   1      45.807  23.535  26.609  1.00  0.00     0.029 A 
ATOM     57  N   UNL A   1      45.496  25.666  27.166  1.00  0.00    -0.354 N 
ATOM     58  N   UNL A   1      46.359  28.463  27.624  1.00  0.00    -0.248 NA
ATOM     59  C   UNL A   1      48.050  30.075  27.722  1.00  0.00     0.031 C 
ATOM     60  C   UNL A   1      47.046  24.187  26.582  1.00  0.00     0.029 A 
ATOM     61  C   UNL A   1      46.851  25.518  26.913  1.00  0.00     0.049 A 
ATOM     62  H   UNL A   1      45.060  26.509  27.427  1.00  0.00     0.167 HD
ATOM     63  C   UNL A   1      47.568  27.869  27.296  1.00  0.00     0.074 A 
ATOM     64  C   UNL A   1      48.572  28.916  27.343  1.00  0.00     0.031 C 
ATOM     65  C   UNL A   1      47.828  26.574  26.992  1.00  0.00     0.037 A 
BRANCH  52  66
ATOM     66  C   UNL A   1      42.877  22.862  27.027  1.00  0.00     0.057 A 
ATOM     67  C   UNL A   1      42.536  22.059  28.124  1.00  0.00     0.134 A 
ATOM     68  C   UNL A   1      42.652  22.337  25.749  1.00  0.00     0.134 A 
ATOM     69  F   UNL A   1      42.739  22.497  29.376  1.00  0.00    -0.206 F 
ATOM     70  C   UNL A   1      42.008  20.778  27.954  1.00  0.00     0.040 A 
ATOM     71  C   UNL A   1      42.107  21.066  25.566  1.00  0.00     0.040 A 
ATOM     72  F   UNL A   1      42.955  23.054  24.656  1.00  0.00    -0.206 F 
ATOM     73  C   UNL A   1      41.786  20.280  26.671  1.00  0.00     0.006 A 
ENDBRANCH  52  66
BRANCH  53  74
ATOM     74  C   UNL A   1      46.182  32.210  28.484  1.00  0.00     0.057 A 
ATOM     75  C   UNL A   1      46.676  32.612  29.729  1.00  0.00     0.134 A 
ATOM     76  C   UNL A   1      46.198  33.149  27.446  1.00  0.00     0.134 A 
ATOM     77  F   UNL A   1      46.676  31.758  30.763  1.00  0.00    -0.206 F 
ATOM     78  C   UNL A   1      47.165  33.901  29.937  1.00  0.00     0.040 A 
ATOM     79  C   UNL A   1      46.704  34.436  27.634  1.00  0.00     0.040 A 
ATOM     80  F   UNL A   1      45.749  32.818  26.226  1.00  0.00    -0.206 F 
ATOM     81  C   UNL A   1      47.186  34.815  28.884  1.00  0.00     0.006 A 
ENDBRANCH  53  74
BRANCH  65  82
ATOM     82  C   UNL A   1      49.258  26.238  26.697  1.00  0.00     0.057 A 
ATOM     83  C   UNL A   1      49.801  26.418  25.418  1.00  0.00     0.134 A 
ATOM     84  C   UNL A   1      50.094  25.723  27.694  1.00  0.00     0.134 A 
ATOM     85  F   UNL A   1      49.042  26.890  24.418  1.00  0.00    -0.206 F 
ATOM     86  C   UNL A   1      51.122  26.070  25.134  1.00  0.00     0.040 A 
ATOM     87  C   UNL A   1      51.422  25.392  27.428  1.00  0.00     0.040 A 
ATOM     88  F   UNL A   1      49.632  25.530  28.939  1.00  0.00    -0.206 F 
ATOM     89  C   UNL A   1      51.937  25.558  26.143  1.00  0.00     0.006 A 
ENDBRANCH  65  82
ENDBRANCH  39  40
ENDBRANCH  32  34
ENDBRANCH  31  32
ENDBRANCH  30  31
ENDBRANCH  29  30
ENDBRANCH   1  29
TORSDOF 17
ENDMDL
