MODEL 1
REMARK VINA RESULT:     -11.3      0.000      0.000
REMARK SMILES Cc1cccc(C(=O)OCCOC(=O)c2ccc(-c3c4nc(c(-c5c(F)cccc5F)c5ccc([nH]5)c(-c5c(F)cccc5F)c5nc(c(-c6c(F)cccc6F)c6ccc3[nH]6)C=C5)C=C4)cc2)c1OC[C@@H]1C[C@H]2CC[C@@H]1C2
REMARK SMILES IDX 10 1 9 2 7 3 8 4 6 5 1 6 2 7 3 8 69 9 4 10 5 11 70 12 71 13
REMARK SMILES IDX 72 14 73 15 77 16 74 17 76 18 78 19 75 20 11 21 12 22 13 23
REMARK SMILES IDX 14 24 15 25 16 26 68 27 17 28 67 29 18 30 19 31 20 32 61 33
REMARK SMILES IDX 21 34 66 35 60 36 62 37 22 38 65 39 59 40 58 41 23 43 49 44
REMARK SMILES IDX 32 45 48 46 33 47 36 48 47 49 63 50 34 51 35 52 46 54 64 55
REMARK SMILES IDX 37 56 24 57 25 58 30 59 26 60 27 61 29 62 31 63 28 64 50 65
REMARK SMILES IDX 51 66 56 67 52 68 53 69 55 70 57 71 54 72 38 73 39 74 44 75
REMARK SMILES IDX 40 76 41 77 43 78 45 79 42 80
REMARK H PARENT 62 42 36 53
REMARK Flexibility Score: inf
ROOT
ATOM      1  C   UNL A   1      43.235  18.960  25.630  1.00  0.00     0.275 C 
ENDROOT
BRANCH   1   2
ATOM      2  O   UNL A   1      42.478  20.151  25.377  1.00  0.00    -0.458 OA
BRANCH   2   3
ATOM      3  C   UNL A   1      41.267  20.126  26.008  1.00  0.00     0.342 C 
ATOM      4  O   UNL A   1      40.498  19.178  26.033  1.00  0.00    -0.246 OA
BRANCH   3   5
ATOM      5  C   UNL A   1      40.959  21.399  26.683  1.00  0.00     0.102 A 
ATOM      6  C   UNL A   1      38.545  24.332  26.530  1.00  0.00     0.048 C 
ATOM      7  C   UNL A   1      39.584  23.359  27.018  1.00  0.00    -0.008 A 
ATOM      8  C   UNL A   1      40.427  23.777  28.059  1.00  0.00     0.007 A 
ATOM      9  C   UNL A   1      39.790  22.110  26.396  1.00  0.00     0.136 A 
ATOM     10  C   UNL A   1      41.561  23.044  28.375  1.00  0.00     0.001 A 
ATOM     11  C   UNL A   1      41.848  21.892  27.649  1.00  0.00     0.019 A 
BRANCH   9  12
ATOM     12  O   UNL A   1      38.944  21.786  25.376  1.00  0.00    -0.492 OA
BRANCH  12  13
ATOM     13  C   UNL A   1      37.715  21.102  25.652  1.00  0.00     0.233 C 
BRANCH  13  14
ATOM     14  C   UNL A   1      36.469  21.325  24.772  1.00  0.00     0.030 C 
ATOM     15  C   UNL A   1      36.675  22.560  23.847  1.00  0.00     0.011 C 
ATOM     16  C   UNL A   1      35.158  21.715  25.494  1.00  0.00    -0.004 C 
ATOM     17  C   UNL A   1      35.419  23.416  24.096  1.00  0.00    -0.010 C 
ATOM     18  C   UNL A   1      33.988  21.533  24.510  1.00  0.00     0.004 C 
ATOM     19  C   UNL A   1      35.237  23.236  25.597  1.00  0.00     0.007 C 
ATOM     20  C   UNL A   1      34.184  22.696  23.530  1.00  0.00     0.004 C 
ENDBRANCH  13  14
ENDBRANCH  12  13
ENDBRANCH   9  12
ENDBRANCH   3   5
ENDBRANCH   2   3
ENDBRANCH   1   2
BRANCH   1  21
ATOM     21  C   UNL A   1      44.737  19.068  25.321  1.00  0.00     0.275 C 
BRANCH  21  22
ATOM     22  O   UNL A   1      45.537  20.191  25.787  1.00  0.00    -0.458 OA
BRANCH  22  23
ATOM     23  C   UNL A   1      46.029  21.238  25.094  1.00  0.00     0.338 C 
ATOM     24  O   UNL A   1      46.746  21.099  24.108  1.00  0.00    -0.246 OA
BRANCH  23  25
ATOM     25  C   UNL A   1      45.684  22.580  25.569  1.00  0.00     0.060 A 
ATOM     26  C   UNL A   1      45.559  23.613  24.627  1.00  0.00     0.016 A 
ATOM     27  C   UNL A   1      45.405  22.788  26.913  1.00  0.00     0.016 A 
ATOM     28  C   UNL A   1      44.989  24.823  24.991  1.00  0.00     0.010 A 
ATOM     29  C   UNL A   1      44.773  23.952  27.266  1.00  0.00     0.010 A 
ATOM     30  C   UNL A   1      44.598  24.972  26.312  1.00  0.00    -0.014 A 
BRANCH  30  31
ATOM     31  C   UNL A   1      44.321  26.257  26.917  1.00  0.00     0.031 A 
ATOM     32  C   UNL A   1      42.993  26.874  26.875  1.00  0.00     0.074 A 
ATOM     33  C   UNL A   1      45.338  26.608  27.734  1.00  0.00     0.049 A 
ATOM     34  N   UNL A   1      42.705  27.957  27.498  1.00  0.00    -0.248 NA
ATOM     35  C   UNL A   1      41.868  26.355  26.106  1.00  0.00     0.031 C 
ATOM     36  C   UNL A   1      45.392  27.484  28.886  1.00  0.00     0.029 A 
ATOM     37  N   UNL A   1      46.679  26.242  27.522  1.00  0.00    -0.354 N 
ATOM     38  C   UNL A   1      41.338  28.127  27.464  1.00  0.00     0.074 A 
ATOM     39  C   UNL A   1      40.877  27.165  26.503  1.00  0.00     0.031 C 
ATOM     40  C   UNL A   1      46.677  27.840  29.084  1.00  0.00     0.029 A 
ATOM     41  C   UNL A   1      47.437  27.337  27.942  1.00  0.00     0.049 A 
ATOM     42  H   UNL A   1      47.013  25.392  27.156  1.00  0.00     0.167 HD
ATOM     43  C   UNL A   1      40.793  28.989  28.367  1.00  0.00     0.037 A 
ATOM     44  C   UNL A   1      47.996  28.119  26.969  1.00  0.00     0.037 A 
ATOM     45  C   UNL A   1      41.870  29.798  28.938  1.00  0.00     0.049 A 
ATOM     46  C   UNL A   1      47.371  29.495  26.989  1.00  0.00     0.074 A 
ATOM     47  C   UNL A   1      42.626  29.667  30.088  1.00  0.00     0.029 A 
ATOM     48  N   UNL A   1      42.577  30.642  28.086  1.00  0.00    -0.354 N 
ATOM     49  N   UNL A   1      46.108  29.742  27.234  1.00  0.00    -0.248 NA
ATOM     50  C   UNL A   1      48.183  30.701  26.885  1.00  0.00     0.031 C 
ATOM     51  C   UNL A   1      43.871  30.319  29.851  1.00  0.00     0.029 A 
ATOM     52  C   UNL A   1      43.848  30.870  28.577  1.00  0.00     0.049 A 
ATOM     53  H   UNL A   1      42.222  31.024  27.250  1.00  0.00     0.167 HD
ATOM     54  C   UNL A   1      45.953  31.092  27.421  1.00  0.00     0.074 A 
ATOM     55  C   UNL A   1      47.273  31.646  27.166  1.00  0.00     0.031 C 
ATOM     56  C   UNL A   1      44.793  31.690  27.832  1.00  0.00     0.037 A 
BRANCH  43  57
ATOM     57  C   UNL A   1      39.379  28.982  28.913  1.00  0.00     0.057 A 
ATOM     58  C   UNL A   1      38.313  29.414  28.090  1.00  0.00     0.134 A 
ATOM     59  C   UNL A   1      38.995  28.705  30.238  1.00  0.00     0.134 A 
ATOM     60  F   UNL A   1      38.502  29.704  26.794  1.00  0.00    -0.206 F 
ATOM     61  C   UNL A   1      37.002  29.598  28.556  1.00  0.00     0.040 A 
ATOM     62  C   UNL A   1      37.681  28.866  30.713  1.00  0.00     0.040 A 
ATOM     63  F   UNL A   1      39.862  28.288  31.163  1.00  0.00    -0.206 F 
ATOM     64  C   UNL A   1      36.680  29.327  29.875  1.00  0.00     0.006 A 
ENDBRANCH  43  57
BRANCH  44  65
ATOM     65  C   UNL A   1      48.410  27.345  25.749  1.00  0.00     0.057 A 
ATOM     66  C   UNL A   1      47.584  27.408  24.603  1.00  0.00     0.134 A 
ATOM     67  C   UNL A   1      49.702  26.847  25.549  1.00  0.00     0.134 A 
ATOM     68  F   UNL A   1      46.324  27.861  24.707  1.00  0.00    -0.206 F 
ATOM     69  C   UNL A   1      48.057  27.124  23.316  1.00  0.00     0.040 A 
ATOM     70  C   UNL A   1      50.176  26.527  24.264  1.00  0.00     0.040 A 
ATOM     71  F   UNL A   1      50.563  26.745  26.570  1.00  0.00    -0.206 F 
ATOM     72  C   UNL A   1      49.368  26.704  23.141  1.00  0.00     0.006 A 
ENDBRANCH  44  65
BRANCH  56  73
ATOM     73  C   UNL A   1      44.491  33.159  27.658  1.00  0.00     0.057 A 
ATOM     74  C   UNL A   1      44.782  34.132  28.626  1.00  0.00     0.134 A 
ATOM     75  C   UNL A   1      44.048  33.669  26.416  1.00  0.00     0.134 A 
ATOM     76  F   UNL A   1      45.351  33.814  29.797  1.00  0.00    -0.206 F 
ATOM     77  C   UNL A   1      44.558  35.495  28.415  1.00  0.00     0.040 A 
ATOM     78  C   UNL A   1      43.895  35.035  26.169  1.00  0.00     0.040 A 
ATOM     79  F   UNL A   1      43.780  32.872  25.372  1.00  0.00    -0.206 F 
ATOM     80  C   UNL A   1      44.124  35.953  27.180  1.00  0.00     0.006 A 
ENDBRANCH  56  73
ENDBRANCH  30  31
ENDBRANCH  23  25
ENDBRANCH  22  23
ENDBRANCH  21  22
ENDBRANCH   1  21
TORSDOF 14
ENDMDL
MODEL 2
REMARK VINA RESULT:     -11.1      4.950     10.069
REMARK SMILES Cc1cccc(C(=O)OCCOC(=O)c2ccc(-c3c4nc(c(-c5c(F)cccc5F)c5ccc([nH]5)c(-c5c(F)cccc5F)c5nc(c(-c6c(F)cccc6F)c6ccc3[nH]6)C=C5)C=C4)cc2)c1OC[C@@H]1C[C@H]2CC[C@@H]1C2
REMARK SMILES IDX 10 1 9 2 7 3 8 4 6 5 1 6 2 7 3 8 69 9 4 10 5 11 70 12 71 13
REMARK SMILES IDX 72 14 73 15 77 16 74 17 76 18 78 19 75 20 11 21 12 22 13 23
REMARK SMILES IDX 14 24 15 25 16 26 68 27 17 28 67 29 18 30 19 31 20 32 61 33
REMARK SMILES IDX 21 34 66 35 60 36 62 37 22 38 65 39 59 40 58 41 23 43 49 44
REMARK SMILES IDX 32 45 48 46 33 47 36 48 47 49 63 50 34 51 35 52 46 54 64 55
REMARK SMILES IDX 37 56 24 57 25 58 30 59 26 60 27 61 29 62 31 63 28 64 50 65
REMARK SMILES IDX 51 66 56 67 52 68 53 69 55 70 57 71 54 72 38 73 39 74 44 75
REMARK SMILES IDX 40 76 41 77 43 78 45 79 42 80
REMARK H PARENT 62 42 36 53
REMARK Flexibility Score: inf
ROOT
ATOM      1  C   UNL A   1      32.130  28.928  27.231  1.00  0.00     0.275 C 
ENDROOT
BRANCH   1   2
ATOM      2  O   UNL A   1      31.446  28.401  26.087  1.00  0.00    -0.458 OA
BRANCH   2   3
ATOM      3  C   UNL A   1      31.333  27.042  26.145  1.00  0.00     0.342 C 
ATOM      4  O   UNL A   1      30.577  26.422  26.877  1.00  0.00    -0.246 OA
BRANCH   3   5
ATOM      5  C   UNL A   1      32.245  26.362  25.208  1.00  0.00     0.102 A 
ATOM      6  C   UNL A   1      32.378  24.986  21.667  1.00  0.00     0.048 C 
ATOM      7  C   UNL A   1      32.795  25.482  23.025  1.00  0.00    -0.008 A 
ATOM      8  C   UNL A   1      34.065  25.109  23.492  1.00  0.00     0.007 A 
ATOM      9  C   UNL A   1      31.918  26.207  23.858  1.00  0.00     0.136 A 
ATOM     10  C   UNL A   1      34.405  25.307  24.821  1.00  0.00     0.001 A 
ATOM     11  C   UNL A   1      33.474  25.879  25.682  1.00  0.00     0.019 A 
BRANCH   9  12
ATOM     12  O   UNL A   1      30.693  26.511  23.341  1.00  0.00    -0.492 OA
BRANCH  12  13
ATOM     13  C   UNL A   1      30.484  27.766  22.679  1.00  0.00     0.233 C 
BRANCH  13  14
ATOM     14  C   UNL A   1      29.593  28.855  23.310  1.00  0.00     0.030 C 
ATOM     15  C   UNL A   1      28.113  28.666  22.867  1.00  0.00     0.011 C 
ATOM     16  C   UNL A   1      29.847  30.314  22.867  1.00  0.00    -0.004 C 
ATOM     17  C   UNL A   1      27.710  30.054  22.336  1.00  0.00    -0.010 C 
ATOM     18  C   UNL A   1      29.131  31.254  23.854  1.00  0.00     0.004 C 
ATOM     19  C   UNL A   1      28.986  30.472  21.616  1.00  0.00     0.007 C 
ATOM     20  C   UNL A   1      27.652  31.055  23.501  1.00  0.00     0.004 C 
ENDBRANCH  13  14
ENDBRANCH  12  13
ENDBRANCH   9  12
ENDBRANCH   3   5
ENDBRANCH   2   3
ENDBRANCH   1   2
BRANCH   1  21
ATOM     21  C   UNL A   1      32.939  30.209  26.971  1.00  0.00     0.275 C 
BRANCH  21  22
ATOM     22  O   UNL A   1      34.390  30.239  27.094  1.00  0.00    -0.458 OA
BRANCH  22  23
ATOM     23  C   UNL A   1      35.158  30.837  28.026  1.00  0.00     0.338 C 
ATOM     24  O   UNL A   1      34.830  31.882  28.580  1.00  0.00    -0.246 OA
BRANCH  23  25
ATOM     25  C   UNL A   1      36.432  30.196  28.360  1.00  0.00     0.060 A 
ATOM     26  C   UNL A   1      36.537  29.511  29.580  1.00  0.00     0.016 A 
ATOM     27  C   UNL A   1      37.472  30.202  27.441  1.00  0.00     0.016 A 
ATOM     28  C   UNL A   1      37.620  28.681  29.822  1.00  0.00     0.010 A 
ATOM     29  C   UNL A   1      38.510  29.328  27.637  1.00  0.00     0.010 A 
ATOM     30  C   UNL A   1      38.593  28.598  28.838  1.00  0.00    -0.014 A 
BRANCH  30  31
ATOM     31  C   UNL A   1      39.919  28.070  29.076  1.00  0.00     0.031 A 
ATOM     32  C   UNL A   1      40.316  26.726  28.648  1.00  0.00     0.074 A 
ATOM     33  C   UNL A   1      40.751  29.068  29.443  1.00  0.00     0.049 A 
ATOM     34  N   UNL A   1      41.515  26.284  28.753  1.00  0.00    -0.248 NA
ATOM     35  C   UNL A   1      39.401  25.735  28.092  1.00  0.00     0.031 C 
ATOM     36  C   UNL A   1      42.189  29.211  29.345  1.00  0.00     0.029 A 
ATOM     37  N   UNL A   1      40.346  30.206  30.161  1.00  0.00    -0.354 N 
ATOM     38  C   UNL A   1      41.608  25.108  28.042  1.00  0.00     0.074 A 
ATOM     39  C   UNL A   1      40.249  24.758  27.739  1.00  0.00     0.031 C 
ATOM     40  C   UNL A   1      42.578  30.161  30.219  1.00  0.00     0.029 A 
ATOM     41  C   UNL A   1      41.406  30.507  31.018  1.00  0.00     0.049 A 
ATOM     42  H   UNL A   1      39.493  30.690  30.078  1.00  0.00     0.167 HD
ATOM     43  C   UNL A   1      42.857  24.676  27.709  1.00  0.00     0.037 A 
ATOM     44  C   UNL A   1      41.245  30.202  32.342  1.00  0.00     0.037 A 
ATOM     45  C   UNL A   1      43.829  25.419  28.512  1.00  0.00     0.049 A 
ATOM     46  C   UNL A   1      42.212  29.111  32.742  1.00  0.00     0.074 A 
ATOM     47  C   UNL A   1      44.568  26.560  28.261  1.00  0.00     0.029 A 
ATOM     48  N   UNL A   1      43.797  25.255  29.894  1.00  0.00    -0.354 N 
ATOM     49  N   UNL A   1      42.559  28.101  31.985  1.00  0.00    -0.248 NA
ATOM     50  C   UNL A   1      42.971  29.187  33.984  1.00  0.00     0.031 C 
ATOM     51  C   UNL A   1      44.848  27.165  29.521  1.00  0.00     0.029 A 
ATOM     52  C   UNL A   1      44.310  26.373  30.524  1.00  0.00     0.049 A 
ATOM     53  H   UNL A   1      43.458  24.456  30.358  1.00  0.00     0.167 HD
ATOM     54  C   UNL A   1      43.629  27.466  32.564  1.00  0.00     0.074 A 
ATOM     55  C   UNL A   1      43.828  28.167  33.821  1.00  0.00     0.031 C 
ATOM     56  C   UNL A   1      44.339  26.454  31.978  1.00  0.00     0.037 A 
BRANCH  43  57
ATOM     57  C   UNL A   1      43.246  23.782  26.549  1.00  0.00     0.057 A 
ATOM     58  C   UNL A   1      43.182  22.378  26.699  1.00  0.00     0.134 A 
ATOM     59  C   UNL A   1      43.807  24.197  25.326  1.00  0.00     0.134 A 
ATOM     60  F   UNL A   1      42.658  21.814  27.798  1.00  0.00    -0.206 F 
ATOM     61  C   UNL A   1      43.674  21.475  25.744  1.00  0.00     0.040 A 
ATOM     62  C   UNL A   1      44.286  23.302  24.353  1.00  0.00     0.040 A 
ATOM     63  F   UNL A   1      43.954  25.483  25.004  1.00  0.00    -0.206 F 
ATOM     64  C   UNL A   1      44.235  21.934  24.564  1.00  0.00     0.006 A 
ENDBRANCH  43  57
BRANCH  44  65
ATOM     65  C   UNL A   1      39.828  30.358  32.820  1.00  0.00     0.057 A 
ATOM     66  C   UNL A   1      39.276  31.659  32.864  1.00  0.00     0.134 A 
ATOM     67  C   UNL A   1      38.917  29.300  32.902  1.00  0.00     0.134 A 
ATOM     68  F   UNL A   1      40.080  32.733  32.803  1.00  0.00    -0.206 F 
ATOM     69  C   UNL A   1      37.895  31.893  32.852  1.00  0.00     0.040 A 
ATOM     70  C   UNL A   1      37.529  29.525  32.925  1.00  0.00     0.040 A 
ATOM     71  F   UNL A   1      39.338  28.028  32.872  1.00  0.00    -0.206 F 
ATOM     72  C   UNL A   1      37.015  30.819  32.858  1.00  0.00     0.006 A 
ENDBRANCH  44  65
BRANCH  56  73
ATOM     73  C   UNL A   1      45.230  25.498  32.735  1.00  0.00     0.057 A 
ATOM     74  C   UNL A   1      46.616  25.669  32.868  1.00  0.00     0.134 A 
ATOM     75  C   UNL A   1      44.682  24.452  33.512  1.00  0.00     0.134 A 
ATOM     76  F   UNL A   1      47.256  26.708  32.313  1.00  0.00    -0.206 F 
ATOM     77  C   UNL A   1      47.411  24.810  33.632  1.00  0.00     0.040 A 
ATOM     78  C   UNL A   1      45.456  23.637  34.339  1.00  0.00     0.040 A 
ATOM     79  F   UNL A   1      43.367  24.195  33.536  1.00  0.00    -0.206 F 
ATOM     80  C   UNL A   1      46.832  23.796  34.381  1.00  0.00     0.006 A 
ENDBRANCH  56  73
ENDBRANCH  30  31
ENDBRANCH  23  25
ENDBRANCH  22  23
ENDBRANCH  21  22
ENDBRANCH   1  21
TORSDOF 14
ENDMDL
MODEL 3
REMARK VINA RESULT:     -11.0      4.417      9.631
REMARK SMILES Cc1cccc(C(=O)OCCOC(=O)c2ccc(-c3c4nc(c(-c5c(F)cccc5F)c5ccc([nH]5)c(-c5c(F)cccc5F)c5nc(c(-c6c(F)cccc6F)c6ccc3[nH]6)C=C5)C=C4)cc2)c1OC[C@@H]1C[C@H]2CC[C@@H]1C2
REMARK SMILES IDX 10 1 9 2 7 3 8 4 6 5 1 6 2 7 3 8 69 9 4 10 5 11 70 12 71 13
REMARK SMILES IDX 72 14 73 15 77 16 74 17 76 18 78 19 75 20 11 21 12 22 13 23
REMARK SMILES IDX 14 24 15 25 16 26 68 27 17 28 67 29 18 30 19 31 20 32 61 33
REMARK SMILES IDX 21 34 66 35 60 36 62 37 22 38 65 39 59 40 58 41 23 43 49 44
REMARK SMILES IDX 32 45 48 46 33 47 36 48 47 49 63 50 34 51 35 52 46 54 64 55
REMARK SMILES IDX 37 56 24 57 25 58 30 59 26 60 27 61 29 62 31 63 28 64 50 65
REMARK SMILES IDX 51 66 56 67 52 68 53 69 55 70 57 71 54 72 38 73 39 74 44 75
REMARK SMILES IDX 40 76 41 77 43 78 45 79 42 80
REMARK H PARENT 62 42 36 53
REMARK Flexibility Score: inf
ROOT
ATOM      1  C   UNL A   1      32.765  28.403  27.642  1.00  0.00     0.275 C 
ENDROOT
BRANCH   1   2
ATOM      2  O   UNL A   1      31.508  28.267  26.967  1.00  0.00    -0.458 OA
BRANCH   2   3
ATOM      3  C   UNL A   1      31.364  27.029  26.409  1.00  0.00     0.342 C 
ATOM      4  O   UNL A   1      31.284  25.977  27.024  1.00  0.00    -0.246 OA
BRANCH   3   5
ATOM      5  C   UNL A   1      31.312  27.078  24.938  1.00  0.00     0.102 A 
ATOM      6  C   UNL A   1      33.473  26.468  21.870  1.00  0.00     0.048 C 
ATOM      7  C   UNL A   1      32.277  26.696  22.754  1.00  0.00    -0.008 A 
ATOM      8  C   UNL A   1      31.100  27.163  22.149  1.00  0.00     0.007 A 
ATOM      9  C   UNL A   1      32.346  26.553  24.155  1.00  0.00     0.136 A 
ATOM     10  C   UNL A   1      30.057  27.638  22.927  1.00  0.00     0.001 A 
ATOM     11  C   UNL A   1      30.192  27.645  24.313  1.00  0.00     0.019 A 
BRANCH   9  12
ATOM     12  O   UNL A   1      33.531  26.118  24.670  1.00  0.00    -0.492 OA
BRANCH  12  13
ATOM     13  C   UNL A   1      33.783  24.713  24.804  1.00  0.00     0.233 C 
BRANCH  13  14
ATOM     14  C   UNL A   1      35.207  24.145  24.643  1.00  0.00     0.030 C 
ATOM     15  C   UNL A   1      35.173  22.825  23.820  1.00  0.00     0.011 C 
ATOM     16  C   UNL A   1      35.924  23.670  25.929  1.00  0.00    -0.004 C 
ATOM     17  C   UNL A   1      35.952  21.827  24.696  1.00  0.00    -0.010 C 
ATOM     18  C   UNL A   1      37.421  23.491  25.613  1.00  0.00     0.004 C 
ATOM     19  C   UNL A   1      35.470  22.221  26.087  1.00  0.00     0.007 C 
ATOM     20  C   UNL A   1      37.436  22.229  24.742  1.00  0.00     0.004 C 
ENDBRANCH  13  14
ENDBRANCH  12  13
ENDBRANCH   9  12
ENDBRANCH   3   5
ENDBRANCH   2   3
ENDBRANCH   1   2
BRANCH   1  21
ATOM     21  C   UNL A   1      33.896  29.009  26.795  1.00  0.00     0.275 C 
BRANCH  21  22
ATOM     22  O   UNL A   1      34.402  30.352  27.038  1.00  0.00    -0.458 OA
BRANCH  22  23
ATOM     23  C   UNL A   1      35.073  30.834  28.103  1.00  0.00     0.338 C 
ATOM     24  O   UNL A   1      34.649  31.760  28.788  1.00  0.00    -0.246 OA
BRANCH  23  25
ATOM     25  C   UNL A   1      36.361  30.214  28.423  1.00  0.00     0.060 A 
ATOM     26  C   UNL A   1      36.475  29.480  29.613  1.00  0.00     0.016 A 
ATOM     27  C   UNL A   1      37.409  30.287  27.515  1.00  0.00     0.016 A 
ATOM     28  C   UNL A   1      37.578  28.671  29.831  1.00  0.00     0.010 A 
ATOM     29  C   UNL A   1      38.468  29.434  27.685  1.00  0.00     0.010 A 
ATOM     30  C   UNL A   1      38.561  28.656  28.854  1.00  0.00    -0.014 A 
BRANCH  30  31
ATOM     31  C   UNL A   1      39.899  28.154  29.082  1.00  0.00     0.031 A 
ATOM     32  C   UNL A   1      40.312  26.808  28.676  1.00  0.00     0.074 A 
ATOM     33  C   UNL A   1      40.720  29.173  29.417  1.00  0.00     0.049 A 
ATOM     34  N   UNL A   1      41.520  26.389  28.772  1.00  0.00    -0.248 NA
ATOM     35  C   UNL A   1      39.405  25.792  28.153  1.00  0.00     0.031 C 
ATOM     36  C   UNL A   1      42.153  29.337  29.295  1.00  0.00     0.029 A 
ATOM     37  N   UNL A   1      40.306  30.318  30.119  1.00  0.00    -0.354 N 
ATOM     38  C   UNL A   1      41.621  25.200  28.083  1.00  0.00     0.074 A 
ATOM     39  C   UNL A   1      40.264  24.822  27.807  1.00  0.00     0.031 C 
ATOM     40  C   UNL A   1      42.540  30.311  30.144  1.00  0.00     0.029 A 
ATOM     41  C   UNL A   1      41.374  30.654  30.954  1.00  0.00     0.049 A 
ATOM     42  H   UNL A   1      39.444  30.787  30.038  1.00  0.00     0.167 HD
ATOM     43  C   UNL A   1      42.872  24.781  27.740  1.00  0.00     0.037 A 
ATOM     44  C   UNL A   1      41.237  30.373  32.285  1.00  0.00     0.037 A 
ATOM     45  C   UNL A   1      43.843  25.556  28.514  1.00  0.00     0.049 A 
ATOM     46  C   UNL A   1      42.228  29.306  32.693  1.00  0.00     0.074 A 
ATOM     47  C   UNL A   1      44.560  26.703  28.229  1.00  0.00     0.029 A 
ATOM     48  N   UNL A   1      43.835  25.419  29.899  1.00  0.00    -0.354 N 
ATOM     49  N   UNL A   1      42.580  28.287  31.950  1.00  0.00    -0.248 NA
ATOM     50  C   UNL A   1      43.004  29.419  33.921  1.00  0.00     0.031 C 
ATOM     51  C   UNL A   1      44.848  27.339  29.472  1.00  0.00     0.029 A 
ATOM     52  C   UNL A   1      44.338  26.558  30.499  1.00  0.00     0.049 A 
ATOM     53  H   UNL A   1      43.516  24.624  30.384  1.00  0.00     0.167 HD
ATOM     54  C   UNL A   1      43.669  27.681  32.526  1.00  0.00     0.074 A 
ATOM     55  C   UNL A   1      43.875  28.410  33.766  1.00  0.00     0.031 C 
ATOM     56  C   UNL A   1      44.387  26.669  31.950  1.00  0.00     0.037 A 
BRANCH  43  57
ATOM     57  C   UNL A   1      43.259  23.871  26.592  1.00  0.00     0.057 A 
ATOM     58  C   UNL A   1      43.231  22.469  26.775  1.00  0.00     0.134 A 
ATOM     59  C   UNL A   1      43.786  24.270  25.349  1.00  0.00     0.134 A 
ATOM     60  F   UNL A   1      42.743  21.919  27.896  1.00  0.00    -0.206 F 
ATOM     61  C   UNL A   1      43.726  21.556  25.830  1.00  0.00     0.040 A 
ATOM     62  C   UNL A   1      44.266  23.365  24.386  1.00  0.00     0.040 A 
ATOM     63  F   UNL A   1      43.895  25.553  24.995  1.00  0.00    -0.206 F 
ATOM     64  C   UNL A   1      44.251  22.002  24.629  1.00  0.00     0.006 A 
ENDBRANCH  43  57
BRANCH  44  65
ATOM     65  C   UNL A   1      39.825  30.516  32.781  1.00  0.00     0.057 A 
ATOM     66  C   UNL A   1      39.237  31.801  32.766  1.00  0.00     0.134 A 
ATOM     67  C   UNL A   1      38.946  29.439  32.938  1.00  0.00     0.134 A 
ATOM     68  F   UNL A   1      40.009  32.893  32.632  1.00  0.00    -0.206 F 
ATOM     69  C   UNL A   1      37.850  31.996  32.768  1.00  0.00     0.040 A 
ATOM     70  C   UNL A   1      37.553  29.626  32.975  1.00  0.00     0.040 A 
ATOM     71  F   UNL A   1      39.403  28.180  32.967  1.00  0.00    -0.206 F 
ATOM     72  C   UNL A   1      37.001  30.901  32.848  1.00  0.00     0.006 A 
ENDBRANCH  44  65
BRANCH  56  73
ATOM     73  C   UNL A   1      45.305  25.743  32.712  1.00  0.00     0.057 A 
ATOM     74  C   UNL A   1      46.704  25.846  32.690  1.00  0.00     0.134 A 
ATOM     75  C   UNL A   1      44.790  24.814  33.645  1.00  0.00     0.134 A 
ATOM     76  F   UNL A   1      47.331  26.785  31.970  1.00  0.00    -0.206 F 
ATOM     77  C   UNL A   1      47.531  25.022  33.459  1.00  0.00     0.040 A 
ATOM     78  C   UNL A   1      45.606  24.041  34.474  1.00  0.00     0.040 A 
ATOM     79  F   UNL A   1      43.474  24.638  33.825  1.00  0.00    -0.206 F 
ATOM     80  C   UNL A   1      46.984  24.123  34.364  1.00  0.00     0.006 A 
ENDBRANCH  56  73
ENDBRANCH  30  31
ENDBRANCH  23  25
ENDBRANCH  22  23
ENDBRANCH  21  22
ENDBRANCH   1  21
TORSDOF 14
ENDMDL
