MODEL 1
REMARK VINA RESULT:      -9.2      0.000      0.000
REMARK SMILES CCOc1ccc(N2C[C@H](C(=O)OCCOC(=O)c3ccc(-c4c5nc(c(-c6c(F)cccc6F)c6ccc([nH]6)c(-c6c(F)cccc6F)c6nc(c(-c7c(F)cccc7F)c7ccc4[nH]7)C=C6)C=C5)cc3)CC2=O)cc1C(F)(F)F
REMARK SMILES IDX 14 1 13 2 11 3 12 4 10 5 8 6 9 7 74 8 73 9 75 10 7 11 4 12
REMARK SMILES IDX 5 13 77 14 6 15 76 16 3 17 2 18 1 19 78 20 79 21 80 22 81 23
REMARK SMILES IDX 15 24 16 25 17 26 18 27 19 28 20 29 72 30 21 31 71 32 22 33
REMARK SMILES IDX 23 34 24 35 65 36 25 37 70 38 64 39 66 40 26 41 69 42 63 43
REMARK SMILES IDX 62 44 27 46 53 47 36 48 52 49 37 50 40 51 51 52 67 53 38 54
REMARK SMILES IDX 39 55 50 57 68 58 41 59 28 60 29 61 34 62 30 63 31 64 33 65
REMARK SMILES IDX 35 66 32 67 54 68 55 69 60 70 56 71 57 72 59 73 61 74 58 75
REMARK SMILES IDX 42 76 43 77 48 78 44 79 45 80 47 81 49 82 46 83
REMARK H PARENT 66 45 40 56
REMARK Flexibility Score: inf
ROOT
ATOM      1  C   UNL A   1      44.729  19.962  24.083  1.00  0.00     0.274 C 
ENDROOT
BRANCH   1   2
ATOM      2  O   UNL A   1      45.882  20.513  24.756  1.00  0.00    -0.462 OA
BRANCH   2   3
ATOM      3  C   UNL A   1      45.734  21.741  25.305  1.00  0.00     0.311 C 
ATOM      4  O   UNL A   1      45.484  21.940  26.490  1.00  0.00    -0.252 OA
BRANCH   3   5
ATOM      5  C   UNL A   1      45.811  22.878  24.304  1.00  0.00     0.128 C 
ATOM      6  N   UNL A   1      45.698  25.123  25.070  1.00  0.00    -0.312 N 
ATOM      7  C   UNL A   1      44.869  23.992  24.727  1.00  0.00     0.141 C 
ATOM      8  C   UNL A   1      47.013  24.952  24.644  1.00  0.00     0.227 C 
ATOM      9  C   UNL A   1      47.155  23.557  24.082  1.00  0.00     0.117 C 
ATOM     10  O   UNL A   1      47.933  25.746  24.688  1.00  0.00    -0.274 OA
BRANCH   6  11
ATOM     11  C   UNL A   1      45.188  26.277  25.714  1.00  0.00     0.044 A 
ATOM     12  C   UNL A   1      44.262  28.601  27.009  1.00  0.00     0.131 A 
ATOM     13  C   UNL A   1      45.519  28.094  27.303  1.00  0.00     0.049 A 
ATOM     14  C   UNL A   1      43.453  27.974  26.059  1.00  0.00     0.100 A 
ATOM     15  C   UNL A   1      45.951  26.922  26.689  1.00  0.00     0.030 A 
ATOM     16  C   UNL A   1      43.937  26.820  25.403  1.00  0.00     0.043 A 
BRANCH  12  17
ATOM     17  O   UNL A   1      43.829  29.754  27.593  1.00  0.00    -0.493 OA
BRANCH  17  18
ATOM     18  C   UNL A   1      44.773  30.830  27.524  1.00  0.00     0.226 C 
ATOM     19  C   UNL A   1      44.213  31.874  26.577  1.00  0.00     0.049 C 
ENDBRANCH  17  18
ENDBRANCH  12  17
BRANCH  14  20
ATOM     20  C   UNL A   1      42.048  28.459  25.816  1.00  0.00     0.420 C 
ATOM     21  F   UNL A   1      41.139  27.448  25.711  1.00  0.00    -0.166 F 
ATOM     22  F   UNL A   1      41.596  29.240  26.841  1.00  0.00    -0.166 F 
ATOM     23  F   UNL A   1      41.894  29.199  24.683  1.00  0.00    -0.166 F 
ENDBRANCH  14  20
ENDBRANCH   6  11
ENDBRANCH   3   5
ENDBRANCH   2   3
ENDBRANCH   1   2
BRANCH   1  24
ATOM     24  C   UNL A   1      44.083  18.832  24.887  1.00  0.00     0.275 C 
BRANCH  24  25
ATOM     25  O   UNL A   1      43.449  19.320  26.088  1.00  0.00    -0.458 OA
BRANCH  25  26
ATOM     26  C   UNL A   1      42.167  19.706  25.930  1.00  0.00     0.338 C 
ATOM     27  O   UNL A   1      41.265  19.072  25.399  1.00  0.00    -0.246 OA
BRANCH  26  28
ATOM     28  C   UNL A   1      41.919  20.992  26.593  1.00  0.00     0.060 A 
ATOM     29  C   UNL A   1      42.035  22.139  25.821  1.00  0.00     0.016 A 
ATOM     30  C   UNL A   1      41.832  21.088  27.984  1.00  0.00     0.016 A 
ATOM     31  C   UNL A   1      42.222  23.369  26.446  1.00  0.00     0.010 A 
ATOM     32  C   UNL A   1      41.913  22.349  28.601  1.00  0.00     0.010 A 
ATOM     33  C   UNL A   1      42.180  23.502  27.846  1.00  0.00    -0.014 A 
BRANCH  33  34
ATOM     34  C   UNL A   1      42.471  24.836  28.468  1.00  0.00     0.031 A 
ATOM     35  C   UNL A   1      41.409  25.913  28.584  1.00  0.00     0.074 A 
ATOM     36  C   UNL A   1      43.674  25.054  29.042  1.00  0.00     0.049 A 
ATOM     37  N   UNL A   1      41.503  27.108  29.122  1.00  0.00    -0.248 NA
ATOM     38  C   UNL A   1      40.067  25.610  28.062  1.00  0.00     0.031 C 
ATOM     39  C   UNL A   1      44.785  24.099  29.067  1.00  0.00     0.029 A 
ATOM     40  N   UNL A   1      44.162  26.135  29.738  1.00  0.00    -0.354 N 
ATOM     41  C   UNL A   1      40.244  27.690  29.004  1.00  0.00     0.074 A 
ATOM     42  C   UNL A   1      39.404  26.730  28.322  1.00  0.00     0.031 C 
ATOM     43  C   UNL A   1      45.791  24.605  29.791  1.00  0.00     0.029 A 
ATOM     44  C   UNL A   1      45.456  25.971  30.172  1.00  0.00     0.049 A 
ATOM     45  H   UNL A   1      43.634  26.949  29.911  1.00  0.00     0.167 HD
ATOM     46  C   UNL A   1      39.814  28.898  29.445  1.00  0.00     0.037 A 
ATOM     47  C   UNL A   1      46.317  26.830  30.749  1.00  0.00     0.037 A 
ATOM     48  C   UNL A   1      40.633  29.860  30.135  1.00  0.00     0.049 A 
ATOM     49  C   UNL A   1      45.879  28.233  31.027  1.00  0.00     0.074 A 
ATOM     50  C   UNL A   1      40.265  31.090  30.656  1.00  0.00     0.029 A 
ATOM     51  N   UNL A   1      41.987  29.712  30.379  1.00  0.00    -0.354 N 
ATOM     52  N   UNL A   1      44.685  28.758  30.913  1.00  0.00    -0.248 NA
ATOM     53  C   UNL A   1      46.914  29.174  31.478  1.00  0.00     0.031 C 
ATOM     54  C   UNL A   1      41.413  31.709  31.168  1.00  0.00     0.029 A 
ATOM     55  C   UNL A   1      42.485  30.851  30.992  1.00  0.00     0.049 A 
ATOM     56  H   UNL A   1      42.518  28.915  30.151  1.00  0.00     0.167 HD
ATOM     57  C   UNL A   1      44.820  30.089  31.282  1.00  0.00     0.074 A 
ATOM     58  C   UNL A   1      46.211  30.287  31.637  1.00  0.00     0.031 C 
ATOM     59  C   UNL A   1      43.871  31.055  31.323  1.00  0.00     0.037 A 
BRANCH  46  60
ATOM     60  C   UNL A   1      38.379  29.260  29.194  1.00  0.00     0.057 A 
ATOM     61  C   UNL A   1      37.429  29.237  30.222  1.00  0.00     0.134 A 
ATOM     62  C   UNL A   1      37.953  29.698  27.936  1.00  0.00     0.134 A 
ATOM     63  F   UNL A   1      37.784  28.875  31.460  1.00  0.00    -0.206 F 
ATOM     64  C   UNL A   1      36.100  29.600  30.003  1.00  0.00     0.040 A 
ATOM     65  C   UNL A   1      36.631  30.085  27.708  1.00  0.00     0.040 A 
ATOM     66  F   UNL A   1      38.819  29.769  26.913  1.00  0.00    -0.206 F 
ATOM     67  C   UNL A   1      35.698  30.030  28.742  1.00  0.00     0.006 A 
ENDBRANCH  46  60
BRANCH  47  68
ATOM     68  C   UNL A   1      47.716  26.397  30.997  1.00  0.00     0.057 A 
ATOM     69  C   UNL A   1      48.095  25.781  32.192  1.00  0.00     0.134 A 
ATOM     70  C   UNL A   1      48.701  26.555  30.009  1.00  0.00     0.134 A 
ATOM     71  F   UNL A   1      47.207  25.628  33.185  1.00  0.00    -0.206 F 
ATOM     72  C   UNL A   1      49.399  25.321  32.392  1.00  0.00     0.040 A 
ATOM     73  C   UNL A   1      49.997  26.073  30.183  1.00  0.00     0.040 A 
ATOM     74  F   UNL A   1      48.400  27.143  28.842  1.00  0.00    -0.206 F 
ATOM     75  C   UNL A   1      50.349  25.453  31.379  1.00  0.00     0.006 A 
ENDBRANCH  47  68
BRANCH  59  76
ATOM     76  C   UNL A   1      44.307  32.415  31.772  1.00  0.00     0.057 A 
ATOM     77  C   UNL A   1      44.670  33.406  30.852  1.00  0.00     0.134 A 
ATOM     78  C   UNL A   1      44.360  32.742  33.132  1.00  0.00     0.134 A 
ATOM     79  F   UNL A   1      44.660  33.149  29.536  1.00  0.00    -0.206 F 
ATOM     80  C   UNL A   1      45.088  34.670  31.270  1.00  0.00     0.040 A 
ATOM     81  C   UNL A   1      44.756  34.009  33.562  1.00  0.00     0.040 A 
ATOM     82  F   UNL A   1      44.023  31.837  34.064  1.00  0.00    -0.206 F 
ATOM     83  C   UNL A   1      45.128  34.976  32.630  1.00  0.00     0.006 A 
ENDBRANCH  59  76
ENDBRANCH  33  34
ENDBRANCH  26  28
ENDBRANCH  25  26
ENDBRANCH  24  25
ENDBRANCH   1  24
TORSDOF 15
ENDMDL
MODEL 2
REMARK VINA RESULT:      -8.8      4.494      7.094
REMARK SMILES CCOc1ccc(N2C[C@H](C(=O)OCCOC(=O)c3ccc(-c4c5nc(c(-c6c(F)cccc6F)c6ccc([nH]6)c(-c6c(F)cccc6F)c6nc(c(-c7c(F)cccc7F)c7ccc4[nH]7)C=C6)C=C5)cc3)CC2=O)cc1C(F)(F)F
REMARK SMILES IDX 14 1 13 2 11 3 12 4 10 5 8 6 9 7 74 8 73 9 75 10 7 11 4 12
REMARK SMILES IDX 5 13 77 14 6 15 76 16 3 17 2 18 1 19 78 20 79 21 80 22 81 23
REMARK SMILES IDX 15 24 16 25 17 26 18 27 19 28 20 29 72 30 21 31 71 32 22 33
REMARK SMILES IDX 23 34 24 35 65 36 25 37 70 38 64 39 66 40 26 41 69 42 63 43
REMARK SMILES IDX 62 44 27 46 53 47 36 48 52 49 37 50 40 51 51 52 67 53 38 54
REMARK SMILES IDX 39 55 50 57 68 58 41 59 28 60 29 61 34 62 30 63 31 64 33 65
REMARK SMILES IDX 35 66 32 67 54 68 55 69 60 70 56 71 57 72 59 73 61 74 58 75
REMARK SMILES IDX 42 76 43 77 48 78 44 79 45 80 47 81 49 82 46 83
REMARK H PARENT 66 45 40 56
REMARK Flexibility Score: inf
ROOT
ATOM      1  C   UNL A   1      35.298  20.942  25.156  1.00  0.00     0.274 C 
ENDROOT
BRANCH   1   2
ATOM      2  O   UNL A   1      34.302  20.217  24.403  1.00  0.00    -0.462 OA
BRANCH   2   3
ATOM      3  C   UNL A   1      33.024  20.309  24.842  1.00  0.00     0.311 C 
ATOM      4  O   UNL A   1      32.563  19.643  25.765  1.00  0.00    -0.252 OA
BRANCH   3   5
ATOM      5  C   UNL A   1      32.159  21.253  24.029  1.00  0.00     0.128 C 
ATOM      6  N   UNL A   1      32.755  23.546  23.872  1.00  0.00    -0.312 N 
ATOM      7  C   UNL A   1      32.081  22.600  24.727  1.00  0.00     0.141 C 
ATOM      8  C   UNL A   1      32.993  23.023  22.603  1.00  0.00     0.227 C 
ATOM      9  C   UNL A   1      32.581  21.570  22.601  1.00  0.00     0.117 C 
ATOM     10  O   UNL A   1      33.451  23.584  21.625  1.00  0.00    -0.274 OA
BRANCH   6  11
ATOM     11  C   UNL A   1      33.073  24.863  24.289  1.00  0.00     0.044 A 
ATOM     12  C   UNL A   1      33.736  27.445  25.198  1.00  0.00     0.131 A 
ATOM     13  C   UNL A   1      33.485  26.429  26.109  1.00  0.00     0.049 A 
ATOM     14  C   UNL A   1      33.677  27.193  23.826  1.00  0.00     0.100 A 
ATOM     15  C   UNL A   1      33.117  25.168  25.650  1.00  0.00     0.030 A 
ATOM     16  C   UNL A   1      33.362  25.888  23.383  1.00  0.00     0.043 A 
BRANCH  12  17
ATOM     17  O   UNL A   1      34.109  28.682  25.631  1.00  0.00    -0.493 OA
BRANCH  17  18
ATOM     18  C   UNL A   1      34.047  28.844  27.053  1.00  0.00     0.226 C 
ATOM     19  C   UNL A   1      35.368  29.433  27.507  1.00  0.00     0.049 C 
ENDBRANCH  17  18
ENDBRANCH  12  17
BRANCH  14  20
ATOM     20  C   UNL A   1      33.844  28.316  22.838  1.00  0.00     0.420 C 
ATOM     21  F   UNL A   1      33.787  27.904  21.538  1.00  0.00    -0.166 F 
ATOM     22  F   UNL A   1      32.855  29.250  22.958  1.00  0.00    -0.166 F 
ATOM     23  F   UNL A   1      35.018  28.996  22.947  1.00  0.00    -0.166 F 
ENDBRANCH  14  20
ENDBRANCH   6  11
ENDBRANCH   3   5
ENDBRANCH   2   3
ENDBRANCH   1   2
BRANCH   1  24
ATOM     24  C   UNL A   1      36.691  20.328  25.002  1.00  0.00     0.275 C 
BRANCH  24  25
ATOM     25  O   UNL A   1      37.724  21.336  24.986  1.00  0.00    -0.458 OA
BRANCH  25  26
ATOM     26  C   UNL A   1      38.801  21.049  25.744  1.00  0.00     0.338 C 
ATOM     27  O   UNL A   1      39.421  19.995  25.779  1.00  0.00    -0.246 OA
BRANCH  26  28
ATOM     28  C   UNL A   1      39.249  22.232  26.490  1.00  0.00     0.060 A 
ATOM     29  C   UNL A   1      38.667  23.449  26.164  1.00  0.00     0.016 A 
ATOM     30  C   UNL A   1      40.386  22.193  27.300  1.00  0.00     0.016 A 
ATOM     31  C   UNL A   1      39.311  24.632  26.516  1.00  0.00     0.010 A 
ATOM     32  C   UNL A   1      40.967  23.394  27.742  1.00  0.00     0.010 A 
ATOM     33  C   UNL A   1      40.481  24.634  27.298  1.00  0.00    -0.014 A 
BRANCH  33  34
ATOM     34  C   UNL A   1      41.178  25.933  27.577  1.00  0.00     0.031 A 
ATOM     35  C   UNL A   1      40.512  27.045  28.366  1.00  0.00     0.074 A 
ATOM     36  C   UNL A   1      42.471  26.084  27.216  1.00  0.00     0.049 A 
ATOM     37  N   UNL A   1      41.000  28.214  28.711  1.00  0.00    -0.248 NA
ATOM     38  C   UNL A   1      39.146  26.811  28.858  1.00  0.00     0.031 C 
ATOM     39  C   UNL A   1      43.272  25.087  26.502  1.00  0.00     0.029 A 
ATOM     40  N   UNL A   1      43.352  27.120  27.420  1.00  0.00    -0.354 N 
ATOM     41  C   UNL A   1      40.007  28.848  29.453  1.00  0.00     0.074 A 
ATOM     42  C   UNL A   1      38.877  27.945  29.493  1.00  0.00     0.031 C 
ATOM     43  C   UNL A   1      44.530  25.529  26.383  1.00  0.00     0.029 A 
ATOM     44  C   UNL A   1      44.601  26.891  26.894  1.00  0.00     0.049 A 
ATOM     45  H   UNL A   1      43.111  27.947  27.900  1.00  0.00     0.167 HD
ATOM     46  C   UNL A   1      40.038  30.054  30.071  1.00  0.00     0.037 A 
ATOM     47  C   UNL A   1      45.672  27.695  26.762  1.00  0.00     0.037 A 
ATOM     48  C   UNL A   1      41.156  30.959  30.052  1.00  0.00     0.049 A 
ATOM     49  C   UNL A   1      45.599  29.104  27.262  1.00  0.00     0.074 A 
ATOM     50  C   UNL A   1      41.288  32.183  30.689  1.00  0.00     0.029 A 
ATOM     51  N   UNL A   1      42.327  30.751  29.343  1.00  0.00    -0.354 N 
ATOM     52  N   UNL A   1      44.655  29.678  27.964  1.00  0.00    -0.248 NA
ATOM     53  C   UNL A   1      46.723  29.987  26.922  1.00  0.00     0.031 C 
ATOM     54  C   UNL A   1      42.519  32.739  30.319  1.00  0.00     0.029 A 
ATOM     55  C   UNL A   1      43.164  31.848  29.478  1.00  0.00     0.049 A 
ATOM     56  H   UNL A   1      42.534  29.943  28.820  1.00  0.00     0.167 HD
ATOM     57  C   UNL A   1      45.069  30.988  28.156  1.00  0.00     0.074 A 
ATOM     58  C   UNL A   1      46.358  31.120  27.507  1.00  0.00     0.031 C 
ATOM     59  C   UNL A   1      44.434  31.987  28.814  1.00  0.00     0.037 A 
BRANCH  46  60
ATOM     60  C   UNL A   1      38.813  30.480  30.829  1.00  0.00     0.057 A 
ATOM     61  C   UNL A   1      37.777  31.186  30.206  1.00  0.00     0.134 A 
ATOM     62  C   UNL A   1      38.635  30.128  32.171  1.00  0.00     0.134 A 
ATOM     63  F   UNL A   1      37.865  31.510  28.912  1.00  0.00    -0.206 F 
ATOM     64  C   UNL A   1      36.624  31.560  30.897  1.00  0.00     0.040 A 
ATOM     65  C   UNL A   1      37.476  30.477  32.868  1.00  0.00     0.040 A 
ATOM     66  F   UNL A   1      39.578  29.429  32.820  1.00  0.00    -0.206 F 
ATOM     67  C   UNL A   1      36.469  31.201  32.232  1.00  0.00     0.006 A 
ENDBRANCH  46  60
BRANCH  47  68
ATOM     68  C   UNL A   1      46.864  27.201  26.025  1.00  0.00     0.057 A 
ATOM     69  C   UNL A   1      47.001  27.379  24.646  1.00  0.00     0.134 A 
ATOM     70  C   UNL A   1      47.918  26.574  26.705  1.00  0.00     0.134 A 
ATOM     71  F   UNL A   1      46.016  27.945  23.935  1.00  0.00    -0.206 F 
ATOM     72  C   UNL A   1      48.153  26.966  23.971  1.00  0.00     0.040 A 
ATOM     73  C   UNL A   1      49.086  26.186  26.051  1.00  0.00     0.040 A 
ATOM     74  F   UNL A   1      47.843  26.370  28.029  1.00  0.00    -0.206 F 
ATOM     75  C   UNL A   1      49.205  26.383  24.677  1.00  0.00     0.006 A 
ENDBRANCH  47  68
BRANCH  59  76
ATOM     76  C   UNL A   1      45.127  33.313  28.867  1.00  0.00     0.057 A 
ATOM     77  C   UNL A   1      46.077  33.601  29.855  1.00  0.00     0.134 A 
ATOM     78  C   UNL A   1      44.851  34.309  27.923  1.00  0.00     0.134 A 
ATOM     79  F   UNL A   1      46.370  32.696  30.800  1.00  0.00    -0.206 F 
ATOM     80  C   UNL A   1      46.714  34.841  29.913  1.00  0.00     0.040 A 
ATOM     81  C   UNL A   1      45.497  35.545  27.957  1.00  0.00     0.040 A 
ATOM     82  F   UNL A   1      43.952  34.094  26.950  1.00  0.00    -0.206 F 
ATOM     83  C   UNL A   1      46.427  35.816  28.959  1.00  0.00     0.006 A 
ENDBRANCH  59  76
ENDBRANCH  33  34
ENDBRANCH  26  28
ENDBRANCH  25  26
ENDBRANCH  24  25
ENDBRANCH   1  24
TORSDOF 15
ENDMDL
MODEL 3
REMARK VINA RESULT:      -8.7      4.933      7.735
REMARK SMILES CCOc1ccc(N2C[C@H](C(=O)OCCOC(=O)c3ccc(-c4c5nc(c(-c6c(F)cccc6F)c6ccc([nH]6)c(-c6c(F)cccc6F)c6nc(c(-c7c(F)cccc7F)c7ccc4[nH]7)C=C6)C=C5)cc3)CC2=O)cc1C(F)(F)F
REMARK SMILES IDX 14 1 13 2 11 3 12 4 10 5 8 6 9 7 74 8 73 9 75 10 7 11 4 12
REMARK SMILES IDX 5 13 77 14 6 15 76 16 3 17 2 18 1 19 78 20 79 21 80 22 81 23
REMARK SMILES IDX 15 24 16 25 17 26 18 27 19 28 20 29 72 30 21 31 71 32 22 33
REMARK SMILES IDX 23 34 24 35 65 36 25 37 70 38 64 39 66 40 26 41 69 42 63 43
REMARK SMILES IDX 62 44 27 46 53 47 36 48 52 49 37 50 40 51 51 52 67 53 38 54
REMARK SMILES IDX 39 55 50 57 68 58 41 59 28 60 29 61 34 62 30 63 31 64 33 65
REMARK SMILES IDX 35 66 32 67 54 68 55 69 60 70 56 71 57 72 59 73 61 74 58 75
REMARK SMILES IDX 42 76 43 77 48 78 44 79 45 80 47 81 49 82 46 83
REMARK H PARENT 66 45 40 56
REMARK Flexibility Score: inf
ROOT
ATOM      1  C   UNL A   1      35.283  21.169  25.460  1.00  0.00     0.274 C 
ENDROOT
BRANCH   1   2
ATOM      2  O   UNL A   1      34.510  21.621  24.327  1.00  0.00    -0.462 OA
BRANCH   2   3
ATOM      3  C   UNL A   1      33.659  22.650  24.546  1.00  0.00     0.311 C 
ATOM      4  O   UNL A   1      33.480  23.176  25.640  1.00  0.00    -0.252 OA
BRANCH   3   5
ATOM      5  C   UNL A   1      32.853  23.054  23.326  1.00  0.00     0.128 C 
ATOM      6  N   UNL A   1      32.232  25.327  23.033  1.00  0.00    -0.312 N 
ATOM      7  C   UNL A   1      31.840  24.118  23.715  1.00  0.00     0.141 C 
ATOM      8  C   UNL A   1      33.187  25.084  22.048  1.00  0.00     0.227 C 
ATOM      9  C   UNL A   1      33.595  23.631  22.128  1.00  0.00     0.117 C 
ATOM     10  O   UNL A   1      33.653  25.859  21.235  1.00  0.00    -0.274 OA
BRANCH   6  11
ATOM     11  C   UNL A   1      31.652  26.588  23.318  1.00  0.00     0.044 A 
ATOM     12  C   UNL A   1      30.421  29.067  23.841  1.00  0.00     0.131 A 
ATOM     13  C   UNL A   1      30.012  28.302  22.759  1.00  0.00     0.049 A 
ATOM     14  C   UNL A   1      31.432  28.609  24.688  1.00  0.00     0.100 A 
ATOM     15  C   UNL A   1      30.656  27.098  22.484  1.00  0.00     0.030 A 
ATOM     16  C   UNL A   1      32.029  27.355  24.425  1.00  0.00     0.043 A 
BRANCH  12  17
ATOM     17  O   UNL A   1      29.794  30.242  24.131  1.00  0.00    -0.493 OA
BRANCH  17  18
ATOM     18  C   UNL A   1      29.077  30.806  23.026  1.00  0.00     0.226 C 
ATOM     19  C   UNL A   1      27.701  31.204  23.526  1.00  0.00     0.049 C 
ENDBRANCH  17  18
ENDBRANCH  12  17
BRANCH  14  20
ATOM     20  C   UNL A   1      31.950  29.484  25.799  1.00  0.00     0.420 C 
ATOM     21  F   UNL A   1      31.405  29.191  27.015  1.00  0.00    -0.166 F 
ATOM     22  F   UNL A   1      33.297  29.344  25.970  1.00  0.00    -0.166 F 
ATOM     23  F   UNL A   1      31.730  30.815  25.619  1.00  0.00    -0.166 F 
ENDBRANCH  14  20
ENDBRANCH   6  11
ENDBRANCH   3   5
ENDBRANCH   2   3
ENDBRANCH   1   2
BRANCH   1  24
ATOM     24  C   UNL A   1      36.598  20.514  25.032  1.00  0.00     0.275 C 
BRANCH  24  25
ATOM     25  O   UNL A   1      37.676  21.471  24.962  1.00  0.00    -0.458 OA
BRANCH  25  26
ATOM     26  C   UNL A   1      38.745  21.171  25.725  1.00  0.00     0.338 C 
ATOM     27  O   UNL A   1      39.348  20.107  25.768  1.00  0.00    -0.246 OA
BRANCH  26  28
ATOM     28  C   UNL A   1      39.208  22.350  26.468  1.00  0.00     0.060 A 
ATOM     29  C   UNL A   1      38.626  23.570  26.154  1.00  0.00     0.016 A 
ATOM     30  C   UNL A   1      40.356  22.305  27.262  1.00  0.00     0.016 A 
ATOM     31  C   UNL A   1      39.280  24.749  26.501  1.00  0.00     0.010 A 
ATOM     32  C   UNL A   1      40.948  23.502  27.700  1.00  0.00     0.010 A 
ATOM     33  C   UNL A   1      40.460  24.745  27.266  1.00  0.00    -0.014 A 
BRANCH  33  34
ATOM     34  C   UNL A   1      41.166  26.040  27.539  1.00  0.00     0.031 A 
ATOM     35  C   UNL A   1      40.507  27.161  28.321  1.00  0.00     0.074 A 
ATOM     36  C   UNL A   1      42.460  26.181  27.178  1.00  0.00     0.049 A 
ATOM     37  N   UNL A   1      41.003  28.329  28.660  1.00  0.00    -0.248 NA
ATOM     38  C   UNL A   1      39.138  26.940  28.812  1.00  0.00     0.031 C 
ATOM     39  C   UNL A   1      43.255  25.174  26.470  1.00  0.00     0.029 A 
ATOM     40  N   UNL A   1      43.348  27.212  27.378  1.00  0.00    -0.354 N 
ATOM     41  C   UNL A   1      40.014  28.974  29.398  1.00  0.00     0.074 A 
ATOM     42  C   UNL A   1      38.877  28.079  29.441  1.00  0.00     0.031 C 
ATOM     43  C   UNL A   1      44.516  25.606  26.351  1.00  0.00     0.029 A 
ATOM     44  C   UNL A   1      44.596  26.971  26.854  1.00  0.00     0.049 A 
ATOM     45  H   UNL A   1      43.113  28.043  27.853  1.00  0.00     0.167 HD
ATOM     46  C   UNL A   1      40.052  30.183  30.009  1.00  0.00     0.037 A 
ATOM     47  C   UNL A   1      45.673  27.767  26.719  1.00  0.00     0.037 A 
ATOM     48  C   UNL A   1      41.177  31.080  29.986  1.00  0.00     0.049 A 
ATOM     49  C   UNL A   1      45.610  29.179  27.212  1.00  0.00     0.074 A 
ATOM     50  C   UNL A   1      41.316  32.306  30.617  1.00  0.00     0.029 A 
ATOM     51  N   UNL A   1      42.347  30.860  29.280  1.00  0.00    -0.354 N 
ATOM     52  N   UNL A   1      44.668  29.763  27.910  1.00  0.00    -0.248 NA
ATOM     53  C   UNL A   1      46.740  30.053  26.868  1.00  0.00     0.031 C 
ATOM     54  C   UNL A   1      42.552  32.852  30.246  1.00  0.00     0.029 A 
ATOM     55  C   UNL A   1      43.191  31.952  29.410  1.00  0.00     0.049 A 
ATOM     56  H   UNL A   1      42.549  30.048  28.762  1.00  0.00     0.167 HD
ATOM     57  C   UNL A   1      45.092  31.071  28.094  1.00  0.00     0.074 A 
ATOM     58  C   UNL A   1      46.382  31.191  27.446  1.00  0.00     0.031 C 
ATOM     59  C   UNL A   1      44.463  32.079  28.747  1.00  0.00     0.037 A 
BRANCH  46  60
ATOM     60  C   UNL A   1      38.830  30.621  30.763  1.00  0.00     0.057 A 
ATOM     61  C   UNL A   1      38.649  30.297  32.113  1.00  0.00     0.134 A 
ATOM     62  C   UNL A   1      37.858  31.427  30.160  1.00  0.00     0.134 A 
ATOM     63  F   UNL A   1      39.566  29.571  32.761  1.00  0.00    -0.206 F 
ATOM     64  C   UNL A   1      37.530  30.725  32.828  1.00  0.00     0.040 A 
ATOM     65  C   UNL A   1      36.744  31.880  30.870  1.00  0.00     0.040 A 
ATOM     66  F   UNL A   1      37.984  31.796  28.876  1.00  0.00    -0.206 F 
ATOM     67  C   UNL A   1      36.574  31.523  32.207  1.00  0.00     0.006 A 
ENDBRANCH  46  60
BRANCH  47  68
ATOM     68  C   UNL A   1      46.862  27.261  25.986  1.00  0.00     0.057 A 
ATOM     69  C   UNL A   1      47.884  26.563  26.635  1.00  0.00     0.134 A 
ATOM     70  C   UNL A   1      46.974  27.431  24.598  1.00  0.00     0.134 A 
ATOM     71  F   UNL A   1      47.849  26.393  27.965  1.00  0.00    -0.206 F 
ATOM     72  C   UNL A   1      48.968  26.036  25.928  1.00  0.00     0.040 A 
ATOM     73  C   UNL A   1      48.033  26.884  23.875  1.00  0.00     0.040 A 
ATOM     74  F   UNL A   1      46.028  28.097  23.919  1.00  0.00    -0.206 F 
ATOM     75  C   UNL A   1      49.035  26.183  24.542  1.00  0.00     0.006 A 
ENDBRANCH  47  68
BRANCH  59  76
ATOM     76  C   UNL A   1      45.165  33.400  28.794  1.00  0.00     0.057 A 
ATOM     77  C   UNL A   1      46.119  33.685  29.778  1.00  0.00     0.134 A 
ATOM     78  C   UNL A   1      44.894  34.394  27.846  1.00  0.00     0.134 A 
ATOM     79  F   UNL A   1      46.408  32.781  30.727  1.00  0.00    -0.206 F 
ATOM     80  C   UNL A   1      46.765  34.921  29.831  1.00  0.00     0.040 A 
ATOM     81  C   UNL A   1      45.548  35.626  27.875  1.00  0.00     0.040 A 
ATOM     82  F   UNL A   1      43.991  34.182  26.876  1.00  0.00    -0.206 F 
ATOM     83  C   UNL A   1      46.483  35.894  28.873  1.00  0.00     0.006 A 
ENDBRANCH  59  76
ENDBRANCH  33  34
ENDBRANCH  26  28
ENDBRANCH  25  26
ENDBRANCH  24  25
ENDBRANCH   1  24
TORSDOF 15
ENDMDL
