MODEL 1
REMARK VINA RESULT:     -10.4      0.000      0.000
REMARK SMILES CC[NH2+][C@]1(C(=O)OCCOC(=O)c2ccc(-c3c4nc(c(-c5c(F)cccc5F)c5ccc([nH]5)c(-c5c(F)cccc5F)c5nc(c(-c6c(F)cccc6F)c6ccc3[nH]6)C=C5)C=C4)cc2)CC[C@@H](Sc2ccccc2C)C1
REMARK SMILES IDX 8 1 7 2 5 3 6 4 4 5 67 6 78 7 68 8 69 9 3 10 2 13 1 14 70 15
REMARK SMILES IDX 71 16 72 17 76 18 73 19 75 20 77 21 74 22 9 23 10 24 11 25
REMARK SMILES IDX 12 26 13 27 14 28 66 29 15 30 65 31 16 32 17 33 18 34 59 35
REMARK SMILES IDX 19 36 64 37 58 38 60 39 20 40 63 41 57 42 56 43 21 45 47 46
REMARK SMILES IDX 30 47 46 48 31 49 34 50 45 51 61 52 32 53 33 54 44 56 62 57
REMARK SMILES IDX 35 58 22 59 23 60 28 61 24 62 25 63 27 64 29 65 26 66 48 67
REMARK SMILES IDX 49 68 54 69 50 70 51 71 53 72 55 73 52 74 36 75 37 76 42 77
REMARK SMILES IDX 38 78 39 79 41 80 43 81 40 82
REMARK H PARENT 3 11 3 12 60 44 34 55
REMARK Flexibility Score: inf
ROOT
ATOM      1  C   UNL A   1      37.375  21.429  24.946  1.00  0.00     0.274 C 
ENDROOT
BRANCH   1   2
ATOM      2  O   UNL A   1      36.032  20.993  25.235  1.00  0.00    -0.457 OA
BRANCH   2   3
ATOM      3  C   UNL A   1      35.030  21.787  24.741  1.00  0.00     0.368 C 
ATOM      4  O   UNL A   1      35.139  22.494  23.747  1.00  0.00    -0.245 OA
BRANCH   3   5
ATOM      5  C   UNL A   1      33.760  21.710  25.646  1.00  0.00     0.195 C 
ATOM      6  C   UNL A   1      33.948  22.746  26.764  1.00  0.00     0.082 C 
ATOM      7  C   UNL A   1      32.518  22.210  24.877  1.00  0.00     0.096 C 
ATOM      8  C   UNL A   1      32.571  23.324  27.071  1.00  0.00     0.022 C 
ATOM      9  C   UNL A   1      31.727  23.115  25.816  1.00  0.00     0.059 C 
BRANCH   5  10
ATOM     10  N   UNL A   1      33.548  20.293  26.030  1.00  0.00    -0.332 N 
ATOM     11  H   UNL A   1      34.468  19.870  26.152  1.00  0.00     0.347 HD
ATOM     12  H   UNL A   1      32.970  20.340  26.868  1.00  0.00     0.347 HD
BRANCH  10  13
ATOM     13  C   UNL A   1      32.799  19.445  25.117  1.00  0.00     0.257 C 
ATOM     14  C   UNL A   1      33.698  18.308  24.647  1.00  0.00     0.071 C 
ENDBRANCH  10  13
ENDBRANCH   5  10
BRANCH   9  15
ATOM     15  S   UNL A   1      31.045  24.606  24.979  1.00  0.00    -0.122 SA
BRANCH  15  16
ATOM     16  C   UNL A   1      31.919  25.961  25.756  1.00  0.00     0.010 A 
ATOM     17  C   UNL A   1      31.177  26.742  26.659  1.00  0.00     0.015 A 
ATOM     18  C   UNL A   1      33.234  26.352  25.438  1.00  0.00    -0.038 A 
ATOM     19  C   UNL A   1      31.742  27.846  27.297  1.00  0.00     0.001 A 
ATOM     20  C   UNL A   1      33.800  27.449  26.116  1.00  0.00     0.004 A 
ATOM     21  C   UNL A   1      34.096  25.686  24.399  1.00  0.00     0.045 C 
ATOM     22  C   UNL A   1      33.061  28.190  27.038  1.00  0.00     0.000 A 
ENDBRANCH  15  16
ENDBRANCH   9  15
ENDBRANCH   3   5
ENDBRANCH   2   3
ENDBRANCH   1   2
BRANCH   1  23
ATOM     23  C   UNL A   1      38.347  20.255  25.014  1.00  0.00     0.275 C 
BRANCH  23  24
ATOM     24  O   UNL A   1      39.118  20.329  26.227  1.00  0.00    -0.458 OA
BRANCH  24  25
ATOM     25  C   UNL A   1      40.431  20.030  26.101  1.00  0.00     0.338 C 
ATOM     26  O   UNL A   1      40.927  19.018  25.638  1.00  0.00    -0.246 OA
BRANCH  25  27
ATOM     27  C   UNL A   1      41.237  21.145  26.619  1.00  0.00     0.060 A 
ATOM     28  C   UNL A   1      41.401  21.283  27.996  1.00  0.00     0.016 A 
ATOM     29  C   UNL A   1      41.693  22.136  25.753  1.00  0.00     0.016 A 
ATOM     30  C   UNL A   1      41.955  22.446  28.526  1.00  0.00     0.010 A 
ATOM     31  C   UNL A   1      42.298  23.282  26.279  1.00  0.00     0.010 A 
ATOM     32  C   UNL A   1      42.387  23.469  27.671  1.00  0.00    -0.014 A 
BRANCH  32  33
ATOM     33  C   UNL A   1      42.800  24.787  28.225  1.00  0.00     0.031 A 
ATOM     34  C   UNL A   1      41.753  25.835  28.494  1.00  0.00     0.074 A 
ATOM     35  C   UNL A   1      44.088  25.049  28.512  1.00  0.00     0.049 A 
ATOM     36  N   UNL A   1      41.900  27.089  28.842  1.00  0.00    -0.248 NA
ATOM     37  C   UNL A   1      40.351  25.414  28.340  1.00  0.00     0.031 C 
ATOM     38  C   UNL A   1      45.201  24.114  28.351  1.00  0.00     0.029 A 
ATOM     39  N   UNL A   1      44.674  26.189  29.003  1.00  0.00    -0.354 N 
ATOM     40  C   UNL A   1      40.616  27.618  28.897  1.00  0.00     0.074 A 
ATOM     41  C   UNL A   1      39.703  26.552  28.542  1.00  0.00     0.031 C 
ATOM     42  C   UNL A   1      46.335  24.716  28.746  1.00  0.00     0.029 A 
ATOM     43  C   UNL A   1      46.036  26.091  29.141  1.00  0.00     0.049 A 
ATOM     44  H   UNL A   1      44.165  27.001  29.234  1.00  0.00     0.167 HD
ATOM     45  C   UNL A   1      40.230  28.877  29.215  1.00  0.00     0.037 A 
ATOM     46  C   UNL A   1      46.944  27.010  29.522  1.00  0.00     0.037 A 
ATOM     47  C   UNL A   1      41.127  29.927  29.618  1.00  0.00     0.049 A 
ATOM     48  C   UNL A   1      46.494  28.398  29.881  1.00  0.00     0.074 A 
ATOM     49  C   UNL A   1      40.830  31.236  29.957  1.00  0.00     0.029 A 
ATOM     50  N   UNL A   1      42.499  29.780  29.757  1.00  0.00    -0.354 N 
ATOM     51  N   UNL A   1      45.285  28.903  29.877  1.00  0.00    -0.248 NA
ATOM     52  C   UNL A   1      47.539  29.347  30.293  1.00  0.00     0.031 C 
ATOM     53  C   UNL A   1      42.025  31.886  30.286  1.00  0.00     0.029 A 
ATOM     54  C   UNL A   1      43.062  30.972  30.179  1.00  0.00     0.049 A 
ATOM     55  H   UNL A   1      42.998  28.950  29.580  1.00  0.00     0.167 HD
ATOM     56  C   UNL A   1      45.419  30.220  30.297  1.00  0.00     0.074 A 
ATOM     57  C   UNL A   1      46.828  30.433  30.562  1.00  0.00     0.031 C 
ATOM     58  C   UNL A   1      44.462  31.167  30.446  1.00  0.00     0.037 A 
BRANCH  45  59
ATOM     59  C   UNL A   1      38.768  29.188  29.103  1.00  0.00     0.057 A 
ATOM     60  C   UNL A   1      37.906  29.114  30.205  1.00  0.00     0.134 A 
ATOM     61  C   UNL A   1      38.215  29.560  27.872  1.00  0.00     0.134 A 
ATOM     62  F   UNL A   1      38.372  28.746  31.408  1.00  0.00    -0.206 F 
ATOM     63  C   UNL A   1      36.539  29.372  30.078  1.00  0.00     0.040 A 
ATOM     64  C   UNL A   1      36.855  29.842  27.737  1.00  0.00     0.040 A 
ATOM     65  F   UNL A   1      38.988  29.651  26.778  1.00  0.00    -0.206 F 
ATOM     66  C   UNL A   1      36.012  29.740  28.842  1.00  0.00     0.006 A 
ENDBRANCH  45  59
BRANCH  46  67
ATOM     67  C   UNL A   1      48.379  26.643  29.568  1.00  0.00     0.057 A 
ATOM     68  C   UNL A   1      49.230  26.915  28.491  1.00  0.00     0.134 A 
ATOM     69  C   UNL A   1      48.935  26.026  30.694  1.00  0.00     0.134 A 
ATOM     70  F   UNL A   1      48.747  27.483  27.376  1.00  0.00    -0.206 F 
ATOM     71  C   UNL A   1      50.584  26.581  28.530  1.00  0.00     0.040 A 
ATOM     72  C   UNL A   1      50.291  25.704  30.754  1.00  0.00     0.040 A 
ATOM     73  F   UNL A   1      48.169  25.740  31.757  1.00  0.00    -0.206 F 
ATOM     74  C   UNL A   1      51.119  25.979  29.667  1.00  0.00     0.006 A 
ENDBRANCH  46  67
BRANCH  58  75
ATOM     75  C   UNL A   1      44.902  32.510  30.946  1.00  0.00     0.057 A 
ATOM     76  C   UNL A   1      45.270  33.538  30.070  1.00  0.00     0.134 A 
ATOM     77  C   UNL A   1      44.929  32.786  32.319  1.00  0.00     0.134 A 
ATOM     78  F   UNL A   1      45.276  33.332  28.744  1.00  0.00    -0.206 F 
ATOM     79  C   UNL A   1      45.669  34.790  30.543  1.00  0.00     0.040 A 
ATOM     80  C   UNL A   1      45.308  34.039  32.802  1.00  0.00     0.040 A 
ATOM     81  F   UNL A   1      44.582  31.845  33.210  1.00  0.00    -0.206 F 
ATOM     82  C   UNL A   1      45.683  35.043  31.913  1.00  0.00     0.006 A 
ENDBRANCH  58  75
ENDBRANCH  32  33
ENDBRANCH  25  27
ENDBRANCH  24  25
ENDBRANCH  23  24
ENDBRANCH   1  23
TORSDOF 15
ENDMDL
MODEL 2
REMARK VINA RESULT:     -10.4      1.986      2.623
REMARK SMILES CC[NH2+][C@]1(C(=O)OCCOC(=O)c2ccc(-c3c4nc(c(-c5c(F)cccc5F)c5ccc([nH]5)c(-c5c(F)cccc5F)c5nc(c(-c6c(F)cccc6F)c6ccc3[nH]6)C=C5)C=C4)cc2)CC[C@@H](Sc2ccccc2C)C1
REMARK SMILES IDX 8 1 7 2 5 3 6 4 4 5 67 6 78 7 68 8 69 9 3 10 2 13 1 14 70 15
REMARK SMILES IDX 71 16 72 17 76 18 73 19 75 20 77 21 74 22 9 23 10 24 11 25
REMARK SMILES IDX 12 26 13 27 14 28 66 29 15 30 65 31 16 32 17 33 18 34 59 35
REMARK SMILES IDX 19 36 64 37 58 38 60 39 20 40 63 41 57 42 56 43 21 45 47 46
REMARK SMILES IDX 30 47 46 48 31 49 34 50 45 51 61 52 32 53 33 54 44 56 62 57
REMARK SMILES IDX 35 58 22 59 23 60 28 61 24 62 25 63 27 64 29 65 26 66 48 67
REMARK SMILES IDX 49 68 54 69 50 70 51 71 53 72 55 73 52 74 36 75 37 76 42 77
REMARK SMILES IDX 38 78 39 79 41 80 43 81 40 82
REMARK H PARENT 3 11 3 12 60 44 34 55
REMARK Flexibility Score: inf
ROOT
ATOM      1  C   UNL A   1      36.117  19.827  24.994  1.00  0.00     0.274 C 
ENDROOT
BRANCH   1   2
ATOM      2  O   UNL A   1      35.253  20.958  24.768  1.00  0.00    -0.457 OA
BRANCH   2   3
ATOM      3  C   UNL A   1      34.411  21.279  25.803  1.00  0.00     0.368 C 
ATOM      4  O   UNL A   1      34.781  21.478  26.953  1.00  0.00    -0.245 OA
BRANCH   3   5
ATOM      5  C   UNL A   1      32.925  21.298  25.326  1.00  0.00     0.195 C 
ATOM      6  C   UNL A   1      32.177  22.278  26.243  1.00  0.00     0.082 C 
ATOM      7  C   UNL A   1      32.816  21.940  23.925  1.00  0.00     0.096 C 
ATOM      8  C   UNL A   1      31.129  22.978  25.387  1.00  0.00     0.022 C 
ATOM      9  C   UNL A   1      31.623  22.890  23.944  1.00  0.00     0.059 C 
BRANCH   5  10
ATOM     10  N   UNL A   1      32.442  19.898  25.250  1.00  0.00    -0.332 N 
ATOM     11  H   UNL A   1      33.002  19.347  25.900  1.00  0.00     0.347 HD
ATOM     12  H   UNL A   1      31.447  19.960  25.467  1.00  0.00     0.347 HD
BRANCH  10  13
ATOM     13  C   UNL A   1      32.492  19.230  23.960  1.00  0.00     0.257 C 
ATOM     14  C   UNL A   1      33.242  17.913  24.114  1.00  0.00     0.071 C 
ENDBRANCH  10  13
ENDBRANCH   5  10
BRANCH   9  15
ATOM     15  S   UNL A   1      31.938  24.465  23.045  1.00  0.00    -0.122 SA
BRANCH  15  16
ATOM     16  C   UNL A   1      32.230  25.648  24.357  1.00  0.00     0.010 A 
ATOM     17  C   UNL A   1      31.206  26.581  24.591  1.00  0.00     0.015 A 
ATOM     18  C   UNL A   1      33.438  25.768  25.069  1.00  0.00    -0.038 A 
ATOM     19  C   UNL A   1      31.337  27.573  25.562  1.00  0.00     0.001 A 
ATOM     20  C   UNL A   1      33.542  26.754  26.070  1.00  0.00     0.004 A 
ATOM     21  C   UNL A   1      34.660  24.921  24.832  1.00  0.00     0.045 C 
ATOM     22  C   UNL A   1      32.500  27.648  26.315  1.00  0.00     0.000 A 
ENDBRANCH  15  16
ENDBRANCH   9  15
ENDBRANCH   3   5
ENDBRANCH   2   3
ENDBRANCH   1   2
BRANCH   1  23
ATOM     23  C   UNL A   1      37.562  20.179  24.652  1.00  0.00     0.275 C 
BRANCH  23  24
ATOM     24  O   UNL A   1      38.020  21.243  25.506  1.00  0.00    -0.458 OA
BRANCH  24  25
ATOM     25  C   UNL A   1      39.227  21.046  26.084  1.00  0.00     0.338 C 
ATOM     26  O   UNL A   1      39.889  20.024  26.105  1.00  0.00    -0.246 OA
BRANCH  25  27
ATOM     27  C   UNL A   1      39.672  22.295  26.719  1.00  0.00     0.060 A 
ATOM     28  C   UNL A   1      39.115  23.503  26.305  1.00  0.00     0.016 A 
ATOM     29  C   UNL A   1      40.746  22.282  27.606  1.00  0.00     0.016 A 
ATOM     30  C   UNL A   1      39.673  24.713  26.715  1.00  0.00     0.010 A 
ATOM     31  C   UNL A   1      41.276  23.494  28.059  1.00  0.00     0.010 A 
ATOM     32  C   UNL A   1      40.777  24.719  27.577  1.00  0.00    -0.014 A 
BRANCH  32  33
ATOM     33  C   UNL A   1      41.498  25.987  27.866  1.00  0.00     0.031 A 
ATOM     34  C   UNL A   1      40.812  27.058  28.672  1.00  0.00     0.074 A 
ATOM     35  C   UNL A   1      42.760  26.183  27.442  1.00  0.00     0.049 A 
ATOM     36  N   UNL A   1      41.196  28.285  28.923  1.00  0.00    -0.248 NA
ATOM     37  C   UNL A   1      39.514  26.702  29.264  1.00  0.00     0.031 C 
ATOM     38  C   UNL A   1      43.565  25.216  26.697  1.00  0.00     0.029 A 
ATOM     39  N   UNL A   1      43.585  27.272  27.583  1.00  0.00    -0.354 N 
ATOM     40  C   UNL A   1      40.166  28.860  29.657  1.00  0.00     0.074 A 
ATOM     41  C   UNL A   1      39.138  27.851  29.806  1.00  0.00     0.031 C 
ATOM     42  C   UNL A   1      44.773  25.751  26.455  1.00  0.00     0.029 A 
ATOM     43  C   UNL A   1      44.810  27.113  26.984  1.00  0.00     0.049 A 
ATOM     44  H   UNL A   1      43.323  28.088  28.067  1.00  0.00     0.167 HD
ATOM     45  C   UNL A   1      40.080  30.114  30.163  1.00  0.00     0.037 A 
ATOM     46  C   UNL A   1      45.837  27.974  26.856  1.00  0.00     0.037 A 
ATOM     47  C   UNL A   1      41.119  31.104  30.064  1.00  0.00     0.049 A 
ATOM     48  C   UNL A   1      45.728  29.358  27.434  1.00  0.00     0.074 A 
ATOM     49  C   UNL A   1      41.123  32.404  30.543  1.00  0.00     0.029 A 
ATOM     50  N   UNL A   1      42.349  30.897  29.459  1.00  0.00    -0.354 N 
ATOM     51  N   UNL A   1      44.728  29.908  28.078  1.00  0.00    -0.248 NA
ATOM     52  C   UNL A   1      46.890  30.242  27.262  1.00  0.00     0.031 C 
ATOM     53  C   UNL A   1      42.352  32.988  30.213  1.00  0.00     0.029 A 
ATOM     54  C   UNL A   1      43.121  32.042  29.554  1.00  0.00     0.049 A 
ATOM     55  H   UNL A   1      42.630  30.060  29.026  1.00  0.00     0.167 HD
ATOM     56  C   UNL A   1      45.143  31.194  28.399  1.00  0.00     0.074 A 
ATOM     57  C   UNL A   1      46.492  31.337  27.892  1.00  0.00     0.031 C 
ATOM     58  C   UNL A   1      44.464  32.168  29.053  1.00  0.00     0.037 A 
BRANCH  45  59
ATOM     59  C   UNL A   1      38.797  30.487  30.843  1.00  0.00     0.057 A 
ATOM     60  C   UNL A   1      38.598  30.287  32.215  1.00  0.00     0.134 A 
ATOM     61  C   UNL A   1      37.745  31.047  30.110  1.00  0.00     0.134 A 
ATOM     62  F   UNL A   1      39.562  29.737  32.969  1.00  0.00    -0.206 F 
ATOM     63  C   UNL A   1      37.384  30.606  32.828  1.00  0.00     0.040 A 
ATOM     64  C   UNL A   1      36.535  31.391  30.715  1.00  0.00     0.040 A 
ATOM     65  F   UNL A   1      37.873  31.265  28.792  1.00  0.00    -0.206 F 
ATOM     66  C   UNL A   1      36.350  31.163  32.077  1.00  0.00     0.006 A 
ENDBRANCH  45  59
BRANCH  46  67
ATOM     67  C   UNL A   1      47.060  27.551  26.134  1.00  0.00     0.057 A 
ATOM     68  C   UNL A   1      47.160  27.680  24.744  1.00  0.00     0.134 A 
ATOM     69  C   UNL A   1      48.160  27.020  26.816  1.00  0.00     0.134 A 
ATOM     70  F   UNL A   1      46.127  28.159  24.035  1.00  0.00    -0.206 F 
ATOM     71  C   UNL A   1      48.310  27.291  24.057  1.00  0.00     0.040 A 
ATOM     72  C   UNL A   1      49.324  26.646  26.145  1.00  0.00     0.040 A 
ATOM     73  F   UNL A   1      48.123  26.872  28.149  1.00  0.00    -0.206 F 
ATOM     74  C   UNL A   1      49.399  26.778  24.759  1.00  0.00     0.006 A 
ENDBRANCH  46  67
BRANCH  58  75
ATOM     75  C   UNL A   1      45.182  33.464  29.283  1.00  0.00     0.057 A 
ATOM     76  C   UNL A   1      45.952  33.685  30.431  1.00  0.00     0.134 A 
ATOM     77  C   UNL A   1      45.125  34.489  28.331  1.00  0.00     0.134 A 
ATOM     78  F   UNL A   1      46.036  32.746  31.385  1.00  0.00    -0.206 F 
ATOM     79  C   UNL A   1      46.627  34.891  30.633  1.00  0.00     0.040 A 
ATOM     80  C   UNL A   1      45.810  35.691  28.513  1.00  0.00     0.040 A 
ATOM     81  F   UNL A   1      44.409  34.336  27.207  1.00  0.00    -0.206 F 
ATOM     82  C   UNL A   1      46.560  35.895  29.669  1.00  0.00     0.006 A 
ENDBRANCH  58  75
ENDBRANCH  32  33
ENDBRANCH  25  27
ENDBRANCH  24  25
ENDBRANCH  23  24
ENDBRANCH   1  23
TORSDOF 15
ENDMDL
MODEL 3
REMARK VINA RESULT:     -10.4      1.947      6.353
REMARK SMILES CC[NH2+][C@]1(C(=O)OCCOC(=O)c2ccc(-c3c4nc(c(-c5c(F)cccc5F)c5ccc([nH]5)c(-c5c(F)cccc5F)c5nc(c(-c6c(F)cccc6F)c6ccc3[nH]6)C=C5)C=C4)cc2)CC[C@@H](Sc2ccccc2C)C1
REMARK SMILES IDX 8 1 7 2 5 3 6 4 4 5 67 6 78 7 68 8 69 9 3 10 2 13 1 14 70 15
REMARK SMILES IDX 71 16 72 17 76 18 73 19 75 20 77 21 74 22 9 23 10 24 11 25
REMARK SMILES IDX 12 26 13 27 14 28 66 29 15 30 65 31 16 32 17 33 18 34 59 35
REMARK SMILES IDX 19 36 64 37 58 38 60 39 20 40 63 41 57 42 56 43 21 45 47 46
REMARK SMILES IDX 30 47 46 48 31 49 34 50 45 51 61 52 32 53 33 54 44 56 62 57
REMARK SMILES IDX 35 58 22 59 23 60 28 61 24 62 25 63 27 64 29 65 26 66 48 67
REMARK SMILES IDX 49 68 54 69 50 70 51 71 53 72 55 73 52 74 36 75 37 76 42 77
REMARK SMILES IDX 38 78 39 79 41 80 43 81 40 82
REMARK H PARENT 3 11 3 12 60 44 34 55
REMARK Flexibility Score: inf
ROOT
ATOM      1  C   UNL A   1      37.035  21.148  24.449  1.00  0.00     0.274 C 
ENDROOT
BRANCH   1   2
ATOM      2  O   UNL A   1      35.678  20.918  24.876  1.00  0.00    -0.457 OA
BRANCH   2   3
ATOM      3  C   UNL A   1      35.178  21.822  25.778  1.00  0.00     0.368 C 
ATOM      4  O   UNL A   1      35.844  22.695  26.318  1.00  0.00    -0.245 OA
BRANCH   3   5
ATOM      5  C   UNL A   1      33.666  21.548  26.060  1.00  0.00     0.195 C 
ATOM      6  C   UNL A   1      33.250  22.489  27.201  1.00  0.00     0.082 C 
ATOM      7  C   UNL A   1      32.803  22.005  24.864  1.00  0.00     0.096 C 
ATOM      8  C   UNL A   1      31.811  22.911  26.926  1.00  0.00     0.022 C 
ATOM      9  C   UNL A   1      31.593  22.746  25.423  1.00  0.00     0.059 C 
BRANCH   5  10
ATOM     10  N   UNL A   1      33.486  20.089  26.251  1.00  0.00    -0.332 N 
ATOM     11  H   UNL A   1      34.413  19.664  26.242  1.00  0.00     0.347 HD
ATOM     12  H   UNL A   1      32.972  20.008  27.129  1.00  0.00     0.347 HD
BRANCH  10  13
ATOM     13  C   UNL A   1      32.670  19.371  25.285  1.00  0.00     0.257 C 
ATOM     14  C   UNL A   1      33.521  18.292  24.625  1.00  0.00     0.071 C 
ENDBRANCH  10  13
ENDBRANCH   5  10
BRANCH   9  15
ATOM     15  S   UNL A   1      31.146  24.242  24.449  1.00  0.00    -0.122 SA
BRANCH  15  16
ATOM     16  C   UNL A   1      31.863  25.586  25.388  1.00  0.00     0.010 A 
ATOM     17  C   UNL A   1      30.965  26.378  26.123  1.00  0.00     0.015 A 
ATOM     18  C   UNL A   1      33.220  25.958  25.342  1.00  0.00    -0.038 A 
ATOM     19  C   UNL A   1      31.404  27.476  26.863  1.00  0.00     0.001 A 
ATOM     20  C   UNL A   1      33.653  27.048  26.122  1.00  0.00     0.004 A 
ATOM     21  C   UNL A   1      34.266  25.278  24.498  1.00  0.00     0.045 C 
ATOM     22  C   UNL A   1      32.754  27.801  26.877  1.00  0.00     0.000 A 
ENDBRANCH  15  16
ENDBRANCH   9  15
ENDBRANCH   3   5
ENDBRANCH   2   3
ENDBRANCH   1   2
BRANCH   1  23
ATOM     23  C   UNL A   1      37.954  20.043  24.964  1.00  0.00     0.275 C 
BRANCH  23  24
ATOM     24  O   UNL A   1      38.458  20.393  26.265  1.00  0.00    -0.458 OA
BRANCH  24  25
ATOM     25  C   UNL A   1      39.796  20.576  26.341  1.00  0.00     0.338 C 
ATOM     26  O   UNL A   1      40.677  19.805  26.006  1.00  0.00    -0.246 OA
BRANCH  25  27
ATOM     27  C   UNL A   1      40.073  21.903  26.909  1.00  0.00     0.060 A 
ATOM     28  C   UNL A   1      39.325  22.997  26.479  1.00  0.00     0.016 A 
ATOM     29  C   UNL A   1      41.173  22.087  27.745  1.00  0.00     0.016 A 
ATOM     30  C   UNL A   1      39.712  24.292  26.818  1.00  0.00     0.010 A 
ATOM     31  C   UNL A   1      41.533  23.382  28.130  1.00  0.00     0.010 A 
ATOM     32  C   UNL A   1      40.836  24.498  27.628  1.00  0.00    -0.014 A 
BRANCH  32  33
ATOM     33  C   UNL A   1      41.370  25.870  27.837  1.00  0.00     0.031 A 
ATOM     34  C   UNL A   1      42.727  26.226  27.290  1.00  0.00     0.074 A 
ATOM     35  C   UNL A   1      40.651  26.806  28.485  1.00  0.00     0.049 A 
ATOM     36  N   UNL A   1      43.441  27.309  27.472  1.00  0.00    -0.248 NA
ATOM     37  C   UNL A   1      43.370  25.220  26.430  1.00  0.00     0.031 C 
ATOM     38  C   UNL A   1      39.305  26.619  29.025  1.00  0.00     0.029 A 
ATOM     39  N   UNL A   1      40.963  28.106  28.798  1.00  0.00    -0.354 N 
ATOM     40  C   UNL A   1      44.634  27.093  26.794  1.00  0.00     0.074 A 
ATOM     41  C   UNL A   1      44.551  25.774  26.202  1.00  0.00     0.031 C 
ATOM     42  C   UNL A   1      38.902  27.768  29.593  1.00  0.00     0.029 A 
ATOM     43  C   UNL A   1      39.977  28.753  29.501  1.00  0.00     0.049 A 
ATOM     44  H   UNL A   1      41.813  28.533  28.542  1.00  0.00     0.167 HD
ATOM     45  C   UNL A   1      45.703  27.915  26.673  1.00  0.00     0.037 A 
ATOM     46  C   UNL A   1      39.951  29.991  30.030  1.00  0.00     0.037 A 
ATOM     47  C   UNL A   1      45.772  29.246  27.216  1.00  0.00     0.049 A 
ATOM     48  C   UNL A   1      41.144  30.893  29.876  1.00  0.00     0.074 A 
ATOM     49  C   UNL A   1      46.814  30.155  27.147  1.00  0.00     0.029 A 
ATOM     50  N   UNL A   1      44.745  29.867  27.910  1.00  0.00    -0.354 N 
ATOM     51  N   UNL A   1      42.287  30.659  29.280  1.00  0.00    -0.248 NA
ATOM     52  C   UNL A   1      41.042  32.233  30.474  1.00  0.00     0.031 C 
ATOM     53  C   UNL A   1      46.423  31.321  27.816  1.00  0.00     0.029 A 
ATOM     54  C   UNL A   1      45.127  31.147  28.274  1.00  0.00     0.049 A 
ATOM     55  H   UNL A   1      43.874  29.457  28.115  1.00  0.00     0.167 HD
ATOM     56  C   UNL A   1      43.035  31.821  29.418  1.00  0.00     0.074 A 
ATOM     57  C   UNL A   1      42.210  32.766  30.142  1.00  0.00     0.031 C 
ATOM     58  C   UNL A   1      44.293  32.079  28.987  1.00  0.00     0.037 A 
BRANCH  45  59
ATOM     59  C   UNL A   1      46.899  27.375  25.949  1.00  0.00     0.057 A 
ATOM     60  C   UNL A   1      47.073  27.547  24.570  1.00  0.00     0.134 A 
ATOM     61  C   UNL A   1      47.886  26.665  26.643  1.00  0.00     0.134 A 
ATOM     62  F   UNL A   1      46.153  28.202  23.845  1.00  0.00    -0.206 F 
ATOM     63  C   UNL A   1      48.174  27.007  23.902  1.00  0.00     0.040 A 
ATOM     64  C   UNL A   1      49.002  26.139  25.991  1.00  0.00     0.040 A 
ATOM     65  F   UNL A   1      47.779  26.467  27.966  1.00  0.00    -0.206 F 
ATOM     66  C   UNL A   1      49.144  26.304  24.614  1.00  0.00     0.006 A 
ENDBRANCH  45  59
BRANCH  46  67
ATOM     67  C   UNL A   1      38.751  30.444  30.771  1.00  0.00     0.057 A 
ATOM     68  C   UNL A   1      38.608  30.191  32.140  1.00  0.00     0.134 A 
ATOM     69  C   UNL A   1      37.726  31.150  30.132  1.00  0.00     0.134 A 
ATOM     70  F   UNL A   1      39.547  29.497  32.800  1.00  0.00    -0.206 F 
ATOM     71  C   UNL A   1      37.484  30.621  32.846  1.00  0.00     0.040 A 
ATOM     72  C   UNL A   1      36.606  31.602  30.830  1.00  0.00     0.040 A 
ATOM     73  F   UNL A   1      37.807  31.422  28.821  1.00  0.00    -0.206 F 
ATOM     74  C   UNL A   1      36.482  31.335  32.192  1.00  0.00     0.006 A 
ENDBRANCH  46  67
BRANCH  58  75
ATOM     75  C   UNL A   1      44.842  33.447  29.260  1.00  0.00     0.057 A 
ATOM     76  C   UNL A   1      45.623  33.715  30.390  1.00  0.00     0.134 A 
ATOM     77  C   UNL A   1      44.609  34.499  28.366  1.00  0.00     0.134 A 
ATOM     78  F   UNL A   1      45.871  32.751  31.290  1.00  0.00    -0.206 F 
ATOM     79  C   UNL A   1      46.140  34.990  30.632  1.00  0.00     0.040 A 
ATOM     80  C   UNL A   1      45.136  35.772  28.588  1.00  0.00     0.040 A 
ATOM     81  F   UNL A   1      43.874  34.305  27.261  1.00  0.00    -0.206 F 
ATOM     82  C   UNL A   1      45.900  36.021  29.726  1.00  0.00     0.006 A 
ENDBRANCH  58  75
ENDBRANCH  32  33
ENDBRANCH  25  27
ENDBRANCH  24  25
ENDBRANCH  23  24
ENDBRANCH   1  23
TORSDOF 15
ENDMDL
