MODEL 1
REMARK VINA RESULT:     -11.2      0.000      0.000
REMARK SMILES O=C(OCCOC(=O)c1cc(=O)[nH]c2c(Br)cccc12)c1ccc(-c2c3nc(c(-c4c(F)cccc4F)c4ccc([nH]4)c(-c4c(F)cccc4F)c4nc(c(-c5c(F)cccc5F)c5ccc2[nH]5)C=C4)C=C3)cc1
REMARK SMILES IDX 4 1 3 2 2 3 1 4 21 5 22 6 74 7 23 8 73 9 24 10 25 11 26 12
REMARK SMILES IDX 67 13 27 14 72 15 66 16 68 17 28 18 71 19 65 20 64 21 29 23
REMARK SMILES IDX 55 24 38 25 54 26 39 27 42 28 53 29 69 30 40 31 41 32 52 34
REMARK SMILES IDX 70 35 43 36 30 37 31 38 36 39 32 40 33 41 35 42 37 43 34 44
REMARK SMILES IDX 56 45 57 46 62 47 58 48 59 49 61 50 63 51 60 52 44 53 45 54
REMARK SMILES IDX 50 55 46 56 47 57 49 58 51 59 48 60 5 61 6 62 7 63 8 64 9 65
REMARK SMILES IDX 10 66 20 67 11 68 14 69 19 70 12 71 13 72 15 73 18 74 16 76
REMARK SMILES IDX 17 77
REMARK H PARENT 68 22 42 33 13 75
REMARK Flexibility Score: inf
ROOT
ATOM      1  C   UNL A   1      31.398  32.314  26.888  1.00  0.00     0.275 C 
ENDROOT
BRANCH   1   2
ATOM      2  O   UNL A   1      32.274  33.452  26.909  1.00  0.00    -0.458 OA
BRANCH   2   3
ATOM      3  C   UNL A   1      32.894  33.984  27.993  1.00  0.00     0.338 C 
ATOM      4  O   UNL A   1      32.530  35.072  28.431  1.00  0.00    -0.246 OA
BRANCH   3   5
ATOM      5  C   UNL A   1      34.177  33.413  28.498  1.00  0.00     0.060 A 
ATOM      6  C   UNL A   1      34.057  32.383  29.439  1.00  0.00     0.016 A 
ATOM      7  C   UNL A   1      35.462  33.802  28.112  1.00  0.00     0.016 A 
ATOM      8  C   UNL A   1      35.179  31.873  30.095  1.00  0.00     0.010 A 
ATOM      9  C   UNL A   1      36.593  33.268  28.745  1.00  0.00     0.010 A 
ATOM     10  C   UNL A   1      36.463  32.323  29.765  1.00  0.00    -0.014 A 
BRANCH  10  11
ATOM     11  C   UNL A   1      37.656  31.678  30.364  1.00  0.00     0.031 A 
ATOM     12  C   UNL A   1      38.421  30.583  29.669  1.00  0.00     0.074 A 
ATOM     13  C   UNL A   1      38.035  32.084  31.590  1.00  0.00     0.049 A 
ATOM     14  N   UNL A   1      39.552  30.025  30.025  1.00  0.00    -0.248 NA
ATOM     15  C   UNL A   1      37.872  30.065  28.410  1.00  0.00     0.031 C 
ATOM     16  C   UNL A   1      37.366  33.120  32.384  1.00  0.00     0.029 A 
ATOM     17  N   UNL A   1      39.049  31.647  32.401  1.00  0.00    -0.354 N 
ATOM     18  C   UNL A   1      39.906  29.182  28.976  1.00  0.00     0.074 A 
ATOM     19  C   UNL A   1      38.832  29.236  28.012  1.00  0.00     0.031 C 
ATOM     20  C   UNL A   1      37.963  33.210  33.579  1.00  0.00     0.029 A 
ATOM     21  C   UNL A   1      39.011  32.203  33.654  1.00  0.00     0.049 A 
ATOM     22  H   UNL A   1      39.733  31.001  32.113  1.00  0.00     0.167 HD
ATOM     23  C   UNL A   1      41.028  28.438  28.835  1.00  0.00     0.037 A 
ATOM     24  C   UNL A   1      39.698  31.886  34.765  1.00  0.00     0.037 A 
ATOM     25  C   UNL A   1      41.986  28.227  29.887  1.00  0.00     0.049 A 
ATOM     26  C   UNL A   1      40.746  30.815  34.686  1.00  0.00     0.074 A 
ATOM     27  C   UNL A   1      43.127  27.443  29.877  1.00  0.00     0.029 A 
ATOM     28  N   UNL A   1      41.858  28.734  31.169  1.00  0.00    -0.354 N 
ATOM     29  N   UNL A   1      41.170  30.153  33.637  1.00  0.00    -0.248 NA
ATOM     30  C   UNL A   1      41.407  30.444  35.942  1.00  0.00     0.031 C 
ATOM     31  C   UNL A   1      43.619  27.384  31.186  1.00  0.00     0.029 A 
ATOM     32  C   UNL A   1      42.834  28.196  31.988  1.00  0.00     0.049 A 
ATOM     33  H   UNL A   1      41.173  29.382  31.456  1.00  0.00     0.167 HD
ATOM     34  C   UNL A   1      42.178  29.318  34.099  1.00  0.00     0.074 A 
ATOM     35  C   UNL A   1      42.297  29.556  35.523  1.00  0.00     0.031 C 
ATOM     36  C   UNL A   1      42.943  28.443  33.402  1.00  0.00     0.037 A 
BRANCH  23  37
ATOM     37  C   UNL A   1      41.264  27.747  27.525  1.00  0.00     0.057 A 
ATOM     38  C   UNL A   1      40.837  26.431  27.313  1.00  0.00     0.134 A 
ATOM     39  C   UNL A   1      42.013  28.357  26.511  1.00  0.00     0.134 A 
ATOM     40  F   UNL A   1      40.130  25.786  28.253  1.00  0.00    -0.206 F 
ATOM     41  C   UNL A   1      41.153  25.741  26.140  1.00  0.00     0.040 A 
ATOM     42  C   UNL A   1      42.322  27.682  25.326  1.00  0.00     0.040 A 
ATOM     43  F   UNL A   1      42.482  29.604  26.665  1.00  0.00    -0.206 F 
ATOM     44  C   UNL A   1      41.898  26.367  25.142  1.00  0.00     0.006 A 
ENDBRANCH  23  37
BRANCH  24  45
ATOM     45  C   UNL A   1      39.350  32.530  36.055  1.00  0.00     0.057 A 
ATOM     46  C   UNL A   1      39.958  33.732  36.445  1.00  0.00     0.134 A 
ATOM     47  C   UNL A   1      38.397  31.981  36.915  1.00  0.00     0.134 A 
ATOM     48  F   UNL A   1      40.888  34.308  35.665  1.00  0.00    -0.206 F 
ATOM     49  C   UNL A   1      39.635  34.361  37.646  1.00  0.00     0.040 A 
ATOM     50  C   UNL A   1      38.039  32.616  38.105  1.00  0.00     0.040 A 
ATOM     51  F   UNL A   1      37.770  30.840  36.589  1.00  0.00    -0.206 F 
ATOM     52  C   UNL A   1      38.662  33.808  38.474  1.00  0.00     0.006 A 
ENDBRANCH  24  45
BRANCH  36  53
ATOM     53  C   UNL A   1      44.006  27.710  34.162  1.00  0.00     0.057 A 
ATOM     54  C   UNL A   1      45.276  28.278  34.326  1.00  0.00     0.134 A 
ATOM     55  C   UNL A   1      43.790  26.435  34.697  1.00  0.00     0.134 A 
ATOM     56  F   UNL A   1      45.548  29.496  33.831  1.00  0.00    -0.206 F 
ATOM     57  C   UNL A   1      46.297  27.599  34.988  1.00  0.00     0.040 A 
ATOM     58  C   UNL A   1      44.795  25.759  35.388  1.00  0.00     0.040 A 
ATOM     59  F   UNL A   1      42.590  25.846  34.588  1.00  0.00    -0.206 F 
ATOM     60  C   UNL A   1      46.056  26.337  35.527  1.00  0.00     0.006 A 
ENDBRANCH  36  53
ENDBRANCH  10  11
ENDBRANCH   3   5
ENDBRANCH   2   3
ENDBRANCH   1   2
BRANCH   1  61
ATOM     61  C   UNL A   1      32.024  31.047  26.301  1.00  0.00     0.275 C 
BRANCH  61  62
ATOM     62  O   UNL A   1      32.365  30.057  27.284  1.00  0.00    -0.458 OA
BRANCH  62  63
ATOM     63  C   UNL A   1      33.391  29.225  26.946  1.00  0.00     0.339 C 
ATOM     64  O   UNL A   1      34.566  29.377  27.243  1.00  0.00    -0.246 OA
BRANCH  63  65
ATOM     65  C   UNL A   1      32.871  28.051  26.208  1.00  0.00     0.074 A 
ATOM     66  C   UNL A   1      32.212  27.131  26.929  1.00  0.00     0.088 A 
ATOM     67  C   UNL A   1      33.072  27.848  24.760  1.00  0.00     0.014 A 
ATOM     68  C   UNL A   1      31.712  25.890  26.306  1.00  0.00     0.249 A 
ATOM     69  C   UNL A   1      32.762  26.586  24.216  1.00  0.00     0.063 A 
ATOM     70  C   UNL A   1      33.653  28.816  23.930  1.00  0.00     0.011 A 
ATOM     71  O   UNL A   1      31.006  25.124  26.948  1.00  0.00    -0.270 OA
ATOM     72  N   UNL A   1      32.106  25.643  25.025  1.00  0.00    -0.321 N 
ATOM     73  C   UNL A   1      33.106  26.282  22.892  1.00  0.00     0.042 A 
ATOM     74  C   UNL A   1      33.969  28.516  22.602  1.00  0.00     0.002 A 
ATOM     75  H   UNL A   1      31.923  24.754  24.646  1.00  0.00     0.170 HD
ATOM     76  Br  UNL A   1      32.822  24.551  22.165  1.00  0.00    -0.049 Br
ATOM     77  C   UNL A   1      33.716  27.244  22.088  1.00  0.00     0.018 A 
ENDBRANCH  63  65
ENDBRANCH  62  63
ENDBRANCH  61  62
ENDBRANCH   1  61
TORSDOF 11
ENDMDL
MODEL 2
REMARK VINA RESULT:     -11.2      3.671      6.139
REMARK SMILES O=C(OCCOC(=O)c1cc(=O)[nH]c2c(Br)cccc12)c1ccc(-c2c3nc(c(-c4c(F)cccc4F)c4ccc([nH]4)c(-c4c(F)cccc4F)c4nc(c(-c5c(F)cccc5F)c5ccc2[nH]5)C=C4)C=C3)cc1
REMARK SMILES IDX 4 1 3 2 2 3 1 4 21 5 22 6 74 7 23 8 73 9 24 10 25 11 26 12
REMARK SMILES IDX 67 13 27 14 72 15 66 16 68 17 28 18 71 19 65 20 64 21 29 23
REMARK SMILES IDX 55 24 38 25 54 26 39 27 42 28 53 29 69 30 40 31 41 32 52 34
REMARK SMILES IDX 70 35 43 36 30 37 31 38 36 39 32 40 33 41 35 42 37 43 34 44
REMARK SMILES IDX 56 45 57 46 62 47 58 48 59 49 61 50 63 51 60 52 44 53 45 54
REMARK SMILES IDX 50 55 46 56 47 57 49 58 51 59 48 60 5 61 6 62 7 63 8 64 9 65
REMARK SMILES IDX 10 66 20 67 11 68 14 69 19 70 12 71 13 72 15 73 18 74 16 76
REMARK SMILES IDX 17 77
REMARK H PARENT 68 22 42 33 13 75
REMARK Flexibility Score: inf
ROOT
ATOM      1  C   UNL A   1      35.155  33.066  27.911  1.00  0.00     0.275 C 
ENDROOT
BRANCH   1   2
ATOM      2  O   UNL A   1      34.237  32.000  27.622  1.00  0.00    -0.458 OA
BRANCH   2   3
ATOM      3  C   UNL A   1      34.511  30.671  27.598  1.00  0.00     0.338 C 
ATOM      4  O   UNL A   1      33.596  29.862  27.468  1.00  0.00    -0.246 OA
BRANCH   3   5
ATOM      5  C   UNL A   1      35.855  30.160  27.997  1.00  0.00     0.060 A 
ATOM      6  C   UNL A   1      35.938  29.599  29.278  1.00  0.00     0.016 A 
ATOM      7  C   UNL A   1      37.012  30.182  27.215  1.00  0.00     0.016 A 
ATOM      8  C   UNL A   1      37.168  29.224  29.820  1.00  0.00     0.010 A 
ATOM      9  C   UNL A   1      38.244  29.775  27.745  1.00  0.00     0.010 A 
ATOM     10  C   UNL A   1      38.341  29.323  29.063  1.00  0.00    -0.014 A 
BRANCH  10  11
ATOM     11  C   UNL A   1      39.620  28.793  29.595  1.00  0.00     0.031 A 
ATOM     12  C   UNL A   1      40.237  27.514  29.097  1.00  0.00     0.074 A 
ATOM     13  C   UNL A   1      40.220  29.485  30.582  1.00  0.00     0.049 A 
ATOM     14  N   UNL A   1      41.410  27.007  29.385  1.00  0.00    -0.248 NA
ATOM     15  C   UNL A   1      39.464  26.714  28.138  1.00  0.00     0.031 C 
ATOM     16  C   UNL A   1      39.714  30.728  31.173  1.00  0.00     0.029 A 
ATOM     17  N   UNL A   1      41.362  29.221  31.290  1.00  0.00    -0.354 N 
ATOM     18  C   UNL A   1      41.561  25.900  28.556  1.00  0.00     0.074 A 
ATOM     19  C   UNL A   1      40.329  25.759  27.816  1.00  0.00     0.031 C 
ATOM     20  C   UNL A   1      40.520  31.096  32.177  1.00  0.00     0.029 A 
ATOM     21  C   UNL A   1      41.558  30.088  32.335  1.00  0.00     0.049 A 
ATOM     22  H   UNL A   1      41.978  28.485  31.071  1.00  0.00     0.167 HD
ATOM     23  C   UNL A   1      42.634  25.084  28.426  1.00  0.00     0.037 A 
ATOM     24  C   UNL A   1      42.435  30.035  33.352  1.00  0.00     0.037 A 
ATOM     25  C   UNL A   1      43.767  25.105  29.312  1.00  0.00     0.049 A 
ATOM     26  C   UNL A   1      43.443  28.926  33.382  1.00  0.00     0.074 A 
ATOM     27  C   UNL A   1      44.882  24.284  29.313  1.00  0.00     0.029 A 
ATOM     28  N   UNL A   1      43.879  25.937  30.413  1.00  0.00    -0.354 N 
ATOM     29  N   UNL A   1      43.664  27.989  32.491  1.00  0.00    -0.248 NA
ATOM     30  C   UNL A   1      44.321  28.861  34.555  1.00  0.00     0.031 C 
ATOM     31  C   UNL A   1      45.605  24.543  30.483  1.00  0.00     0.029 A 
ATOM     32  C   UNL A   1      44.985  25.579  31.162  1.00  0.00     0.049 A 
ATOM     33  H   UNL A   1      43.263  26.673  30.630  1.00  0.00     0.167 HD
ATOM     34  C   UNL A   1      44.735  27.250  32.976  1.00  0.00     0.074 A 
ATOM     35  C   UNL A   1      45.113  27.846  34.240  1.00  0.00     0.031 C 
ATOM     36  C   UNL A   1      45.353  26.182  32.417  1.00  0.00     0.037 A 
BRANCH  23  37
ATOM     37  C   UNL A   1      42.621  24.062  27.329  1.00  0.00     0.057 A 
ATOM     38  C   UNL A   1      42.196  22.750  27.566  1.00  0.00     0.134 A 
ATOM     39  C   UNL A   1      43.137  24.357  26.060  1.00  0.00     0.134 A 
ATOM     40  F   UNL A   1      41.708  22.400  28.766  1.00  0.00    -0.206 F 
ATOM     41  C   UNL A   1      42.289  21.762  26.582  1.00  0.00     0.040 A 
ATOM     42  C   UNL A   1      43.220  23.381  25.063  1.00  0.00     0.040 A 
ATOM     43  F   UNL A   1      43.594  25.586  25.778  1.00  0.00    -0.206 F 
ATOM     44  C   UNL A   1      42.803  22.077  25.325  1.00  0.00     0.006 A 
ENDBRANCH  23  37
BRANCH  24  45
ATOM     45  C   UNL A   1      42.333  31.014  34.462  1.00  0.00     0.057 A 
ATOM     46  C   UNL A   1      41.486  30.777  35.554  1.00  0.00     0.134 A 
ATOM     47  C   UNL A   1      43.086  32.191  34.473  1.00  0.00     0.134 A 
ATOM     48  F   UNL A   1      40.730  29.668  35.600  1.00  0.00    -0.206 F 
ATOM     49  C   UNL A   1      41.386  31.678  36.613  1.00  0.00     0.040 A 
ATOM     50  C   UNL A   1      43.021  33.085  35.543  1.00  0.00     0.040 A 
ATOM     51  F   UNL A   1      43.926  32.465  33.464  1.00  0.00    -0.206 F 
ATOM     52  C   UNL A   1      42.166  32.830  36.614  1.00  0.00     0.006 A 
ENDBRANCH  24  45
BRANCH  36  53
ATOM     53  C   UNL A   1      46.533  25.617  33.147  1.00  0.00     0.057 A 
ATOM     54  C   UNL A   1      47.819  26.116  32.905  1.00  0.00     0.134 A 
ATOM     55  C   UNL A   1      46.406  24.561  34.057  1.00  0.00     0.134 A 
ATOM     56  F   UNL A   1      48.008  27.124  32.039  1.00  0.00    -0.206 F 
ATOM     57  C   UNL A   1      48.939  25.578  33.536  1.00  0.00     0.040 A 
ATOM     58  C   UNL A   1      47.515  24.035  34.717  1.00  0.00     0.040 A 
ATOM     59  F   UNL A   1      45.198  24.052  34.345  1.00  0.00    -0.206 F 
ATOM     60  C   UNL A   1      48.788  24.537  34.450  1.00  0.00     0.006 A 
ENDBRANCH  36  53
ENDBRANCH  10  11
ENDBRANCH   3   5
ENDBRANCH   2   3
ENDBRANCH   1   2
BRANCH   1  61
ATOM     61  C   UNL A   1      34.532  34.463  27.876  1.00  0.00     0.275 C 
BRANCH  61  62
ATOM     62  O   UNL A   1      34.587  35.155  29.134  1.00  0.00    -0.458 OA
BRANCH  62  63
ATOM     63  C   UNL A   1      33.484  35.021  29.924  1.00  0.00     0.339 C 
ATOM     64  O   UNL A   1      32.342  34.826  29.537  1.00  0.00    -0.246 OA
BRANCH  63  65
ATOM     65  C   UNL A   1      33.872  35.082  31.353  1.00  0.00     0.074 A 
ATOM     66  C   UNL A   1      33.559  36.208  32.013  1.00  0.00     0.088 A 
ATOM     67  C   UNL A   1      34.593  33.997  32.045  1.00  0.00     0.014 A 
ATOM     68  C   UNL A   1      33.958  36.401  33.420  1.00  0.00     0.249 A 
ATOM     69  C   UNL A   1      35.133  34.264  33.318  1.00  0.00     0.063 A 
ATOM     70  C   UNL A   1      34.854  32.756  31.448  1.00  0.00     0.011 A 
ATOM     71  O   UNL A   1      33.557  37.375  34.043  1.00  0.00    -0.270 OA
ATOM     72  N   UNL A   1      34.806  35.475  33.951  1.00  0.00    -0.321 N 
ATOM     73  C   UNL A   1      35.982  33.335  33.936  1.00  0.00     0.042 A 
ATOM     74  C   UNL A   1      35.679  31.822  32.082  1.00  0.00     0.002 A 
ATOM     75  H   UNL A   1      35.213  35.666  34.826  1.00  0.00     0.170 HD
ATOM     76  Br  UNL A   1      36.829  33.715  35.592  1.00  0.00    -0.049 Br
ATOM     77  C   UNL A   1      36.260  32.119  33.315  1.00  0.00     0.018 A 
ENDBRANCH  63  65
ENDBRANCH  62  63
ENDBRANCH  61  62
ENDBRANCH   1  61
TORSDOF 11
ENDMDL
MODEL 3
REMARK VINA RESULT:     -11.1      3.388      6.057
REMARK SMILES O=C(OCCOC(=O)c1cc(=O)[nH]c2c(Br)cccc12)c1ccc(-c2c3nc(c(-c4c(F)cccc4F)c4ccc([nH]4)c(-c4c(F)cccc4F)c4nc(c(-c5c(F)cccc5F)c5ccc2[nH]5)C=C4)C=C3)cc1
REMARK SMILES IDX 4 1 3 2 2 3 1 4 21 5 22 6 74 7 23 8 73 9 24 10 25 11 26 12
REMARK SMILES IDX 67 13 27 14 72 15 66 16 68 17 28 18 71 19 65 20 64 21 29 23
REMARK SMILES IDX 55 24 38 25 54 26 39 27 42 28 53 29 69 30 40 31 41 32 52 34
REMARK SMILES IDX 70 35 43 36 30 37 31 38 36 39 32 40 33 41 35 42 37 43 34 44
REMARK SMILES IDX 56 45 57 46 62 47 58 48 59 49 61 50 63 51 60 52 44 53 45 54
REMARK SMILES IDX 50 55 46 56 47 57 49 58 51 59 48 60 5 61 6 62 7 63 8 64 9 65
REMARK SMILES IDX 10 66 20 67 11 68 14 69 19 70 12 71 13 72 15 73 18 74 16 76
REMARK SMILES IDX 17 77
REMARK H PARENT 68 22 42 33 13 75
REMARK Flexibility Score: inf
ROOT
ATOM      1  C   UNL A   1      29.729  26.252  24.664  1.00  0.00     0.275 C 
ENDROOT
BRANCH   1   2
ATOM      2  O   UNL A   1      30.660  27.331  24.483  1.00  0.00    -0.458 OA
BRANCH   2   3
ATOM      3  C   UNL A   1      32.010  27.236  24.384  1.00  0.00     0.338 C 
ATOM      4  O   UNL A   1      32.509  26.396  23.640  1.00  0.00    -0.246 OA
BRANCH   3   5
ATOM      5  C   UNL A   1      32.900  27.937  25.356  1.00  0.00     0.060 A 
ATOM      6  C   UNL A   1      33.904  28.736  24.795  1.00  0.00     0.016 A 
ATOM      7  C   UNL A   1      32.813  27.875  26.748  1.00  0.00     0.016 A 
ATOM      8  C   UNL A   1      34.888  29.321  25.594  1.00  0.00     0.010 A 
ATOM      9  C   UNL A   1      33.780  28.488  27.556  1.00  0.00     0.010 A 
ATOM     10  C   UNL A   1      34.846  29.190  26.987  1.00  0.00    -0.014 A 
BRANCH  10  11
ATOM     11  C   UNL A   1      35.813  29.928  27.836  1.00  0.00     0.031 A 
ATOM     12  C   UNL A   1      37.206  29.425  28.101  1.00  0.00     0.074 A 
ATOM     13  C   UNL A   1      35.395  31.074  28.404  1.00  0.00     0.049 A 
ATOM     14  N   UNL A   1      38.190  30.033  28.718  1.00  0.00    -0.248 NA
ATOM     15  C   UNL A   1      37.557  28.093  27.594  1.00  0.00     0.031 C 
ATOM     16  C   UNL A   1      34.060  31.660  28.247  1.00  0.00     0.029 A 
ATOM     17  N   UNL A   1      36.036  31.931  29.259  1.00  0.00    -0.354 N 
ATOM     18  C   UNL A   1      39.301  29.211  28.567  1.00  0.00     0.074 A 
ATOM     19  C   UNL A   1      38.854  28.024  27.875  1.00  0.00     0.031 C 
ATOM     20  C   UNL A   1      33.970  32.757  29.011  1.00  0.00     0.029 A 
ATOM     21  C   UNL A   1      35.214  32.913  29.751  1.00  0.00     0.049 A 
ATOM     22  H   UNL A   1      36.988  31.849  29.496  1.00  0.00     0.167 HD
ATOM     23  C   UNL A   1      40.576  29.433  28.965  1.00  0.00     0.037 A 
ATOM     24  C   UNL A   1      35.417  33.798  30.741  1.00  0.00     0.037 A 
ATOM     25  C   UNL A   1      40.966  30.513  29.832  1.00  0.00     0.049 A 
ATOM     26  C   UNL A   1      36.755  33.834  31.417  1.00  0.00     0.074 A 
ATOM     27  C   UNL A   1      42.217  30.800  30.350  1.00  0.00     0.029 A 
ATOM     28  N   UNL A   1      40.084  31.428  30.380  1.00  0.00    -0.354 N 
ATOM     29  N   UNL A   1      37.839  33.152  31.134  1.00  0.00    -0.248 NA
ATOM     30  C   UNL A   1      36.900  34.756  32.549  1.00  0.00     0.031 C 
ATOM     31  C   UNL A   1      42.065  31.814  31.304  1.00  0.00     0.029 A 
ATOM     32  C   UNL A   1      40.738  32.211  31.314  1.00  0.00     0.049 A 
ATOM     33  H   UNL A   1      39.131  31.509  30.142  1.00  0.00     0.167 HD
ATOM     34  C   UNL A   1      38.807  33.594  32.026  1.00  0.00     0.074 A 
ATOM     35  C   UNL A   1      38.179  34.598  32.859  1.00  0.00     0.031 C 
ATOM     36  C   UNL A   1      40.102  33.210  32.135  1.00  0.00     0.037 A 
BRANCH  23  37
ATOM     37  C   UNL A   1      41.638  28.471  28.524  1.00  0.00     0.057 A 
ATOM     38  C   UNL A   1      42.153  28.507  27.222  1.00  0.00     0.134 A 
ATOM     39  C   UNL A   1      42.071  27.437  29.363  1.00  0.00     0.134 A 
ATOM     40  F   UNL A   1      41.764  29.463  26.365  1.00  0.00    -0.206 F 
ATOM     41  C   UNL A   1      43.056  27.544  26.768  1.00  0.00     0.040 A 
ATOM     42  C   UNL A   1      42.987  26.477  28.925  1.00  0.00     0.040 A 
ATOM     43  F   UNL A   1      41.590  27.325  30.611  1.00  0.00    -0.206 F 
ATOM     44  C   UNL A   1      43.476  26.525  27.620  1.00  0.00     0.006 A 
ENDBRANCH  23  37
BRANCH  24  45
ATOM     45  C   UNL A   1      34.297  34.654  31.204  1.00  0.00     0.057 A 
ATOM     46  C   UNL A   1      33.809  35.695  30.401  1.00  0.00     0.134 A 
ATOM     47  C   UNL A   1      33.677  34.446  32.438  1.00  0.00     0.134 A 
ATOM     48  F   UNL A   1      34.366  35.951  29.207  1.00  0.00    -0.206 F 
ATOM     49  C   UNL A   1      32.748  36.501  30.811  1.00  0.00     0.040 A 
ATOM     50  C   UNL A   1      32.593  35.224  32.847  1.00  0.00     0.040 A 
ATOM     51  F   UNL A   1      34.089  33.456  33.243  1.00  0.00    -0.206 F 
ATOM     52  C   UNL A   1      32.129  36.258  32.033  1.00  0.00     0.006 A 
ENDBRANCH  24  45
BRANCH  36  53
ATOM     53  C   UNL A   1      40.938  33.909  33.162  1.00  0.00     0.057 A 
ATOM     54  C   UNL A   1      40.832  33.561  34.515  1.00  0.00     0.134 A 
ATOM     55  C   UNL A   1      41.817  34.944  32.824  1.00  0.00     0.134 A 
ATOM     56  F   UNL A   1      40.002  32.581  34.904  1.00  0.00    -0.206 F 
ATOM     57  C   UNL A   1      41.564  34.227  35.497  1.00  0.00     0.040 A 
ATOM     58  C   UNL A   1      42.577  35.596  33.794  1.00  0.00     0.040 A 
ATOM     59  F   UNL A   1      41.976  35.310  31.543  1.00  0.00    -0.206 F 
ATOM     60  C   UNL A   1      42.445  35.244  35.136  1.00  0.00     0.006 A 
ENDBRANCH  36  53
ENDBRANCH  10  11
ENDBRANCH   3   5
ENDBRANCH   2   3
ENDBRANCH   1   2
BRANCH   1  61
ATOM     61  C   UNL A   1      30.065  25.318  25.828  1.00  0.00     0.275 C 
BRANCH  61  62
ATOM     62  O   UNL A   1      30.468  24.001  25.419  1.00  0.00    -0.458 OA
BRANCH  62  63
ATOM     63  C   UNL A   1      31.143  23.278  26.358  1.00  0.00     0.339 C 
ATOM     64  O   UNL A   1      30.882  23.227  27.550  1.00  0.00    -0.246 OA
BRANCH  63  65
ATOM     65  C   UNL A   1      32.220  22.490  25.715  1.00  0.00     0.074 A 
ATOM     66  C   UNL A   1      31.903  21.247  25.321  1.00  0.00     0.088 A 
ATOM     67  C   UNL A   1      33.593  22.996  25.526  1.00  0.00     0.014 A 
ATOM     68  C   UNL A   1      32.919  20.353  24.731  1.00  0.00     0.249 A 
ATOM     69  C   UNL A   1      34.592  22.081  25.142  1.00  0.00     0.063 A 
ATOM     70  C   UNL A   1      33.963  24.316  25.813  1.00  0.00     0.011 A 
ATOM     71  O   UNL A   1      32.585  19.272  24.263  1.00  0.00    -0.270 OA
ATOM     72  N   UNL A   1      34.212  20.779  24.776  1.00  0.00    -0.321 N 
ATOM     73  C   UNL A   1      35.940  22.467  25.129  1.00  0.00     0.042 A 
ATOM     74  C   UNL A   1      35.306  24.704  25.773  1.00  0.00     0.002 A 
ATOM     75  H   UNL A   1      34.921  20.137  24.540  1.00  0.00     0.170 HD
ATOM     76  Br  UNL A   1      37.324  21.226  24.742  1.00  0.00    -0.049 Br
ATOM     77  C   UNL A   1      36.296  23.775  25.451  1.00  0.00     0.018 A 
ENDBRANCH  63  65
ENDBRANCH  62  63
ENDBRANCH  61  62
ENDBRANCH   1  61
TORSDOF 11
ENDMDL
