MODEL 1
REMARK VINA RESULT:      -9.8      0.000      0.000
REMARK SMILES O=C(Cc1cccc(-c2ccn(C(F)F)c(=O)c2)c1)OCCOC(=O)c1ccc(-c2c3nc(c(-c4c(F)cccc4F)c4ccc([nH]4)c(-c4c(F)cccc4F)c4nc(c(-c5c(F)cccc5F)c5ccc2[nH]5)C=C4)C=C3)cc1
REMARK SMILES IDX 21 1 20 2 2 3 1 4 3 5 4 6 5 7 19 8 6 9 8 10 7 11 9 12 10 13
REMARK SMILES IDX 18 14 11 15 16 16 12 17 17 18 13 19 14 20 15 21 22 22 23 23
REMARK SMILES IDX 24 24 25 25 26 26 27 27 79 28 28 29 78 30 29 31 30 32 31 33
REMARK SMILES IDX 72 34 32 35 77 36 71 37 73 38 33 39 76 40 70 41 69 42 34 44
REMARK SMILES IDX 60 45 43 46 59 47 44 48 47 49 58 50 74 51 45 52 46 53 57 55
REMARK SMILES IDX 75 56 48 57 35 58 36 59 41 60 37 61 38 62 40 63 42 64 39 65
REMARK SMILES IDX 61 66 62 67 67 68 63 69 64 70 66 71 68 72 65 73 49 74 50 75
REMARK SMILES IDX 55 76 51 77 52 78 54 79 56 80 53 81
REMARK H PARENT 73 43 47 54
REMARK Flexibility Score: inf
ROOT
ATOM      1  C   UNL A   1      44.994  19.687  24.632  1.00  0.00     0.274 C 
ENDROOT
BRANCH   1   2
ATOM      2  O   UNL A   1      44.748  21.044  24.219  1.00  0.00    -0.462 OA
BRANCH   2   3
ATOM      3  C   UNL A   1      45.313  22.050  24.945  1.00  0.00     0.310 C 
ATOM      4  O   UNL A   1      46.029  21.810  25.910  1.00  0.00    -0.252 OA
BRANCH   3   5
ATOM      5  C   UNL A   1      44.834  23.449  24.598  1.00  0.00     0.158 C 
BRANCH   5   6
ATOM      6  C   UNL A   1      45.876  24.528  24.748  1.00  0.00    -0.036 A 
ATOM      7  C   UNL A   1      47.164  24.392  24.227  1.00  0.00     0.004 A 
ATOM      8  C   UNL A   1      45.558  25.699  25.441  1.00  0.00     0.013 A 
ATOM      9  C   UNL A   1      48.102  25.416  24.395  1.00  0.00     0.001 A 
ATOM     10  C   UNL A   1      46.468  26.752  25.570  1.00  0.00    -0.018 A 
ATOM     11  C   UNL A   1      47.753  26.600  25.054  1.00  0.00     0.009 A 
BRANCH  10  12
ATOM     12  C   UNL A   1      45.957  28.006  26.153  1.00  0.00    -0.011 A 
ATOM     13  C   UNL A   1      44.600  28.161  26.642  1.00  0.00     0.027 A 
ATOM     14  C   UNL A   1      46.734  29.096  26.018  1.00  0.00     0.080 A 
ATOM     15  C   UNL A   1      44.107  29.379  26.898  1.00  0.00     0.095 A 
ATOM     16  C   UNL A   1      46.211  30.451  26.336  1.00  0.00     0.255 A 
ATOM     17  N   UNL A   1      44.886  30.509  26.737  1.00  0.00    -0.258 N 
ATOM     18  O   UNL A   1      46.958  31.413  26.191  1.00  0.00    -0.269 OA
BRANCH  17  19
ATOM     19  C   UNL A   1      44.333  31.821  26.958  1.00  0.00     0.451 C 
ATOM     20  F   UNL A   1      43.771  32.314  25.830  1.00  0.00    -0.185 F 
ATOM     21  F   UNL A   1      43.381  31.787  27.924  1.00  0.00    -0.185 F 
ENDBRANCH  17  19
ENDBRANCH  10  12
ENDBRANCH   5   6
ENDBRANCH   3   5
ENDBRANCH   2   3
ENDBRANCH   1   2
BRANCH   1  22
ATOM     22  C   UNL A   1      43.715  18.855  24.779  1.00  0.00     0.275 C 
BRANCH  22  23
ATOM     23  O   UNL A   1      43.124  19.035  26.073  1.00  0.00    -0.458 OA
BRANCH  23  24
ATOM     24  C   UNL A   1      41.876  19.569  26.024  1.00  0.00     0.338 C 
ATOM     25  O   UNL A   1      40.858  19.010  25.658  1.00  0.00    -0.246 OA
BRANCH  24  26
ATOM     26  C   UNL A   1      41.874  20.902  26.663  1.00  0.00     0.060 A 
ATOM     27  C   UNL A   1      41.836  22.016  25.816  1.00  0.00     0.016 A 
ATOM     28  C   UNL A   1      41.943  21.069  28.049  1.00  0.00     0.016 A 
ATOM     29  C   UNL A   1      41.949  23.299  26.347  1.00  0.00     0.010 A 
ATOM     30  C   UNL A   1      42.058  22.358  28.583  1.00  0.00     0.010 A 
ATOM     31  C   UNL A   1      42.115  23.472  27.727  1.00  0.00    -0.014 A 
BRANCH  31  32
ATOM     32  C   UNL A   1      42.576  24.791  28.226  1.00  0.00     0.031 A 
ATOM     33  C   UNL A   1      41.554  25.883  28.397  1.00  0.00     0.074 A 
ATOM     34  C   UNL A   1      43.854  25.003  28.582  1.00  0.00     0.049 A 
ATOM     35  N   UNL A   1      41.690  27.073  28.925  1.00  0.00    -0.248 NA
ATOM     36  C   UNL A   1      40.196  25.591  27.910  1.00  0.00     0.031 C 
ATOM     37  C   UNL A   1      44.938  24.030  28.476  1.00  0.00     0.029 A 
ATOM     38  N   UNL A   1      44.447  26.116  29.120  1.00  0.00    -0.354 N 
ATOM     39  C   UNL A   1      40.434  27.662  28.849  1.00  0.00     0.074 A 
ATOM     40  C   UNL A   1      39.562  26.722  28.180  1.00  0.00     0.031 C 
ATOM     41  C   UNL A   1      46.071  24.590  28.940  1.00  0.00     0.029 A 
ATOM     42  C   UNL A   1      45.787  25.958  29.374  1.00  0.00     0.049 A 
ATOM     43  H   UNL A   1      43.959  26.951  29.307  1.00  0.00     0.167 HD
ATOM     44  C   UNL A   1      40.034  28.869  29.311  1.00  0.00     0.037 A 
ATOM     45  C   UNL A   1      46.676  26.817  29.908  1.00  0.00     0.037 A 
ATOM     46  C   UNL A   1      40.895  29.813  29.969  1.00  0.00     0.049 A 
ATOM     47  C   UNL A   1      46.217  28.175  30.373  1.00  0.00     0.074 A 
ATOM     48  C   UNL A   1      40.575  31.055  30.490  1.00  0.00     0.029 A 
ATOM     49  N   UNL A   1      42.249  29.621  30.188  1.00  0.00    -0.354 N 
ATOM     50  N   UNL A   1      45.013  28.693  30.362  1.00  0.00    -0.248 NA
ATOM     51  C   UNL A   1      47.244  29.060  30.945  1.00  0.00     0.031 C 
ATOM     52  C   UNL A   1      41.747  31.631  30.994  1.00  0.00     0.029 A 
ATOM     53  C   UNL A   1      42.786  30.731  30.820  1.00  0.00     0.049 A 
ATOM     54  H   UNL A   1      42.754  28.816  29.932  1.00  0.00     0.167 HD
ATOM     55  C   UNL A   1      45.129  29.942  30.962  1.00  0.00     0.074 A 
ATOM     56  C   UNL A   1      46.521  30.104  31.326  1.00  0.00     0.031 C 
ATOM     57  C   UNL A   1      44.168  30.868  31.198  1.00  0.00     0.037 A 
BRANCH  44  58
ATOM     58  C   UNL A   1      38.595  29.233  29.108  1.00  0.00     0.057 A 
ATOM     59  C   UNL A   1      37.667  29.169  30.156  1.00  0.00     0.134 A 
ATOM     60  C   UNL A   1      38.133  29.656  27.857  1.00  0.00     0.134 A 
ATOM     61  F   UNL A   1      38.045  28.752  31.374  1.00  0.00    -0.206 F 
ATOM     62  C   UNL A   1      36.324  29.494  29.960  1.00  0.00     0.040 A 
ATOM     63  C   UNL A   1      36.797  30.004  27.653  1.00  0.00     0.040 A 
ATOM     64  F   UNL A   1      38.973  29.737  26.813  1.00  0.00    -0.206 F 
ATOM     65  C   UNL A   1      35.888  29.917  28.705  1.00  0.00     0.006 A 
ENDBRANCH  44  58
BRANCH  45  66
ATOM     66  C   UNL A   1      48.095  26.417  30.071  1.00  0.00     0.057 A 
ATOM     67  C   UNL A   1      49.037  26.668  29.066  1.00  0.00     0.134 A 
ATOM     68  C   UNL A   1      48.531  25.734  31.212  1.00  0.00     0.134 A 
ATOM     69  F   UNL A   1      48.671  27.297  27.940  1.00  0.00    -0.206 F 
ATOM     70  C   UNL A   1      50.359  26.235  29.180  1.00  0.00     0.040 A 
ATOM     71  C   UNL A   1      49.855  25.312  31.347  1.00  0.00     0.040 A 
ATOM     72  F   UNL A   1      47.676  25.462  32.207  1.00  0.00    -0.206 F 
ATOM     73  C   UNL A   1      50.770  25.555  30.325  1.00  0.00     0.006 A 
ENDBRANCH  45  66
BRANCH  57  74
ATOM     74  C   UNL A   1      44.572  32.114  31.928  1.00  0.00     0.057 A 
ATOM     75  C   UNL A   1      44.534  32.201  33.325  1.00  0.00     0.134 A 
ATOM     76  C   UNL A   1      45.045  33.228  31.222  1.00  0.00     0.134 A 
ATOM     77  F   UNL A   1      44.082  31.173  34.058  1.00  0.00    -0.206 F 
ATOM     78  C   UNL A   1      44.932  33.361  33.993  1.00  0.00     0.040 A 
ATOM     79  C   UNL A   1      45.466  34.384  31.879  1.00  0.00     0.040 A 
ATOM     80  F   UNL A   1      45.114  33.206  29.882  1.00  0.00    -0.206 F 
ATOM     81  C   UNL A   1      45.405  34.455  33.270  1.00  0.00     0.006 A 
ENDBRANCH  57  74
ENDBRANCH  31  32
ENDBRANCH  24  26
ENDBRANCH  23  24
ENDBRANCH  22  23
ENDBRANCH   1  22
TORSDOF 14
ENDMDL
MODEL 2
REMARK VINA RESULT:      -9.5      4.973     11.127
REMARK SMILES O=C(Cc1cccc(-c2ccn(C(F)F)c(=O)c2)c1)OCCOC(=O)c1ccc(-c2c3nc(c(-c4c(F)cccc4F)c4ccc([nH]4)c(-c4c(F)cccc4F)c4nc(c(-c5c(F)cccc5F)c5ccc2[nH]5)C=C4)C=C3)cc1
REMARK SMILES IDX 21 1 20 2 2 3 1 4 3 5 4 6 5 7 19 8 6 9 8 10 7 11 9 12 10 13
REMARK SMILES IDX 18 14 11 15 16 16 12 17 17 18 13 19 14 20 15 21 22 22 23 23
REMARK SMILES IDX 24 24 25 25 26 26 27 27 79 28 28 29 78 30 29 31 30 32 31 33
REMARK SMILES IDX 72 34 32 35 77 36 71 37 73 38 33 39 76 40 70 41 69 42 34 44
REMARK SMILES IDX 60 45 43 46 59 47 44 48 47 49 58 50 74 51 45 52 46 53 57 55
REMARK SMILES IDX 75 56 48 57 35 58 36 59 41 60 37 61 38 62 40 63 42 64 39 65
REMARK SMILES IDX 61 66 62 67 67 68 63 69 64 70 66 71 68 72 65 73 49 74 50 75
REMARK SMILES IDX 55 76 51 77 52 78 54 79 56 80 53 81
REMARK H PARENT 73 43 47 54
REMARK Flexibility Score: inf
ROOT
ATOM      1  C   UNL A   1      34.921  34.297  31.368  1.00  0.00     0.274 C 
ENDROOT
BRANCH   1   2
ATOM      2  O   UNL A   1      34.276  33.425  30.421  1.00  0.00    -0.462 OA
BRANCH   2   3
ATOM      3  C   UNL A   1      34.544  33.602  29.096  1.00  0.00     0.310 C 
ATOM      4  O   UNL A   1      35.429  34.364  28.725  1.00  0.00    -0.252 OA
BRANCH   3   5
ATOM      5  C   UNL A   1      33.554  32.959  28.141  1.00  0.00     0.158 C 
BRANCH   5   6
ATOM      6  C   UNL A   1      33.904  31.556  27.718  1.00  0.00    -0.036 A 
ATOM      7  C   UNL A   1      35.147  30.986  28.001  1.00  0.00     0.004 A 
ATOM      8  C   UNL A   1      32.970  30.799  27.007  1.00  0.00     0.013 A 
ATOM      9  C   UNL A   1      35.433  29.681  27.585  1.00  0.00     0.001 A 
ATOM     10  C   UNL A   1      33.222  29.476  26.632  1.00  0.00    -0.018 A 
ATOM     11  C   UNL A   1      34.469  28.921  26.911  1.00  0.00     0.009 A 
BRANCH  10  12
ATOM     12  C   UNL A   1      32.094  28.720  26.058  1.00  0.00    -0.011 A 
ATOM     13  C   UNL A   1      31.676  27.420  26.550  1.00  0.00     0.027 A 
ATOM     14  C   UNL A   1      31.587  29.176  24.899  1.00  0.00     0.080 A 
ATOM     15  C   UNL A   1      30.844  26.658  25.829  1.00  0.00     0.095 A 
ATOM     16  C   UNL A   1      30.631  28.357  24.108  1.00  0.00     0.255 A 
ATOM     17  N   UNL A   1      30.337  27.105  24.624  1.00  0.00    -0.258 N 
ATOM     18  O   UNL A   1      30.201  28.816  23.055  1.00  0.00    -0.269 OA
BRANCH  17  19
ATOM     19  C   UNL A   1      29.487  26.258  23.825  1.00  0.00     0.451 C 
ATOM     20  F   UNL A   1      29.882  24.965  23.889  1.00  0.00    -0.185 F 
ATOM     21  F   UNL A   1      28.201  26.328  24.250  1.00  0.00    -0.185 F 
ENDBRANCH  17  19
ENDBRANCH  10  12
ENDBRANCH   5   6
ENDBRANCH   3   5
ENDBRANCH   2   3
ENDBRANCH   1   2
BRANCH   1  22
ATOM     22  C   UNL A   1      34.843  33.789  32.812  1.00  0.00     0.275 C 
BRANCH  22  23
ATOM     23  O   UNL A   1      35.144  32.390  32.887  1.00  0.00    -0.458 OA
BRANCH  23  24
ATOM     24  C   UNL A   1      36.344  32.129  33.471  1.00  0.00     0.338 C 
ATOM     25  O   UNL A   1      36.662  32.372  34.621  1.00  0.00    -0.246 OA
BRANCH  24  26
ATOM     26  C   UNL A   1      37.181  31.322  32.559  1.00  0.00     0.060 A 
ATOM     27  C   UNL A   1      38.271  30.647  33.122  1.00  0.00     0.016 A 
ATOM     28  C   UNL A   1      36.936  31.247  31.185  1.00  0.00     0.016 A 
ATOM     29  C   UNL A   1      39.166  29.964  32.302  1.00  0.00     0.010 A 
ATOM     30  C   UNL A   1      37.835  30.562  30.361  1.00  0.00     0.010 A 
ATOM     31  C   UNL A   1      38.982  29.964  30.913  1.00  0.00    -0.014 A 
BRANCH  31  32
ATOM     32  C   UNL A   1      40.110  29.539  30.049  1.00  0.00     0.031 A 
ATOM     33  C   UNL A   1      41.216  30.526  29.787  1.00  0.00     0.074 A 
ATOM     34  C   UNL A   1      40.192  28.291  29.560  1.00  0.00     0.049 A 
ATOM     35  N   UNL A   1      42.356  30.352  29.166  1.00  0.00    -0.248 NA
ATOM     36  C   UNL A   1      41.009  31.892  30.293  1.00  0.00     0.031 C 
ATOM     37  C   UNL A   1      39.197  27.238  29.747  1.00  0.00     0.029 A 
ATOM     38  N   UNL A   1      41.176  27.699  28.809  1.00  0.00    -0.354 N 
ATOM     39  C   UNL A   1      43.005  31.578  29.225  1.00  0.00     0.074 A 
ATOM     40  C   UNL A   1      42.116  32.500  29.896  1.00  0.00     0.031 C 
ATOM     41  C   UNL A   1      39.624  26.122  29.127  1.00  0.00     0.029 A 
ATOM     42  C   UNL A   1      40.921  26.385  28.503  1.00  0.00     0.049 A 
ATOM     43  H   UNL A   1      41.989  28.171  28.516  1.00  0.00     0.167 HD
ATOM     44  C   UNL A   1      44.241  31.906  28.781  1.00  0.00     0.037 A 
ATOM     45  C   UNL A   1      41.658  25.497  27.810  1.00  0.00     0.037 A 
ATOM     46  C   UNL A   1      45.129  30.999  28.107  1.00  0.00     0.049 A 
ATOM     47  C   UNL A   1      43.012  25.898  27.283  1.00  0.00     0.074 A 
ATOM     48  C   UNL A   1      46.410  31.234  27.637  1.00  0.00     0.029 A 
ATOM     49  N   UNL A   1      44.823  29.683  27.800  1.00  0.00    -0.354 N 
ATOM     50  N   UNL A   1      43.646  27.039  27.408  1.00  0.00    -0.248 NA
ATOM     51  C   UNL A   1      43.760  24.877  26.535  1.00  0.00     0.031 C 
ATOM     52  C   UNL A   1      46.866  30.068  27.012  1.00  0.00     0.029 A 
ATOM     53  C   UNL A   1      45.883  29.098  27.129  1.00  0.00     0.049 A 
ATOM     54  H   UNL A   1      43.978  29.232  28.026  1.00  0.00     0.167 HD
ATOM     55  C   UNL A   1      44.881  26.858  26.794  1.00  0.00     0.074 A 
ATOM     56  C   UNL A   1      44.906  25.498  26.297  1.00  0.00     0.031 C 
ATOM     57  C   UNL A   1      45.904  27.736  26.661  1.00  0.00     0.037 A 
BRANCH  44  58
ATOM     58  C   UNL A   1      44.694  33.315  29.009  1.00  0.00     0.057 A 
ATOM     59  C   UNL A   1      44.429  34.330  28.079  1.00  0.00     0.134 A 
ATOM     60  C   UNL A   1      45.397  33.663  30.167  1.00  0.00     0.134 A 
ATOM     61  F   UNL A   1      43.777  34.055  26.940  1.00  0.00    -0.206 F 
ATOM     62  C   UNL A   1      44.866  35.639  28.287  1.00  0.00     0.040 A 
ATOM     63  C   UNL A   1      45.821  34.973  30.396  1.00  0.00     0.040 A 
ATOM     64  F   UNL A   1      45.683  32.736  31.094  1.00  0.00    -0.206 F 
ATOM     65  C   UNL A   1      45.561  35.963  29.451  1.00  0.00     0.006 A 
ENDBRANCH  44  58
BRANCH  45  66
ATOM     66  C   UNL A   1      41.156  24.118  27.594  1.00  0.00     0.057 A 
ATOM     67  C   UNL A   1      41.695  23.034  28.298  1.00  0.00     0.134 A 
ATOM     68  C   UNL A   1      40.161  23.846  26.649  1.00  0.00     0.134 A 
ATOM     69  F   UNL A   1      42.669  23.232  29.199  1.00  0.00    -0.206 F 
ATOM     70  C   UNL A   1      41.278  21.725  28.053  1.00  0.00     0.040 A 
ATOM     71  C   UNL A   1      39.721  22.543  26.407  1.00  0.00     0.040 A 
ATOM     72  F   UNL A   1      39.608  24.842  25.942  1.00  0.00    -0.206 F 
ATOM     73  C   UNL A   1      40.287  21.478  27.105  1.00  0.00     0.006 A 
ENDBRANCH  45  66
BRANCH  57  74
ATOM     74  C   UNL A   1      47.158  27.243  26.001  1.00  0.00     0.057 A 
ATOM     75  C   UNL A   1      48.167  26.589  26.719  1.00  0.00     0.134 A 
ATOM     76  C   UNL A   1      47.336  27.390  24.620  1.00  0.00     0.134 A 
ATOM     77  F   UNL A   1      48.060  26.426  28.046  1.00  0.00    -0.206 F 
ATOM     78  C   UNL A   1      49.319  26.118  26.088  1.00  0.00     0.040 A 
ATOM     79  C   UNL A   1      48.473  26.903  23.974  1.00  0.00     0.040 A 
ATOM     80  F   UNL A   1      46.402  27.999  23.873  1.00  0.00    -0.206 F 
ATOM     81  C   UNL A   1      49.473  26.270  24.711  1.00  0.00     0.006 A 
ENDBRANCH  57  74
ENDBRANCH  31  32
ENDBRANCH  24  26
ENDBRANCH  23  24
ENDBRANCH  22  23
ENDBRANCH   1  22
TORSDOF 14
ENDMDL
MODEL 3
REMARK VINA RESULT:      -9.3      4.520      9.316
REMARK SMILES O=C(Cc1cccc(-c2ccn(C(F)F)c(=O)c2)c1)OCCOC(=O)c1ccc(-c2c3nc(c(-c4c(F)cccc4F)c4ccc([nH]4)c(-c4c(F)cccc4F)c4nc(c(-c5c(F)cccc5F)c5ccc2[nH]5)C=C4)C=C3)cc1
REMARK SMILES IDX 21 1 20 2 2 3 1 4 3 5 4 6 5 7 19 8 6 9 8 10 7 11 9 12 10 13
REMARK SMILES IDX 18 14 11 15 16 16 12 17 17 18 13 19 14 20 15 21 22 22 23 23
REMARK SMILES IDX 24 24 25 25 26 26 27 27 79 28 28 29 78 30 29 31 30 32 31 33
REMARK SMILES IDX 72 34 32 35 77 36 71 37 73 38 33 39 76 40 70 41 69 42 34 44
REMARK SMILES IDX 60 45 43 46 59 47 44 48 47 49 58 50 74 51 45 52 46 53 57 55
REMARK SMILES IDX 75 56 48 57 35 58 36 59 41 60 37 61 38 62 40 63 42 64 39 65
REMARK SMILES IDX 61 66 62 67 67 68 63 69 64 70 66 71 68 72 65 73 49 74 50 75
REMARK SMILES IDX 55 76 51 77 52 78 54 79 56 80 53 81
REMARK H PARENT 73 43 47 54
REMARK Flexibility Score: inf
ROOT
ATOM      1  C   UNL A   1      43.860  21.581  25.394  1.00  0.00     0.274 C 
ENDROOT
BRANCH   1   2
ATOM      2  O   UNL A   1      42.421  21.623  25.409  1.00  0.00    -0.462 OA
BRANCH   2   3
ATOM      3  C   UNL A   1      41.752  20.543  25.903  1.00  0.00     0.310 C 
ATOM      4  O   UNL A   1      41.846  19.442  25.373  1.00  0.00    -0.252 OA
BRANCH   3   5
ATOM      5  C   UNL A   1      40.750  20.847  27.004  1.00  0.00     0.158 C 
BRANCH   5   6
ATOM      6  C   UNL A   1      39.817  21.992  26.710  1.00  0.00    -0.036 A 
ATOM      7  C   UNL A   1      40.139  23.312  27.030  1.00  0.00     0.004 A 
ATOM      8  C   UNL A   1      38.581  21.734  26.111  1.00  0.00     0.013 A 
ATOM      9  C   UNL A   1      39.239  24.345  26.744  1.00  0.00     0.001 A 
ATOM     10  C   UNL A   1      37.696  22.761  25.771  1.00  0.00    -0.018 A 
ATOM     11  C   UNL A   1      38.024  24.074  26.105  1.00  0.00     0.009 A 
BRANCH  10  12
ATOM     12  C   UNL A   1      36.514  22.386  24.973  1.00  0.00    -0.011 A 
ATOM     13  C   UNL A   1      35.832  23.304  24.081  1.00  0.00     0.027 A 
ATOM     14  C   UNL A   1      35.938  21.206  25.264  1.00  0.00     0.080 A 
ATOM     15  C   UNL A   1      34.617  23.008  23.603  1.00  0.00     0.095 A 
ATOM     16  C   UNL A   1      34.607  20.847  24.707  1.00  0.00     0.255 A 
ATOM     17  N   UNL A   1      34.003  21.810  23.915  1.00  0.00    -0.258 N 
ATOM     18  O   UNL A   1      34.123  19.760  25.007  1.00  0.00    -0.269 OA
BRANCH  17  19
ATOM     19  C   UNL A   1      32.673  21.521  23.444  1.00  0.00     0.451 C 
ATOM     20  F   UNL A   1      31.754  22.307  24.053  1.00  0.00    -0.185 F 
ATOM     21  F   UNL A   1      32.581  21.723  22.106  1.00  0.00    -0.185 F 
ENDBRANCH  17  19
ENDBRANCH  10  12
ENDBRANCH   5   6
ENDBRANCH   3   5
ENDBRANCH   2   3
ENDBRANCH   1   2
BRANCH   1  22
ATOM     22  C   UNL A   1      44.496  22.819  24.752  1.00  0.00     0.275 C 
BRANCH  22  23
ATOM     23  O   UNL A   1      45.297  23.541  25.698  1.00  0.00    -0.458 OA
BRANCH  23  24
ATOM     24  C   UNL A   1      45.303  24.883  25.483  1.00  0.00     0.338 C 
ATOM     25  O   UNL A   1      45.930  25.481  24.628  1.00  0.00    -0.246 OA
BRANCH  24  26
ATOM     26  C   UNL A   1      44.279  25.531  26.330  1.00  0.00     0.060 A 
ATOM     27  C   UNL A   1      44.282  26.930  26.377  1.00  0.00     0.016 A 
ATOM     28  C   UNL A   1      43.358  24.800  27.086  1.00  0.00     0.016 A 
ATOM     29  C   UNL A   1      43.420  27.600  27.243  1.00  0.00     0.010 A 
ATOM     30  C   UNL A   1      42.493  25.472  27.956  1.00  0.00     0.010 A 
ATOM     31  C   UNL A   1      42.561  26.871  28.076  1.00  0.00    -0.014 A 
BRANCH  31  32
ATOM     32  C   UNL A   1      41.917  27.570  29.215  1.00  0.00     0.031 A 
ATOM     33  C   UNL A   1      42.562  27.463  30.571  1.00  0.00     0.074 A 
ATOM     34  C   UNL A   1      40.826  28.335  29.046  1.00  0.00     0.049 A 
ATOM     35  N   UNL A   1      42.256  28.076  31.687  1.00  0.00    -0.248 NA
ATOM     36  C   UNL A   1      43.706  26.543  30.682  1.00  0.00     0.031 C 
ATOM     37  C   UNL A   1      40.110  28.531  27.788  1.00  0.00     0.029 A 
ATOM     38  N   UNL A   1      40.136  29.102  29.951  1.00  0.00    -0.354 N 
ATOM     39  C   UNL A   1      43.179  27.629  32.623  1.00  0.00     0.074 A 
ATOM     40  C   UNL A   1      44.023  26.659  31.962  1.00  0.00     0.031 C 
ATOM     41  C   UNL A   1      39.080  29.370  28.000  1.00  0.00     0.029 A 
ATOM     42  C   UNL A   1      39.067  29.769  29.407  1.00  0.00     0.049 A 
ATOM     43  H   UNL A   1      40.385  29.168  30.902  1.00  0.00     0.167 HD
ATOM     44  C   UNL A   1      43.328  28.006  33.915  1.00  0.00     0.037 A 
ATOM     45  C   UNL A   1      38.189  30.613  29.981  1.00  0.00     0.037 A 
ATOM     46  C   UNL A   1      42.490  28.964  34.583  1.00  0.00     0.049 A 
ATOM     47  C   UNL A   1      38.345  30.982  31.433  1.00  0.00     0.074 A 
ATOM     48  C   UNL A   1      42.575  29.425  35.885  1.00  0.00     0.029 A 
ATOM     49  N   UNL A   1      41.406  29.600  34.001  1.00  0.00    -0.354 N 
ATOM     50  N   UNL A   1      39.265  30.610  32.290  1.00  0.00    -0.248 NA
ATOM     51  C   UNL A   1      37.348  31.909  31.991  1.00  0.00     0.031 C 
ATOM     52  C   UNL A   1      41.518  30.316  36.102  1.00  0.00     0.029 A 
ATOM     53  C   UNL A   1      40.800  30.437  34.923  1.00  0.00     0.049 A 
ATOM     54  H   UNL A   1      41.111  29.476  33.070  1.00  0.00     0.167 HD
ATOM     55  C   UNL A   1      38.984  31.288  33.471  1.00  0.00     0.074 A 
ATOM     56  C   UNL A   1      37.808  32.094  33.221  1.00  0.00     0.031 C 
ATOM     57  C   UNL A   1      39.645  31.252  34.653  1.00  0.00     0.037 A 
BRANCH  44  58
ATOM     58  C   UNL A   1      44.441  27.368  34.686  1.00  0.00     0.057 A 
ATOM     59  C   UNL A   1      45.718  27.943  34.745  1.00  0.00     0.134 A 
ATOM     60  C   UNL A   1      44.236  26.171  35.381  1.00  0.00     0.134 A 
ATOM     61  F   UNL A   1      45.982  29.080  34.084  1.00  0.00    -0.206 F 
ATOM     62  C   UNL A   1      46.757  27.337  35.453  1.00  0.00     0.040 A 
ATOM     63  C   UNL A   1      45.262  25.566  36.109  1.00  0.00     0.040 A 
ATOM     64  F   UNL A   1      43.037  25.570  35.362  1.00  0.00    -0.206 F 
ATOM     65  C   UNL A   1      46.528  26.147  36.141  1.00  0.00     0.006 A 
ENDBRANCH  44  58
BRANCH  45  66
ATOM     66  C   UNL A   1      37.091  31.205  29.178  1.00  0.00     0.057 A 
ATOM     67  C   UNL A   1      37.169  32.520  28.704  1.00  0.00     0.134 A 
ATOM     68  C   UNL A   1      35.920  30.488  28.907  1.00  0.00     0.134 A 
ATOM     69  F   UNL A   1      38.256  33.264  28.955  1.00  0.00    -0.206 F 
ATOM     70  C   UNL A   1      36.113  33.109  28.007  1.00  0.00     0.040 A 
ATOM     71  C   UNL A   1      34.863  31.058  28.194  1.00  0.00     0.040 A 
ATOM     72  F   UNL A   1      35.785  29.225  29.336  1.00  0.00    -0.206 F 
ATOM     73  C   UNL A   1      34.956  32.376  27.750  1.00  0.00     0.006 A 
ENDBRANCH  45  66
BRANCH  57  74
ATOM     74  C   UNL A   1      39.149  32.147  35.751  1.00  0.00     0.057 A 
ATOM     75  C   UNL A   1      39.558  33.481  35.862  1.00  0.00     0.134 A 
ATOM     76  C   UNL A   1      38.217  31.674  36.684  1.00  0.00     0.134 A 
ATOM     77  F   UNL A   1      40.457  33.990  35.006  1.00  0.00    -0.206 F 
ATOM     78  C   UNL A   1      39.074  34.308  36.877  1.00  0.00     0.040 A 
ATOM     79  C   UNL A   1      37.708  32.497  37.688  1.00  0.00     0.040 A 
ATOM     80  F   UNL A   1      37.777  30.408  36.626  1.00  0.00    -0.206 F 
ATOM     81  C   UNL A   1      38.142  33.818  37.791  1.00  0.00     0.006 A 
ENDBRANCH  57  74
ENDBRANCH  31  32
ENDBRANCH  24  26
ENDBRANCH  23  24
ENDBRANCH  22  23
ENDBRANCH   1  22
TORSDOF 14
ENDMDL
