MODEL 1
REMARK VINA RESULT:     -11.2      0.000      0.000
REMARK SMILES Cc1ccc2c(c1C)O[C@@H](C(=O)OCCOC(=O)c1ccc(-c3c4nc(c(-c5c(F)cccc5F)c5ccc([nH]5)c(-c5c(F)cccc5F)c5nc(c(-c6c(F)cccc6F)c6ccc3[nH]6)C=C5)C=C4)cc1)CC2=O
REMARK SMILES IDX 15 1 14 2 13 3 11 4 12 5 10 6 1 7 2 8 3 9 7 10 4 11 6 12
REMARK SMILES IDX 8 13 5 14 9 15 74 16 73 17 75 18 16 19 17 20 18 21 19 22
REMARK SMILES IDX 20 23 72 24 21 25 71 26 22 27 23 28 24 29 65 30 25 31 70 32
REMARK SMILES IDX 64 33 66 34 26 35 69 36 63 37 62 38 27 40 53 41 36 42 52 43
REMARK SMILES IDX 37 44 40 45 51 46 67 47 38 48 39 49 50 51 68 52 41 53 28 54
REMARK SMILES IDX 29 55 34 56 30 57 31 58 33 59 35 60 32 61 54 62 55 63 60 64
REMARK SMILES IDX 56 65 57 66 59 67 61 68 58 69 42 70 43 71 48 72 44 73 45 74
REMARK SMILES IDX 47 75 49 76 46 77
REMARK H PARENT 66 39 40 50
REMARK Flexibility Score: inf
ROOT
ATOM      1  C   UNL A   1      31.384  31.990  26.776  1.00  0.00     0.275 C 
ENDROOT
BRANCH   1   2
ATOM      2  C   UNL A   1      31.342  30.587  26.171  1.00  0.00     0.274 C 
BRANCH   2   3
ATOM      3  O   UNL A   1      32.577  30.290  25.490  1.00  0.00    -0.459 OA
BRANCH   3   4
ATOM      4  C   UNL A   1      32.986  28.995  25.498  1.00  0.00     0.347 C 
ATOM      5  O   UNL A   1      33.149  28.322  26.512  1.00  0.00    -0.248 OA
BRANCH   4   6
ATOM      6  C   UNL A   1      33.270  28.454  24.087  1.00  0.00     0.290 C 
ATOM      7  C   UNL A   1      27.312  28.553  23.132  1.00  0.00     0.045 C 
ATOM      8  C   UNL A   1      28.670  27.948  23.362  1.00  0.00    -0.044 A 
ATOM      9  C   UNL A   1      28.743  26.629  23.849  1.00  0.00     0.005 A 
ATOM     10  C   UNL A   1      29.859  28.670  23.124  1.00  0.00    -0.005 A 
ATOM     11  C   UNL A   1      29.972  26.020  24.092  1.00  0.00     0.016 A 
ATOM     12  C   UNL A   1      31.091  28.049  23.394  1.00  0.00     0.134 A 
ATOM     13  C   UNL A   1      29.860  30.097  22.639  1.00  0.00     0.049 C 
ATOM     14  C   UNL A   1      31.143  26.733  23.861  1.00  0.00     0.060 A 
ATOM     15  O   UNL A   1      32.228  28.785  23.173  1.00  0.00    -0.477 OA
ATOM     16  C   UNL A   1      32.456  26.112  24.120  1.00  0.00     0.170 C 
ATOM     17  C   UNL A   1      33.666  26.992  23.985  1.00  0.00     0.138 C 
ATOM     18  O   UNL A   1      32.543  24.918  24.392  1.00  0.00    -0.294 OA
ENDBRANCH   4   6
ENDBRANCH   3   4
ENDBRANCH   2   3
ENDBRANCH   1   2
BRANCH   1  19
ATOM     19  O   UNL A   1      32.678  32.592  26.591  1.00  0.00    -0.458 OA
BRANCH  19  20
ATOM     20  C   UNL A   1      33.110  33.346  27.624  1.00  0.00     0.338 C 
ATOM     21  O   UNL A   1      32.552  34.295  28.146  1.00  0.00    -0.246 OA
BRANCH  20  22
ATOM     22  C   UNL A   1      34.359  32.786  28.145  1.00  0.00     0.060 A 
ATOM     23  C   UNL A   1      34.375  31.450  28.552  1.00  0.00     0.016 A 
ATOM     24  C   UNL A   1      35.467  33.611  28.338  1.00  0.00     0.016 A 
ATOM     25  C   UNL A   1      35.500  30.931  29.180  1.00  0.00     0.010 A 
ATOM     26  C   UNL A   1      36.604  33.084  28.953  1.00  0.00     0.010 A 
ATOM     27  C   UNL A   1      36.616  31.748  29.392  1.00  0.00    -0.014 A 
BRANCH  27  28
ATOM     28  C   UNL A   1      37.783  31.216  30.125  1.00  0.00     0.031 A 
ATOM     29  C   UNL A   1      38.710  30.255  29.445  1.00  0.00     0.074 A 
ATOM     30  C   UNL A   1      38.009  31.613  31.390  1.00  0.00     0.049 A 
ATOM     31  N   UNL A   1      39.737  29.610  29.935  1.00  0.00    -0.248 NA
ATOM     32  C   UNL A   1      38.449  29.986  28.022  1.00  0.00     0.031 C 
ATOM     33  C   UNL A   1      37.202  32.587  32.127  1.00  0.00     0.029 A 
ATOM     34  N   UNL A   1      38.981  31.238  32.278  1.00  0.00    -0.354 N 
ATOM     35  C   UNL A   1      40.241  28.854  28.885  1.00  0.00     0.074 A 
ATOM     36  C   UNL A   1      39.395  29.103  27.737  1.00  0.00     0.031 C 
ATOM     37  C   UNL A   1      37.710  32.727  33.362  1.00  0.00     0.029 A 
ATOM     38  C   UNL A   1      38.846  31.822  33.512  1.00  0.00     0.049 A 
ATOM     39  H   UNL A   1      39.706  30.611  32.054  1.00  0.00     0.167 HD
ATOM     40  C   UNL A   1      41.316  28.031  28.882  1.00  0.00     0.037 A 
ATOM     41  C   UNL A   1      39.546  31.623  34.644  1.00  0.00     0.037 A 
ATOM     42  C   UNL A   1      42.146  27.783  30.031  1.00  0.00     0.049 A 
ATOM     43  C   UNL A   1      40.674  30.631  34.639  1.00  0.00     0.074 A 
ATOM     44  C   UNL A   1      43.252  26.960  30.139  1.00  0.00     0.029 A 
ATOM     45  N   UNL A   1      41.951  28.357  31.279  1.00  0.00    -0.354 N 
ATOM     46  N   UNL A   1      41.138  29.912  33.646  1.00  0.00    -0.248 NA
ATOM     47  C   UNL A   1      41.370  30.418  35.915  1.00  0.00     0.031 C 
ATOM     48  C   UNL A   1      43.707  27.009  31.462  1.00  0.00     0.029 A 
ATOM     49  C   UNL A   1      42.905  27.892  32.168  1.00  0.00     0.049 A 
ATOM     50  H   UNL A   1      41.240  29.002  31.499  1.00  0.00     0.167 HD
ATOM     51  C   UNL A   1      42.194  29.178  34.170  1.00  0.00     0.074 A 
ATOM     52  C   UNL A   1      42.307  29.548  35.567  1.00  0.00     0.031 C 
ATOM     53  C   UNL A   1      42.998  28.278  33.552  1.00  0.00     0.037 A 
BRANCH  40  54
ATOM     54  C   UNL A   1      41.631  27.322  27.600  1.00  0.00     0.057 A 
ATOM     55  C   UNL A   1      42.408  27.941  26.614  1.00  0.00     0.134 A 
ATOM     56  C   UNL A   1      41.160  26.029  27.337  1.00  0.00     0.134 A 
ATOM     57  F   UNL A   1      42.891  29.178  26.803  1.00  0.00    -0.206 F 
ATOM     58  C   UNL A   1      42.708  27.299  25.410  1.00  0.00     0.040 A 
ATOM     59  C   UNL A   1      41.470  25.368  26.147  1.00  0.00     0.040 A 
ATOM     60  F   UNL A   1      40.425  25.375  28.250  1.00  0.00    -0.206 F 
ATOM     61  C   UNL A   1      42.242  26.006  25.178  1.00  0.00     0.006 A 
ENDBRANCH  40  54
BRANCH  41  62
ATOM     62  C   UNL A   1      39.184  32.358  35.881  1.00  0.00     0.057 A 
ATOM     63  C   UNL A   1      39.702  33.630  36.149  1.00  0.00     0.134 A 
ATOM     64  C   UNL A   1      38.298  31.809  36.812  1.00  0.00     0.134 A 
ATOM     65  F   UNL A   1      40.558  34.209  35.294  1.00  0.00    -0.206 F 
ATOM     66  C   UNL A   1      39.357  34.328  37.308  1.00  0.00     0.040 A 
ATOM     67  C   UNL A   1      37.927  32.505  37.964  1.00  0.00     0.040 A 
ATOM     68  F   UNL A   1      37.753  30.603  36.597  1.00  0.00    -0.206 F 
ATOM     69  C   UNL A   1      38.461  33.767  38.215  1.00  0.00     0.006 A 
ENDBRANCH  41  62
BRANCH  53  70
ATOM     70  C   UNL A   1      44.085  27.665  34.381  1.00  0.00     0.057 A 
ATOM     71  C   UNL A   1      43.869  26.460  35.061  1.00  0.00     0.134 A 
ATOM     72  C   UNL A   1      45.339  28.273  34.518  1.00  0.00     0.134 A 
ATOM     73  F   UNL A   1      42.686  25.832  34.974  1.00  0.00    -0.206 F 
ATOM     74  C   UNL A   1      44.863  25.882  35.851  1.00  0.00     0.040 A 
ATOM     75  C   UNL A   1      46.348  27.692  35.287  1.00  0.00     0.040 A 
ATOM     76  F   UNL A   1      45.613  29.419  33.876  1.00  0.00    -0.206 F 
ATOM     77  C   UNL A   1      46.109  26.495  35.960  1.00  0.00     0.006 A 
ENDBRANCH  53  70
ENDBRANCH  27  28
ENDBRANCH  20  22
ENDBRANCH  19  20
ENDBRANCH   1  19
TORSDOF 11
ENDMDL
MODEL 2
REMARK VINA RESULT:     -11.1      0.401      6.493
REMARK SMILES Cc1ccc2c(c1C)O[C@@H](C(=O)OCCOC(=O)c1ccc(-c3c4nc(c(-c5c(F)cccc5F)c5ccc([nH]5)c(-c5c(F)cccc5F)c5nc(c(-c6c(F)cccc6F)c6ccc3[nH]6)C=C5)C=C4)cc1)CC2=O
REMARK SMILES IDX 15 1 14 2 13 3 11 4 12 5 10 6 1 7 2 8 3 9 7 10 4 11 6 12
REMARK SMILES IDX 8 13 5 14 9 15 74 16 73 17 75 18 16 19 17 20 18 21 19 22
REMARK SMILES IDX 20 23 72 24 21 25 71 26 22 27 23 28 24 29 65 30 25 31 70 32
REMARK SMILES IDX 64 33 66 34 26 35 69 36 63 37 62 38 27 40 53 41 36 42 52 43
REMARK SMILES IDX 37 44 40 45 51 46 67 47 38 48 39 49 50 51 68 52 41 53 28 54
REMARK SMILES IDX 29 55 34 56 30 57 31 58 33 59 35 60 32 61 54 62 55 63 60 64
REMARK SMILES IDX 56 65 57 66 59 67 61 68 58 69 42 70 43 71 48 72 44 73 45 74
REMARK SMILES IDX 47 75 49 76 46 77
REMARK H PARENT 66 39 40 50
REMARK Flexibility Score: inf
ROOT
ATOM      1  C   UNL A   1      31.403  32.453  26.637  1.00  0.00     0.275 C 
ENDROOT
BRANCH   1   2
ATOM      2  C   UNL A   1      31.482  30.927  26.638  1.00  0.00     0.274 C 
BRANCH   2   3
ATOM      3  O   UNL A   1      32.014  30.445  25.388  1.00  0.00    -0.459 OA
BRANCH   3   4
ATOM      4  C   UNL A   1      32.717  29.284  25.428  1.00  0.00     0.347 C 
ATOM      5  O   UNL A   1      33.114  28.745  26.456  1.00  0.00    -0.248 OA
BRANCH   4   6
ATOM      6  C   UNL A   1      33.009  28.719  24.027  1.00  0.00     0.290 C 
ATOM      7  C   UNL A   1      27.044  28.577  23.126  1.00  0.00     0.045 C 
ATOM      8  C   UNL A   1      28.425  28.028  23.358  1.00  0.00    -0.044 A 
ATOM      9  C   UNL A   1      28.550  26.725  23.876  1.00  0.00     0.005 A 
ATOM     10  C   UNL A   1      29.584  28.787  23.091  1.00  0.00    -0.005 A 
ATOM     11  C   UNL A   1      29.803  26.167  24.122  1.00  0.00     0.016 A 
ATOM     12  C   UNL A   1      30.840  28.218  23.365  1.00  0.00     0.134 A 
ATOM     13  C   UNL A   1      29.529  30.201  22.572  1.00  0.00     0.049 C 
ATOM     14  C   UNL A   1      30.945  26.917  23.863  1.00  0.00     0.060 A 
ATOM     15  O   UNL A   1      31.948  28.990  23.115  1.00  0.00    -0.477 OA
ATOM     16  C   UNL A   1      32.282  26.350  24.125  1.00  0.00     0.170 C 
ATOM     17  C   UNL A   1      33.457  27.271  23.957  1.00  0.00     0.138 C 
ATOM     18  O   UNL A   1      32.415  25.168  24.425  1.00  0.00    -0.294 OA
ENDBRANCH   4   6
ENDBRANCH   3   4
ENDBRANCH   2   3
ENDBRANCH   1   2
BRANCH   1  19
ATOM     19  O   UNL A   1      32.718  33.037  26.588  1.00  0.00    -0.458 OA
BRANCH  19  20
ATOM     20  C   UNL A   1      33.129  33.617  27.736  1.00  0.00     0.338 C 
ATOM     21  O   UNL A   1      32.575  34.495  28.373  1.00  0.00    -0.246 OA
BRANCH  20  22
ATOM     22  C   UNL A   1      34.341  32.948  28.212  1.00  0.00     0.060 A 
ATOM     23  C   UNL A   1      34.275  31.589  28.530  1.00  0.00     0.016 A 
ATOM     24  C   UNL A   1      35.498  33.689  28.452  1.00  0.00     0.016 A 
ATOM     25  C   UNL A   1      35.368  30.962  29.116  1.00  0.00     0.010 A 
ATOM     26  C   UNL A   1      36.602  33.053  29.024  1.00  0.00     0.010 A 
ATOM     27  C   UNL A   1      36.532  31.694  29.374  1.00  0.00    -0.014 A 
BRANCH  27  28
ATOM     28  C   UNL A   1      37.666  31.043  30.063  1.00  0.00     0.031 A 
ATOM     29  C   UNL A   1      37.948  31.370  31.498  1.00  0.00     0.074 A 
ATOM     30  C   UNL A   1      38.423  30.153  29.398  1.00  0.00     0.049 A 
ATOM     31  N   UNL A   1      38.938  30.977  32.257  1.00  0.00    -0.248 NA
ATOM     32  C   UNL A   1      36.984  32.256  32.171  1.00  0.00     0.031 C 
ATOM     33  C   UNL A   1      38.203  29.720  28.017  1.00  0.00     0.029 A 
ATOM     34  N   UNL A   1      39.536  29.460  29.796  1.00  0.00    -0.354 N 
ATOM     35  C   UNL A   1      38.722  31.570  33.493  1.00  0.00     0.074 A 
ATOM     36  C   UNL A   1      37.520  32.368  33.377  1.00  0.00     0.031 C 
ATOM     37  C   UNL A   1      39.157  28.838  27.680  1.00  0.00     0.029 A 
ATOM     38  C   UNL A   1      40.075  28.681  28.804  1.00  0.00     0.049 A 
ATOM     39  H   UNL A   1      39.910  29.514  30.704  1.00  0.00     0.167 HD
ATOM     40  C   UNL A   1      39.461  31.454  34.621  1.00  0.00     0.037 A 
ATOM     41  C   UNL A   1      41.203  27.947  28.799  1.00  0.00     0.037 A 
ATOM     42  C   UNL A   1      40.660  30.666  34.723  1.00  0.00     0.049 A 
ATOM     43  C   UNL A   1      42.057  27.913  30.035  1.00  0.00     0.074 A 
ATOM     44  C   UNL A   1      41.489  30.488  35.816  1.00  0.00     0.029 A 
ATOM     45  N   UNL A   1      41.204  29.926  33.684  1.00  0.00    -0.354 N 
ATOM     46  N   UNL A   1      41.853  28.485  31.196  1.00  0.00    -0.248 NA
ATOM     47  C   UNL A   1      43.302  27.137  29.955  1.00  0.00     0.031 C 
ATOM     48  C   UNL A   1      42.555  29.667  35.428  1.00  0.00     0.029 A 
ATOM     49  C   UNL A   1      42.369  29.304  34.103  1.00  0.00     0.049 A 
ATOM     50  H   UNL A   1      40.818  29.852  32.781  1.00  0.00     0.167 HD
ATOM     51  C   UNL A   1      42.930  28.121  31.994  1.00  0.00     0.074 A 
ATOM     52  C   UNL A   1      43.779  27.270  31.184  1.00  0.00     0.031 C 
ATOM     53  C   UNL A   1      43.194  28.460  33.279  1.00  0.00     0.037 A 
BRANCH  40  54
ATOM     54  C   UNL A   1      39.000  32.223  35.822  1.00  0.00     0.057 A 
ATOM     55  C   UNL A   1      38.170  31.625  36.778  1.00  0.00     0.134 A 
ATOM     56  C   UNL A   1      39.373  33.557  36.031  1.00  0.00     0.134 A 
ATOM     57  F   UNL A   1      37.778  30.350  36.638  1.00  0.00    -0.206 F 
ATOM     58  C   UNL A   1      37.726  32.327  37.901  1.00  0.00     0.040 A 
ATOM     59  C   UNL A   1      38.952  34.263  37.160  1.00  0.00     0.040 A 
ATOM     60  F   UNL A   1      40.181  34.181  35.161  1.00  0.00    -0.206 F 
ATOM     61  C   UNL A   1      38.123  33.648  38.097  1.00  0.00     0.006 A 
ENDBRANCH  40  54
BRANCH  41  62
ATOM     62  C   UNL A   1      41.604  27.208  27.577  1.00  0.00     0.057 A 
ATOM     63  C   UNL A   1      41.285  25.855  27.408  1.00  0.00     0.134 A 
ATOM     64  C   UNL A   1      42.299  27.844  26.544  1.00  0.00     0.134 A 
ATOM     65  F   UNL A   1      40.620  25.190  28.364  1.00  0.00    -0.206 F 
ATOM     66  C   UNL A   1      41.652  25.158  26.255  1.00  0.00     0.040 A 
ATOM     67  C   UNL A   1      42.654  27.165  25.378  1.00  0.00     0.040 A 
ATOM     68  F   UNL A   1      42.612  29.144  26.642  1.00  0.00    -0.206 F 
ATOM     69  C   UNL A   1      42.333  25.817  25.233  1.00  0.00     0.006 A 
ENDBRANCH  41  62
BRANCH  53  70
ATOM     70  C   UNL A   1      44.433  27.879  33.889  1.00  0.00     0.057 A 
ATOM     71  C   UNL A   1      44.397  26.630  34.522  1.00  0.00     0.134 A 
ATOM     72  C   UNL A   1      45.656  28.560  33.865  1.00  0.00     0.134 A 
ATOM     73  F   UNL A   1      43.254  25.930  34.583  1.00  0.00    -0.206 F 
ATOM     74  C   UNL A   1      45.535  26.079  35.111  1.00  0.00     0.040 A 
ATOM     75  C   UNL A   1      46.806  28.010  34.431  1.00  0.00     0.040 A 
ATOM     76  F   UNL A   1      45.758  29.752  33.258  1.00  0.00    -0.206 F 
ATOM     77  C   UNL A   1      46.746  26.768  35.060  1.00  0.00     0.006 A 
ENDBRANCH  53  70
ENDBRANCH  27  28
ENDBRANCH  20  22
ENDBRANCH  19  20
ENDBRANCH   1  19
TORSDOF 11
ENDMDL
MODEL 3
REMARK VINA RESULT:     -11.0      4.420      9.168
REMARK SMILES Cc1ccc2c(c1C)O[C@@H](C(=O)OCCOC(=O)c1ccc(-c3c4nc(c(-c5c(F)cccc5F)c5ccc([nH]5)c(-c5c(F)cccc5F)c5nc(c(-c6c(F)cccc6F)c6ccc3[nH]6)C=C5)C=C4)cc1)CC2=O
REMARK SMILES IDX 15 1 14 2 13 3 11 4 12 5 10 6 1 7 2 8 3 9 7 10 4 11 6 12
REMARK SMILES IDX 8 13 5 14 9 15 74 16 73 17 75 18 16 19 17 20 18 21 19 22
REMARK SMILES IDX 20 23 72 24 21 25 71 26 22 27 23 28 24 29 65 30 25 31 70 32
REMARK SMILES IDX 64 33 66 34 26 35 69 36 63 37 62 38 27 40 53 41 36 42 52 43
REMARK SMILES IDX 37 44 40 45 51 46 67 47 38 48 39 49 50 51 68 52 41 53 28 54
REMARK SMILES IDX 29 55 34 56 30 57 31 58 33 59 35 60 32 61 54 62 55 63 60 64
REMARK SMILES IDX 56 65 57 66 59 67 61 68 58 69 42 70 43 71 48 72 44 73 45 74
REMARK SMILES IDX 47 75 49 76 46 77
REMARK H PARENT 66 39 40 50
REMARK Flexibility Score: inf
ROOT
ATOM      1  C   UNL A   1      36.234  20.741  25.376  1.00  0.00     0.275 C 
ENDROOT
BRANCH   1   2
ATOM      2  C   UNL A   1      35.014  21.561  25.793  1.00  0.00     0.274 C 
BRANCH   2   3
ATOM      3  O   UNL A   1      33.898  21.291  24.923  1.00  0.00    -0.459 OA
BRANCH   3   4
ATOM      4  C   UNL A   1      33.628  22.215  23.966  1.00  0.00     0.347 C 
ATOM      5  O   UNL A   1      34.465  22.703  23.213  1.00  0.00    -0.248 OA
BRANCH   4   6
ATOM      6  C   UNL A   1      32.147  22.631  23.944  1.00  0.00     0.290 C 
ATOM      7  C   UNL A   1      34.028  28.335  23.357  1.00  0.00     0.045 C 
ATOM      8  C   UNL A   1      33.419  27.138  24.036  1.00  0.00    -0.044 A 
ATOM      9  C   UNL A   1      33.362  27.122  25.442  1.00  0.00     0.005 A 
ATOM     10  C   UNL A   1      32.928  26.036  23.304  1.00  0.00    -0.005 A 
ATOM     11  C   UNL A   1      32.820  26.035  26.126  1.00  0.00     0.016 A 
ATOM     12  C   UNL A   1      32.404  24.939  24.009  1.00  0.00     0.134 A 
ATOM     13  C   UNL A   1      32.990  25.966  21.800  1.00  0.00     0.049 C 
ATOM     14  C   UNL A   1      32.341  24.947  25.405  1.00  0.00     0.060 A 
ATOM     15  O   UNL A   1      31.955  23.873  23.270  1.00  0.00    -0.477 OA
ATOM     16  C   UNL A   1      31.771  23.781  26.108  1.00  0.00     0.170 C 
ATOM     17  C   UNL A   1      31.408  22.589  25.270  1.00  0.00     0.138 C 
ATOM     18  O   UNL A   1      31.569  23.816  27.319  1.00  0.00    -0.294 OA
ENDBRANCH   4   6
ENDBRANCH   3   4
ENDBRANCH   2   3
ENDBRANCH   1   2
BRANCH   1  19
ATOM     19  O   UNL A   1      37.367  21.593  25.126  1.00  0.00    -0.458 OA
BRANCH  19  20
ATOM     20  C   UNL A   1      38.509  21.219  25.741  1.00  0.00     0.338 C 
ATOM     21  O   UNL A   1      39.020  20.114  25.768  1.00  0.00    -0.246 OA
BRANCH  20  22
ATOM     22  C   UNL A   1      39.158  22.398  26.319  1.00  0.00     0.060 A 
ATOM     23  C   UNL A   1      38.625  23.659  26.041  1.00  0.00     0.016 A 
ATOM     24  C   UNL A   1      40.350  22.260  27.030  1.00  0.00     0.016 A 
ATOM     25  C   UNL A   1      39.298  24.802  26.456  1.00  0.00     0.010 A 
ATOM     26  C   UNL A   1      41.015  23.408  27.462  1.00  0.00     0.010 A 
ATOM     27  C   UNL A   1      40.501  24.681  27.160  1.00  0.00    -0.014 A 
BRANCH  27  28
ATOM     28  C   UNL A   1      41.251  25.896  27.537  1.00  0.00     0.031 A 
ATOM     29  C   UNL A   1      40.579  26.963  28.347  1.00  0.00     0.074 A 
ATOM     30  C   UNL A   1      42.536  26.025  27.161  1.00  0.00     0.049 A 
ATOM     31  N   UNL A   1      41.030  28.136  28.708  1.00  0.00    -0.248 NA
ATOM     32  C   UNL A   1      39.215  26.668  28.816  1.00  0.00     0.031 C 
ATOM     33  C   UNL A   1      43.304  25.023  26.420  1.00  0.00     0.029 A 
ATOM     34  N   UNL A   1      43.418  27.057  27.347  1.00  0.00    -0.354 N 
ATOM     35  C   UNL A   1      40.007  28.723  29.440  1.00  0.00     0.074 A 
ATOM     36  C   UNL A   1      38.903  27.787  29.454  1.00  0.00     0.031 C 
ATOM     37  C   UNL A   1      44.543  25.495  26.208  1.00  0.00     0.029 A 
ATOM     38  C   UNL A   1      44.638  26.843  26.758  1.00  0.00     0.049 A 
ATOM     39  H   UNL A   1      43.197  27.871  27.854  1.00  0.00     0.167 HD
ATOM     40  C   UNL A   1      39.996  29.932  30.048  1.00  0.00     0.037 A 
ATOM     41  C   UNL A   1      45.701  27.662  26.652  1.00  0.00     0.037 A 
ATOM     42  C   UNL A   1      41.096  30.860  30.020  1.00  0.00     0.049 A 
ATOM     43  C   UNL A   1      45.626  29.037  27.253  1.00  0.00     0.074 A 
ATOM     44  C   UNL A   1      41.184  32.115  30.595  1.00  0.00     0.029 A 
ATOM     45  N   UNL A   1      42.301  30.630  29.374  1.00  0.00    -0.354 N 
ATOM     46  N   UNL A   1      44.652  29.589  27.934  1.00  0.00    -0.248 NA
ATOM     47  C   UNL A   1      46.796  29.904  27.062  1.00  0.00     0.031 C 
ATOM     48  C   UNL A   1      42.431  32.660  30.266  1.00  0.00     0.029 A 
ATOM     49  C   UNL A   1      43.134  31.727  29.519  1.00  0.00     0.049 A 
ATOM     50  H   UNL A   1      42.531  29.806  28.885  1.00  0.00     0.167 HD
ATOM     51  C   UNL A   1      45.099  30.860  28.274  1.00  0.00     0.074 A 
ATOM     52  C   UNL A   1      46.436  30.990  27.730  1.00  0.00     0.031 C 
ATOM     53  C   UNL A   1      44.461  31.831  28.971  1.00  0.00     0.037 A 
BRANCH  40  54
ATOM     54  C   UNL A   1      38.741  30.324  30.768  1.00  0.00     0.057 A 
ATOM     55  C   UNL A   1      37.724  31.018  30.103  1.00  0.00     0.134 A 
ATOM     56  C   UNL A   1      38.541  30.018  32.121  1.00  0.00     0.134 A 
ATOM     57  F   UNL A   1      37.852  31.340  28.807  1.00  0.00    -0.206 F 
ATOM     58  C   UNL A   1      36.549  31.396  30.758  1.00  0.00     0.040 A 
ATOM     59  C   UNL A   1      37.363  30.372  32.781  1.00  0.00     0.040 A 
ATOM     60  F   UNL A   1      39.471  29.339  32.809  1.00  0.00    -0.206 F 
ATOM     61  C   UNL A   1      36.365  31.067  32.100  1.00  0.00     0.006 A 
ENDBRANCH  40  54
BRANCH  41  62
ATOM     62  C   UNL A   1      46.914  27.214  25.926  1.00  0.00     0.057 A 
ATOM     63  C   UNL A   1      47.937  26.517  26.580  1.00  0.00     0.134 A 
ATOM     64  C   UNL A   1      47.069  27.458  24.559  1.00  0.00     0.134 A 
ATOM     65  F   UNL A   1      47.848  26.253  27.892  1.00  0.00    -0.206 F 
ATOM     66  C   UNL A   1      49.077  26.085  25.899  1.00  0.00     0.040 A 
ATOM     67  C   UNL A   1      48.192  27.014  23.860  1.00  0.00     0.040 A 
ATOM     68  F   UNL A   1      46.111  28.101  23.876  1.00  0.00    -0.206 F 
ATOM     69  C   UNL A   1      49.202  26.328  24.533  1.00  0.00     0.006 A 
ENDBRANCH  41  62
BRANCH  53  70
ATOM     70  C   UNL A   1      45.221  33.100  29.209  1.00  0.00     0.057 A 
ATOM     71  C   UNL A   1      45.122  34.169  28.310  1.00  0.00     0.134 A 
ATOM     72  C   UNL A   1      46.061  33.259  30.318  1.00  0.00     0.134 A 
ATOM     73  F   UNL A   1      44.337  34.077  27.226  1.00  0.00    -0.206 F 
ATOM     74  C   UNL A   1      45.834  35.353  28.505  1.00  0.00     0.040 A 
ATOM     75  C   UNL A   1      46.761  34.446  30.535  1.00  0.00     0.040 A 
ATOM     76  F   UNL A   1      46.184  32.277  31.224  1.00  0.00    -0.206 F 
ATOM     77  C   UNL A   1      46.652  35.495  29.625  1.00  0.00     0.006 A 
ENDBRANCH  53  70
ENDBRANCH  27  28
ENDBRANCH  20  22
ENDBRANCH  19  20
ENDBRANCH   1  19
TORSDOF 11
ENDMDL
