MODEL 1
REMARK VINA RESULT:     -10.6      0.000      0.000
REMARK SMILES CC[C@@](C)(NC(=O)CCc1ccc(OC)c(Br)c1)C(=O)OCCOC(=O)c1ccc(-c2c3nc(c(-c4c(F)cccc4F)c4ccc([nH]4)c(-c4c(F)cccc4F)c4nc(c(-c5c(F)cccc5F)c5ccc2[nH]5)C=C4)C=C3)cc1
REMARK SMILES IDX 21 1 19 2 20 3 3 4 4 5 2 6 1 7 5 8 6 9 7 11 8 12 9 13 10 14
REMARK SMILES IDX 11 15 18 16 12 17 16 18 13 19 17 20 14 21 15 22 22 23 23 24
REMARK SMILES IDX 24 25 25 26 26 27 27 28 28 29 80 30 29 31 79 32 30 33 31 34
REMARK SMILES IDX 32 35 73 36 33 37 78 38 72 39 74 40 34 41 77 42 71 43 70 44
REMARK SMILES IDX 35 46 61 47 44 48 60 49 45 50 48 51 59 52 75 53 46 54 47 55
REMARK SMILES IDX 58 57 76 58 49 59 36 60 37 61 42 62 38 63 39 64 41 65 43 66
REMARK SMILES IDX 40 67 62 68 63 69 68 70 64 71 65 72 67 73 69 74 66 75 50 76
REMARK SMILES IDX 51 77 56 78 52 79 53 80 55 81 57 82 54 83
REMARK H PARENT 5 10 74 45 48 56
REMARK Flexibility Score: inf
ROOT
ATOM      1  O   UNL A   1      37.286  21.167  24.599  1.00  0.00    -0.460 OA
ENDROOT
BRANCH   1   2
ATOM      2  C   UNL A   1      35.999  21.326  25.090  1.00  0.00     0.331 C 
ATOM      3  O   UNL A   1      35.187  20.405  25.088  1.00  0.00    -0.249 OA
BRANCH   2   4
ATOM      4  C   UNL A   1      35.658  22.836  25.705  1.00  0.00     0.135 C 
ATOM      5  C   UNL A   1      37.055  23.461  25.919  1.00  0.00     0.047 C 
BRANCH   4   6
ATOM      6  C   UNL A   1      34.763  24.075  25.200  1.00  0.00     0.037 C 
ATOM      7  C   UNL A   1      34.490  24.533  23.772  1.00  0.00     0.007 C 
ENDBRANCH   4   6
BRANCH   4   8
ATOM      8  N   UNL A   1      34.985  22.520  26.955  1.00  0.00    -0.340 N 
ATOM      9  C   UNL A   1      33.630  22.441  27.074  1.00  0.00     0.221 C 
ATOM     10  H   UNL A   1      35.535  22.356  27.755  1.00  0.00     0.164 HD
ATOM     11  O   UNL A   1      33.172  22.450  28.221  1.00  0.00    -0.275 OA
BRANCH   9  12
ATOM     12  C   UNL A   1      32.677  22.251  25.859  1.00  0.00     0.105 C 
BRANCH  12  13
ATOM     13  C   UNL A   1      31.425  23.095  25.340  1.00  0.00     0.045 C 
BRANCH  13  14
ATOM     14  C   UNL A   1      30.958  24.580  25.273  1.00  0.00    -0.046 A 
ATOM     15  C   UNL A   1      30.356  25.167  24.158  1.00  0.00     0.007 A 
ATOM     16  C   UNL A   1      31.344  25.522  26.247  1.00  0.00     0.023 A 
ATOM     17  C   UNL A   1      30.312  26.541  23.919  1.00  0.00     0.048 A 
ATOM     18  C   UNL A   1      31.262  26.912  26.063  1.00  0.00     0.060 A 
ATOM     19  C   UNL A   1      30.881  27.403  24.830  1.00  0.00     0.133 A 
ATOM     20  Br  UNL A   1      31.750  28.072  27.481  1.00  0.00    -0.047 Br
BRANCH  19  21
ATOM     21  O   UNL A   1      31.180  28.681  24.448  1.00  0.00    -0.496 OA
ATOM     22  C   UNL A   1      31.924  28.619  23.217  1.00  0.00     0.278 C 
ENDBRANCH  19  21
ENDBRANCH  13  14
ENDBRANCH  12  13
ENDBRANCH   9  12
ENDBRANCH   4   8
ENDBRANCH   2   4
ENDBRANCH   1   2
BRANCH   1  23
ATOM     23  C   UNL A   1      38.127  20.026  24.999  1.00  0.00     0.274 C 
BRANCH  23  24
ATOM     24  C   UNL A   1      39.505  20.409  25.709  1.00  0.00     0.275 C 
BRANCH  24  25
ATOM     25  O   UNL A   1      40.253  19.293  26.318  1.00  0.00    -0.458 OA
BRANCH  25  26
ATOM     26  C   UNL A   1      41.601  19.120  26.073  1.00  0.00     0.338 C 
ATOM     27  O   UNL A   1      42.141  18.055  25.871  1.00  0.00    -0.246 OA
BRANCH  26  28
ATOM     28  C   UNL A   1      42.376  20.418  26.306  1.00  0.00     0.060 A 
ATOM     29  C   UNL A   1      43.050  21.091  25.284  1.00  0.00     0.016 A 
ATOM     30  C   UNL A   1      42.248  21.093  27.526  1.00  0.00     0.016 A 
ATOM     31  C   UNL A   1      43.291  22.485  25.360  1.00  0.00     0.010 A 
ATOM     32  C   UNL A   1      42.611  22.459  27.645  1.00  0.00     0.010 A 
ATOM     33  C   UNL A   1      43.059  23.206  26.539  1.00  0.00    -0.014 A 
BRANCH  33  34
ATOM     34  C   UNL A   1      43.285  24.696  26.653  1.00  0.00     0.031 A 
ATOM     35  C   UNL A   1      44.621  25.315  26.331  1.00  0.00     0.074 A 
ATOM     36  C   UNL A   1      42.305  25.538  27.053  1.00  0.00     0.049 A 
ATOM     37  N   UNL A   1      45.056  26.523  26.598  1.00  0.00    -0.248 NA
ATOM     38  C   UNL A   1      45.583  24.486  25.592  1.00  0.00     0.031 C 
ATOM     39  C   UNL A   1      40.907  25.167  27.222  1.00  0.00     0.029 A 
ATOM     40  N   UNL A   1      42.324  26.875  27.407  1.00  0.00    -0.354 N 
ATOM     41  C   UNL A   1      46.344  26.589  26.084  1.00  0.00     0.074 A 
ATOM     42  C   UNL A   1      46.604  25.318  25.446  1.00  0.00     0.031 C 
ATOM     43  C   UNL A   1      40.216  26.210  27.710  1.00  0.00     0.029 A 
ATOM     44  C   UNL A   1      41.126  27.333  27.919  1.00  0.00     0.049 A 
ATOM     45  H   UNL A   1      43.118  27.447  27.303  1.00  0.00     0.167 HD
ATOM     46  C   UNL A   1      47.250  27.592  26.173  1.00  0.00     0.037 A 
ATOM     47  C   UNL A   1      40.801  28.493  28.535  1.00  0.00     0.037 A 
ATOM     48  C   UNL A   1      47.033  28.845  26.845  1.00  0.00     0.049 A 
ATOM     49  C   UNL A   1      41.872  29.531  28.771  1.00  0.00     0.074 A 
ATOM     50  C   UNL A   1      47.932  29.877  27.056  1.00  0.00     0.029 A 
ATOM     51  N   UNL A   1      45.839  29.233  27.429  1.00  0.00    -0.354 N 
ATOM     52  N   UNL A   1      43.115  29.543  28.358  1.00  0.00    -0.248 NA
ATOM     53  C   UNL A   1      41.506  30.700  29.590  1.00  0.00     0.031 C 
ATOM     54  C   UNL A   1      47.297  30.867  27.814  1.00  0.00     0.029 A 
ATOM     55  C   UNL A   1      45.987  30.473  28.030  1.00  0.00     0.049 A 
ATOM     56  H   UNL A   1      45.007  28.707  27.418  1.00  0.00     0.167 HD
ATOM     57  C   UNL A   1      43.673  30.714  28.858  1.00  0.00     0.074 A 
ATOM     58  C   UNL A   1      42.628  31.407  29.577  1.00  0.00     0.031 C 
ATOM     59  C   UNL A   1      44.945  31.165  28.743  1.00  0.00     0.037 A 
BRANCH  46  60
ATOM     60  C   UNL A   1      48.613  27.321  25.613  1.00  0.00     0.057 A 
ATOM     61  C   UNL A   1      48.907  27.469  24.253  1.00  0.00     0.134 A 
ATOM     62  C   UNL A   1      49.648  26.908  26.464  1.00  0.00     0.134 A 
ATOM     63  F   UNL A   1      47.952  27.840  23.388  1.00  0.00    -0.206 F 
ATOM     64  C   UNL A   1      50.183  27.199  23.755  1.00  0.00     0.040 A 
ATOM     65  C   UNL A   1      50.930  26.654  25.980  1.00  0.00     0.040 A 
ATOM     66  F   UNL A   1      49.424  26.745  27.776  1.00  0.00    -0.206 F 
ATOM     67  C   UNL A   1      51.199  26.795  24.621  1.00  0.00     0.006 A 
ENDBRANCH  46  60
BRANCH  47  68
ATOM     68  C   UNL A   1      39.427  28.728  29.074  1.00  0.00     0.057 A 
ATOM     69  C   UNL A   1      38.432  29.344  28.302  1.00  0.00     0.134 A 
ATOM     70  C   UNL A   1      39.105  28.434  30.406  1.00  0.00     0.134 A 
ATOM     71  F   UNL A   1      38.685  29.695  27.032  1.00  0.00    -0.206 F 
ATOM     72  C   UNL A   1      37.184  29.677  28.836  1.00  0.00     0.040 A 
ATOM     73  C   UNL A   1      37.849  28.729  30.943  1.00  0.00     0.040 A 
ATOM     74  F   UNL A   1      40.012  27.867  31.213  1.00  0.00    -0.206 F 
ATOM     75  C   UNL A   1      36.887  29.364  30.160  1.00  0.00     0.006 A 
ENDBRANCH  47  68
BRANCH  59  76
ATOM     76  C   UNL A   1      45.284  32.473  29.396  1.00  0.00     0.057 A 
ATOM     77  C   UNL A   1      45.812  32.533  30.692  1.00  0.00     0.134 A 
ATOM     78  C   UNL A   1      45.126  33.681  28.706  1.00  0.00     0.134 A 
ATOM     79  F   UNL A   1      45.975  31.413  31.412  1.00  0.00    -0.206 F 
ATOM     80  C   UNL A   1      46.158  33.750  31.284  1.00  0.00     0.040 A 
ATOM     81  C   UNL A   1      45.490  34.902  29.278  1.00  0.00     0.040 A 
ATOM     82  F   UNL A   1      44.632  33.694  27.460  1.00  0.00    -0.206 F 
ATOM     83  C   UNL A   1      46.005  34.938  30.573  1.00  0.00     0.006 A 
ENDBRANCH  59  76
ENDBRANCH  33  34
ENDBRANCH  26  28
ENDBRANCH  25  26
ENDBRANCH  24  25
ENDBRANCH  23  24
ENDBRANCH   1  23
TORSDOF 17
ENDMDL
MODEL 2
REMARK VINA RESULT:     -10.5      4.683      6.939
REMARK SMILES CC[C@@](C)(NC(=O)CCc1ccc(OC)c(Br)c1)C(=O)OCCOC(=O)c1ccc(-c2c3nc(c(-c4c(F)cccc4F)c4ccc([nH]4)c(-c4c(F)cccc4F)c4nc(c(-c5c(F)cccc5F)c5ccc2[nH]5)C=C4)C=C3)cc1
REMARK SMILES IDX 21 1 19 2 20 3 3 4 4 5 2 6 1 7 5 8 6 9 7 11 8 12 9 13 10 14
REMARK SMILES IDX 11 15 18 16 12 17 16 18 13 19 17 20 14 21 15 22 22 23 23 24
REMARK SMILES IDX 24 25 25 26 26 27 27 28 28 29 80 30 29 31 79 32 30 33 31 34
REMARK SMILES IDX 32 35 73 36 33 37 78 38 72 39 74 40 34 41 77 42 71 43 70 44
REMARK SMILES IDX 35 46 61 47 44 48 60 49 45 50 48 51 59 52 75 53 46 54 47 55
REMARK SMILES IDX 58 57 76 58 49 59 36 60 37 61 42 62 38 63 39 64 41 65 43 66
REMARK SMILES IDX 40 67 62 68 63 69 68 70 64 71 65 72 67 73 69 74 66 75 50 76
REMARK SMILES IDX 51 77 56 78 52 79 53 80 55 81 57 82 54 83
REMARK H PARENT 5 10 74 45 48 56
REMARK Flexibility Score: inf
ROOT
ATOM      1  O   UNL A   1      37.183  21.687  25.562  1.00  0.00    -0.460 OA
ENDROOT
BRANCH   1   2
ATOM      2  C   UNL A   1      35.965  21.073  25.316  1.00  0.00     0.331 C 
ATOM      3  O   UNL A   1      35.889  19.888  25.001  1.00  0.00    -0.249 OA
BRANCH   2   4
ATOM      4  C   UNL A   1      34.628  22.048  25.510  1.00  0.00     0.135 C 
ATOM      5  C   UNL A   1      33.926  21.453  26.751  1.00  0.00     0.047 C 
BRANCH   4   6
ATOM      6  C   UNL A   1      34.413  23.635  25.677  1.00  0.00     0.037 C 
ATOM      7  C   UNL A   1      34.499  24.725  24.615  1.00  0.00     0.007 C 
ENDBRANCH   4   6
BRANCH   4   8
ATOM      8  N   UNL A   1      33.889  21.814  24.278  1.00  0.00    -0.340 N 
ATOM      9  C   UNL A   1      32.553  21.547  24.249  1.00  0.00     0.221 C 
ATOM     10  H   UNL A   1      34.378  21.849  23.425  1.00  0.00     0.164 HD
ATOM     11  O   UNL A   1      32.101  21.090  23.193  1.00  0.00    -0.275 OA
BRANCH   9  12
ATOM     12  C   UNL A   1      31.592  21.874  25.427  1.00  0.00     0.105 C 
BRANCH  12  13
ATOM     13  C   UNL A   1      30.753  23.183  25.791  1.00  0.00     0.045 C 
BRANCH  13  14
ATOM     14  C   UNL A   1      30.701  24.690  25.397  1.00  0.00    -0.046 A 
ATOM     15  C   UNL A   1      30.551  25.158  24.090  1.00  0.00     0.007 A 
ATOM     16  C   UNL A   1      31.063  25.705  26.305  1.00  0.00     0.023 A 
ATOM     17  C   UNL A   1      30.910  26.438  23.666  1.00  0.00     0.048 A 
ATOM     18  C   UNL A   1      31.377  27.019  25.921  1.00  0.00     0.060 A 
ATOM     19  C   UNL A   1      31.439  27.327  24.576  1.00  0.00     0.133 A 
ATOM     20  Br  UNL A   1      31.782  28.309  27.249  1.00  0.00    -0.047 Br
BRANCH  19  21
ATOM     21  O   UNL A   1      32.131  28.417  24.125  1.00  0.00    -0.496 OA
ATOM     22  C   UNL A   1      33.239  27.950  23.333  1.00  0.00     0.278 C 
ENDBRANCH  19  21
ENDBRANCH  13  14
ENDBRANCH  12  13
ENDBRANCH   9  12
ENDBRANCH   4   8
ENDBRANCH   2   4
ENDBRANCH   1   2
BRANCH   1  23
ATOM     23  C   UNL A   1      38.458  20.990  25.330  1.00  0.00     0.274 C 
BRANCH  23  24
ATOM     24  C   UNL A   1      39.692  21.514  26.198  1.00  0.00     0.275 C 
BRANCH  24  25
ATOM     25  O   UNL A   1      39.575  22.886  26.729  1.00  0.00    -0.458 OA
BRANCH  25  26
ATOM     26  C   UNL A   1      40.595  23.802  26.571  1.00  0.00     0.338 C 
ATOM     27  O   UNL A   1      41.698  23.548  26.138  1.00  0.00    -0.246 OA
BRANCH  26  28
ATOM     28  C   UNL A   1      40.240  25.142  27.216  1.00  0.00     0.060 A 
ATOM     29  C   UNL A   1      39.280  25.266  28.223  1.00  0.00     0.016 A 
ATOM     30  C   UNL A   1      41.034  26.267  26.962  1.00  0.00     0.016 A 
ATOM     31  C   UNL A   1      39.329  26.334  29.154  1.00  0.00     0.010 A 
ATOM     32  C   UNL A   1      40.993  27.397  27.819  1.00  0.00     0.010 A 
ATOM     33  C   UNL A   1      40.202  27.416  28.983  1.00  0.00    -0.014 A 
BRANCH  33  34
ATOM     34  C   UNL A   1      40.297  28.563  29.963  1.00  0.00     0.031 A 
ATOM     35  C   UNL A   1      41.296  28.553  31.091  1.00  0.00     0.074 A 
ATOM     36  C   UNL A   1      39.488  29.645  29.876  1.00  0.00     0.049 A 
ATOM     37  N   UNL A   1      41.355  29.326  32.148  1.00  0.00    -0.248 NA
ATOM     38  C   UNL A   1      42.384  27.569  31.012  1.00  0.00     0.031 C 
ATOM     39  C   UNL A   1      38.599  29.931  28.759  1.00  0.00     0.029 A 
ATOM     40  N   UNL A   1      39.263  30.700  30.740  1.00  0.00    -0.354 N 
ATOM     41  C   UNL A   1      42.465  28.908  32.868  1.00  0.00     0.074 A 
ATOM     42  C   UNL A   1      43.082  27.845  32.105  1.00  0.00     0.031 C 
ATOM     43  C   UNL A   1      37.877  31.031  29.025  1.00  0.00     0.029 A 
ATOM     44  C   UNL A   1      38.227  31.526  30.352  1.00  0.00     0.049 A 
ATOM     45  H   UNL A   1      39.793  30.849  31.556  1.00  0.00     0.167 HD
ATOM     46  C   UNL A   1      42.911  29.330  34.075  1.00  0.00     0.037 A 
ATOM     47  C   UNL A   1      37.592  32.529  31.002  1.00  0.00     0.037 A 
ATOM     48  C   UNL A   1      42.287  30.350  34.876  1.00  0.00     0.049 A 
ATOM     49  C   UNL A   1      37.998  32.871  32.415  1.00  0.00     0.074 A 
ATOM     50  C   UNL A   1      42.626  30.771  36.151  1.00  0.00     0.029 A 
ATOM     51  N   UNL A   1      41.189  31.098  34.489  1.00  0.00    -0.354 N 
ATOM     52  N   UNL A   1      38.996  32.404  33.123  1.00  0.00    -0.248 NA
ATOM     53  C   UNL A   1      37.168  33.854  33.134  1.00  0.00     0.031 C 
ATOM     54  C   UNL A   1      41.699  31.739  36.556  1.00  0.00     0.029 A 
ATOM     55  C   UNL A   1      40.815  31.954  35.513  1.00  0.00     0.049 A 
ATOM     56  H   UNL A   1      40.739  31.032  33.616  1.00  0.00     0.167 HD
ATOM     57  C   UNL A   1      38.918  33.036  34.358  1.00  0.00     0.074 A 
ATOM     58  C   UNL A   1      37.797  33.946  34.298  1.00  0.00     0.031 C 
ATOM     59  C   UNL A   1      39.700  32.863  35.451  1.00  0.00     0.037 A 
BRANCH  46  60
ATOM     60  C   UNL A   1      44.083  28.599  34.656  1.00  0.00     0.057 A 
ATOM     61  C   UNL A   1      43.937  27.418  35.393  1.00  0.00     0.134 A 
ATOM     62  C   UNL A   1      45.380  29.092  34.464  1.00  0.00     0.134 A 
ATOM     63  F   UNL A   1      42.718  26.910  35.630  1.00  0.00    -0.206 F 
ATOM     64  C   UNL A   1      45.044  26.761  35.934  1.00  0.00     0.040 A 
ATOM     65  C   UNL A   1      46.494  28.434  34.983  1.00  0.00     0.040 A 
ATOM     66  F   UNL A   1      45.581  30.222  33.768  1.00  0.00    -0.206 F 
ATOM     67  C   UNL A   1      46.326  27.268  35.724  1.00  0.00     0.006 A 
ENDBRANCH  46  60
BRANCH  47  68
ATOM     68  C   UNL A   1      36.429  33.239  30.386  1.00  0.00     0.057 A 
ATOM     69  C   UNL A   1      35.108  32.865  30.669  1.00  0.00     0.134 A 
ATOM     70  C   UNL A   1      36.612  34.243  29.425  1.00  0.00     0.134 A 
ATOM     71  F   UNL A   1      34.859  31.881  31.546  1.00  0.00    -0.206 F 
ATOM     72  C   UNL A   1      34.020  33.442  30.008  1.00  0.00     0.040 A 
ATOM     73  C   UNL A   1      35.532  34.853  28.781  1.00  0.00     0.040 A 
ATOM     74  F   UNL A   1      37.846  34.638  29.083  1.00  0.00    -0.206 F 
ATOM     75  C   UNL A   1      34.230  34.444  29.064  1.00  0.00     0.006 A 
ENDBRANCH  47  68
BRANCH  59  76
ATOM     76  C   UNL A   1      39.384  33.678  36.671  1.00  0.00     0.057 A 
ATOM     77  C   UNL A   1      38.605  33.166  37.716  1.00  0.00     0.134 A 
ATOM     78  C   UNL A   1      39.903  34.969  36.825  1.00  0.00     0.134 A 
ATOM     79  F   UNL A   1      38.067  31.940  37.626  1.00  0.00    -0.206 F 
ATOM     80  C   UNL A   1      38.342  33.915  38.866  1.00  0.00     0.040 A 
ATOM     81  C   UNL A   1      39.666  35.719  37.979  1.00  0.00     0.040 A 
ATOM     82  F   UNL A   1      40.662  35.518  35.865  1.00  0.00    -0.206 F 
ATOM     83  C   UNL A   1      38.880  35.193  39.002  1.00  0.00     0.006 A 
ENDBRANCH  59  76
ENDBRANCH  33  34
ENDBRANCH  26  28
ENDBRANCH  25  26
ENDBRANCH  24  25
ENDBRANCH  23  24
ENDBRANCH   1  23
TORSDOF 17
ENDMDL
MODEL 3
REMARK VINA RESULT:     -10.5      4.149      6.213
REMARK SMILES CC[C@@](C)(NC(=O)CCc1ccc(OC)c(Br)c1)C(=O)OCCOC(=O)c1ccc(-c2c3nc(c(-c4c(F)cccc4F)c4ccc([nH]4)c(-c4c(F)cccc4F)c4nc(c(-c5c(F)cccc5F)c5ccc2[nH]5)C=C4)C=C3)cc1
REMARK SMILES IDX 21 1 19 2 20 3 3 4 4 5 2 6 1 7 5 8 6 9 7 11 8 12 9 13 10 14
REMARK SMILES IDX 11 15 18 16 12 17 16 18 13 19 17 20 14 21 15 22 22 23 23 24
REMARK SMILES IDX 24 25 25 26 26 27 27 28 28 29 80 30 29 31 79 32 30 33 31 34
REMARK SMILES IDX 32 35 73 36 33 37 78 38 72 39 74 40 34 41 77 42 71 43 70 44
REMARK SMILES IDX 35 46 61 47 44 48 60 49 45 50 48 51 59 52 75 53 46 54 47 55
REMARK SMILES IDX 58 57 76 58 49 59 36 60 37 61 42 62 38 63 39 64 41 65 43 66
REMARK SMILES IDX 40 67 62 68 63 69 68 70 64 71 65 72 67 73 69 74 66 75 50 76
REMARK SMILES IDX 51 77 56 78 52 79 53 80 55 81 57 82 54 83
REMARK H PARENT 5 10 74 45 48 56
REMARK Flexibility Score: inf
ROOT
ATOM      1  O   UNL A   1      38.277  21.551  25.983  1.00  0.00    -0.460 OA
ENDROOT
BRANCH   1   2
ATOM      2  C   UNL A   1      37.359  22.057  25.076  1.00  0.00     0.331 C 
ATOM      3  O   UNL A   1      37.355  21.709  23.897  1.00  0.00    -0.249 OA
BRANCH   2   4
ATOM      4  C   UNL A   1      36.257  23.134  25.709  1.00  0.00     0.135 C 
ATOM      5  C   UNL A   1      37.146  24.203  26.382  1.00  0.00     0.047 C 
BRANCH   4   6
ATOM      6  C   UNL A   1      35.041  23.987  25.088  1.00  0.00     0.037 C 
ATOM      7  C   UNL A   1      34.231  25.103  25.738  1.00  0.00     0.007 C 
ENDBRANCH   4   6
BRANCH   4   8
ATOM      8  N   UNL A   1      35.535  22.314  26.670  1.00  0.00    -0.340 N 
ATOM      9  C   UNL A   1      34.434  21.580  26.348  1.00  0.00     0.221 C 
ATOM     10  H   UNL A   1      35.859  22.289  27.600  1.00  0.00     0.164 HD
ATOM     11  O   UNL A   1      33.751  21.161  27.288  1.00  0.00    -0.275 OA
BRANCH   9  12
ATOM     12  C   UNL A   1      34.071  21.185  24.887  1.00  0.00     0.105 C 
BRANCH  12  13
ATOM     13  C   UNL A   1      32.862  21.609  23.934  1.00  0.00     0.045 C 
BRANCH  13  14
ATOM     14  C   UNL A   1      32.367  22.865  23.155  1.00  0.00    -0.046 A 
ATOM     15  C   UNL A   1      33.017  23.412  22.047  1.00  0.00     0.007 A 
ATOM     16  C   UNL A   1      31.359  23.705  23.669  1.00  0.00     0.023 A 
ATOM     17  C   UNL A   1      32.849  24.724  21.603  1.00  0.00     0.048 A 
ATOM     18  C   UNL A   1      31.123  25.010  23.209  1.00  0.00     0.060 A 
ATOM     19  C   UNL A   1      31.980  25.556  22.274  1.00  0.00     0.133 A 
ATOM     20  Br  UNL A   1      29.688  26.013  23.939  1.00  0.00    -0.047 Br
BRANCH  19  21
ATOM     21  O   UNL A   1      32.079  26.909  22.101  1.00  0.00    -0.496 OA
ATOM     22  C   UNL A   1      33.205  27.378  22.866  1.00  0.00     0.278 C 
ENDBRANCH  19  21
ENDBRANCH  13  14
ENDBRANCH  12  13
ENDBRANCH   9  12
ENDBRANCH   4   8
ENDBRANCH   2   4
ENDBRANCH   1   2
BRANCH   1  23
ATOM     23  C   UNL A   1      39.625  22.126  26.118  1.00  0.00     0.274 C 
BRANCH  23  24
ATOM     24  C   UNL A   1      40.821  21.068  26.129  1.00  0.00     0.275 C 
BRANCH  24  25
ATOM     25  O   UNL A   1      42.168  21.614  26.385  1.00  0.00    -0.458 OA
BRANCH  25  26
ATOM     26  C   UNL A   1      42.572  22.810  25.826  1.00  0.00     0.338 C 
ATOM     27  O   UNL A   1      42.857  22.973  24.660  1.00  0.00    -0.246 OA
BRANCH  26  28
ATOM     28  C   UNL A   1      42.831  23.864  26.904  1.00  0.00     0.060 A 
ATOM     29  C   UNL A   1      43.393  25.111  26.624  1.00  0.00     0.016 A 
ATOM     30  C   UNL A   1      42.303  23.686  28.189  1.00  0.00     0.016 A 
ATOM     31  C   UNL A   1      43.146  26.230  27.457  1.00  0.00     0.010 A 
ATOM     32  C   UNL A   1      42.173  24.781  29.081  1.00  0.00     0.010 A 
ATOM     33  C   UNL A   1      42.512  26.093  28.699  1.00  0.00    -0.014 A 
BRANCH  33  34
ATOM     34  C   UNL A   1      42.215  27.264  29.608  1.00  0.00     0.031 A 
ATOM     35  C   UNL A   1      43.008  27.503  30.867  1.00  0.00     0.074 A 
ATOM     36  C   UNL A   1      41.223  28.143  29.337  1.00  0.00     0.049 A 
ATOM     37  N   UNL A   1      42.741  28.305  31.870  1.00  0.00    -0.248 NA
ATOM     38  C   UNL A   1      44.275  26.774  31.009  1.00  0.00     0.031 C 
ATOM     39  C   UNL A   1      40.478  28.197  28.087  1.00  0.00     0.029 A 
ATOM     40  N   UNL A   1      40.654  29.153  30.090  1.00  0.00    -0.354 N 
ATOM     41  C   UNL A   1      43.789  28.157  32.768  1.00  0.00     0.074 A 
ATOM     42  C   UNL A   1      44.723  27.227  32.171  1.00  0.00     0.031 C 
ATOM     43  C   UNL A   1      39.512  29.125  28.175  1.00  0.00     0.029 A 
ATOM     44  C   UNL A   1      39.542  29.725  29.505  1.00  0.00     0.049 A 
ATOM     45  H   UNL A   1      41.009  29.438  30.963  1.00  0.00     0.167 HD
ATOM     46  C   UNL A   1      43.945  28.703  33.998  1.00  0.00     0.037 A 
ATOM     47  C   UNL A   1      38.620  30.589  29.991  1.00  0.00     0.037 A 
ATOM     48  C   UNL A   1      43.008  29.590  34.633  1.00  0.00     0.049 A 
ATOM     49  C   UNL A   1      38.723  31.054  31.423  1.00  0.00     0.074 A 
ATOM     50  C   UNL A   1      43.051  30.114  35.915  1.00  0.00     0.029 A 
ATOM     51  N   UNL A   1      41.852  30.072  34.045  1.00  0.00    -0.354 N 
ATOM     52  N   UNL A   1      39.675  30.834  32.296  1.00  0.00    -0.248 NA
ATOM     53  C   UNL A   1      37.607  31.858  31.950  1.00  0.00     0.031 C 
ATOM     54  C   UNL A   1      41.893  30.873  36.119  1.00  0.00     0.029 A 
ATOM     55  C   UNL A   1      41.155  30.861  34.947  1.00  0.00     0.049 A 
ATOM     56  H   UNL A   1      41.566  29.884  33.122  1.00  0.00     0.167 HD
ATOM     57  C   UNL A   1      39.277  31.474  33.464  1.00  0.00     0.074 A 
ATOM     58  C   UNL A   1      38.015  32.120  33.185  1.00  0.00     0.031 C 
ATOM     59  C   UNL A   1      39.900  31.507  34.667  1.00  0.00     0.037 A 
BRANCH  46  60
ATOM     60  C   UNL A   1      45.139  28.258  34.787  1.00  0.00     0.057 A 
ATOM     61  C   UNL A   1      46.349  28.960  34.772  1.00  0.00     0.134 A 
ATOM     62  C   UNL A   1      45.063  27.104  35.578  1.00  0.00     0.134 A 
ATOM     63  F   UNL A   1      46.489  30.059  34.016  1.00  0.00    -0.206 F 
ATOM     64  C   UNL A   1      47.451  28.518  35.507  1.00  0.00     0.040 A 
ATOM     65  C   UNL A   1      46.150  26.665  36.331  1.00  0.00     0.040 A 
ATOM     66  F   UNL A   1      43.929  26.389  35.629  1.00  0.00    -0.206 F 
ATOM     67  C   UNL A   1      47.350  27.371  36.293  1.00  0.00     0.006 A 
ENDBRANCH  46  60
BRANCH  47  68
ATOM     68  C   UNL A   1      37.445  31.013  29.169  1.00  0.00     0.057 A 
ATOM     69  C   UNL A   1      37.339  32.316  28.662  1.00  0.00     0.134 A 
ATOM     70  C   UNL A   1      36.356  30.159  28.955  1.00  0.00     0.134 A 
ATOM     71  F   UNL A   1      38.324  33.203  28.868  1.00  0.00    -0.206 F 
ATOM     72  C   UNL A   1      36.191  32.757  27.997  1.00  0.00     0.040 A 
ATOM     73  C   UNL A   1      35.216  30.576  28.262  1.00  0.00     0.040 A 
ATOM     74  F   UNL A   1      36.374  28.906  29.430  1.00  0.00    -0.206 F 
ATOM     75  C   UNL A   1      35.127  31.883  27.790  1.00  0.00     0.006 A 
ENDBRANCH  47  68
BRANCH  59  76
ATOM     76  C   UNL A   1      39.237  32.274  35.774  1.00  0.00     0.057 A 
ATOM     77  C   UNL A   1      38.335  31.663  36.654  1.00  0.00     0.134 A 
ATOM     78  C   UNL A   1      39.540  33.623  35.993  1.00  0.00     0.134 A 
ATOM     79  F   UNL A   1      37.992  30.376  36.492  1.00  0.00    -0.206 F 
ATOM     80  C   UNL A   1      37.746  32.371  37.705  1.00  0.00     0.040 A 
ATOM     81  C   UNL A   1      38.976  34.336  37.054  1.00  0.00     0.040 A 
ATOM     82  F   UNL A   1      40.400  34.267  35.191  1.00  0.00    -0.206 F 
ATOM     83  C   UNL A   1      38.073  33.710  37.911  1.00  0.00     0.006 A 
ENDBRANCH  59  76
ENDBRANCH  33  34
ENDBRANCH  26  28
ENDBRANCH  25  26
ENDBRANCH  24  25
ENDBRANCH  23  24
ENDBRANCH   1  23
TORSDOF 17
ENDMDL
