MODEL 1
REMARK VINA RESULT:     -12.2      0.000      0.000
REMARK SMILES Cc1cc(C)cc(N(C)S(=O)(=O)c2ccc(F)c(C(=O)OCCOC(=O)c3ccc(-c4c5nc(c(-c6c(F)cccc6F)c6ccc([nH]6)c(-c6c(F)cccc6F)c6nc(c(-c7c(F)cccc7F)c7ccc4[nH]7)C=C6)C=C5)cc3)c2)c1
REMARK SMILES IDX 22 1 21 2 19 3 20 4 18 5 13 6 14 7 81 8 15 9 16 10 17 11
REMARK SMILES IDX 10 12 11 13 12 14 8 15 9 16 7 17 1 18 2 19 3 20 82 21 4 22
REMARK SMILES IDX 5 23 6 24 23 25 24 26 25 27 26 28 27 29 28 30 80 31 29 32
REMARK SMILES IDX 79 33 30 34 31 35 32 36 73 37 33 38 78 39 72 40 74 41 34 42
REMARK SMILES IDX 77 43 71 44 70 45 35 47 61 48 44 49 60 50 45 51 48 52 59 53
REMARK SMILES IDX 75 54 46 55 47 56 58 58 76 59 49 60 36 61 37 62 42 63 38 64
REMARK SMILES IDX 39 65 41 66 43 67 40 68 62 69 63 70 68 71 64 72 65 73 67 74
REMARK SMILES IDX 69 75 66 76 50 77 51 78 56 79 52 80 53 81 55 82 57 83 54 84
REMARK H PARENT 74 46 48 57
REMARK Flexibility Score: inf
ROOT
ATOM      1  C   UNL A   1      42.453  21.458  26.082  1.00  0.00     0.275 C 
ENDROOT
BRANCH   1   2
ATOM      2  O   UNL A   1      41.145  21.802  25.581  1.00  0.00    -0.458 OA
BRANCH   2   3
ATOM      3  C   UNL A   1      40.125  21.737  26.465  1.00  0.00     0.341 C 
ATOM      4  O   UNL A   1      40.167  22.030  27.651  1.00  0.00    -0.246 OA
BRANCH   3   5
ATOM      5  C   UNL A   1      38.864  21.328  25.818  1.00  0.00     0.097 A 
ATOM      6  C   UNL A   1      36.582  21.880  25.219  1.00  0.00     0.089 A 
ATOM      7  C   UNL A   1      36.381  20.553  24.809  1.00  0.00     0.025 A 
ATOM      8  C   UNL A   1      37.821  22.269  25.714  1.00  0.00     0.041 A 
ATOM      9  C   UNL A   1      37.418  19.621  24.904  1.00  0.00     0.041 A 
ATOM     10  C   UNL A   1      38.654  20.010  25.414  1.00  0.00     0.137 A 
ATOM     11  F   UNL A   1      39.606  19.078  25.556  1.00  0.00    -0.206 F 
BRANCH   6  12
ATOM     12  S   UNL A   1      35.179  22.976  25.096  1.00  0.00     0.264 S 
ATOM     13  O   UNL A   1      34.266  22.308  24.187  1.00  0.00    -0.201 OA
ATOM     14  O   UNL A   1      35.744  24.269  24.768  1.00  0.00    -0.201 OA
BRANCH  12  15
ATOM     15  N   UNL A   1      34.389  23.091  26.630  1.00  0.00    -0.269 N 
ATOM     16  C   UNL A   1      34.396  21.846  27.452  1.00  0.00     0.164 C 
BRANCH  15  17
ATOM     17  C   UNL A   1      33.059  23.725  26.586  1.00  0.00     0.052 A 
ATOM     18  C   UNL A   1      31.316  26.896  25.334  1.00  0.00     0.044 C 
ATOM     19  C   UNL A   1      31.544  25.527  25.899  1.00  0.00    -0.049 A 
ATOM     20  C   UNL A   1      30.448  24.754  26.274  1.00  0.00     0.007 A 
ATOM     21  C   UNL A   1      32.835  24.996  26.030  1.00  0.00     0.030 A 
ATOM     22  C   UNL A   1      30.634  23.476  26.797  1.00  0.00    -0.049 A 
ATOM     23  C   UNL A   1      29.432  22.647  27.122  1.00  0.00     0.044 C 
ATOM     24  C   UNL A   1      31.937  22.966  26.948  1.00  0.00     0.030 A 
ENDBRANCH  15  17
ENDBRANCH  12  15
ENDBRANCH   6  12
ENDBRANCH   3   5
ENDBRANCH   2   3
ENDBRANCH   1   2
BRANCH   1  25
ATOM     25  C   UNL A   1      43.555  22.189  25.317  1.00  0.00     0.275 C 
BRANCH  25  26
ATOM     26  O   UNL A   1      43.087  23.461  24.831  1.00  0.00    -0.458 OA
BRANCH  26  27
ATOM     27  C   UNL A   1      43.878  24.518  25.120  1.00  0.00     0.338 C 
ATOM     28  O   UNL A   1      44.939  24.822  24.605  1.00  0.00    -0.246 OA
BRANCH  27  29
ATOM     29  C   UNL A   1      43.206  25.372  26.108  1.00  0.00     0.060 A 
ATOM     30  C   UNL A   1      43.678  26.671  26.253  1.00  0.00     0.016 A 
ATOM     31  C   UNL A   1      42.239  24.876  26.980  1.00  0.00     0.016 A 
ATOM     32  C   UNL A   1      43.250  27.461  27.311  1.00  0.00     0.010 A 
ATOM     33  C   UNL A   1      41.751  25.700  28.006  1.00  0.00     0.010 A 
ATOM     34  C   UNL A   1      42.276  26.990  28.201  1.00  0.00    -0.014 A 
BRANCH  34  35
ATOM     35  C   UNL A   1      41.883  27.839  29.360  1.00  0.00     0.031 A 
ATOM     36  C   UNL A   1      40.632  28.676  29.280  1.00  0.00     0.074 A 
ATOM     37  C   UNL A   1      42.545  27.732  30.532  1.00  0.00     0.049 A 
ATOM     38  N   UNL A   1      40.118  29.484  30.173  1.00  0.00    -0.248 NA
ATOM     39  C   UNL A   1      39.836  28.568  28.046  1.00  0.00     0.031 C 
ATOM     40  C   UNL A   1      43.650  26.807  30.792  1.00  0.00     0.029 A 
ATOM     41  N   UNL A   1      42.328  28.332  31.750  1.00  0.00    -0.354 N 
ATOM     42  C   UNL A   1      38.958  29.995  29.602  1.00  0.00     0.074 A 
ATOM     43  C   UNL A   1      38.847  29.419  28.281  1.00  0.00     0.031 C 
ATOM     44  C   UNL A   1      43.912  26.797  32.109  1.00  0.00     0.029 A 
ATOM     45  C   UNL A   1      43.066  27.783  32.774  1.00  0.00     0.049 A 
ATOM     46  H   UNL A   1      41.702  29.081  31.878  1.00  0.00     0.167 HD
ATOM     47  C   UNL A   1      38.062  30.859  30.137  1.00  0.00     0.037 A 
ATOM     48  C   UNL A   1      43.044  28.027  34.100  1.00  0.00     0.037 A 
ATOM     49  C   UNL A   1      38.121  31.365  31.482  1.00  0.00     0.049 A 
ATOM     50  C   UNL A   1      42.110  29.078  34.640  1.00  0.00     0.074 A 
ATOM     51  C   UNL A   1      37.296  32.296  32.089  1.00  0.00     0.029 A 
ATOM     52  N   UNL A   1      39.033  30.952  32.441  1.00  0.00    -0.354 N 
ATOM     53  N   UNL A   1      41.130  29.702  34.035  1.00  0.00    -0.248 NA
ATOM     54  C   UNL A   1      42.295  29.472  36.046  1.00  0.00     0.031 C 
ATOM     55  C   UNL A   1      37.728  32.470  33.406  1.00  0.00     0.029 A 
ATOM     56  C   UNL A   1      38.794  31.614  33.633  1.00  0.00     0.049 A 
ATOM     57  H   UNL A   1      39.744  30.287  32.295  1.00  0.00     0.167 HD
ATOM     58  C   UNL A   1      40.571  30.546  34.987  1.00  0.00     0.074 A 
ATOM     59  C   UNL A   1      41.309  30.342  36.215  1.00  0.00     0.031 C 
ATOM     60  C   UNL A   1      39.540  31.414  34.848  1.00  0.00     0.037 A 
BRANCH  47  61
ATOM     61  C   UNL A   1      36.965  31.365  29.249  1.00  0.00     0.057 A 
ATOM     62  C   UNL A   1      37.023  32.672  28.746  1.00  0.00     0.134 A 
ATOM     63  C   UNL A   1      35.834  30.601  28.941  1.00  0.00     0.134 A 
ATOM     64  F   UNL A   1      38.077  33.457  29.015  1.00  0.00    -0.206 F 
ATOM     65  C   UNL A   1      35.989  33.207  27.977  1.00  0.00     0.040 A 
ATOM     66  C   UNL A   1      34.801  31.119  28.154  1.00  0.00     0.040 A 
ATOM     67  F   UNL A   1      35.724  29.341  29.383  1.00  0.00    -0.206 F 
ATOM     68  C   UNL A   1      34.874  32.427  27.677  1.00  0.00     0.006 A 
ENDBRANCH  47  61
BRANCH  48  69
ATOM     69  C   UNL A   1      43.892  27.233  35.029  1.00  0.00     0.057 A 
ATOM     70  C   UNL A   1      43.447  26.036  35.602  1.00  0.00     0.134 A 
ATOM     71  C   UNL A   1      45.184  27.661  35.360  1.00  0.00     0.134 A 
ATOM     72  F   UNL A   1      42.223  25.565  35.324  1.00  0.00    -0.206 F 
ATOM     73  C   UNL A   1      44.241  25.309  36.492  1.00  0.00     0.040 A 
ATOM     74  C   UNL A   1      46.001  26.928  36.223  1.00  0.00     0.040 A 
ATOM     75  F   UNL A   1      45.680  28.787  34.826  1.00  0.00    -0.206 F 
ATOM     76  C   UNL A   1      45.525  25.753  36.800  1.00  0.00     0.006 A 
ENDBRANCH  48  69
BRANCH  60  77
ATOM     77  C   UNL A   1      39.149  32.234  36.043  1.00  0.00     0.057 A 
ATOM     78  C   UNL A   1      38.235  31.745  36.986  1.00  0.00     0.134 A 
ATOM     79  C   UNL A   1      39.607  33.547  36.207  1.00  0.00     0.134 A 
ATOM     80  F   UNL A   1      37.751  30.498  36.881  1.00  0.00    -0.206 F 
ATOM     81  C   UNL A   1      37.776  32.539  38.036  1.00  0.00     0.040 A 
ATOM     82  C   UNL A   1      39.172  34.344  37.266  1.00  0.00     0.040 A 
ATOM     83  F   UNL A   1      40.490  34.071  35.343  1.00  0.00    -0.206 F 
ATOM     84  C   UNL A   1      38.245  33.844  38.178  1.00  0.00     0.006 A 
ENDBRANCH  60  77
ENDBRANCH  34  35
ENDBRANCH  27  29
ENDBRANCH  26  27
ENDBRANCH  25  26
ENDBRANCH   1  25
TORSDOF 14
ENDMDL
MODEL 2
REMARK VINA RESULT:     -12.1      2.675      8.004
REMARK SMILES Cc1cc(C)cc(N(C)S(=O)(=O)c2ccc(F)c(C(=O)OCCOC(=O)c3ccc(-c4c5nc(c(-c6c(F)cccc6F)c6ccc([nH]6)c(-c6c(F)cccc6F)c6nc(c(-c7c(F)cccc7F)c7ccc4[nH]7)C=C6)C=C5)cc3)c2)c1
REMARK SMILES IDX 22 1 21 2 19 3 20 4 18 5 13 6 14 7 81 8 15 9 16 10 17 11
REMARK SMILES IDX 10 12 11 13 12 14 8 15 9 16 7 17 1 18 2 19 3 20 82 21 4 22
REMARK SMILES IDX 5 23 6 24 23 25 24 26 25 27 26 28 27 29 28 30 80 31 29 32
REMARK SMILES IDX 79 33 30 34 31 35 32 36 73 37 33 38 78 39 72 40 74 41 34 42
REMARK SMILES IDX 77 43 71 44 70 45 35 47 61 48 44 49 60 50 45 51 48 52 59 53
REMARK SMILES IDX 75 54 46 55 47 56 58 58 76 59 49 60 36 61 37 62 42 63 38 64
REMARK SMILES IDX 39 65 41 66 43 67 40 68 62 69 63 70 68 71 64 72 65 73 67 74
REMARK SMILES IDX 69 75 66 76 50 77 51 78 56 79 52 80 53 81 55 82 57 83 54 84
REMARK H PARENT 74 46 48 57
REMARK Flexibility Score: inf
ROOT
ATOM      1  C   UNL A   1      32.870  29.304  24.560  1.00  0.00     0.275 C 
ENDROOT
BRANCH   1   2
ATOM      2  O   UNL A   1      32.526  29.179  23.165  1.00  0.00    -0.458 OA
BRANCH   2   3
ATOM      3  C   UNL A   1      33.099  28.156  22.493  1.00  0.00     0.341 C 
ATOM      4  O   UNL A   1      34.066  28.222  21.748  1.00  0.00    -0.246 OA
BRANCH   3   5
ATOM      5  C   UNL A   1      32.463  26.864  22.813  1.00  0.00     0.097 A 
ATOM      6  C   UNL A   1      32.701  24.473  23.136  1.00  0.00     0.089 A 
ATOM      7  C   UNL A   1      31.303  24.355  23.197  1.00  0.00     0.025 A 
ATOM      8  C   UNL A   1      33.279  25.724  22.952  1.00  0.00     0.041 A 
ATOM      9  C   UNL A   1      30.493  25.487  23.068  1.00  0.00     0.041 A 
ATOM     10  C   UNL A   1      31.076  26.736  22.870  1.00  0.00     0.137 A 
ATOM     11  F   UNL A   1      30.271  27.791  22.682  1.00  0.00    -0.206 F 
BRANCH   6  12
ATOM     12  S   UNL A   1      33.638  22.961  23.268  1.00  0.00     0.264 S 
ATOM     13  O   UNL A   1      34.836  23.199  22.485  1.00  0.00    -0.201 OA
ATOM     14  O   UNL A   1      32.707  21.913  22.907  1.00  0.00    -0.201 OA
BRANCH  12  15
ATOM     15  N   UNL A   1      34.132  22.720  24.908  1.00  0.00    -0.269 N 
ATOM     16  C   UNL A   1      33.554  23.672  25.901  1.00  0.00     0.164 C 
BRANCH  15  17
ATOM     17  C   UNL A   1      35.585  22.539  25.087  1.00  0.00     0.052 A 
ATOM     18  C   UNL A   1      38.651  24.328  26.522  1.00  0.00     0.044 C 
ATOM     19  C   UNL A   1      37.768  23.271  25.930  1.00  0.00    -0.049 A 
ATOM     20  C   UNL A   1      38.299  22.013  25.662  1.00  0.00     0.007 A 
ATOM     21  C   UNL A   1      36.412  23.514  25.669  1.00  0.00     0.030 A 
ATOM     22  C   UNL A   1      37.496  21.012  25.116  1.00  0.00    -0.049 A 
ATOM     23  C   UNL A   1      38.081  19.651  24.909  1.00  0.00     0.044 C 
ATOM     24  C   UNL A   1      36.144  21.278  24.834  1.00  0.00     0.030 A 
ENDBRANCH  15  17
ENDBRANCH  12  15
ENDBRANCH   6  12
ENDBRANCH   3   5
ENDBRANCH   2   3
ENDBRANCH   1   2
BRANCH   1  25
ATOM     25  C   UNL A   1      31.768  30.014  25.345  1.00  0.00     0.275 C 
BRANCH  25  26
ATOM     26  O   UNL A   1      32.136  30.157  26.730  1.00  0.00    -0.458 OA
BRANCH  26  27
ATOM     27  C   UNL A   1      32.744  31.321  27.050  1.00  0.00     0.338 C 
ATOM     28  O   UNL A   1      32.288  32.448  26.981  1.00  0.00    -0.246 OA
BRANCH  27  29
ATOM     29  C   UNL A   1      34.060  31.035  27.638  1.00  0.00     0.060 A 
ATOM     30  C   UNL A   1      34.428  29.700  27.755  1.00  0.00     0.016 A 
ATOM     31  C   UNL A   1      34.852  32.034  28.200  1.00  0.00     0.016 A 
ATOM     32  C   UNL A   1      35.545  29.342  28.497  1.00  0.00     0.010 A 
ATOM     33  C   UNL A   1      36.021  31.677  28.889  1.00  0.00     0.010 A 
ATOM     34  C   UNL A   1      36.362  30.324  29.071  1.00  0.00    -0.014 A 
BRANCH  34  35
ATOM     35  C   UNL A   1      37.518  29.905  29.912  1.00  0.00     0.031 A 
ATOM     36  C   UNL A   1      38.696  29.217  29.269  1.00  0.00     0.074 A 
ATOM     37  C   UNL A   1      37.588  30.286  31.205  1.00  0.00     0.049 A 
ATOM     38  N   UNL A   1      39.796  28.770  29.821  1.00  0.00    -0.248 NA
ATOM     39  C   UNL A   1      38.646  29.036  27.809  1.00  0.00     0.031 C 
ATOM     40  C   UNL A   1      36.602  31.126  31.888  1.00  0.00     0.029 A 
ATOM     41  N   UNL A   1      38.570  30.102  32.149  1.00  0.00    -0.354 N 
ATOM     42  C   UNL A   1      40.553  28.236  28.784  1.00  0.00     0.074 A 
ATOM     43  C   UNL A   1      39.785  28.401  27.570  1.00  0.00     0.031 C 
ATOM     44  C   UNL A   1      37.096  31.500  33.079  1.00  0.00     0.029 A 
ATOM     45  C   UNL A   1      38.385  30.850  33.290  1.00  0.00     0.049 A 
ATOM     46  H   UNL A   1      39.334  29.495  32.021  1.00  0.00     0.167 HD
ATOM     47  C   UNL A   1      41.782  27.669  28.840  1.00  0.00     0.037 A 
ATOM     48  C   UNL A   1      39.178  31.015  34.369  1.00  0.00     0.037 A 
ATOM     49  C   UNL A   1      42.586  27.583  30.029  1.00  0.00     0.049 A 
ATOM     50  C   UNL A   1      40.488  30.277  34.440  1.00  0.00     0.074 A 
ATOM     51  C   UNL A   1      43.814  26.966  30.196  1.00  0.00     0.029 A 
ATOM     52  N   UNL A   1      42.262  28.165  31.244  1.00  0.00    -0.354 N 
ATOM     53  N   UNL A   1      41.111  29.607  33.503  1.00  0.00    -0.248 NA
ATOM     54  C   UNL A   1      41.194  30.302  35.731  1.00  0.00     0.031 C 
ATOM     55  C   UNL A   1      44.218  27.148  31.521  1.00  0.00     0.029 A 
ATOM     56  C   UNL A   1      43.264  27.916  32.167  1.00  0.00     0.049 A 
ATOM     57  H   UNL A   1      41.442  28.678  31.424  1.00  0.00     0.167 HD
ATOM     58  C   UNL A   1      42.288  29.148  34.081  1.00  0.00     0.074 A 
ATOM     59  C   UNL A   1      42.301  29.629  35.446  1.00  0.00     0.031 C 
ATOM     60  C   UNL A   1      43.265  28.390  33.527  1.00  0.00     0.037 A 
BRANCH  47  61
ATOM     61  C   UNL A   1      42.317  27.039  27.589  1.00  0.00     0.057 A 
ATOM     62  C   UNL A   1      42.966  27.832  26.633  1.00  0.00     0.134 A 
ATOM     63  C   UNL A   1      42.144  25.682  27.296  1.00  0.00     0.134 A 
ATOM     64  F   UNL A   1      43.154  29.143  26.850  1.00  0.00    -0.206 F 
ATOM     65  C   UNL A   1      43.415  27.300  25.424  1.00  0.00     0.040 A 
ATOM     66  C   UNL A   1      42.608  25.133  26.098  1.00  0.00     0.040 A 
ATOM     67  F   UNL A   1      41.540  24.870  28.175  1.00  0.00    -0.206 F 
ATOM     68  C   UNL A   1      43.238  25.945  25.155  1.00  0.00     0.006 A 
ENDBRANCH  47  61
BRANCH  48  69
ATOM     69  C   UNL A   1      38.790  31.957  35.453  1.00  0.00     0.057 A 
ATOM     70  C   UNL A   1      39.078  33.325  35.386  1.00  0.00     0.134 A 
ATOM     71  C   UNL A   1      38.112  31.498  36.589  1.00  0.00     0.134 A 
ATOM     72  F   UNL A   1      39.720  33.833  34.325  1.00  0.00    -0.206 F 
ATOM     73  C   UNL A   1      38.732  34.198  36.421  1.00  0.00     0.040 A 
ATOM     74  C   UNL A   1      37.731  32.365  37.616  1.00  0.00     0.040 A 
ATOM     75  F   UNL A   1      37.785  30.203  36.703  1.00  0.00    -0.206 F 
ATOM     76  C   UNL A   1      38.051  33.718  37.537  1.00  0.00     0.006 A 
ENDBRANCH  48  69
BRANCH  60  77
ATOM     77  C   UNL A   1      44.431  28.008  34.392  1.00  0.00     0.057 A 
ATOM     78  C   UNL A   1      45.587  28.798  34.433  1.00  0.00     0.134 A 
ATOM     79  C   UNL A   1      44.443  26.806  35.109  1.00  0.00     0.134 A 
ATOM     80  F   UNL A   1      45.644  29.957  33.759  1.00  0.00    -0.206 F 
ATOM     81  C   UNL A   1      46.720  28.395  35.141  1.00  0.00     0.040 A 
ATOM     82  C   UNL A   1      45.561  26.404  35.840  1.00  0.00     0.040 A 
ATOM     83  F   UNL A   1      43.362  26.010  35.118  1.00  0.00    -0.206 F 
ATOM     84  C   UNL A   1      46.709  27.194  35.847  1.00  0.00     0.006 A 
ENDBRANCH  60  77
ENDBRANCH  34  35
ENDBRANCH  27  29
ENDBRANCH  26  27
ENDBRANCH  25  26
ENDBRANCH   1  25
TORSDOF 14
ENDMDL
MODEL 3
REMARK VINA RESULT:     -12.0      4.058      8.851
REMARK SMILES Cc1cc(C)cc(N(C)S(=O)(=O)c2ccc(F)c(C(=O)OCCOC(=O)c3ccc(-c4c5nc(c(-c6c(F)cccc6F)c6ccc([nH]6)c(-c6c(F)cccc6F)c6nc(c(-c7c(F)cccc7F)c7ccc4[nH]7)C=C6)C=C5)cc3)c2)c1
REMARK SMILES IDX 22 1 21 2 19 3 20 4 18 5 13 6 14 7 81 8 15 9 16 10 17 11
REMARK SMILES IDX 10 12 11 13 12 14 8 15 9 16 7 17 1 18 2 19 3 20 82 21 4 22
REMARK SMILES IDX 5 23 6 24 23 25 24 26 25 27 26 28 27 29 28 30 80 31 29 32
REMARK SMILES IDX 79 33 30 34 31 35 32 36 73 37 33 38 78 39 72 40 74 41 34 42
REMARK SMILES IDX 77 43 71 44 70 45 35 47 61 48 44 49 60 50 45 51 48 52 59 53
REMARK SMILES IDX 75 54 46 55 47 56 58 58 76 59 49 60 36 61 37 62 42 63 38 64
REMARK SMILES IDX 39 65 41 66 43 67 40 68 62 69 63 70 68 71 64 72 65 73 67 74
REMARK SMILES IDX 69 75 66 76 50 77 51 78 56 79 52 80 53 81 55 82 57 83 54 84
REMARK H PARENT 74 46 48 57
REMARK Flexibility Score: inf
ROOT
ATOM      1  C   UNL A   1      34.321  35.442  28.428  1.00  0.00     0.275 C 
ENDROOT
BRANCH   1   2
ATOM      2  O   UNL A   1      34.624  34.189  27.781  1.00  0.00    -0.458 OA
BRANCH   2   3
ATOM      3  C   UNL A   1      35.481  33.369  28.428  1.00  0.00     0.341 C 
ATOM      4  O   UNL A   1      36.227  33.672  29.349  1.00  0.00    -0.246 OA
BRANCH   3   5
ATOM      5  C   UNL A   1      35.381  31.979  27.945  1.00  0.00     0.097 A 
ATOM      6  C   UNL A   1      33.967  30.117  27.306  1.00  0.00     0.089 A 
ATOM      7  C   UNL A   1      35.102  29.293  27.243  1.00  0.00     0.025 A 
ATOM      8  C   UNL A   1      34.106  31.457  27.648  1.00  0.00     0.041 A 
ATOM      9  C   UNL A   1      36.367  29.812  27.529  1.00  0.00     0.041 A 
ATOM     10  C   UNL A   1      36.501  31.151  27.885  1.00  0.00     0.137 A 
ATOM     11  F   UNL A   1      37.718  31.603  28.220  1.00  0.00    -0.206 F 
BRANCH   6  12
ATOM     12  S   UNL A   1      32.396  29.343  26.964  1.00  0.00     0.264 S 
ATOM     13  O   UNL A   1      31.455  30.443  26.870  1.00  0.00    -0.201 OA
ATOM     14  O   UNL A   1      32.253  28.324  27.984  1.00  0.00    -0.201 OA
BRANCH  12  15
ATOM     15  N   UNL A   1      32.447  28.572  25.416  1.00  0.00    -0.269 N 
ATOM     16  C   UNL A   1      31.385  28.988  24.455  1.00  0.00     0.164 C 
BRANCH  15  17
ATOM     17  C   UNL A   1      32.612  27.107  25.469  1.00  0.00     0.052 A 
ATOM     18  C   UNL A   1      35.333  24.416  25.379  1.00  0.00     0.044 C 
ATOM     19  C   UNL A   1      34.002  25.088  25.527  1.00  0.00    -0.049 A 
ATOM     20  C   UNL A   1      32.888  24.326  25.866  1.00  0.00     0.007 A 
ATOM     21  C   UNL A   1      33.861  26.473  25.361  1.00  0.00     0.030 A 
ATOM     22  C   UNL A   1      31.640  24.929  26.016  1.00  0.00    -0.049 A 
ATOM     23  C   UNL A   1      30.480  24.091  26.451  1.00  0.00     0.044 C 
ATOM     24  C   UNL A   1      31.508  26.316  25.819  1.00  0.00     0.030 A 
ENDBRANCH  15  17
ENDBRANCH  12  15
ENDBRANCH   6  12
ENDBRANCH   3   5
ENDBRANCH   2   3
ENDBRANCH   1   2
BRANCH   1  25
ATOM     25  C   UNL A   1      33.191  35.287  29.445  1.00  0.00     0.275 C 
BRANCH  25  26
ATOM     26  O   UNL A   1      33.413  36.130  30.592  1.00  0.00    -0.458 OA
BRANCH  26  27
ATOM     27  C   UNL A   1      32.934  35.653  31.762  1.00  0.00     0.338 C 
ATOM     28  O   UNL A   1      31.787  35.688  32.171  1.00  0.00    -0.246 OA
BRANCH  27  29
ATOM     29  C   UNL A   1      34.004  34.939  32.471  1.00  0.00     0.060 A 
ATOM     30  C   UNL A   1      35.281  35.487  32.412  1.00  0.00     0.016 A 
ATOM     31  C   UNL A   1      33.802  33.690  33.051  1.00  0.00     0.016 A 
ATOM     32  C   UNL A   1      36.377  34.762  32.861  1.00  0.00     0.010 A 
ATOM     33  C   UNL A   1      34.901  32.988  33.571  1.00  0.00     0.010 A 
ATOM     34  C   UNL A   1      36.204  33.504  33.452  1.00  0.00    -0.014 A 
BRANCH  34  35
ATOM     35  C   UNL A   1      37.405  32.728  33.868  1.00  0.00     0.031 A 
ATOM     36  C   UNL A   1      38.043  31.766  32.897  1.00  0.00     0.074 A 
ATOM     37  C   UNL A   1      38.018  33.003  35.038  1.00  0.00     0.049 A 
ATOM     38  N   UNL A   1      39.087  30.995  33.062  1.00  0.00    -0.248 NA
ATOM     39  C   UNL A   1      37.448  31.685  31.553  1.00  0.00     0.031 C 
ATOM     40  C   UNL A   1      37.609  34.054  35.974  1.00  0.00     0.029 A 
ATOM     41  N   UNL A   1      39.166  32.497  35.598  1.00  0.00    -0.354 N 
ATOM     42  C   UNL A   1      39.259  30.321  31.858  1.00  0.00     0.074 A 
ATOM     43  C   UNL A   1      38.204  30.764  30.972  1.00  0.00     0.031 C 
ATOM     44  C   UNL A   1      38.564  34.207  36.905  1.00  0.00     0.029 A 
ATOM     45  C   UNL A   1      39.605  33.205  36.695  1.00  0.00     0.049 A 
ATOM     46  H   UNL A   1      39.632  31.703  35.249  1.00  0.00     0.167 HD
ATOM     47  C   UNL A   1      40.215  29.424  31.519  1.00  0.00     0.037 A 
ATOM     48  C   UNL A   1      40.729  33.079  37.428  1.00  0.00     0.037 A 
ATOM     49  C   UNL A   1      41.316  29.048  32.365  1.00  0.00     0.049 A 
ATOM     50  C   UNL A   1      41.715  31.993  37.086  1.00  0.00     0.074 A 
ATOM     51  C   UNL A   1      42.295  28.097  32.133  1.00  0.00     0.029 A 
ATOM     52  N   UNL A   1      41.607  29.633  33.587  1.00  0.00    -0.354 N 
ATOM     53  N   UNL A   1      41.761  31.224  36.027  1.00  0.00    -0.248 NA
ATOM     54  C   UNL A   1      42.794  31.747  38.054  1.00  0.00     0.031 C 
ATOM     55  C   UNL A   1      43.161  28.086  33.230  1.00  0.00     0.029 A 
ATOM     56  C   UNL A   1      42.747  29.060  34.123  1.00  0.00     0.049 A 
ATOM     57  H   UNL A   1      41.081  30.350  34.010  1.00  0.00     0.167 HD
ATOM     58  C   UNL A   1      42.879  30.416  36.191  1.00  0.00     0.074 A 
ATOM     59  C   UNL A   1      43.494  30.801  37.443  1.00  0.00     0.031 C 
ATOM     60  C   UNL A   1      43.348  29.441  35.376  1.00  0.00     0.037 A 
BRANCH  47  61
ATOM     61  C   UNL A   1      40.087  28.735  30.194  1.00  0.00     0.057 A 
ATOM     62  C   UNL A   1      40.687  29.293  29.057  1.00  0.00     0.134 A 
ATOM     63  C   UNL A   1      39.333  27.569  30.022  1.00  0.00     0.134 A 
ATOM     64  F   UNL A   1      41.415  30.415  29.155  1.00  0.00    -0.206 F 
ATOM     65  C   UNL A   1      40.533  28.723  27.793  1.00  0.00     0.040 A 
ATOM     66  C   UNL A   1      39.187  26.977  28.764  1.00  0.00     0.040 A 
ATOM     67  F   UNL A   1      38.742  26.981  31.072  1.00  0.00    -0.206 F 
ATOM     68  C   UNL A   1      39.782  27.559  27.645  1.00  0.00     0.006 A 
ENDBRANCH  47  61
BRANCH  48  69
ATOM     69  C   UNL A   1      41.022  34.034  38.531  1.00  0.00     0.057 A 
ATOM     70  C   UNL A   1      40.585  33.811  39.842  1.00  0.00     0.134 A 
ATOM     71  C   UNL A   1      41.758  35.201  38.289  1.00  0.00     0.134 A 
ATOM     72  F   UNL A   1      39.880  32.712  40.144  1.00  0.00    -0.206 F 
ATOM     73  C   UNL A   1      40.843  34.726  40.866  1.00  0.00     0.040 A 
ATOM     74  C   UNL A   1      42.051  36.108  39.309  1.00  0.00     0.040 A 
ATOM     75  F   UNL A   1      42.226  35.461  37.059  1.00  0.00    -0.206 F 
ATOM     76  C   UNL A   1      41.584  35.875  40.601  1.00  0.00     0.006 A 
ENDBRANCH  48  69
BRANCH  60  77
ATOM     77  C   UNL A   1      44.577  28.696  35.808  1.00  0.00     0.057 A 
ATOM     78  C   UNL A   1      44.481  27.552  36.612  1.00  0.00     0.134 A 
ATOM     79  C   UNL A   1      45.859  29.170  35.507  1.00  0.00     0.134 A 
ATOM     80  F   UNL A   1      43.281  27.052  36.945  1.00  0.00    -0.206 F 
ATOM     81  C   UNL A   1      45.617  26.918  37.116  1.00  0.00     0.040 A 
ATOM     82  C   UNL A   1      47.003  28.532  35.987  1.00  0.00     0.040 A 
ATOM     83  F   UNL A   1      46.018  30.256  34.735  1.00  0.00    -0.206 F 
ATOM     84  C   UNL A   1      46.884  27.409  36.803  1.00  0.00     0.006 A 
ENDBRANCH  60  77
ENDBRANCH  34  35
ENDBRANCH  27  29
ENDBRANCH  26  27
ENDBRANCH  25  26
ENDBRANCH   1  25
TORSDOF 14
ENDMDL
