MODEL 1
REMARK VINA RESULT:     -11.7      0.000      0.000
REMARK SMILES Cc1nn(-c2ccccc2)c(C)c1CNC(=O)CCCC(=O)OCCOC(=O)c1ccc(-c2c3nc(c(-c4c(F)cccc4F)c4ccc([nH]4)c(-c4c(F)cccc4F)c4nc(c(-c5c(F)cccc5F)c5ccc2[nH]5)C=C4)C=C3)cc1
REMARK SMILES IDX 21 1 22 2 20 3 19 4 18 5 16 6 15 7 17 9 14 10 13 11 1 12
REMARK SMILES IDX 2 13 3 14 4 15 11 16 12 17 5 18 6 19 10 20 7 21 9 22 8 23
REMARK SMILES IDX 23 24 24 25 25 26 26 27 27 28 28 29 29 30 30 31 82 32 31 33
REMARK SMILES IDX 81 34 32 35 33 36 34 37 75 38 35 39 80 40 74 41 76 42 36 43
REMARK SMILES IDX 79 44 73 45 72 46 37 48 63 49 46 50 62 51 47 52 50 53 61 54
REMARK SMILES IDX 77 55 48 56 49 57 60 59 78 60 51 61 38 62 39 63 44 64 40 65
REMARK SMILES IDX 41 66 43 67 45 68 42 69 64 70 65 71 70 72 66 73 67 74 69 75
REMARK SMILES IDX 71 76 68 77 52 78 53 79 58 80 54 81 55 82 57 83 59 84 56 85
REMARK H PARENT 15 8 76 47 50 58
REMARK Flexibility Score: inf
ROOT
ATOM      1  C   UNL A   1      35.657  23.365  23.795  1.00  0.00     0.305 C 
ATOM      2  O   UNL A   1      35.005  23.361  22.759  1.00  0.00    -0.252 OA
ENDROOT
BRANCH   1   3
ATOM      3  C   UNL A   1      35.188  24.049  25.064  1.00  0.00     0.123 C 
BRANCH   3   4
ATOM      4  C   UNL A   1      33.710  24.398  25.267  1.00  0.00     0.022 C 
BRANCH   4   5
ATOM      5  C   UNL A   1      32.727  23.376  25.848  1.00  0.00     0.100 C 
BRANCH   5   6
ATOM      6  C   UNL A   1      31.274  23.761  26.058  1.00  0.00     0.220 C 
ATOM      7  N   UNL A   1      30.468  24.236  25.076  1.00  0.00    -0.352 N 
ATOM      8  H   UNL A   1      29.561  24.459  25.388  1.00  0.00     0.163 HD
ATOM      9  O   UNL A   1      30.776  23.672  27.185  1.00  0.00    -0.275 OA
BRANCH   7  10
ATOM     10  C   UNL A   1      30.667  24.480  23.670  1.00  0.00     0.155 C 
BRANCH  10  11
ATOM     11  C   UNL A   1      30.630  25.942  23.333  1.00  0.00     0.016 A 
ATOM     12  C   UNL A   1      32.913  26.105  22.038  1.00  0.00     0.069 C 
ATOM     13  C   UNL A   1      31.626  26.631  22.572  1.00  0.00     0.065 A 
ATOM     14  N   UNL A   1      31.275  27.890  22.293  1.00  0.00    -0.173 NA
ATOM     15  N   UNL A   1      30.116  28.086  22.955  1.00  0.00    -0.237 N 
ATOM     16  C   UNL A   1      29.638  26.907  23.517  1.00  0.00     0.046 A 
ATOM     17  C   UNL A   1      28.224  26.803  23.988  1.00  0.00     0.067 C 
BRANCH  15  18
ATOM     18  C   UNL A   1      29.449  29.338  22.917  1.00  0.00     0.065 A 
ATOM     19  C   UNL A   1      28.393  29.542  22.024  1.00  0.00     0.028 A 
ATOM     20  C   UNL A   1      29.785  30.337  23.842  1.00  0.00     0.028 A 
ATOM     21  C   UNL A   1      27.617  30.700  22.136  1.00  0.00     0.002 A 
ATOM     22  C   UNL A   1      29.013  31.491  23.944  1.00  0.00     0.002 A 
ATOM     23  C   UNL A   1      27.915  31.661  23.105  1.00  0.00     0.000 A 
ENDBRANCH  15  18
ENDBRANCH  10  11
ENDBRANCH   7  10
ENDBRANCH   5   6
ENDBRANCH   4   5
ENDBRANCH   3   4
ENDBRANCH   1   3
BRANCH   1  24
ATOM     24  O   UNL A   1      36.845  22.732  23.949  1.00  0.00    -0.462 OA
BRANCH  24  25
ATOM     25  C   UNL A   1      37.239  22.299  25.264  1.00  0.00     0.274 C 
BRANCH  25  26
ATOM     26  C   UNL A   1      38.213  21.134  25.141  1.00  0.00     0.275 C 
BRANCH  26  27
ATOM     27  O   UNL A   1      39.222  21.291  26.132  1.00  0.00    -0.458 OA
BRANCH  27  28
ATOM     28  C   UNL A   1      40.255  20.427  26.012  1.00  0.00     0.338 C 
ATOM     29  O   UNL A   1      40.208  19.272  25.633  1.00  0.00    -0.246 OA
BRANCH  28  30
ATOM     30  C   UNL A   1      41.486  21.069  26.481  1.00  0.00     0.060 A 
ATOM     31  C   UNL A   1      41.757  20.912  27.844  1.00  0.00     0.016 A 
ATOM     32  C   UNL A   1      41.956  22.149  25.731  1.00  0.00     0.016 A 
ATOM     33  C   UNL A   1      42.149  22.027  28.531  1.00  0.00     0.010 A 
ATOM     34  C   UNL A   1      42.300  23.273  26.421  1.00  0.00     0.010 A 
ATOM     35  C   UNL A   1      42.265  23.217  27.811  1.00  0.00    -0.014 A 
BRANCH  35  36
ATOM     36  C   UNL A   1      42.416  24.439  28.554  1.00  0.00     0.031 A 
ATOM     37  C   UNL A   1      41.350  25.386  28.205  1.00  0.00     0.074 A 
ATOM     38  C   UNL A   1      43.357  24.574  29.506  1.00  0.00     0.049 A 
ATOM     39  N   UNL A   1      41.446  26.427  27.451  1.00  0.00    -0.248 NA
ATOM     40  C   UNL A   1      39.964  24.984  28.507  1.00  0.00     0.031 C 
ATOM     41  C   UNL A   1      44.223  23.523  30.056  1.00  0.00     0.029 A 
ATOM     42  N   UNL A   1      43.656  25.660  30.273  1.00  0.00    -0.354 N 
ATOM     43  C   UNL A   1      40.166  26.968  27.457  1.00  0.00     0.074 A 
ATOM     44  C   UNL A   1      39.276  25.909  27.837  1.00  0.00     0.031 C 
ATOM     45  C   UNL A   1      44.767  23.956  31.217  1.00  0.00     0.029 A 
ATOM     46  C   UNL A   1      44.407  25.350  31.406  1.00  0.00     0.049 A 
ATOM     47  H   UNL A   1      43.370  26.573  30.050  1.00  0.00     0.167 HD
ATOM     48  C   UNL A   1      40.011  28.311  27.596  1.00  0.00     0.037 A 
ATOM     49  C   UNL A   1      44.628  26.185  32.448  1.00  0.00     0.037 A 
ATOM     50  C   UNL A   1      41.251  28.998  27.337  1.00  0.00     0.049 A 
ATOM     51  C   UNL A   1      44.396  27.569  31.969  1.00  0.00     0.074 A 
ATOM     52  C   UNL A   1      41.993  29.350  26.232  1.00  0.00     0.029 A 
ATOM     53  N   UNL A   1      42.087  29.045  28.423  1.00  0.00    -0.354 N 
ATOM     54  N   UNL A   1      45.150  28.151  31.076  1.00  0.00    -0.248 NA
ATOM     55  C   UNL A   1      43.093  28.192  32.183  1.00  0.00     0.031 C 
ATOM     56  C   UNL A   1      43.334  29.529  26.685  1.00  0.00     0.029 A 
ATOM     57  C   UNL A   1      43.378  29.315  28.061  1.00  0.00     0.049 A 
ATOM     58  H   UNL A   1      41.793  28.902  29.351  1.00  0.00     0.167 HD
ATOM     59  C   UNL A   1      44.274  28.924  30.337  1.00  0.00     0.074 A 
ATOM     60  C   UNL A   1      43.077  29.049  31.158  1.00  0.00     0.031 C 
ATOM     61  C   UNL A   1      44.459  29.103  28.998  1.00  0.00     0.037 A 
BRANCH  48  62
ATOM     62  C   UNL A   1      38.951  28.942  28.473  1.00  0.00     0.057 A 
ATOM     63  C   UNL A   1      38.929  28.606  29.836  1.00  0.00     0.134 A 
ATOM     64  C   UNL A   1      37.796  29.606  28.005  1.00  0.00     0.134 A 
ATOM     65  F   UNL A   1      39.955  27.950  30.399  1.00  0.00    -0.206 F 
ATOM     66  C   UNL A   1      37.820  28.864  30.653  1.00  0.00     0.040 A 
ATOM     67  C   UNL A   1      36.709  29.917  28.823  1.00  0.00     0.040 A 
ATOM     68  F   UNL A   1      37.598  29.904  26.716  1.00  0.00    -0.206 F 
ATOM     69  C   UNL A   1      36.704  29.519  30.147  1.00  0.00     0.006 A 
ENDBRANCH  48  62
BRANCH  49  70
ATOM     70  C   UNL A   1      44.708  25.845  33.885  1.00  0.00     0.057 A 
ATOM     71  C   UNL A   1      43.556  25.610  34.646  1.00  0.00     0.134 A 
ATOM     72  C   UNL A   1      45.929  25.470  34.473  1.00  0.00     0.134 A 
ATOM     73  F   UNL A   1      42.344  25.897  34.150  1.00  0.00    -0.206 F 
ATOM     74  C   UNL A   1      43.612  25.014  35.913  1.00  0.00     0.040 A 
ATOM     75  C   UNL A   1      45.999  24.876  35.737  1.00  0.00     0.040 A 
ATOM     76  F   UNL A   1      47.083  25.584  33.800  1.00  0.00    -0.206 F 
ATOM     77  C   UNL A   1      44.836  24.634  36.457  1.00  0.00     0.006 A 
ENDBRANCH  49  70
BRANCH  61  78
ATOM     78  C   UNL A   1      45.839  28.910  28.456  1.00  0.00     0.057 A 
ATOM     79  C   UNL A   1      46.329  27.706  27.933  1.00  0.00     0.134 A 
ATOM     80  C   UNL A   1      46.682  30.024  28.391  1.00  0.00     0.134 A 
ATOM     81  F   UNL A   1      45.562  26.608  27.891  1.00  0.00    -0.206 F 
ATOM     82  C   UNL A   1      47.618  27.612  27.398  1.00  0.00     0.040 A 
ATOM     83  C   UNL A   1      47.958  29.952  27.831  1.00  0.00     0.040 A 
ATOM     84  F   UNL A   1      46.260  31.217  28.839  1.00  0.00    -0.206 F 
ATOM     85  C   UNL A   1      48.434  28.739  27.341  1.00  0.00     0.006 A 
ENDBRANCH  61  78
ENDBRANCH  35  36
ENDBRANCH  28  30
ENDBRANCH  27  28
ENDBRANCH  26  27
ENDBRANCH  25  26
ENDBRANCH  24  25
ENDBRANCH   1  24
TORSDOF 17
ENDMDL
MODEL 2
REMARK VINA RESULT:     -11.7      1.764      2.685
REMARK SMILES Cc1nn(-c2ccccc2)c(C)c1CNC(=O)CCCC(=O)OCCOC(=O)c1ccc(-c2c3nc(c(-c4c(F)cccc4F)c4ccc([nH]4)c(-c4c(F)cccc4F)c4nc(c(-c5c(F)cccc5F)c5ccc2[nH]5)C=C4)C=C3)cc1
REMARK SMILES IDX 21 1 22 2 20 3 19 4 18 5 16 6 15 7 17 9 14 10 13 11 1 12
REMARK SMILES IDX 2 13 3 14 4 15 11 16 12 17 5 18 6 19 10 20 7 21 9 22 8 23
REMARK SMILES IDX 23 24 24 25 25 26 26 27 27 28 28 29 29 30 30 31 82 32 31 33
REMARK SMILES IDX 81 34 32 35 33 36 34 37 75 38 35 39 80 40 74 41 76 42 36 43
REMARK SMILES IDX 79 44 73 45 72 46 37 48 63 49 46 50 62 51 47 52 50 53 61 54
REMARK SMILES IDX 77 55 48 56 49 57 60 59 78 60 51 61 38 62 39 63 44 64 40 65
REMARK SMILES IDX 41 66 43 67 45 68 42 69 64 70 65 71 70 72 66 73 67 74 69 75
REMARK SMILES IDX 71 76 68 77 52 78 53 79 58 80 54 81 55 82 57 83 59 84 56 85
REMARK H PARENT 15 8 76 47 50 58
REMARK Flexibility Score: inf
ROOT
ATOM      1  C   UNL A   1      35.013  23.459  25.290  1.00  0.00     0.305 C 
ATOM      2  O   UNL A   1      34.645  24.557  24.892  1.00  0.00    -0.252 OA
ENDROOT
BRANCH   1   3
ATOM      3  C   UNL A   1      34.071  22.284  25.462  1.00  0.00     0.123 C 
BRANCH   3   4
ATOM      4  C   UNL A   1      33.735  21.368  24.279  1.00  0.00     0.022 C 
BRANCH   4   5
ATOM      5  C   UNL A   1      32.570  21.687  23.337  1.00  0.00     0.100 C 
BRANCH   5   6
ATOM      6  C   UNL A   1      32.635  22.912  22.443  1.00  0.00     0.220 C 
ATOM      7  N   UNL A   1      31.775  23.956  22.528  1.00  0.00    -0.352 N 
ATOM      8  H   UNL A   1      31.942  24.657  21.858  1.00  0.00     0.163 HD
ATOM      9  O   UNL A   1      33.496  22.977  21.559  1.00  0.00    -0.275 OA
BRANCH   7  10
ATOM     10  C   UNL A   1      30.665  24.250  23.399  1.00  0.00     0.155 C 
BRANCH  10  11
ATOM     11  C   UNL A   1      31.064  25.106  24.565  1.00  0.00     0.016 A 
ATOM     12  C   UNL A   1      30.631  23.371  26.494  1.00  0.00     0.069 C 
ATOM     13  C   UNL A   1      31.075  24.676  25.929  1.00  0.00     0.065 A 
ATOM     14  N   UNL A   1      31.612  25.586  26.747  1.00  0.00    -0.173 NA
ATOM     15  N   UNL A   1      31.851  26.661  25.967  1.00  0.00    -0.237 N 
ATOM     16  C   UNL A   1      31.627  26.382  24.623  1.00  0.00     0.046 A 
ATOM     17  C   UNL A   1      32.151  27.289  23.557  1.00  0.00     0.067 C 
BRANCH  15  18
ATOM     18  C   UNL A   1      32.402  27.854  26.505  1.00  0.00     0.065 A 
ATOM     19  C   UNL A   1      33.780  27.956  26.713  1.00  0.00     0.028 A 
ATOM     20  C   UNL A   1      31.575  28.962  26.738  1.00  0.00     0.028 A 
ATOM     21  C   UNL A   1      34.330  29.198  27.049  1.00  0.00     0.002 A 
ATOM     22  C   UNL A   1      32.127  30.193  27.078  1.00  0.00     0.002 A 
ATOM     23  C   UNL A   1      33.507  30.316  27.212  1.00  0.00     0.000 A 
ENDBRANCH  15  18
ENDBRANCH  10  11
ENDBRANCH   7  10
ENDBRANCH   5   6
ENDBRANCH   4   5
ENDBRANCH   3   4
ENDBRANCH   1   3
BRANCH   1  24
ATOM     24  O   UNL A   1      36.299  23.148  25.586  1.00  0.00    -0.462 OA
BRANCH  24  25
ATOM     25  C   UNL A   1      37.132  22.581  24.558  1.00  0.00     0.274 C 
BRANCH  25  26
ATOM     26  C   UNL A   1      37.636  21.217  25.011  1.00  0.00     0.275 C 
BRANCH  26  27
ATOM     27  O   UNL A   1      38.769  21.416  25.848  1.00  0.00    -0.458 OA
BRANCH  27  28
ATOM     28  C   UNL A   1      39.677  20.415  25.798  1.00  0.00     0.338 C 
ATOM     29  O   UNL A   1      39.495  19.275  25.416  1.00  0.00    -0.246 OA
BRANCH  28  30
ATOM     30  C   UNL A   1      40.952  20.883  26.350  1.00  0.00     0.060 A 
ATOM     31  C   UNL A   1      41.096  20.723  27.731  1.00  0.00     0.016 A 
ATOM     32  C   UNL A   1      41.628  21.864  25.622  1.00  0.00     0.016 A 
ATOM     33  C   UNL A   1      41.596  21.787  28.431  1.00  0.00     0.010 A 
ATOM     34  C   UNL A   1      42.081  22.944  26.320  1.00  0.00     0.010 A 
ATOM     35  C   UNL A   1      41.937  22.929  27.705  1.00  0.00    -0.014 A 
BRANCH  35  36
ATOM     36  C   UNL A   1      42.211  24.134  28.439  1.00  0.00     0.031 A 
ATOM     37  C   UNL A   1      41.167  25.135  28.190  1.00  0.00     0.074 A 
ATOM     38  C   UNL A   1      43.237  24.213  29.307  1.00  0.00     0.049 A 
ATOM     39  N   UNL A   1      41.249  26.178  27.436  1.00  0.00    -0.248 NA
ATOM     40  C   UNL A   1      39.795  24.797  28.608  1.00  0.00     0.031 C 
ATOM     41  C   UNL A   1      44.094  23.116  29.774  1.00  0.00     0.029 A 
ATOM     42  N   UNL A   1      43.653  25.275  30.053  1.00  0.00    -0.354 N 
ATOM     43  C   UNL A   1      40.002  26.780  27.556  1.00  0.00     0.074 A 
ATOM     44  C   UNL A   1      39.098  25.761  28.005  1.00  0.00     0.031 C 
ATOM     45  C   UNL A   1      44.756  23.511  30.886  1.00  0.00     0.029 A 
ATOM     46  C   UNL A   1      44.482  24.917  31.114  1.00  0.00     0.049 A 
ATOM     47  H   UNL A   1      43.393  26.204  29.860  1.00  0.00     0.167 HD
ATOM     48  C   UNL A   1      39.925  28.127  27.717  1.00  0.00     0.037 A 
ATOM     49  C   UNL A   1      44.833  25.731  32.139  1.00  0.00     0.037 A 
ATOM     50  C   UNL A   1      41.171  28.756  27.357  1.00  0.00     0.049 A 
ATOM     51  C   UNL A   1      44.628  27.129  31.690  1.00  0.00     0.074 A 
ATOM     52  C   UNL A   1      41.831  29.084  26.193  1.00  0.00     0.029 A 
ATOM     53  N   UNL A   1      42.098  28.752  28.366  1.00  0.00    -0.354 N 
ATOM     54  N   UNL A   1      45.331  27.683  30.739  1.00  0.00    -0.248 NA
ATOM     55  C   UNL A   1      43.381  27.812  32.020  1.00  0.00     0.031 C 
ATOM     56  C   UNL A   1      43.214  29.193  26.530  1.00  0.00     0.029 A 
ATOM     57  C   UNL A   1      43.365  28.963  27.896  1.00  0.00     0.049 A 
ATOM     58  H   UNL A   1      41.878  28.613  29.316  1.00  0.00     0.167 HD
ATOM     59  C   UNL A   1      44.433  28.505  30.084  1.00  0.00     0.074 A 
ATOM     60  C   UNL A   1      43.319  28.679  31.006  1.00  0.00     0.031 C 
ATOM     61  C   UNL A   1      44.511  28.689  28.735  1.00  0.00     0.037 A 
BRANCH  48  62
ATOM     62  C   UNL A   1      38.977  28.799  28.686  1.00  0.00     0.057 A 
ATOM     63  C   UNL A   1      39.027  28.419  30.037  1.00  0.00     0.134 A 
ATOM     64  C   UNL A   1      37.842  29.557  28.323  1.00  0.00     0.134 A 
ATOM     65  F   UNL A   1      40.041  27.677  30.505  1.00  0.00    -0.206 F 
ATOM     66  C   UNL A   1      37.999  28.726  30.939  1.00  0.00     0.040 A 
ATOM     67  C   UNL A   1      36.840  29.913  29.225  1.00  0.00     0.040 A 
ATOM     68  F   UNL A   1      37.575  29.911  27.061  1.00  0.00    -0.206 F 
ATOM     69  C   UNL A   1      36.900  29.472  30.534  1.00  0.00     0.006 A 
ENDBRANCH  48  62
BRANCH  49  70
ATOM     70  C   UNL A   1      45.019  25.372  33.561  1.00  0.00     0.057 A 
ATOM     71  C   UNL A   1      46.107  25.854  34.300  1.00  0.00     0.134 A 
ATOM     72  C   UNL A   1      43.981  24.776  34.299  1.00  0.00     0.134 A 
ATOM     73  F   UNL A   1      47.124  26.475  33.685  1.00  0.00    -0.206 F 
ATOM     74  C   UNL A   1      46.152  25.767  35.698  1.00  0.00     0.040 A 
ATOM     75  C   UNL A   1      44.014  24.682  35.694  1.00  0.00     0.040 A 
ATOM     76  F   UNL A   1      42.862  24.349  33.697  1.00  0.00    -0.206 F 
ATOM     77  C   UNL A   1      45.097  25.191  36.401  1.00  0.00     0.006 A 
ENDBRANCH  49  70
BRANCH  61  78
ATOM     78  C   UNL A   1      45.828  28.435  28.074  1.00  0.00     0.057 A 
ATOM     79  C   UNL A   1      46.905  29.330  28.074  1.00  0.00     0.134 A 
ATOM     80  C   UNL A   1      46.035  27.187  27.477  1.00  0.00     0.134 A 
ATOM     81  F   UNL A   1      46.817  30.519  28.686  1.00  0.00    -0.206 F 
ATOM     82  C   UNL A   1      48.127  29.005  27.475  1.00  0.00     0.040 A 
ATOM     83  C   UNL A   1      47.257  26.837  26.904  1.00  0.00     0.040 A 
ATOM     84  F   UNL A   1      45.056  26.269  27.476  1.00  0.00    -0.206 F 
ATOM     85  C   UNL A   1      48.306  27.752  26.892  1.00  0.00     0.006 A 
ENDBRANCH  61  78
ENDBRANCH  35  36
ENDBRANCH  28  30
ENDBRANCH  27  28
ENDBRANCH  26  27
ENDBRANCH  25  26
ENDBRANCH  24  25
ENDBRANCH   1  24
TORSDOF 17
ENDMDL
MODEL 3
REMARK VINA RESULT:     -11.5      1.977      5.847
REMARK SMILES Cc1nn(-c2ccccc2)c(C)c1CNC(=O)CCCC(=O)OCCOC(=O)c1ccc(-c2c3nc(c(-c4c(F)cccc4F)c4ccc([nH]4)c(-c4c(F)cccc4F)c4nc(c(-c5c(F)cccc5F)c5ccc2[nH]5)C=C4)C=C3)cc1
REMARK SMILES IDX 21 1 22 2 20 3 19 4 18 5 16 6 15 7 17 9 14 10 13 11 1 12
REMARK SMILES IDX 2 13 3 14 4 15 11 16 12 17 5 18 6 19 10 20 7 21 9 22 8 23
REMARK SMILES IDX 23 24 24 25 25 26 26 27 27 28 28 29 29 30 30 31 82 32 31 33
REMARK SMILES IDX 81 34 32 35 33 36 34 37 75 38 35 39 80 40 74 41 76 42 36 43
REMARK SMILES IDX 79 44 73 45 72 46 37 48 63 49 46 50 62 51 47 52 50 53 61 54
REMARK SMILES IDX 77 55 48 56 49 57 60 59 78 60 51 61 38 62 39 63 44 64 40 65
REMARK SMILES IDX 41 66 43 67 45 68 42 69 64 70 65 71 70 72 66 73 67 74 69 75
REMARK SMILES IDX 71 76 68 77 52 78 53 79 58 80 54 81 55 82 57 83 59 84 56 85
REMARK H PARENT 15 8 76 47 50 58
REMARK Flexibility Score: inf
ROOT
ATOM      1  C   UNL A   1      39.080  21.888  25.994  1.00  0.00     0.305 C 
ATOM      2  O   UNL A   1      38.491  20.904  25.563  1.00  0.00    -0.252 OA
ENDROOT
BRANCH   1   3
ATOM      3  C   UNL A   1      38.427  23.250  26.124  1.00  0.00     0.123 C 
BRANCH   3   4
ATOM      4  C   UNL A   1      37.107  23.559  25.411  1.00  0.00     0.022 C 
BRANCH   4   5
ATOM      5  C   UNL A   1      35.759  23.305  26.095  1.00  0.00     0.100 C 
BRANCH   5   6
ATOM      6  C   UNL A   1      34.512  23.105  25.254  1.00  0.00     0.220 C 
ATOM      7  N   UNL A   1      33.706  24.116  24.844  1.00  0.00    -0.352 N 
ATOM      8  H   UNL A   1      32.926  23.810  24.327  1.00  0.00     0.163 HD
ATOM      9  O   UNL A   1      34.170  21.962  24.931  1.00  0.00    -0.275 OA
BRANCH   7  10
ATOM     10  C   UNL A   1      33.758  25.546  25.011  1.00  0.00     0.155 C 
BRANCH  10  11
ATOM     11  C   UNL A   1      32.711  26.254  24.201  1.00  0.00     0.016 A 
ATOM     12  C   UNL A   1      33.181  25.121  21.874  1.00  0.00     0.069 C 
ATOM     13  C   UNL A   1      32.452  26.017  22.814  1.00  0.00     0.065 A 
ATOM     14  N   UNL A   1      31.372  26.673  22.378  1.00  0.00    -0.173 NA
ATOM     15  N   UNL A   1      30.978  27.433  23.420  1.00  0.00    -0.237 N 
ATOM     16  C   UNL A   1      31.698  27.140  24.573  1.00  0.00     0.046 A 
ATOM     17  C   UNL A   1      31.214  27.591  25.913  1.00  0.00     0.067 C 
BRANCH  15  18
ATOM     18  C   UNL A   1      29.860  28.303  23.317  1.00  0.00     0.065 A 
ATOM     19  C   UNL A   1      30.052  29.656  23.022  1.00  0.00     0.028 A 
ATOM     20  C   UNL A   1      28.562  27.785  23.417  1.00  0.00     0.028 A 
ATOM     21  C   UNL A   1      28.942  30.453  22.725  1.00  0.00     0.002 A 
ATOM     22  C   UNL A   1      27.461  28.586  23.126  1.00  0.00     0.002 A 
ATOM     23  C   UNL A   1      27.654  29.914  22.758  1.00  0.00     0.000 A 
ENDBRANCH  15  18
ENDBRANCH  10  11
ENDBRANCH   7  10
ENDBRANCH   5   6
ENDBRANCH   4   5
ENDBRANCH   3   4
ENDBRANCH   1   3
BRANCH   1  24
ATOM     24  O   UNL A   1      40.359  21.874  26.441  1.00  0.00    -0.462 OA
BRANCH  24  25
ATOM     25  C   UNL A   1      40.774  20.823  27.331  1.00  0.00     0.274 C 
BRANCH  25  26
ATOM     26  C   UNL A   1      41.825  19.962  26.641  1.00  0.00     0.275 C 
BRANCH  26  27
ATOM     27  O   UNL A   1      42.332  20.686  25.525  1.00  0.00    -0.458 OA
BRANCH  27  28
ATOM     28  C   UNL A   1      43.667  20.567  25.348  1.00  0.00     0.338 C 
ATOM     29  O   UNL A   1      44.325  19.544  25.379  1.00  0.00    -0.246 OA
BRANCH  28  30
ATOM     30  C   UNL A   1      44.257  21.897  25.170  1.00  0.00     0.060 A 
ATOM     31  C   UNL A   1      45.285  22.215  26.062  1.00  0.00     0.016 A 
ATOM     32  C   UNL A   1      43.455  22.861  24.556  1.00  0.00     0.016 A 
ATOM     33  C   UNL A   1      45.245  23.454  26.640  1.00  0.00     0.010 A 
ATOM     34  C   UNL A   1      43.384  24.079  25.165  1.00  0.00     0.010 A 
ATOM     35  C   UNL A   1      44.195  24.298  26.275  1.00  0.00    -0.014 A 
BRANCH  35  36
ATOM     36  C   UNL A   1      43.987  25.487  27.057  1.00  0.00     0.031 A 
ATOM     37  C   UNL A   1      45.060  26.457  26.810  1.00  0.00     0.074 A 
ATOM     38  C   UNL A   1      42.875  25.659  27.795  1.00  0.00     0.049 A 
ATOM     39  N   UNL A   1      46.055  26.735  27.583  1.00  0.00    -0.248 NA
ATOM     40  C   UNL A   1      45.195  26.982  25.440  1.00  0.00     0.031 C 
ATOM     41  C   UNL A   1      41.672  24.818  27.801  1.00  0.00     0.029 A 
ATOM     42  N   UNL A   1      42.536  26.697  28.610  1.00  0.00    -0.354 N 
ATOM     43  C   UNL A   1      46.759  27.711  26.889  1.00  0.00     0.074 A 
ATOM     44  C   UNL A   1      46.380  27.587  25.511  1.00  0.00     0.031 C 
ATOM     45  C   UNL A   1      40.656  25.497  28.382  1.00  0.00     0.029 A 
ATOM     46  C   UNL A   1      41.176  26.744  28.914  1.00  0.00     0.049 A 
ATOM     47  H   UNL A   1      43.187  27.350  28.952  1.00  0.00     0.167 HD
ATOM     48  C   UNL A   1      47.221  28.801  27.558  1.00  0.00     0.037 A 
ATOM     49  C   UNL A   1      40.541  27.791  29.491  1.00  0.00     0.037 A 
ATOM     50  C   UNL A   1      47.217  28.567  28.980  1.00  0.00     0.049 A 
ATOM     51  C   UNL A   1      41.566  28.610  30.181  1.00  0.00     0.074 A 
ATOM     52  C   UNL A   1      47.987  27.872  29.886  1.00  0.00     0.029 A 
ATOM     53  N   UNL A   1      46.002  28.799  29.569  1.00  0.00    -0.354 N 
ATOM     54  N   UNL A   1      42.242  28.185  31.215  1.00  0.00    -0.248 NA
ATOM     55  C   UNL A   1      42.137  29.768  29.499  1.00  0.00     0.031 C 
ATOM     56  C   UNL A   1      47.152  27.620  31.016  1.00  0.00     0.029 A 
ATOM     57  C   UNL A   1      45.903  28.193  30.791  1.00  0.00     0.049 A 
ATOM     58  H   UNL A   1      45.285  29.338  29.161  1.00  0.00     0.167 HD
ATOM     59  C   UNL A   1      43.500  28.734  31.052  1.00  0.00     0.074 A 
ATOM     60  C   UNL A   1      43.330  29.822  30.097  1.00  0.00     0.031 C 
ATOM     61  C   UNL A   1      44.615  28.050  31.434  1.00  0.00     0.037 A 
BRANCH  48  62
ATOM     62  C   UNL A   1      47.146  30.210  27.010  1.00  0.00     0.057 A 
ATOM     63  C   UNL A   1      48.301  31.007  27.064  1.00  0.00     0.134 A 
ATOM     64  C   UNL A   1      45.953  30.909  26.720  1.00  0.00     0.134 A 
ATOM     65  F   UNL A   1      49.494  30.468  27.354  1.00  0.00    -0.206 F 
ATOM     66  C   UNL A   1      48.259  32.397  26.895  1.00  0.00     0.040 A 
ATOM     67  C   UNL A   1      45.909  32.285  26.497  1.00  0.00     0.040 A 
ATOM     68  F   UNL A   1      44.747  30.331  26.736  1.00  0.00    -0.206 F 
ATOM     69  C   UNL A   1      47.061  33.041  26.613  1.00  0.00     0.006 A 
ENDBRANCH  48  62
BRANCH  49  70
ATOM     70  C   UNL A   1      39.178  28.293  29.214  1.00  0.00     0.057 A 
ATOM     71  C   UNL A   1      38.208  28.367  30.221  1.00  0.00     0.134 A 
ATOM     72  C   UNL A   1      38.886  28.972  28.018  1.00  0.00     0.134 A 
ATOM     73  F   UNL A   1      38.418  27.785  31.411  1.00  0.00    -0.206 F 
ATOM     74  C   UNL A   1      37.021  29.094  30.056  1.00  0.00     0.040 A 
ATOM     75  C   UNL A   1      37.705  29.700  27.840  1.00  0.00     0.040 A 
ATOM     76  F   UNL A   1      39.778  29.027  27.018  1.00  0.00    -0.206 F 
ATOM     77  C   UNL A   1      36.772  29.774  28.867  1.00  0.00     0.006 A 
ENDBRANCH  49  70
BRANCH  61  78
ATOM     78  C   UNL A   1      44.455  26.980  32.467  1.00  0.00     0.057 A 
ATOM     79  C   UNL A   1      44.295  27.215  33.838  1.00  0.00     0.134 A 
ATOM     80  C   UNL A   1      44.381  25.653  32.032  1.00  0.00     0.134 A 
ATOM     81  F   UNL A   1      44.281  28.461  34.330  1.00  0.00    -0.206 F 
ATOM     82  C   UNL A   1      44.101  26.164  34.742  1.00  0.00     0.040 A 
ATOM     83  C   UNL A   1      44.157  24.599  32.918  1.00  0.00     0.040 A 
ATOM     84  F   UNL A   1      44.487  25.362  30.726  1.00  0.00    -0.206 F 
ATOM     85  C   UNL A   1      44.026  24.851  34.280  1.00  0.00     0.006 A 
ENDBRANCH  61  78
ENDBRANCH  35  36
ENDBRANCH  28  30
ENDBRANCH  27  28
ENDBRANCH  26  27
ENDBRANCH  25  26
ENDBRANCH  24  25
ENDBRANCH   1  24
TORSDOF 17
ENDMDL
