MODEL 1
REMARK VINA RESULT:     -11.1      0.000      0.000
REMARK SMILES C[NH2+][C@@]1(C(=O)OCCOC(=O)c2ccc(-c3c4nc(c(-c5c(F)cccc5F)c5ccc([nH]5)c(-c5c(F)cccc5F)c5nc(c(-c6c(F)cccc6F)c6ccc3[nH]6)C=C5)C=C4)cc2)CCC[C@H]([N@H+](C)C2CC[NH+](C)CC2)C1
REMARK SMILES IDX 7 1 6 2 4 3 5 4 3 5 66 6 79 7 67 8 69 9 68 10 2 11 1 12
REMARK SMILES IDX 70 15 71 16 72 18 73 19 78 20 74 21 77 22 75 23 76 24 8 26
REMARK SMILES IDX 9 27 10 28 11 29 12 30 13 31 65 32 14 33 64 34 15 35 16 36
REMARK SMILES IDX 17 37 58 38 18 39 63 40 57 41 59 42 19 43 62 44 56 45 55 46
REMARK SMILES IDX 20 48 46 49 29 50 45 51 30 52 33 53 44 54 60 55 31 56 32 57
REMARK SMILES IDX 43 59 61 60 34 61 21 62 22 63 27 64 23 65 24 66 26 67 28 68
REMARK SMILES IDX 25 69 47 70 48 71 53 72 49 73 50 74 52 75 54 76 51 77 35 78
REMARK SMILES IDX 36 79 41 80 37 81 38 82 40 83 42 84 39 85
REMARK H PARENT 2 13 2 14 70 17 75 25 59 47 33 58
REMARK Flexibility Score: inf
ROOT
ATOM      1  C   UNL A   1      33.014  29.294  24.938  1.00  0.00     0.274 C 
ENDROOT
BRANCH   1   2
ATOM      2  O   UNL A   1      32.638  27.906  24.850  1.00  0.00    -0.457 OA
BRANCH   2   3
ATOM      3  C   UNL A   1      32.849  27.358  23.615  1.00  0.00     0.368 C 
ATOM      4  O   UNL A   1      33.941  26.921  23.259  1.00  0.00    -0.245 OA
BRANCH   3   5
ATOM      5  C   UNL A   1      31.534  27.179  22.787  1.00  0.00     0.199 C 
ATOM      6  C   UNL A   1      30.327  27.139  23.756  1.00  0.00     0.081 C 
ATOM      7  C   UNL A   1      31.527  25.897  21.919  1.00  0.00     0.146 C 
ATOM      8  C   UNL A   1      30.218  25.833  24.530  1.00  0.00     0.013 C 
ATOM      9  C   UNL A   1      31.506  24.550  22.714  1.00  0.00     0.190 C 
ATOM     10  C   UNL A   1      30.252  24.619  23.606  1.00  0.00     0.065 C 
BRANCH   5  11
ATOM     11  N   UNL A   1      31.296  28.443  22.018  1.00  0.00    -0.334 N 
ATOM     12  C   UNL A   1      30.194  29.282  22.444  1.00  0.00     0.331 C 
ATOM     13  H   UNL A   1      32.147  29.002  22.078  1.00  0.00     0.347 HD
ATOM     14  H   UNL A   1      31.044  28.135  21.079  1.00  0.00     0.347 HD
ENDBRANCH   5  11
BRANCH   9  15
ATOM     15  N   UNL A   1      32.839  24.222  23.323  1.00  0.00    -0.332 N 
ATOM     16  C   UNL A   1      33.574  23.387  22.332  1.00  0.00     0.333 C 
ATOM     17  H   UNL A   1      33.281  25.116  23.536  1.00  0.00     0.348 HD
BRANCH  15  18
ATOM     18  C   UNL A   1      32.816  23.490  24.644  1.00  0.00     0.195 C 
ATOM     19  C   UNL A   1      33.363  24.271  25.858  1.00  0.00     0.126 C 
ATOM     20  C   UNL A   1      33.673  22.185  24.677  1.00  0.00     0.126 C 
ATOM     21  C   UNL A   1      34.849  24.590  25.707  1.00  0.00     0.268 C 
ATOM     22  C   UNL A   1      35.177  22.473  24.566  1.00  0.00     0.268 C 
ATOM     23  N   UNL A   1      35.648  23.360  25.637  1.00  0.00    -0.337 N 
ATOM     24  C   UNL A   1      37.062  23.700  25.469  1.00  0.00     0.332 C 
ATOM     25  H   UNL A   1      35.537  22.847  26.511  1.00  0.00     0.347 HD
ENDBRANCH  15  18
ENDBRANCH   9  15
ENDBRANCH   3   5
ENDBRANCH   2   3
ENDBRANCH   1   2
BRANCH   1  26
ATOM     26  C   UNL A   1      31.985  30.081  25.753  1.00  0.00     0.275 C 
BRANCH  26  27
ATOM     27  O   UNL A   1      32.537  30.292  27.062  1.00  0.00    -0.458 OA
BRANCH  27  28
ATOM     28  C   UNL A   1      33.083  31.506  27.255  1.00  0.00     0.338 C 
ATOM     29  O   UNL A   1      32.528  32.601  27.257  1.00  0.00    -0.246 OA
BRANCH  28  30
ATOM     30  C   UNL A   1      34.437  31.276  27.751  1.00  0.00     0.060 A 
ATOM     31  C   UNL A   1      34.781  29.961  28.074  1.00  0.00     0.016 A 
ATOM     32  C   UNL A   1      35.329  32.321  27.963  1.00  0.00     0.016 A 
ATOM     33  C   UNL A   1      35.981  29.686  28.705  1.00  0.00     0.010 A 
ATOM     34  C   UNL A   1      36.572  32.031  28.529  1.00  0.00     0.010 A 
ATOM     35  C   UNL A   1      36.890  30.719  28.939  1.00  0.00    -0.014 A 
BRANCH  35  36
ATOM     36  C   UNL A   1      38.128  30.457  29.708  1.00  0.00     0.031 A 
ATOM     37  C   UNL A   1      39.202  29.619  29.080  1.00  0.00     0.074 A 
ATOM     38  C   UNL A   1      38.308  30.972  30.938  1.00  0.00     0.049 A 
ATOM     39  N   UNL A   1      40.202  28.997  29.642  1.00  0.00    -0.248 NA
ATOM     40  C   UNL A   1      39.119  29.440  27.621  1.00  0.00     0.031 C 
ATOM     41  C   UNL A   1      37.396  31.889  31.622  1.00  0.00     0.029 A 
ATOM     42  N   UNL A   1      39.330  30.788  31.834  1.00  0.00    -0.354 N 
ATOM     43  C   UNL A   1      40.815  28.281  28.623  1.00  0.00     0.074 A 
ATOM     44  C   UNL A   1      40.094  28.568  27.402  1.00  0.00     0.031 C 
ATOM     45  C   UNL A   1      37.905  32.199  32.825  1.00  0.00     0.029 A 
ATOM     46  C   UNL A   1      39.125  31.428  33.031  1.00  0.00     0.049 A 
ATOM     47  H   UNL A   1      40.131  30.250  31.638  1.00  0.00     0.167 HD
ATOM     48  C   UNL A   1      41.875  27.444  28.715  1.00  0.00     0.037 A 
ATOM     49  C   UNL A   1      39.809  31.346  34.188  1.00  0.00     0.037 A 
ATOM     50  C   UNL A   1      42.618  27.230  29.927  1.00  0.00     0.049 A 
ATOM     51  C   UNL A   1      40.979  30.409  34.273  1.00  0.00     0.074 A 
ATOM     52  C   UNL A   1      43.697  26.392  30.147  1.00  0.00     0.029 A 
ATOM     53  N   UNL A   1      42.374  27.894  31.121  1.00  0.00    -0.354 N 
ATOM     54  N   UNL A   1      41.474  29.623  33.347  1.00  0.00    -0.248 NA
ATOM     55  C   UNL A   1      41.662  30.322  35.570  1.00  0.00     0.031 C 
ATOM     56  C   UNL A   1      44.096  26.540  31.481  1.00  0.00     0.029 A 
ATOM     57  C   UNL A   1      43.285  27.490  32.080  1.00  0.00     0.049 A 
ATOM     58  H   UNL A   1      41.658  28.554  31.264  1.00  0.00     0.167 HD
ATOM     59  C   UNL A   1      42.525  28.945  33.949  1.00  0.00     0.074 A 
ATOM     60  C   UNL A   1      42.610  29.431  35.312  1.00  0.00     0.031 C 
ATOM     61  C   UNL A   1      43.341  27.995  33.428  1.00  0.00     0.037 A 
BRANCH  48  62
ATOM     62  C   UNL A   1      42.243  26.663  27.491  1.00  0.00     0.057 A 
ATOM     63  C   UNL A   1      43.115  27.162  26.516  1.00  0.00     0.134 A 
ATOM     64  C   UNL A   1      41.715  25.380  27.291  1.00  0.00     0.134 A 
ATOM     65  F   UNL A   1      43.634  28.394  26.636  1.00  0.00    -0.206 F 
ATOM     66  C   UNL A   1      43.435  26.421  25.376  1.00  0.00     0.040 A 
ATOM     67  C   UNL A   1      42.044  24.621  26.167  1.00  0.00     0.040 A 
ATOM     68  F   UNL A   1      40.869  24.845  28.184  1.00  0.00    -0.206 F 
ATOM     69  C   UNL A   1      42.903  25.144  25.203  1.00  0.00     0.006 A 
ENDBRANCH  48  62
BRANCH  49  70
ATOM     70  C   UNL A   1      39.355  32.122  35.367  1.00  0.00     0.057 A 
ATOM     71  C   UNL A   1      39.801  33.429  35.588  1.00  0.00     0.134 A 
ATOM     72  C   UNL A   1      38.441  31.587  36.285  1.00  0.00     0.134 A 
ATOM     73  F   UNL A   1      40.693  33.987  34.756  1.00  0.00    -0.206 F 
ATOM     74  C   UNL A   1      39.357  34.177  36.679  1.00  0.00     0.040 A 
ATOM     75  C   UNL A   1      37.970  32.332  37.366  1.00  0.00     0.040 A 
ATOM     76  F   UNL A   1      37.974  30.341  36.126  1.00  0.00    -0.206 F 
ATOM     77  C   UNL A   1      38.431  33.631  37.567  1.00  0.00     0.006 A 
ENDBRANCH  49  70
BRANCH  61  78
ATOM     78  C   UNL A   1      44.397  27.445  34.332  1.00  0.00     0.057 A 
ATOM     79  C   UNL A   1      44.180  26.290  35.092  1.00  0.00     0.134 A 
ATOM     80  C   UNL A   1      45.651  28.061  34.420  1.00  0.00     0.134 A 
ATOM     81  F   UNL A   1      42.994  25.665  35.057  1.00  0.00    -0.206 F 
ATOM     82  C   UNL A   1      45.173  25.773  35.924  1.00  0.00     0.040 A 
ATOM     83  C   UNL A   1      46.657  27.544  35.236  1.00  0.00     0.040 A 
ATOM     84  F   UNL A   1      45.918  29.168  33.711  1.00  0.00    -0.206 F 
ATOM     85  C   UNL A   1      46.417  26.399  35.993  1.00  0.00     0.006 A 
ENDBRANCH  61  78
ENDBRANCH  35  36
ENDBRANCH  28  30
ENDBRANCH  27  28
ENDBRANCH  26  27
ENDBRANCH   1  26
TORSDOF 14
ENDMDL
MODEL 2
REMARK VINA RESULT:     -11.1      0.984      1.613
REMARK SMILES C[NH2+][C@@]1(C(=O)OCCOC(=O)c2ccc(-c3c4nc(c(-c5c(F)cccc5F)c5ccc([nH]5)c(-c5c(F)cccc5F)c5nc(c(-c6c(F)cccc6F)c6ccc3[nH]6)C=C5)C=C4)cc2)CCC[C@H]([N@H+](C)C2CC[NH+](C)CC2)C1
REMARK SMILES IDX 7 1 6 2 4 3 5 4 3 5 66 6 79 7 67 8 69 9 68 10 2 11 1 12
REMARK SMILES IDX 70 15 71 16 72 18 73 19 78 20 74 21 77 22 75 23 76 24 8 26
REMARK SMILES IDX 9 27 10 28 11 29 12 30 13 31 65 32 14 33 64 34 15 35 16 36
REMARK SMILES IDX 17 37 58 38 18 39 63 40 57 41 59 42 19 43 62 44 56 45 55 46
REMARK SMILES IDX 20 48 46 49 29 50 45 51 30 52 33 53 44 54 60 55 31 56 32 57
REMARK SMILES IDX 43 59 61 60 34 61 21 62 22 63 27 64 23 65 24 66 26 67 28 68
REMARK SMILES IDX 25 69 47 70 48 71 53 72 49 73 50 74 52 75 54 76 51 77 35 78
REMARK SMILES IDX 36 79 41 80 37 81 38 82 40 83 42 84 39 85
REMARK H PARENT 2 13 2 14 70 17 75 25 59 47 33 58
REMARK Flexibility Score: inf
ROOT
ATOM      1  C   UNL A   1      31.601  27.786  27.185  1.00  0.00     0.274 C 
ENDROOT
BRANCH   1   2
ATOM      2  O   UNL A   1      32.258  27.265  26.014  1.00  0.00    -0.457 OA
BRANCH   2   3
ATOM      3  C   UNL A   1      31.437  27.162  24.925  1.00  0.00     0.368 C 
ATOM      4  O   UNL A   1      30.277  26.765  25.003  1.00  0.00    -0.245 OA
BRANCH   3   5
ATOM      5  C   UNL A   1      32.060  27.766  23.624  1.00  0.00     0.199 C 
ATOM      6  C   UNL A   1      31.178  27.376  22.413  1.00  0.00     0.081 C 
ATOM      7  C   UNL A   1      33.511  27.293  23.363  1.00  0.00     0.146 C 
ATOM      8  C   UNL A   1      31.321  25.916  22.007  1.00  0.00     0.013 C 
ATOM      9  C   UNL A   1      33.672  25.772  23.034  1.00  0.00     0.190 C 
ATOM     10  C   UNL A   1      32.782  25.523  21.802  1.00  0.00     0.065 C 
BRANCH   5  11
ATOM     11  N   UNL A   1      31.899  29.254  23.682  1.00  0.00    -0.334 N 
ATOM     12  C   UNL A   1      30.552  29.780  23.593  1.00  0.00     0.331 C 
ATOM     13  H   UNL A   1      32.293  29.570  24.568  1.00  0.00     0.347 HD
ATOM     14  H   UNL A   1      32.372  29.602  22.848  1.00  0.00     0.347 HD
ENDBRANCH   5  11
BRANCH   9  15
ATOM     15  N   UNL A   1      33.526  24.903  24.250  1.00  0.00    -0.332 N 
ATOM     16  C   UNL A   1      34.751  25.103  25.074  1.00  0.00     0.333 C 
ATOM     17  H   UNL A   1      32.659  25.192  24.703  1.00  0.00     0.348 HD
BRANCH  15  18
ATOM     18  C   UNL A   1      33.348  23.424  24.005  1.00  0.00     0.195 C 
ATOM     19  C   UNL A   1      31.942  22.980  23.548  1.00  0.00     0.126 C 
ATOM     20  C   UNL A   1      33.587  22.525  25.260  1.00  0.00     0.126 C 
ATOM     21  C   UNL A   1      30.885  23.245  24.618  1.00  0.00     0.268 C 
ATOM     22  C   UNL A   1      32.518  22.740  26.341  1.00  0.00     0.268 C 
ATOM     23  N   UNL A   1      31.164  22.476  25.837  1.00  0.00    -0.337 N 
ATOM     24  C   UNL A   1      30.148  22.771  26.848  1.00  0.00     0.332 C 
ATOM     25  H   UNL A   1      31.124  21.482  25.613  1.00  0.00     0.347 HD
ENDBRANCH  15  18
ENDBRANCH   9  15
ENDBRANCH   3   5
ENDBRANCH   2   3
ENDBRANCH   1   2
BRANCH   1  26
ATOM     26  C   UNL A   1      31.545  29.315  27.138  1.00  0.00     0.275 C 
BRANCH  26  27
ATOM     27  O   UNL A   1      32.792  29.778  26.594  1.00  0.00    -0.458 OA
BRANCH  27  28
ATOM     28  C   UNL A   1      33.165  31.003  27.006  1.00  0.00     0.338 C 
ATOM     29  O   UNL A   1      32.471  32.005  27.152  1.00  0.00    -0.246 OA
BRANCH  28  30
ATOM     30  C   UNL A   1      34.522  30.866  27.531  1.00  0.00     0.060 A 
ATOM     31  C   UNL A   1      34.970  29.571  27.803  1.00  0.00     0.016 A 
ATOM     32  C   UNL A   1      35.314  31.972  27.816  1.00  0.00     0.016 A 
ATOM     33  C   UNL A   1      36.173  29.370  28.457  1.00  0.00     0.010 A 
ATOM     34  C   UNL A   1      36.562  31.762  28.405  1.00  0.00     0.010 A 
ATOM     35  C   UNL A   1      36.983  30.465  28.765  1.00  0.00    -0.014 A 
BRANCH  35  36
ATOM     36  C   UNL A   1      38.219  30.273  29.557  1.00  0.00     0.031 A 
ATOM     37  C   UNL A   1      39.331  29.458  28.968  1.00  0.00     0.074 A 
ATOM     38  C   UNL A   1      38.361  30.830  30.773  1.00  0.00     0.049 A 
ATOM     39  N   UNL A   1      40.347  28.891  29.562  1.00  0.00    -0.248 NA
ATOM     40  C   UNL A   1      39.277  29.232  27.514  1.00  0.00     0.031 C 
ATOM     41  C   UNL A   1      37.405  31.732  31.417  1.00  0.00     0.029 A 
ATOM     42  N   UNL A   1      39.376  30.712  31.688  1.00  0.00    -0.354 N 
ATOM     43  C   UNL A   1      41.001  28.170  28.573  1.00  0.00     0.074 A 
ATOM     44  C   UNL A   1      40.286  28.393  27.335  1.00  0.00     0.031 C 
ATOM     45  C   UNL A   1      37.886  32.096  32.617  1.00  0.00     0.029 A 
ATOM     46  C   UNL A   1      39.131  31.378  32.862  1.00  0.00     0.049 A 
ATOM     47  H   UNL A   1      40.200  30.199  31.518  1.00  0.00     0.167 HD
ATOM     48  C   UNL A   1      42.089  27.376  28.704  1.00  0.00     0.037 A 
ATOM     49  C   UNL A   1      39.801  31.357  34.029  1.00  0.00     0.037 A 
ATOM     50  C   UNL A   1      42.823  27.227  29.931  1.00  0.00     0.049 A 
ATOM     51  C   UNL A   1      41.004  30.468  34.158  1.00  0.00     0.074 A 
ATOM     52  C   UNL A   1      43.929  26.437  30.191  1.00  0.00     0.029 A 
ATOM     53  N   UNL A   1      42.537  27.916  31.101  1.00  0.00    -0.354 N 
ATOM     54  N   UNL A   1      41.542  29.674  33.263  1.00  0.00    -0.248 NA
ATOM     55  C   UNL A   1      41.671  30.445  35.466  1.00  0.00     0.031 C 
ATOM     56  C   UNL A   1      44.303  26.639  31.524  1.00  0.00     0.029 A 
ATOM     57  C   UNL A   1      43.449  27.575  32.084  1.00  0.00     0.049 A 
ATOM     58  H   UNL A   1      41.795  28.552  31.215  1.00  0.00     0.167 HD
ATOM     59  C   UNL A   1      42.609  29.055  33.898  1.00  0.00     0.074 A 
ATOM     60  C   UNL A   1      42.656  29.584  35.247  1.00  0.00     0.031 C 
ATOM     61  C   UNL A   1      43.466  28.122  33.416  1.00  0.00     0.037 A 
BRANCH  48  62
ATOM     62  C   UNL A   1      42.504  26.574  27.508  1.00  0.00     0.057 A 
ATOM     63  C   UNL A   1      43.390  27.068  26.544  1.00  0.00     0.134 A 
ATOM     64  C   UNL A   1      42.008  25.276  27.327  1.00  0.00     0.134 A 
ATOM     65  F   UNL A   1      43.880  28.313  26.646  1.00  0.00    -0.206 F 
ATOM     66  C   UNL A   1      43.753  26.307  25.430  1.00  0.00     0.040 A 
ATOM     67  C   UNL A   1      42.380  24.497  26.230  1.00  0.00     0.040 A 
ATOM     68  F   UNL A   1      41.151  24.745  28.212  1.00  0.00    -0.206 F 
ATOM     69  C   UNL A   1      43.252  25.015  25.275  1.00  0.00     0.006 A 
ENDBRANCH  48  62
BRANCH  49  70
ATOM     70  C   UNL A   1      39.301  32.149  35.179  1.00  0.00     0.057 A 
ATOM     71  C   UNL A   1      39.629  33.501  35.321  1.00  0.00     0.134 A 
ATOM     72  C   UNL A   1      38.460  31.583  36.146  1.00  0.00     0.134 A 
ATOM     73  F   UNL A   1      40.449  34.093  34.440  1.00  0.00    -0.206 F 
ATOM     74  C   UNL A   1      39.140  34.262  36.384  1.00  0.00     0.040 A 
ATOM     75  C   UNL A   1      37.944  32.338  37.199  1.00  0.00     0.040 A 
ATOM     76  F   UNL A   1      38.107  30.292  36.062  1.00  0.00    -0.206 F 
ATOM     77  C   UNL A   1      38.287  33.682  37.322  1.00  0.00     0.006 A 
ENDBRANCH  49  70
BRANCH  61  78
ATOM     78  C   UNL A   1      44.530  27.639  34.351  1.00  0.00     0.057 A 
ATOM     79  C   UNL A   1      44.345  26.501  35.144  1.00  0.00     0.134 A 
ATOM     80  C   UNL A   1      45.759  28.303  34.434  1.00  0.00     0.134 A 
ATOM     81  F   UNL A   1      43.182  25.833  35.115  1.00  0.00    -0.206 F 
ATOM     82  C   UNL A   1      45.345  26.047  36.004  1.00  0.00     0.040 A 
ATOM     83  C   UNL A   1      46.773  27.849  35.278  1.00  0.00     0.040 A 
ATOM     84  F   UNL A   1      45.996  29.396  33.694  1.00  0.00    -0.206 F 
ATOM     85  C   UNL A   1      46.564  26.719  36.069  1.00  0.00     0.006 A 
ENDBRANCH  61  78
ENDBRANCH  35  36
ENDBRANCH  28  30
ENDBRANCH  27  28
ENDBRANCH  26  27
ENDBRANCH   1  26
TORSDOF 14
ENDMDL
MODEL 3
REMARK VINA RESULT:     -11.0      3.907      8.711
REMARK SMILES C[NH2+][C@@]1(C(=O)OCCOC(=O)c2ccc(-c3c4nc(c(-c5c(F)cccc5F)c5ccc([nH]5)c(-c5c(F)cccc5F)c5nc(c(-c6c(F)cccc6F)c6ccc3[nH]6)C=C5)C=C4)cc2)CCC[C@H]([N@H+](C)C2CC[NH+](C)CC2)C1
REMARK SMILES IDX 7 1 6 2 4 3 5 4 3 5 66 6 79 7 67 8 69 9 68 10 2 11 1 12
REMARK SMILES IDX 70 15 71 16 72 18 73 19 78 20 74 21 77 22 75 23 76 24 8 26
REMARK SMILES IDX 9 27 10 28 11 29 12 30 13 31 65 32 14 33 64 34 15 35 16 36
REMARK SMILES IDX 17 37 58 38 18 39 63 40 57 41 59 42 19 43 62 44 56 45 55 46
REMARK SMILES IDX 20 48 46 49 29 50 45 51 30 52 33 53 44 54 60 55 31 56 32 57
REMARK SMILES IDX 43 59 61 60 34 61 21 62 22 63 27 64 23 65 24 66 26 67 28 68
REMARK SMILES IDX 25 69 47 70 48 71 53 72 49 73 50 74 52 75 54 76 51 77 35 78
REMARK SMILES IDX 36 79 41 80 37 81 38 82 40 83 42 84 39 85
REMARK H PARENT 2 13 2 14 70 17 75 25 59 47 33 58
REMARK Flexibility Score: inf
ROOT
ATOM      1  C   UNL A   1      35.620  21.938  26.116  1.00  0.00     0.274 C 
ENDROOT
BRANCH   1   2
ATOM      2  O   UNL A   1      34.680  22.765  25.402  1.00  0.00    -0.457 OA
BRANCH   2   3
ATOM      3  C   UNL A   1      33.460  22.860  26.011  1.00  0.00     0.368 C 
ATOM      4  O   UNL A   1      33.218  23.686  26.889  1.00  0.00    -0.245 OA
BRANCH   3   5
ATOM      5  C   UNL A   1      32.371  21.949  25.356  1.00  0.00     0.199 C 
ATOM      6  C   UNL A   1      32.761  21.672  23.884  1.00  0.00     0.081 C 
ATOM      7  C   UNL A   1      30.952  22.570  25.393  1.00  0.00     0.146 C 
ATOM      8  C   UNL A   1      32.553  22.870  22.969  1.00  0.00     0.013 C 
ATOM      9  C   UNL A   1      30.759  23.854  24.523  1.00  0.00     0.190 C 
ATOM     10  C   UNL A   1      31.142  23.441  23.089  1.00  0.00     0.065 C 
BRANCH   5  11
ATOM     11  N   UNL A   1      32.465  20.592  25.983  1.00  0.00    -0.334 N 
ATOM     12  C   UNL A   1      32.827  19.486  25.119  1.00  0.00     0.331 C 
ATOM     13  H   UNL A   1      33.165  20.645  26.722  1.00  0.00     0.347 HD
ATOM     14  H   UNL A   1      31.518  20.381  26.296  1.00  0.00     0.347 HD
ENDBRANCH   5  11
BRANCH   9  15
ATOM     15  N   UNL A   1      31.388  25.068  25.144  1.00  0.00    -0.332 N 
ATOM     16  C   UNL A   1      30.358  25.687  26.024  1.00  0.00     0.333 C 
ATOM     17  H   UNL A   1      32.220  24.738  25.632  1.00  0.00     0.348 HD
BRANCH  15  18
ATOM     18  C   UNL A   1      31.904  26.122  24.194  1.00  0.00     0.195 C 
ATOM     19  C   UNL A   1      33.435  26.319  24.169  1.00  0.00     0.126 C 
ATOM     20  C   UNL A   1      31.390  27.568  24.488  1.00  0.00     0.126 C 
ATOM     21  C   UNL A   1      33.965  26.825  25.509  1.00  0.00     0.268 C 
ATOM     22  C   UNL A   1      31.936  28.122  25.811  1.00  0.00     0.268 C 
ATOM     23  N   UNL A   1      33.404  28.142  25.836  1.00  0.00    -0.337 N 
ATOM     24  C   UNL A   1      33.914  28.586  27.134  1.00  0.00     0.332 C 
ATOM     25  H   UNL A   1      33.699  28.809  25.123  1.00  0.00     0.347 HD
ENDBRANCH  15  18
ENDBRANCH   9  15
ENDBRANCH   3   5
ENDBRANCH   2   3
ENDBRANCH   1   2
BRANCH   1  26
ATOM     26  C   UNL A   1      36.424  21.072  25.144  1.00  0.00     0.275 C 
BRANCH  26  27
ATOM     27  O   UNL A   1      37.704  21.699  24.962  1.00  0.00    -0.458 OA
BRANCH  27  28
ATOM     28  C   UNL A   1      38.695  21.184  25.713  1.00  0.00     0.338 C 
ATOM     29  O   UNL A   1      39.158  20.047  25.692  1.00  0.00    -0.246 OA
BRANCH  28  30
ATOM     30  C   UNL A   1      39.333  22.314  26.384  1.00  0.00     0.060 A 
ATOM     31  C   UNL A   1      38.881  23.591  26.046  1.00  0.00     0.016 A 
ATOM     32  C   UNL A   1      40.392  22.140  27.268  1.00  0.00     0.016 A 
ATOM     33  C   UNL A   1      39.545  24.714  26.509  1.00  0.00     0.010 A 
ATOM     34  C   UNL A   1      41.011  23.274  27.796  1.00  0.00     0.010 A 
ATOM     35  C   UNL A   1      40.618  24.567  27.390  1.00  0.00    -0.014 A 
BRANCH  35  36
ATOM     36  C   UNL A   1      41.403  25.752  27.806  1.00  0.00     0.031 A 
ATOM     37  C   UNL A   1      40.744  26.781  28.677  1.00  0.00     0.074 A 
ATOM     38  C   UNL A   1      42.687  25.903  27.436  1.00  0.00     0.049 A 
ATOM     39  N   UNL A   1      41.092  28.018  28.904  1.00  0.00    -0.248 NA
ATOM     40  C   UNL A   1      39.511  26.362  29.364  1.00  0.00     0.031 C 
ATOM     41  C   UNL A   1      43.480  24.930  26.684  1.00  0.00     0.029 A 
ATOM     42  N   UNL A   1      43.551  26.947  27.646  1.00  0.00    -0.354 N 
ATOM     43  C   UNL A   1      40.079  28.552  29.687  1.00  0.00     0.074 A 
ATOM     44  C   UNL A   1      39.115  27.498  29.920  1.00  0.00     0.031 C 
ATOM     45  C   UNL A   1      44.718  25.417  26.507  1.00  0.00     0.029 A 
ATOM     46  C   UNL A   1      44.773  26.770  27.046  1.00  0.00     0.049 A 
ATOM     47  H   UNL A   1      43.318  27.745  28.174  1.00  0.00     0.167 HD
ATOM     48  C   UNL A   1      39.961  29.820  30.146  1.00  0.00     0.037 A 
ATOM     49  C   UNL A   1      45.797  27.630  26.892  1.00  0.00     0.037 A 
ATOM     50  C   UNL A   1      40.967  30.830  29.960  1.00  0.00     0.049 A 
ATOM     51  C   UNL A   1      45.649  29.034  27.403  1.00  0.00     0.074 A 
ATOM     52  C   UNL A   1      40.952  32.154  30.362  1.00  0.00     0.029 A 
ATOM     53  N   UNL A   1      42.190  30.611  29.341  1.00  0.00    -0.354 N 
ATOM     54  N   UNL A   1      44.630  29.582  28.021  1.00  0.00    -0.248 NA
ATOM     55  C   UNL A   1      46.775  29.945  27.168  1.00  0.00     0.031 C 
ATOM     56  C   UNL A   1      42.163  32.739  29.972  1.00  0.00     0.029 A 
ATOM     57  C   UNL A   1      42.941  31.773  29.355  1.00  0.00     0.049 A 
ATOM     58  H   UNL A   1      42.479  29.756  28.949  1.00  0.00     0.167 HD
ATOM     59  C   UNL A   1      44.989  30.903  28.246  1.00  0.00     0.074 A 
ATOM     60  C   UNL A   1      46.331  31.066  27.719  1.00  0.00     0.031 C 
ATOM     61  C   UNL A   1      44.273  31.899  28.823  1.00  0.00     0.037 A 
BRANCH  48  62
ATOM     62  C   UNL A   1      38.683  30.187  30.835  1.00  0.00     0.057 A 
ATOM     63  C   UNL A   1      38.508  30.049  32.217  1.00  0.00     0.134 A 
ATOM     64  C   UNL A   1      37.607  30.696  30.095  1.00  0.00     0.134 A 
ATOM     65  F   UNL A   1      39.491  29.543  32.978  1.00  0.00    -0.206 F 
ATOM     66  C   UNL A   1      37.303  30.385  32.837  1.00  0.00     0.040 A 
ATOM     67  C   UNL A   1      36.405  31.058  30.705  1.00  0.00     0.040 A 
ATOM     68  F   UNL A   1      37.707  30.849  28.766  1.00  0.00    -0.206 F 
ATOM     69  C   UNL A   1      36.250  30.897  32.080  1.00  0.00     0.006 A 
ENDBRANCH  48  62
BRANCH  49  70
ATOM     70  C   UNL A   1      47.014  27.200  26.161  1.00  0.00     0.057 A 
ATOM     71  C   UNL A   1      47.130  27.385  24.779  1.00  0.00     0.134 A 
ATOM     72  C   UNL A   1      48.102  26.623  26.829  1.00  0.00     0.134 A 
ATOM     73  F   UNL A   1      46.113  27.911  24.081  1.00  0.00    -0.206 F 
ATOM     74  C   UNL A   1      48.283  27.010  24.088  1.00  0.00     0.040 A 
ATOM     75  C   UNL A   1      49.269  26.267  26.154  1.00  0.00     0.040 A 
ATOM     76  F   UNL A   1      48.053  26.424  28.154  1.00  0.00    -0.206 F 
ATOM     77  C   UNL A   1      49.361  26.458  24.778  1.00  0.00     0.006 A 
ENDBRANCH  49  70
BRANCH  61  78
ATOM     78  C   UNL A   1      44.939  33.234  28.927  1.00  0.00     0.057 A 
ATOM     79  C   UNL A   1      45.755  33.560  30.016  1.00  0.00     0.134 A 
ATOM     80  C   UNL A   1      44.785  34.188  27.915  1.00  0.00     0.134 A 
ATOM     81  F   UNL A   1      45.929  32.690  31.022  1.00  0.00    -0.206 F 
ATOM     82  C   UNL A   1      46.385  34.802  30.103  1.00  0.00     0.040 A 
ATOM     83  C   UNL A   1      45.423  35.427  27.983  1.00  0.00     0.040 A 
ATOM     84  F   UNL A   1      44.018  33.930  26.845  1.00  0.00    -0.206 F 
ATOM     85  C   UNL A   1      46.222  35.737  29.082  1.00  0.00     0.006 A 
ENDBRANCH  61  78
ENDBRANCH  35  36
ENDBRANCH  28  30
ENDBRANCH  27  28
ENDBRANCH  26  27
ENDBRANCH   1  26
TORSDOF 14
ENDMDL
