MODEL 1
REMARK VINA RESULT:     -11.7      0.000      0.000
REMARK SMILES Cc1ccccc1[C@@H](CC(=O)OCCOC(=O)c1ccc(-c2c3nc(c(-c4c(F)cccc4F)c4ccc([nH]4)c(-c4c(F)cccc4F)c4nc(c(-c5c(F)cccc5F)c5ccc2[nH]5)C=C4)C=C3)cc1)NC(=O)C(F)(F)F
REMARK SMILES IDX 13 1 12 2 10 3 11 4 9 5 8 6 7 7 1 8 2 9 3 10 4 11 6 12 5 13
REMARK SMILES IDX 72 14 73 15 74 17 75 18 76 19 77 20 78 21 14 22 15 23 16 24
REMARK SMILES IDX 17 25 18 26 19 27 71 28 20 29 70 30 21 31 22 32 23 33 64 34
REMARK SMILES IDX 24 35 69 36 63 37 65 38 25 39 68 40 62 41 61 42 26 44 52 45
REMARK SMILES IDX 35 46 51 47 36 48 39 49 50 50 66 51 37 52 38 53 49 55 67 56
REMARK SMILES IDX 40 57 27 58 28 59 33 60 29 61 30 62 32 63 34 64 31 65 53 66
REMARK SMILES IDX 54 67 59 68 55 69 56 70 58 71 60 72 57 73 41 74 42 75 47 76
REMARK SMILES IDX 43 77 44 78 46 79 48 80 45 81
REMARK H PARENT 72 16 65 43 39 54
REMARK Flexibility Score: inf
ROOT
ATOM      1  C   UNL A   1      33.720  30.067  26.853  1.00  0.00     0.274 C 
ENDROOT
BRANCH   1   2
ATOM      2  O   UNL A   1      32.572  29.630  27.575  1.00  0.00    -0.462 OA
BRANCH   2   3
ATOM      3  C   UNL A   1      32.206  28.327  27.448  1.00  0.00     0.308 C 
ATOM      4  O   UNL A   1      31.206  27.834  27.921  1.00  0.00    -0.252 OA
BRANCH   3   5
ATOM      5  C   UNL A   1      33.255  27.591  26.629  1.00  0.00     0.152 C 
BRANCH   5   6
ATOM      6  C   UNL A   1      32.633  26.922  25.381  1.00  0.00     0.124 C 
BRANCH   6   7
ATOM      7  C   UNL A   1      33.028  25.440  25.425  1.00  0.00    -0.022 A 
ATOM      8  C   UNL A   1      30.672  24.726  26.132  1.00  0.00     0.045 C 
ATOM      9  C   UNL A   1      32.165  24.535  26.085  1.00  0.00    -0.046 A 
ATOM     10  C   UNL A   1      32.715  23.410  26.714  1.00  0.00     0.004 A 
ATOM     11  C   UNL A   1      34.086  23.165  26.673  1.00  0.00     0.000 A 
ATOM     12  C   UNL A   1      34.372  25.067  25.222  1.00  0.00     0.006 A 
ATOM     13  C   UNL A   1      34.907  23.964  25.887  1.00  0.00     0.000 A 
ENDBRANCH   6   7
BRANCH   6  14
ATOM     14  N   UNL A   1      32.997  27.626  24.153  1.00  0.00    -0.341 N 
ATOM     15  C   UNL A   1      32.224  28.503  23.419  1.00  0.00     0.326 C 
ATOM     16  H   UNL A   1      33.902  27.453  23.807  1.00  0.00     0.164 HD
ATOM     17  O   UNL A   1      32.712  28.973  22.388  1.00  0.00    -0.265 OA
BRANCH  15  18
ATOM     18  C   UNL A   1      30.804  28.853  23.914  1.00  0.00     0.471 C 
ATOM     19  F   UNL A   1      30.058  29.460  22.946  1.00  0.00    -0.162 F 
ATOM     20  F   UNL A   1      30.107  27.734  24.274  1.00  0.00    -0.162 F 
ATOM     21  F   UNL A   1      30.784  29.683  24.991  1.00  0.00    -0.162 F 
ENDBRANCH  15  18
ENDBRANCH   6  14
ENDBRANCH   5   6
ENDBRANCH   3   5
ENDBRANCH   2   3
ENDBRANCH   1   2
BRANCH   1  22
ATOM     22  C   UNL A   1      34.357  31.223  27.636  1.00  0.00     0.275 C 
BRANCH  22  23
ATOM     23  O   UNL A   1      35.777  31.093  28.030  1.00  0.00    -0.458 OA
BRANCH  23  24
ATOM     24  C   UNL A   1      36.388  30.431  29.056  1.00  0.00     0.338 C 
ATOM     25  O   UNL A   1      35.998  30.507  30.213  1.00  0.00    -0.246 OA
BRANCH  24  26
ATOM     26  C   UNL A   1      37.511  29.540  28.737  1.00  0.00     0.060 A 
ATOM     27  C   UNL A   1      38.347  29.762  27.623  1.00  0.00     0.016 A 
ATOM     28  C   UNL A   1      37.827  28.590  29.677  1.00  0.00     0.016 A 
ATOM     29  C   UNL A   1      39.582  29.110  27.542  1.00  0.00     0.010 A 
ATOM     30  C   UNL A   1      39.132  28.208  29.748  1.00  0.00     0.010 A 
ATOM     31  C   UNL A   1      39.983  28.358  28.641  1.00  0.00    -0.014 A 
BRANCH  31  32
ATOM     32  C   UNL A   1      41.115  27.444  28.725  1.00  0.00     0.031 A 
ATOM     33  C   UNL A   1      41.024  25.997  28.480  1.00  0.00     0.074 A 
ATOM     34  C   UNL A   1      42.285  28.128  28.827  1.00  0.00     0.049 A 
ATOM     35  N   UNL A   1      42.016  25.202  28.660  1.00  0.00    -0.248 NA
ATOM     36  C   UNL A   1      39.839  25.298  28.002  1.00  0.00     0.031 C 
ATOM     37  C   UNL A   1      43.670  27.757  28.640  1.00  0.00     0.029 A 
ATOM     38  N   UNL A   1      42.378  29.466  29.259  1.00  0.00    -0.354 N 
ATOM     39  C   UNL A   1      41.713  23.973  28.109  1.00  0.00     0.074 A 
ATOM     40  C   UNL A   1      40.321  24.071  27.750  1.00  0.00     0.031 C 
ATOM     41  C   UNL A   1      44.436  28.662  29.293  1.00  0.00     0.029 A 
ATOM     42  C   UNL A   1      43.544  29.573  30.009  1.00  0.00     0.049 A 
ATOM     43  H   UNL A   1      41.738  30.189  29.066  1.00  0.00     0.167 HD
ATOM     44  C   UNL A   1      42.740  23.083  27.962  1.00  0.00     0.037 A 
ATOM     45  C   UNL A   1      43.335  29.678  31.357  1.00  0.00     0.037 A 
ATOM     46  C   UNL A   1      43.925  23.609  28.651  1.00  0.00     0.049 A 
ATOM     47  C   UNL A   1      43.654  28.366  32.047  1.00  0.00     0.074 A 
ATOM     48  C   UNL A   1      45.000  24.388  28.260  1.00  0.00     0.029 A 
ATOM     49  N   UNL A   1      43.869  23.701  30.028  1.00  0.00    -0.354 N 
ATOM     50  N   UNL A   1      43.933  27.258  31.412  1.00  0.00    -0.248 NA
ATOM     51  C   UNL A   1      43.660  28.188  33.495  1.00  0.00     0.031 C 
ATOM     52  C   UNL A   1      45.490  25.061  29.429  1.00  0.00     0.029 A 
ATOM     53  C   UNL A   1      44.727  24.667  30.518  1.00  0.00     0.049 A 
ATOM     54  H   UNL A   1      43.286  23.143  30.594  1.00  0.00     0.167 HD
ATOM     55  C   UNL A   1      44.207  26.268  32.297  1.00  0.00     0.074 A 
ATOM     56  C   UNL A   1      43.975  26.885  33.596  1.00  0.00     0.031 C 
ATOM     57  C   UNL A   1      44.626  25.022  31.929  1.00  0.00     0.037 A 
BRANCH  44  58
ATOM     58  C   UNL A   1      42.778  21.822  27.125  1.00  0.00     0.057 A 
ATOM     59  C   UNL A   1      41.870  20.774  27.404  1.00  0.00     0.134 A 
ATOM     60  C   UNL A   1      43.672  21.534  26.079  1.00  0.00     0.134 A 
ATOM     61  F   UNL A   1      40.928  20.894  28.350  1.00  0.00    -0.206 F 
ATOM     62  C   UNL A   1      41.880  19.541  26.737  1.00  0.00     0.040 A 
ATOM     63  C   UNL A   1      43.703  20.296  25.410  1.00  0.00     0.040 A 
ATOM     64  F   UNL A   1      44.545  22.435  25.619  1.00  0.00    -0.206 F 
ATOM     65  C   UNL A   1      42.808  19.290  25.742  1.00  0.00     0.006 A 
ENDBRANCH  44  58
BRANCH  45  66
ATOM     66  C   UNL A   1      42.171  30.598  31.669  1.00  0.00     0.057 A 
ATOM     67  C   UNL A   1      42.255  31.949  31.250  1.00  0.00     0.134 A 
ATOM     68  C   UNL A   1      40.888  30.138  31.987  1.00  0.00     0.134 A 
ATOM     69  F   UNL A   1      43.446  32.480  30.924  1.00  0.00    -0.206 F 
ATOM     70  C   UNL A   1      41.124  32.742  31.018  1.00  0.00     0.040 A 
ATOM     71  C   UNL A   1      39.749  30.943  31.800  1.00  0.00     0.040 A 
ATOM     72  F   UNL A   1      40.689  28.875  32.387  1.00  0.00    -0.206 F 
ATOM     73  C   UNL A   1      39.860  32.227  31.269  1.00  0.00     0.006 A 
ENDBRANCH  45  66
BRANCH  57  74
ATOM     74  C   UNL A   1      44.996  24.024  32.971  1.00  0.00     0.057 A 
ATOM     75  C   UNL A   1      44.090  23.035  33.370  1.00  0.00     0.134 A 
ATOM     76  C   UNL A   1      46.219  24.073  33.657  1.00  0.00     0.134 A 
ATOM     77  F   UNL A   1      42.867  22.955  32.821  1.00  0.00    -0.206 F 
ATOM     78  C   UNL A   1      44.417  22.090  34.341  1.00  0.00     0.040 A 
ATOM     79  C   UNL A   1      46.527  23.180  34.680  1.00  0.00     0.040 A 
ATOM     80  F   UNL A   1      47.172  24.963  33.346  1.00  0.00    -0.206 F 
ATOM     81  C   UNL A   1      45.635  22.168  35.006  1.00  0.00     0.006 A 
ENDBRANCH  57  74
ENDBRANCH  31  32
ENDBRANCH  24  26
ENDBRANCH  23  24
ENDBRANCH  22  23
ENDBRANCH   1  22
TORSDOF 15
ENDMDL
MODEL 2
REMARK VINA RESULT:     -11.4      3.852      9.127
REMARK SMILES Cc1ccccc1[C@@H](CC(=O)OCCOC(=O)c1ccc(-c2c3nc(c(-c4c(F)cccc4F)c4ccc([nH]4)c(-c4c(F)cccc4F)c4nc(c(-c5c(F)cccc5F)c5ccc2[nH]5)C=C4)C=C3)cc1)NC(=O)C(F)(F)F
REMARK SMILES IDX 13 1 12 2 10 3 11 4 9 5 8 6 7 7 1 8 2 9 3 10 4 11 6 12 5 13
REMARK SMILES IDX 72 14 73 15 74 17 75 18 76 19 77 20 78 21 14 22 15 23 16 24
REMARK SMILES IDX 17 25 18 26 19 27 71 28 20 29 70 30 21 31 22 32 23 33 64 34
REMARK SMILES IDX 24 35 69 36 63 37 65 38 25 39 68 40 62 41 61 42 26 44 52 45
REMARK SMILES IDX 35 46 51 47 36 48 39 49 50 50 66 51 37 52 38 53 49 55 67 56
REMARK SMILES IDX 40 57 27 58 28 59 33 60 29 61 30 62 32 63 34 64 31 65 53 66
REMARK SMILES IDX 54 67 59 68 55 69 56 70 58 71 60 72 57 73 41 74 42 75 47 76
REMARK SMILES IDX 43 77 44 78 46 79 48 80 45 81
REMARK H PARENT 72 16 65 43 39 54
REMARK Flexibility Score: inf
ROOT
ATOM      1  C   UNL A   1      36.631  23.508  24.559  1.00  0.00     0.274 C 
ENDROOT
BRANCH   1   2
ATOM      2  O   UNL A   1      35.402  24.127  24.929  1.00  0.00    -0.462 OA
BRANCH   2   3
ATOM      3  C   UNL A   1      34.517  24.411  23.937  1.00  0.00     0.308 C 
ATOM      4  O   UNL A   1      34.289  23.704  22.980  1.00  0.00    -0.252 OA
BRANCH   3   5
ATOM      5  C   UNL A   1      33.870  25.759  24.215  1.00  0.00     0.152 C 
BRANCH   5   6
ATOM      6  C   UNL A   1      32.676  25.625  25.189  1.00  0.00     0.124 C 
BRANCH   6   7
ATOM      7  C   UNL A   1      32.357  27.035  25.702  1.00  0.00    -0.022 A 
ATOM      8  C   UNL A   1      30.264  27.208  24.238  1.00  0.00     0.045 C 
ATOM      9  C   UNL A   1      31.421  27.815  24.985  1.00  0.00    -0.046 A 
ATOM     10  C   UNL A   1      31.568  29.209  24.973  1.00  0.00     0.004 A 
ATOM     11  C   UNL A   1      32.601  29.826  25.675  1.00  0.00     0.000 A 
ATOM     12  C   UNL A   1      33.262  27.688  26.565  1.00  0.00     0.006 A 
ATOM     13  C   UNL A   1      33.416  29.073  26.510  1.00  0.00     0.000 A 
ENDBRANCH   6   7
BRANCH   6  14
ATOM     14  N   UNL A   1      32.935  24.629  26.227  1.00  0.00    -0.341 N 
ATOM     15  C   UNL A   1      32.058  23.697  26.744  1.00  0.00     0.326 C 
ATOM     16  H   UNL A   1      33.845  24.622  26.603  1.00  0.00     0.164 HD
ATOM     17  O   UNL A   1      32.470  22.958  27.643  1.00  0.00    -0.265 OA
BRANCH  15  18
ATOM     18  C   UNL A   1      30.621  23.620  26.183  1.00  0.00     0.471 C 
ATOM     19  F   UNL A   1      29.911  24.758  26.434  1.00  0.00    -0.162 F 
ATOM     20  F   UNL A   1      30.620  23.471  24.825  1.00  0.00    -0.162 F 
ATOM     21  F   UNL A   1      29.888  22.591  26.686  1.00  0.00    -0.162 F 
ENDBRANCH  15  18
ENDBRANCH   6  14
ENDBRANCH   5   6
ENDBRANCH   3   5
ENDBRANCH   2   3
ENDBRANCH   1   2
BRANCH   1  22
ATOM     22  C   UNL A   1      37.431  23.248  25.842  1.00  0.00     0.275 C 
BRANCH  22  23
ATOM     23  O   UNL A   1      38.698  23.988  26.032  1.00  0.00    -0.458 OA
BRANCH  23  24
ATOM     24  C   UNL A   1      39.521  24.135  27.112  1.00  0.00     0.338 C 
ATOM     25  O   UNL A   1      40.077  23.189  27.650  1.00  0.00    -0.246 OA
BRANCH  24  26
ATOM     26  C   UNL A   1      39.800  25.496  27.592  1.00  0.00     0.060 A 
ATOM     27  C   UNL A   1      40.363  26.482  26.756  1.00  0.00     0.016 A 
ATOM     28  C   UNL A   1      39.312  25.820  28.835  1.00  0.00     0.016 A 
ATOM     29  C   UNL A   1      40.300  27.829  27.132  1.00  0.00     0.010 A 
ATOM     30  C   UNL A   1      38.983  27.124  29.043  1.00  0.00     0.010 A 
ATOM     31  C   UNL A   1      39.566  28.142  28.271  1.00  0.00    -0.014 A 
BRANCH  31  32
ATOM     32  C   UNL A   1      39.512  29.421  28.967  1.00  0.00     0.031 A 
ATOM     33  C   UNL A   1      38.479  30.442  28.733  1.00  0.00     0.074 A 
ATOM     34  C   UNL A   1      40.387  29.446  30.006  1.00  0.00     0.049 A 
ATOM     35  N   UNL A   1      38.515  31.600  29.287  1.00  0.00    -0.248 NA
ATOM     36  C   UNL A   1      37.310  30.276  27.881  1.00  0.00     0.031 C 
ATOM     37  C   UNL A   1      40.527  30.299  31.166  1.00  0.00     0.029 A 
ATOM     38  N   UNL A   1      41.497  28.585  30.120  1.00  0.00    -0.354 N 
ATOM     39  C   UNL A   1      37.303  32.230  29.089  1.00  0.00     0.074 A 
ATOM     40  C   UNL A   1      36.599  31.378  28.163  1.00  0.00     0.031 C 
ATOM     41  C   UNL A   1      41.794  30.178  31.622  1.00  0.00     0.029 A 
ATOM     42  C   UNL A   1      42.529  29.323  30.691  1.00  0.00     0.049 A 
ATOM     43  H   UNL A   1      41.535  27.640  29.846  1.00  0.00     0.167 HD
ATOM     44  C   UNL A   1      37.053  33.353  29.828  1.00  0.00     0.037 A 
ATOM     45  C   UNL A   1      43.520  29.671  29.814  1.00  0.00     0.037 A 
ATOM     46  C   UNL A   1      38.282  33.739  30.532  1.00  0.00     0.049 A 
ATOM     47  C   UNL A   1      43.406  31.135  29.438  1.00  0.00     0.074 A 
ATOM     48  C   UNL A   1      38.809  33.453  31.779  1.00  0.00     0.029 A 
ATOM     49  N   UNL A   1      39.342  34.178  29.762  1.00  0.00    -0.354 N 
ATOM     50  N   UNL A   1      42.406  31.901  29.786  1.00  0.00    -0.248 NA
ATOM     51  C   UNL A   1      44.388  31.846  28.627  1.00  0.00     0.031 C 
ATOM     52  C   UNL A   1      40.235  33.593  31.685  1.00  0.00     0.029 A 
ATOM     53  C   UNL A   1      40.556  33.986  30.394  1.00  0.00     0.049 A 
ATOM     54  H   UNL A   1      39.244  34.581  28.868  1.00  0.00     0.167 HD
ATOM     55  C   UNL A   1      42.604  33.163  29.332  1.00  0.00     0.074 A 
ATOM     56  C   UNL A   1      43.839  33.072  28.567  1.00  0.00     0.031 C 
ATOM     57  C   UNL A   1      41.773  34.207  29.623  1.00  0.00     0.037 A 
BRANCH  44  58
ATOM     58  C   UNL A   1      35.729  34.052  30.057  1.00  0.00     0.057 A 
ATOM     59  C   UNL A   1      35.251  34.219  31.377  1.00  0.00     0.134 A 
ATOM     60  C   UNL A   1      34.858  34.545  29.071  1.00  0.00     0.134 A 
ATOM     61  F   UNL A   1      35.971  33.834  32.440  1.00  0.00    -0.206 F 
ATOM     62  C   UNL A   1      34.004  34.783  31.684  1.00  0.00     0.040 A 
ATOM     63  C   UNL A   1      33.598  35.100  29.363  1.00  0.00     0.040 A 
ATOM     64  F   UNL A   1      35.180  34.551  27.774  1.00  0.00    -0.206 F 
ATOM     65  C   UNL A   1      33.163  35.215  30.674  1.00  0.00     0.006 A 
ENDBRANCH  44  58
BRANCH  45  66
ATOM     66  C   UNL A   1      43.861  28.527  28.879  1.00  0.00     0.057 A 
ATOM     67  C   UNL A   1      43.578  28.684  27.500  1.00  0.00     0.134 A 
ATOM     68  C   UNL A   1      44.763  27.507  29.204  1.00  0.00     0.134 A 
ATOM     69  F   UNL A   1      42.723  29.637  27.091  1.00  0.00    -0.206 F 
ATOM     70  C   UNL A   1      44.261  27.978  26.501  1.00  0.00     0.040 A 
ATOM     71  C   UNL A   1      45.420  26.761  28.208  1.00  0.00     0.040 A 
ATOM     72  F   UNL A   1      45.108  27.274  30.476  1.00  0.00    -0.206 F 
ATOM     73  C   UNL A   1      45.208  27.028  26.856  1.00  0.00     0.006 A 
ENDBRANCH  45  66
BRANCH  57  74
ATOM     74  C   UNL A   1      42.117  35.582  29.162  1.00  0.00     0.057 A 
ATOM     75  C   UNL A   1      41.602  36.087  27.963  1.00  0.00     0.134 A 
ATOM     76  C   UNL A   1      43.028  36.398  29.850  1.00  0.00     0.134 A 
ATOM     77  F   UNL A   1      40.780  35.349  27.200  1.00  0.00    -0.206 F 
ATOM     78  C   UNL A   1      41.910  37.370  27.515  1.00  0.00     0.040 A 
ATOM     79  C   UNL A   1      43.400  37.652  29.374  1.00  0.00     0.040 A 
ATOM     80  F   UNL A   1      43.569  36.028  31.020  1.00  0.00    -0.206 F 
ATOM     81  C   UNL A   1      42.819  38.153  28.217  1.00  0.00     0.006 A 
ENDBRANCH  57  74
ENDBRANCH  31  32
ENDBRANCH  24  26
ENDBRANCH  23  24
ENDBRANCH  22  23
ENDBRANCH   1  22
TORSDOF 15
ENDMDL
MODEL 3
REMARK VINA RESULT:     -11.4      1.541      2.530
REMARK SMILES Cc1ccccc1[C@@H](CC(=O)OCCOC(=O)c1ccc(-c2c3nc(c(-c4c(F)cccc4F)c4ccc([nH]4)c(-c4c(F)cccc4F)c4nc(c(-c5c(F)cccc5F)c5ccc2[nH]5)C=C4)C=C3)cc1)NC(=O)C(F)(F)F
REMARK SMILES IDX 13 1 12 2 10 3 11 4 9 5 8 6 7 7 1 8 2 9 3 10 4 11 6 12 5 13
REMARK SMILES IDX 72 14 73 15 74 17 75 18 76 19 77 20 78 21 14 22 15 23 16 24
REMARK SMILES IDX 17 25 18 26 19 27 71 28 20 29 70 30 21 31 22 32 23 33 64 34
REMARK SMILES IDX 24 35 69 36 63 37 65 38 25 39 68 40 62 41 61 42 26 44 52 45
REMARK SMILES IDX 35 46 51 47 36 48 39 49 50 50 66 51 37 52 38 53 49 55 67 56
REMARK SMILES IDX 40 57 27 58 28 59 33 60 29 61 30 62 32 63 34 64 31 65 53 66
REMARK SMILES IDX 54 67 59 68 55 69 56 70 58 71 60 72 57 73 41 74 42 75 47 76
REMARK SMILES IDX 43 77 44 78 46 79 48 80 45 81
REMARK H PARENT 72 16 65 43 39 54
REMARK Flexibility Score: inf
ROOT
ATOM      1  C   UNL A   1      33.772  29.363  26.469  1.00  0.00     0.274 C 
ENDROOT
BRANCH   1   2
ATOM      2  O   UNL A   1      32.370  29.167  26.633  1.00  0.00    -0.462 OA
BRANCH   2   3
ATOM      3  C   UNL A   1      31.950  27.942  27.046  1.00  0.00     0.308 C 
ATOM      4  O   UNL A   1      30.995  27.737  27.763  1.00  0.00    -0.252 OA
BRANCH   3   5
ATOM      5  C   UNL A   1      32.873  26.878  26.475  1.00  0.00     0.152 C 
BRANCH   5   6
ATOM      6  C   UNL A   1      32.078  25.764  25.755  1.00  0.00     0.124 C 
BRANCH   6   7
ATOM      7  C   UNL A   1      31.517  26.377  24.466  1.00  0.00    -0.022 A 
ATOM      8  C   UNL A   1      33.801  26.297  23.310  1.00  0.00     0.045 C 
ATOM      9  C   UNL A   1      32.429  26.883  23.510  1.00  0.00    -0.046 A 
ATOM     10  C   UNL A   1      32.042  27.968  22.712  1.00  0.00     0.004 A 
ATOM     11  C   UNL A   1      30.772  28.528  22.832  1.00  0.00     0.000 A 
ATOM     12  C   UNL A   1      30.179  26.821  24.425  1.00  0.00     0.006 A 
ATOM     13  C   UNL A   1      29.825  27.925  23.650  1.00  0.00     0.000 A 
ENDBRANCH   6   7
BRANCH   6  14
ATOM     14  N   UNL A   1      31.085  25.154  26.636  1.00  0.00    -0.341 N 
ATOM     15  C   UNL A   1      30.586  23.867  26.588  1.00  0.00     0.326 C 
ATOM     16  H   UNL A   1      30.728  25.729  27.351  1.00  0.00     0.164 HD
ATOM     17  O   UNL A   1      29.725  23.554  27.415  1.00  0.00    -0.265 OA
BRANCH  15  18
ATOM     18  C   UNL A   1      31.120  22.891  25.517  1.00  0.00     0.471 C 
ATOM     19  F   UNL A   1      30.689  21.614  25.727  1.00  0.00    -0.162 F 
ATOM     20  F   UNL A   1      30.687  23.230  24.267  1.00  0.00    -0.162 F 
ATOM     21  F   UNL A   1      32.477  22.833  25.453  1.00  0.00    -0.162 F 
ENDBRANCH  15  18
ENDBRANCH   6  14
ENDBRANCH   5   6
ENDBRANCH   3   5
ENDBRANCH   2   3
ENDBRANCH   1   2
BRANCH   1  22
ATOM     22  C   UNL A   1      34.232  30.380  27.522  1.00  0.00     0.275 C 
BRANCH  22  23
ATOM     23  O   UNL A   1      35.233  29.941  28.519  1.00  0.00    -0.458 OA
BRANCH  23  24
ATOM     24  C   UNL A   1      36.495  30.379  28.805  1.00  0.00     0.338 C 
ATOM     25  O   UNL A   1      36.712  31.455  29.344  1.00  0.00    -0.246 OA
BRANCH  24  26
ATOM     26  C   UNL A   1      37.623  29.483  28.517  1.00  0.00     0.060 A 
ATOM     27  C   UNL A   1      38.498  29.708  27.434  1.00  0.00     0.016 A 
ATOM     28  C   UNL A   1      37.900  28.523  29.460  1.00  0.00     0.016 A 
ATOM     29  C   UNL A   1      39.731  29.048  27.390  1.00  0.00     0.010 A 
ATOM     30  C   UNL A   1      39.200  28.132  29.572  1.00  0.00     0.010 A 
ATOM     31  C   UNL A   1      40.089  28.286  28.496  1.00  0.00    -0.014 A 
BRANCH  31  32
ATOM     32  C   UNL A   1      41.211  27.363  28.612  1.00  0.00     0.031 A 
ATOM     33  C   UNL A   1      41.113  25.915  28.378  1.00  0.00     0.074 A 
ATOM     34  C   UNL A   1      42.384  28.038  28.732  1.00  0.00     0.049 A 
ATOM     35  N   UNL A   1      42.095  25.114  28.585  1.00  0.00    -0.248 NA
ATOM     36  C   UNL A   1      39.933  25.220  27.882  1.00  0.00     0.031 C 
ATOM     37  C   UNL A   1      43.770  27.656  28.576  1.00  0.00     0.029 A 
ATOM     38  N   UNL A   1      42.479  29.380  29.152  1.00  0.00    -0.354 N 
ATOM     39  C   UNL A   1      41.793  23.882  28.039  1.00  0.00     0.074 A 
ATOM     40  C   UNL A   1      40.409  23.988  27.651  1.00  0.00     0.031 C 
ATOM     41  C   UNL A   1      44.529  28.560  29.236  1.00  0.00     0.029 A 
ATOM     42  C   UNL A   1      43.631  29.485  29.925  1.00  0.00     0.049 A 
ATOM     43  H   UNL A   1      41.849  30.106  28.940  1.00  0.00     0.167 HD
ATOM     44  C   UNL A   1      42.816  22.983  27.921  1.00  0.00     0.037 A 
ATOM     45  C   UNL A   1      43.395  29.604  31.268  1.00  0.00     0.037 A 
ATOM     46  C   UNL A   1      43.991  23.505  28.629  1.00  0.00     0.049 A 
ATOM     47  C   UNL A   1      43.690  28.295  31.976  1.00  0.00     0.074 A 
ATOM     48  C   UNL A   1      45.080  24.272  28.253  1.00  0.00     0.029 A 
ATOM     49  N   UNL A   1      43.908  23.611  30.004  1.00  0.00    -0.354 N 
ATOM     50  N   UNL A   1      43.973  27.180  31.357  1.00  0.00    -0.248 NA
ATOM     51  C   UNL A   1      43.665  28.130  33.425  1.00  0.00     0.031 C 
ATOM     52  C   UNL A   1      45.552  24.952  29.426  1.00  0.00     0.029 A 
ATOM     53  C   UNL A   1      44.763  24.574  30.503  1.00  0.00     0.049 A 
ATOM     54  H   UNL A   1      43.309  23.063  30.563  1.00  0.00     0.167 HD
ATOM     55  C   UNL A   1      44.220  26.196  32.256  1.00  0.00     0.074 A 
ATOM     56  C   UNL A   1      43.967  26.826  33.544  1.00  0.00     0.031 C 
ATOM     57  C   UNL A   1      44.636  24.943  31.907  1.00  0.00     0.037 A 
BRANCH  44  58
ATOM     58  C   UNL A   1      42.861  21.713  27.096  1.00  0.00     0.057 A 
ATOM     59  C   UNL A   1      41.948  20.670  27.375  1.00  0.00     0.134 A 
ATOM     60  C   UNL A   1      43.765  21.414  26.063  1.00  0.00     0.134 A 
ATOM     61  F   UNL A   1      40.995  20.801  28.309  1.00  0.00    -0.206 F 
ATOM     62  C   UNL A   1      41.962  19.431  26.719  1.00  0.00     0.040 A 
ATOM     63  C   UNL A   1      43.801  20.170  25.406  1.00  0.00     0.040 A 
ATOM     64  F   UNL A   1      44.645  22.309  25.604  1.00  0.00    -0.206 F 
ATOM     65  C   UNL A   1      42.901  19.169  25.737  1.00  0.00     0.006 A 
ENDBRANCH  44  58
BRANCH  45  66
ATOM     66  C   UNL A   1      42.232  30.535  31.547  1.00  0.00     0.057 A 
ATOM     67  C   UNL A   1      42.343  31.886  31.134  1.00  0.00     0.134 A 
ATOM     68  C   UNL A   1      40.936  30.088  31.827  1.00  0.00     0.134 A 
ATOM     69  F   UNL A   1      43.549  32.405  30.843  1.00  0.00    -0.206 F 
ATOM     70  C   UNL A   1      41.228  32.691  30.871  1.00  0.00     0.040 A 
ATOM     71  C   UNL A   1      39.812  30.907  31.610  1.00  0.00     0.040 A 
ATOM     72  F   UNL A   1      40.712  28.828  32.220  1.00  0.00    -0.206 F 
ATOM     73  C   UNL A   1      39.952  32.190  31.084  1.00  0.00     0.006 A 
ENDBRANCH  45  66
BRANCH  57  74
ATOM     74  C   UNL A   1      44.977  23.951  32.966  1.00  0.00     0.057 A 
ATOM     75  C   UNL A   1      44.043  22.996  33.381  1.00  0.00     0.134 A 
ATOM     76  C   UNL A   1      46.201  23.975  33.652  1.00  0.00     0.134 A 
ATOM     77  F   UNL A   1      42.818  22.943  32.833  1.00  0.00    -0.206 F 
ATOM     78  C   UNL A   1      44.342  22.058  34.367  1.00  0.00     0.040 A 
ATOM     79  C   UNL A   1      46.483  23.091  34.689  1.00  0.00     0.040 A 
ATOM     80  F   UNL A   1      47.180  24.833  33.326  1.00  0.00    -0.206 F 
ATOM     81  C   UNL A   1      45.562  22.110  35.031  1.00  0.00     0.006 A 
ENDBRANCH  57  74
ENDBRANCH  31  32
ENDBRANCH  24  26
ENDBRANCH  23  24
ENDBRANCH  22  23
ENDBRANCH   1  22
TORSDOF 15
ENDMDL
