MODEL 1
REMARK VINA RESULT:      -9.9      0.000      0.000
REMARK SMILES Cc1ccc(F)cc1NS(=O)(=O)c1ccc(C(=O)OCCOC(=O)c2ccc(-c3c4nc(c(-c5c(F)cccc5F)c5ccc([nH]5)c(-c5c(F)cccc5F)c5nc(c(-c6c(F)cccc6F)c6ccc3[nH]6)C=C5)C=C4)cc2)cc1
REMARK SMILES IDX 20 1 19 2 17 3 18 4 16 5 13 6 14 7 80 8 15 9 79 10 10 11
REMARK SMILES IDX 11 12 12 13 9 14 8 16 1 17 2 18 3 19 4 20 7 21 5 22 6 23
REMARK SMILES IDX 21 24 22 25 23 26 24 27 25 28 26 29 78 30 27 31 77 32 28 33
REMARK SMILES IDX 29 34 30 35 71 36 31 37 76 38 70 39 72 40 32 41 75 42 69 43
REMARK SMILES IDX 68 44 33 46 59 47 42 48 58 49 43 50 46 51 57 52 73 53 44 54
REMARK SMILES IDX 45 55 56 57 74 58 47 59 34 60 35 61 40 62 36 63 37 64 39 65
REMARK SMILES IDX 41 66 38 67 60 68 61 69 66 70 62 71 63 72 65 73 67 74 64 75
REMARK SMILES IDX 48 76 49 77 54 78 50 79 51 80 53 81 55 82 52 83
REMARK H PARENT 9 15 72 45 46 56
REMARK Flexibility Score: inf
ROOT
ATOM      1  C   UNL A   1      32.863  36.864  30.581  1.00  0.00     0.275 C 
ENDROOT
BRANCH   1   2
ATOM      2  O   UNL A   1      33.729  36.292  31.583  1.00  0.00    -0.458 OA
BRANCH   2   3
ATOM      3  C   UNL A   1      33.161  35.403  32.436  1.00  0.00     0.338 C 
ATOM      4  O   UNL A   1      31.965  35.229  32.607  1.00  0.00    -0.246 OA
BRANCH   3   5
ATOM      5  C   UNL A   1      34.200  34.586  33.124  1.00  0.00     0.060 A 
ATOM      6  C   UNL A   1      36.302  33.093  34.221  1.00  0.00     0.087 A 
ATOM      7  C   UNL A   1      35.681  32.650  33.051  1.00  0.00     0.023 A 
ATOM      8  C   UNL A   1      35.835  34.238  34.880  1.00  0.00     0.023 A 
ATOM      9  C   UNL A   1      34.642  33.408  32.497  1.00  0.00     0.017 A 
ATOM     10  C   UNL A   1      34.780  34.978  34.337  1.00  0.00     0.017 A 
BRANCH   6  11
ATOM     11  S   UNL A   1      37.810  32.357  34.823  1.00  0.00     0.261 S 
ATOM     12  O   UNL A   1      37.432  31.518  35.940  1.00  0.00    -0.201 OA
ATOM     13  O   UNL A   1      38.779  33.421  34.970  1.00  0.00    -0.201 OA
BRANCH  11  14
ATOM     14  N   UNL A   1      38.355  31.318  33.635  1.00  0.00    -0.279 N 
ATOM     15  H   UNL A   1      38.036  31.492  32.720  1.00  0.00     0.180 HD
BRANCH  14  16
ATOM     16  C   UNL A   1      39.233  30.202  33.801  1.00  0.00     0.055 A 
ATOM     17  C   UNL A   1      37.785  28.767  32.241  1.00  0.00     0.046 C 
ATOM     18  C   UNL A   1      39.066  29.074  32.970  1.00  0.00    -0.027 A 
ATOM     19  C   UNL A   1      40.116  28.144  32.842  1.00  0.00     0.008 A 
ATOM     20  C   UNL A   1      41.274  28.273  33.599  1.00  0.00     0.039 A 
ATOM     21  C   UNL A   1      40.351  30.258  34.633  1.00  0.00     0.066 A 
ATOM     22  C   UNL A   1      41.348  29.296  34.526  1.00  0.00     0.125 A 
ATOM     23  F   UNL A   1      42.412  29.380  35.331  1.00  0.00    -0.207 F 
ENDBRANCH  14  16
ENDBRANCH  11  14
ENDBRANCH   6  11
ENDBRANCH   3   5
ENDBRANCH   2   3
ENDBRANCH   1   2
BRANCH   1  24
ATOM     24  C   UNL A   1      33.010  36.102  29.268  1.00  0.00     0.275 C 
BRANCH  24  25
ATOM     25  O   UNL A   1      32.983  34.691  29.542  1.00  0.00    -0.458 OA
BRANCH  25  26
ATOM     26  C   UNL A   1      33.205  33.880  28.484  1.00  0.00     0.338 C 
ATOM     27  O   UNL A   1      32.463  33.667  27.541  1.00  0.00    -0.246 OA
BRANCH  26  28
ATOM     28  C   UNL A   1      34.523  33.239  28.635  1.00  0.00     0.060 A 
ATOM     29  C   UNL A   1      34.636  32.015  29.291  1.00  0.00     0.016 A 
ATOM     30  C   UNL A   1      35.669  33.919  28.213  1.00  0.00     0.016 A 
ATOM     31  C   UNL A   1      35.902  31.513  29.593  1.00  0.00     0.010 A 
ATOM     32  C   UNL A   1      36.935  33.375  28.464  1.00  0.00     0.010 A 
ATOM     33  C   UNL A   1      37.073  32.190  29.207  1.00  0.00    -0.014 A 
BRANCH  33  34
ATOM     34  C   UNL A   1      38.416  31.715  29.669  1.00  0.00     0.031 A 
ATOM     35  C   UNL A   1      39.005  30.429  29.132  1.00  0.00     0.074 A 
ATOM     36  C   UNL A   1      39.160  32.448  30.521  1.00  0.00     0.049 A 
ATOM     37  N   UNL A   1      40.076  29.781  29.523  1.00  0.00    -0.248 NA
ATOM     38  C   UNL A   1      38.294  29.783  28.017  1.00  0.00     0.031 C 
ATOM     39  C   UNL A   1      38.775  33.738  31.093  1.00  0.00     0.029 A 
ATOM     40  N   UNL A   1      40.417  32.224  31.033  1.00  0.00    -0.354 N 
ATOM     41  C   UNL A   1      40.122  28.619  28.758  1.00  0.00     0.074 A 
ATOM     42  C   UNL A   1      38.980  28.658  27.870  1.00  0.00     0.031 C 
ATOM     43  C   UNL A   1      39.799  34.225  31.810  1.00  0.00     0.029 A 
ATOM     44  C   UNL A   1      40.876  33.241  31.836  1.00  0.00     0.049 A 
ATOM     45  H   UNL A   1      40.939  31.411  30.842  1.00  0.00     0.167 HD
ATOM     46  C   UNL A   1      41.027  27.610  28.792  1.00  0.00     0.037 A 
ATOM     47  C   UNL A   1      42.015  33.361  32.544  1.00  0.00     0.037 A 
ATOM     48  C   UNL A   1      42.216  27.598  29.605  1.00  0.00     0.049 A 
ATOM     49  C   UNL A   1      43.004  32.232  32.572  1.00  0.00     0.074 A 
ATOM     50  C   UNL A   1      43.191  26.618  29.692  1.00  0.00     0.029 A 
ATOM     51  N   UNL A   1      42.608  28.625  30.446  1.00  0.00    -0.354 N 
ATOM     52  N   UNL A   1      42.979  31.096  31.921  1.00  0.00    -0.248 NA
ATOM     53  C   UNL A   1      44.161  32.388  33.467  1.00  0.00     0.031 C 
ATOM     54  C   UNL A   1      44.165  27.044  30.601  1.00  0.00     0.029 A 
ATOM     55  C   UNL A   1      43.810  28.302  31.057  1.00  0.00     0.049 A 
ATOM     56  H   UNL A   1      42.108  29.460  30.590  1.00  0.00     0.167 HD
ATOM     57  C   UNL A   1      44.105  30.398  32.334  1.00  0.00     0.074 A 
ATOM     58  C   UNL A   1      44.813  31.251  33.266  1.00  0.00     0.031 C 
ATOM     59  C   UNL A   1      44.506  29.152  31.986  1.00  0.00     0.037 A 
BRANCH  46  60
ATOM     60  C   UNL A   1      40.755  26.406  27.939  1.00  0.00     0.057 A 
ATOM     61  C   UNL A   1      41.449  26.161  26.750  1.00  0.00     0.134 A 
ATOM     62  C   UNL A   1      39.816  25.449  28.352  1.00  0.00     0.134 A 
ATOM     63  F   UNL A   1      42.354  27.041  26.297  1.00  0.00    -0.206 F 
ATOM     64  C   UNL A   1      41.206  25.015  25.989  1.00  0.00     0.040 A 
ATOM     65  C   UNL A   1      39.581  24.291  27.612  1.00  0.00     0.040 A 
ATOM     66  F   UNL A   1      39.126  25.621  29.490  1.00  0.00    -0.206 F 
ATOM     67  C   UNL A   1      40.275  24.073  26.423  1.00  0.00     0.006 A 
ENDBRANCH  46  60
BRANCH  47  68
ATOM     68  C   UNL A   1      42.265  34.594  33.333  1.00  0.00     0.057 A 
ATOM     69  C   UNL A   1      42.009  34.634  34.707  1.00  0.00     0.134 A 
ATOM     70  C   UNL A   1      42.766  35.756  32.733  1.00  0.00     0.134 A 
ATOM     71  F   UNL A   1      41.501  33.561  35.331  1.00  0.00    -0.206 F 
ATOM     72  C   UNL A   1      42.242  35.787  35.459  1.00  0.00     0.040 A 
ATOM     73  C   UNL A   1      43.028  36.906  33.476  1.00  0.00     0.040 A 
ATOM     74  F   UNL A   1      43.026  35.780  31.417  1.00  0.00    -0.206 F 
ATOM     75  C   UNL A   1      42.762  36.925  34.844  1.00  0.00     0.006 A 
ENDBRANCH  47  68
BRANCH  59  76
ATOM     76  C   UNL A   1      45.767  28.640  32.611  1.00  0.00     0.057 A 
ATOM     77  C   UNL A   1      45.743  27.883  33.789  1.00  0.00     0.134 A 
ATOM     78  C   UNL A   1      47.014  28.884  32.020  1.00  0.00     0.134 A 
ATOM     79  F   UNL A   1      44.582  27.629  34.410  1.00  0.00    -0.206 F 
ATOM     80  C   UNL A   1      46.918  27.401  34.370  1.00  0.00     0.040 A 
ATOM     81  C   UNL A   1      48.194  28.392  32.582  1.00  0.00     0.040 A 
ATOM     82  F   UNL A   1      47.103  29.598  30.889  1.00  0.00    -0.206 F 
ATOM     83  C   UNL A   1      48.148  27.652  33.762  1.00  0.00     0.006 A 
ENDBRANCH  59  76
ENDBRANCH  33  34
ENDBRANCH  26  28
ENDBRANCH  25  26
ENDBRANCH  24  25
ENDBRANCH   1  24
TORSDOF 14
ENDMDL
MODEL 2
REMARK VINA RESULT:      -9.8      5.229     10.598
REMARK SMILES Cc1ccc(F)cc1NS(=O)(=O)c1ccc(C(=O)OCCOC(=O)c2ccc(-c3c4nc(c(-c5c(F)cccc5F)c5ccc([nH]5)c(-c5c(F)cccc5F)c5nc(c(-c6c(F)cccc6F)c6ccc3[nH]6)C=C5)C=C4)cc2)cc1
REMARK SMILES IDX 20 1 19 2 17 3 18 4 16 5 13 6 14 7 80 8 15 9 79 10 10 11
REMARK SMILES IDX 11 12 12 13 9 14 8 16 1 17 2 18 3 19 4 20 7 21 5 22 6 23
REMARK SMILES IDX 21 24 22 25 23 26 24 27 25 28 26 29 78 30 27 31 77 32 28 33
REMARK SMILES IDX 29 34 30 35 71 36 31 37 76 38 70 39 72 40 32 41 75 42 69 43
REMARK SMILES IDX 68 44 33 46 59 47 42 48 58 49 43 50 46 51 57 52 73 53 44 54
REMARK SMILES IDX 45 55 56 57 74 58 47 59 34 60 35 61 40 62 36 63 37 64 39 65
REMARK SMILES IDX 41 66 38 67 60 68 61 69 66 70 62 71 63 72 65 73 67 74 64 75
REMARK SMILES IDX 48 76 49 77 54 78 50 79 51 80 53 81 55 82 52 83
REMARK H PARENT 9 15 72 45 46 56
REMARK Flexibility Score: inf
ROOT
ATOM      1  C   UNL A   1      42.483  20.744  26.285  1.00  0.00     0.275 C 
ENDROOT
BRANCH   1   2
ATOM      2  O   UNL A   1      41.145  20.981  25.802  1.00  0.00    -0.458 OA
BRANCH   2   3
ATOM      3  C   UNL A   1      40.235  21.393  26.720  1.00  0.00     0.338 C 
ATOM      4  O   UNL A   1      40.403  21.449  27.928  1.00  0.00    -0.246 OA
BRANCH   3   5
ATOM      5  C   UNL A   1      38.979  21.845  26.060  1.00  0.00     0.060 A 
ATOM      6  C   UNL A   1      36.493  22.536  24.966  1.00  0.00     0.087 A 
ATOM      7  C   UNL A   1      36.992  21.244  24.780  1.00  0.00     0.023 A 
ATOM      8  C   UNL A   1      37.259  23.500  25.635  1.00  0.00     0.023 A 
ATOM      9  C   UNL A   1      38.227  20.898  25.343  1.00  0.00     0.017 A 
ATOM     10  C   UNL A   1      38.503  23.158  26.173  1.00  0.00     0.017 A 
BRANCH   6  11
ATOM     11  S   UNL A   1      34.816  22.967  24.543  1.00  0.00     0.261 S 
ATOM     12  O   UNL A   1      34.076  21.723  24.506  1.00  0.00    -0.201 OA
ATOM     13  O   UNL A   1      34.874  23.847  23.396  1.00  0.00    -0.201 OA
BRANCH  11  14
ATOM     14  N   UNL A   1      34.194  23.830  25.830  1.00  0.00    -0.279 N 
ATOM     15  H   UNL A   1      34.375  23.470  26.728  1.00  0.00     0.180 HD
BRANCH  14  16
ATOM     16  C   UNL A   1      33.427  25.035  25.771  1.00  0.00     0.055 A 
ATOM     17  C   UNL A   1      31.239  23.697  25.674  1.00  0.00     0.046 C 
ATOM     18  C   UNL A   1      32.025  24.958  25.911  1.00  0.00    -0.027 A 
ATOM     19  C   UNL A   1      31.295  26.118  26.235  1.00  0.00     0.008 A 
ATOM     20  C   UNL A   1      31.927  27.354  26.321  1.00  0.00     0.039 A 
ATOM     21  C   UNL A   1      34.028  26.294  25.750  1.00  0.00     0.066 A 
ATOM     22  C   UNL A   1      33.274  27.430  26.019  1.00  0.00     0.125 A 
ATOM     23  F   UNL A   1      33.878  28.622  26.001  1.00  0.00    -0.207 F 
ENDBRANCH  14  16
ENDBRANCH  11  14
ENDBRANCH   6  11
ENDBRANCH   3   5
ENDBRANCH   2   3
ENDBRANCH   1   2
BRANCH   1  24
ATOM     24  C   UNL A   1      43.483  21.562  25.474  1.00  0.00     0.275 C 
BRANCH  24  25
ATOM     25  O   UNL A   1      42.820  22.727  24.955  1.00  0.00    -0.458 OA
BRANCH  25  26
ATOM     26  C   UNL A   1      43.542  23.869  24.960  1.00  0.00     0.338 C 
ATOM     27  O   UNL A   1      44.569  24.103  24.346  1.00  0.00    -0.246 OA
BRANCH  26  28
ATOM     28  C   UNL A   1      42.904  24.840  25.866  1.00  0.00     0.060 A 
ATOM     29  C   UNL A   1      43.374  26.149  25.933  1.00  0.00     0.016 A 
ATOM     30  C   UNL A   1      41.897  24.408  26.734  1.00  0.00     0.016 A 
ATOM     31  C   UNL A   1      42.889  27.003  26.924  1.00  0.00     0.010 A 
ATOM     32  C   UNL A   1      41.370  25.293  27.685  1.00  0.00     0.010 A 
ATOM     33  C   UNL A   1      41.897  26.587  27.831  1.00  0.00    -0.014 A 
BRANCH  33  34
ATOM     34  C   UNL A   1      41.499  27.463  28.979  1.00  0.00     0.031 A 
ATOM     35  C   UNL A   1      42.328  27.498  30.244  1.00  0.00     0.074 A 
ATOM     36  C   UNL A   1      40.436  28.287  28.892  1.00  0.00     0.049 A 
ATOM     37  N   UNL A   1      42.063  28.071  31.394  1.00  0.00    -0.248 NA
ATOM     38  C   UNL A   1      43.618  26.790  30.218  1.00  0.00     0.031 C 
ATOM     39  C   UNL A   1      39.560  28.426  27.729  1.00  0.00     0.029 A 
ATOM     40  N   UNL A   1      39.928  29.192  29.796  1.00  0.00    -0.354 N 
ATOM     41  C   UNL A   1      43.110  27.728  32.244  1.00  0.00     0.074 A 
ATOM     42  C   UNL A   1      44.023  26.911  31.474  1.00  0.00     0.031 C 
ATOM     43  C   UNL A   1      38.676  29.409  27.958  1.00  0.00     0.029 A 
ATOM     44  C   UNL A   1      38.853  29.902  29.321  1.00  0.00     0.049 A 
ATOM     45  H   UNL A   1      40.300  29.317  30.700  1.00  0.00     0.167 HD
ATOM     46  C   UNL A   1      43.296  28.060  33.546  1.00  0.00     0.037 A 
ATOM     47  C   UNL A   1      38.069  30.823  29.915  1.00  0.00     0.037 A 
ATOM     48  C   UNL A   1      42.446  28.944  34.299  1.00  0.00     0.049 A 
ATOM     49  C   UNL A   1      38.289  31.175  31.358  1.00  0.00     0.074 A 
ATOM     50  C   UNL A   1      42.568  29.340  35.621  1.00  0.00     0.029 A 
ATOM     51  N   UNL A   1      41.334  29.595  33.791  1.00  0.00    -0.354 N 
ATOM     52  N   UNL A   1      39.224  30.761  32.176  1.00  0.00    -0.248 NA
ATOM     53  C   UNL A   1      37.316  32.092  31.971  1.00  0.00     0.031 C 
ATOM     54  C   UNL A   1      41.520  30.217  35.918  1.00  0.00     0.029 A 
ATOM     55  C   UNL A   1      40.761  30.389  34.772  1.00  0.00     0.049 A 
ATOM     56  H   UNL A   1      41.001  29.507  32.870  1.00  0.00     0.167 HD
ATOM     57  C   UNL A   1      38.947  31.356  33.400  1.00  0.00     0.074 A 
ATOM     58  C   UNL A   1      37.778  32.188  33.210  1.00  0.00     0.031 C 
ATOM     59  C   UNL A   1      39.596  31.210  34.580  1.00  0.00     0.037 A 
BRANCH  46  60
ATOM     60  C   UNL A   1      44.459  27.436  34.260  1.00  0.00     0.057 A 
ATOM     61  C   UNL A   1      45.700  28.073  34.364  1.00  0.00     0.134 A 
ATOM     62  C   UNL A   1      44.309  26.198  34.901  1.00  0.00     0.134 A 
ATOM     63  F   UNL A   1      45.910  29.255  33.766  1.00  0.00    -0.206 F 
ATOM     64  C   UNL A   1      46.760  27.491  35.065  1.00  0.00     0.040 A 
ATOM     65  C   UNL A   1      45.352  25.618  35.623  1.00  0.00     0.040 A 
ATOM     66  F   UNL A   1      43.139  25.543  34.849  1.00  0.00    -0.206 F 
ATOM     67  C   UNL A   1      46.585  26.264  35.702  1.00  0.00     0.006 A 
ENDBRANCH  46  60
BRANCH  47  68
ATOM     68  C   UNL A   1      36.962  31.452  29.152  1.00  0.00     0.057 A 
ATOM     69  C   UNL A   1      35.791  30.742  28.866  1.00  0.00     0.134 A 
ATOM     70  C   UNL A   1      37.047  32.772  28.694  1.00  0.00     0.134 A 
ATOM     71  F   UNL A   1      35.663  29.465  29.254  1.00  0.00    -0.206 F 
ATOM     72  C   UNL A   1      34.743  31.324  28.151  1.00  0.00     0.040 A 
ATOM     73  C   UNL A   1      35.998  33.374  28.002  1.00  0.00     0.040 A 
ATOM     74  F   UNL A   1      38.148  33.501  28.934  1.00  0.00    -0.206 F 
ATOM     75  C   UNL A   1      34.842  32.647  27.725  1.00  0.00     0.006 A 
ENDBRANCH  47  68
BRANCH  59  76
ATOM     76  C   UNL A   1      39.057  31.967  35.754  1.00  0.00     0.057 A 
ATOM     77  C   UNL A   1      39.412  33.302  35.987  1.00  0.00     0.134 A 
ATOM     78  C   UNL A   1      38.161  31.368  36.647  1.00  0.00     0.134 A 
ATOM     79  F   UNL A   1      40.278  33.926  35.175  1.00  0.00    -0.206 F 
ATOM     80  C   UNL A   1      38.907  34.011  37.078  1.00  0.00     0.040 A 
ATOM     81  C   UNL A   1      37.634  32.072  37.732  1.00  0.00     0.040 A 
ATOM     82  F   UNL A   1      37.779  30.094  36.477  1.00  0.00    -0.206 F 
ATOM     83  C   UNL A   1      38.011  33.396  37.953  1.00  0.00     0.006 A 
ENDBRANCH  59  76
ENDBRANCH  33  34
ENDBRANCH  26  28
ENDBRANCH  25  26
ENDBRANCH  24  25
ENDBRANCH   1  24
TORSDOF 14
ENDMDL
MODEL 3
REMARK VINA RESULT:      -9.8      5.482     11.082
REMARK SMILES Cc1ccc(F)cc1NS(=O)(=O)c1ccc(C(=O)OCCOC(=O)c2ccc(-c3c4nc(c(-c5c(F)cccc5F)c5ccc([nH]5)c(-c5c(F)cccc5F)c5nc(c(-c6c(F)cccc6F)c6ccc3[nH]6)C=C5)C=C4)cc2)cc1
REMARK SMILES IDX 20 1 19 2 17 3 18 4 16 5 13 6 14 7 80 8 15 9 79 10 10 11
REMARK SMILES IDX 11 12 12 13 9 14 8 16 1 17 2 18 3 19 4 20 7 21 5 22 6 23
REMARK SMILES IDX 21 24 22 25 23 26 24 27 25 28 26 29 78 30 27 31 77 32 28 33
REMARK SMILES IDX 29 34 30 35 71 36 31 37 76 38 70 39 72 40 32 41 75 42 69 43
REMARK SMILES IDX 68 44 33 46 59 47 42 48 58 49 43 50 46 51 57 52 73 53 44 54
REMARK SMILES IDX 45 55 56 57 74 58 47 59 34 60 35 61 40 62 36 63 37 64 39 65
REMARK SMILES IDX 41 66 38 67 60 68 61 69 66 70 62 71 63 72 65 73 67 74 64 75
REMARK SMILES IDX 48 76 49 77 54 78 50 79 51 80 53 81 55 82 52 83
REMARK H PARENT 9 15 72 45 46 56
REMARK Flexibility Score: inf
ROOT
ATOM      1  C   UNL A   1      42.669  20.638  26.322  1.00  0.00     0.275 C 
ENDROOT
BRANCH   1   2
ATOM      2  O   UNL A   1      41.297  20.725  25.886  1.00  0.00    -0.458 OA
BRANCH   2   3
ATOM      3  C   UNL A   1      40.406  21.207  26.787  1.00  0.00     0.338 C 
ATOM      4  O   UNL A   1      40.532  21.203  28.001  1.00  0.00    -0.246 OA
BRANCH   3   5
ATOM      5  C   UNL A   1      39.236  21.824  26.102  1.00  0.00     0.060 A 
ATOM      6  C   UNL A   1      36.891  22.817  24.932  1.00  0.00     0.087 A 
ATOM      7  C   UNL A   1      37.315  21.520  24.630  1.00  0.00     0.023 A 
ATOM      8  C   UNL A   1      37.666  23.639  25.761  1.00  0.00     0.023 A 
ATOM      9  C   UNL A   1      38.479  21.023  25.229  1.00  0.00     0.017 A 
ATOM     10  C   UNL A   1      38.840  23.147  26.337  1.00  0.00     0.017 A 
BRANCH   6  11
ATOM     11  S   UNL A   1      35.282  23.417  24.451  1.00  0.00     0.261 S 
ATOM     12  O   UNL A   1      35.148  23.126  23.040  1.00  0.00    -0.201 OA
ATOM     13  O   UNL A   1      35.156  24.764  24.962  1.00  0.00    -0.201 OA
BRANCH  11  14
ATOM     14  N   UNL A   1      34.153  22.460  25.224  1.00  0.00    -0.279 N 
ATOM     15  H   UNL A   1      33.876  22.748  26.124  1.00  0.00     0.180 HD
BRANCH  14  16
ATOM     16  C   UNL A   1      33.544  21.269  24.723  1.00  0.00     0.055 A 
ATOM     17  C   UNL A   1      31.695  22.634  23.580  1.00  0.00     0.046 C 
ATOM     18  C   UNL A   1      32.506  21.382  23.773  1.00  0.00    -0.027 A 
ATOM     19  C   UNL A   1      32.154  20.263  22.992  1.00  0.00     0.008 A 
ATOM     20  C   UNL A   1      32.750  19.027  23.214  1.00  0.00     0.039 A 
ATOM     21  C   UNL A   1      34.051  20.001  25.008  1.00  0.00     0.066 A 
ATOM     22  C   UNL A   1      33.648  18.903  24.259  1.00  0.00     0.125 A 
ATOM     23  F   UNL A   1      34.158  17.702  24.549  1.00  0.00    -0.207 F 
ENDBRANCH  14  16
ENDBRANCH  11  14
ENDBRANCH   6  11
ENDBRANCH   3   5
ENDBRANCH   2   3
ENDBRANCH   1   2
BRANCH   1  24
ATOM     24  C   UNL A   1      43.555  21.507  25.435  1.00  0.00     0.275 C 
BRANCH  24  25
ATOM     25  O   UNL A   1      42.818  22.679  25.045  1.00  0.00    -0.458 OA
BRANCH  25  26
ATOM     26  C   UNL A   1      43.507  23.841  25.056  1.00  0.00     0.338 C 
ATOM     27  O   UNL A   1      44.523  24.109  24.437  1.00  0.00    -0.246 OA
BRANCH  26  28
ATOM     28  C   UNL A   1      42.847  24.786  25.973  1.00  0.00     0.060 A 
ATOM     29  C   UNL A   1      43.110  26.151  25.880  1.00  0.00     0.016 A 
ATOM     30  C   UNL A   1      42.042  24.293  27.003  1.00  0.00     0.016 A 
ATOM     31  C   UNL A   1      42.629  27.011  26.868  1.00  0.00     0.010 A 
ATOM     32  C   UNL A   1      41.511  25.173  27.955  1.00  0.00     0.010 A 
ATOM     33  C   UNL A   1      41.841  26.539  27.934  1.00  0.00    -0.014 A 
BRANCH  33  34
ATOM     34  C   UNL A   1      41.463  27.447  29.062  1.00  0.00     0.031 A 
ATOM     35  C   UNL A   1      42.311  27.517  30.313  1.00  0.00     0.074 A 
ATOM     36  C   UNL A   1      40.400  28.271  28.968  1.00  0.00     0.049 A 
ATOM     37  N   UNL A   1      42.065  28.123  31.450  1.00  0.00    -0.248 NA
ATOM     38  C   UNL A   1      43.599  26.806  30.286  1.00  0.00     0.031 C 
ATOM     39  C   UNL A   1      39.506  28.378  27.815  1.00  0.00     0.029 A 
ATOM     40  N   UNL A   1      39.907  29.202  29.854  1.00  0.00    -0.354 N 
ATOM     41  C   UNL A   1      43.124  27.802  32.293  1.00  0.00     0.074 A 
ATOM     42  C   UNL A   1      44.023  26.961  31.533  1.00  0.00     0.031 C 
ATOM     43  C   UNL A   1      38.627  29.370  28.030  1.00  0.00     0.029 A 
ATOM     44  C   UNL A   1      38.826  29.901  29.375  1.00  0.00     0.049 A 
ATOM     45  H   UNL A   1      40.293  29.352  30.747  1.00  0.00     0.167 HD
ATOM     46  C   UNL A   1      43.331  28.170  33.582  1.00  0.00     0.037 A 
ATOM     47  C   UNL A   1      38.053  30.840  29.955  1.00  0.00     0.037 A 
ATOM     48  C   UNL A   1      42.494  29.077  34.323  1.00  0.00     0.049 A 
ATOM     49  C   UNL A   1      38.295  31.232  31.384  1.00  0.00     0.074 A 
ATOM     50  C   UNL A   1      42.637  29.510  35.631  1.00  0.00     0.029 A 
ATOM     51  N   UNL A   1      41.376  29.715  33.813  1.00  0.00    -0.354 N 
ATOM     52  N   UNL A   1      39.243  30.840  32.199  1.00  0.00    -0.248 NA
ATOM     53  C   UNL A   1      37.334  32.169  31.985  1.00  0.00     0.031 C 
ATOM     54  C   UNL A   1      41.595  30.397  35.919  1.00  0.00     0.029 A 
ATOM     55  C   UNL A   1      40.819  30.538  34.780  1.00  0.00     0.049 A 
ATOM     56  H   UNL A   1      41.028  29.602  32.900  1.00  0.00     0.167 HD
ATOM     57  C   UNL A   1      38.986  31.470  33.409  1.00  0.00     0.074 A 
ATOM     58  C   UNL A   1      37.815  32.298  33.214  1.00  0.00     0.031 C 
ATOM     59  C   UNL A   1      39.652  31.355  34.583  1.00  0.00     0.037 A 
BRANCH  46  60
ATOM     60  C   UNL A   1      44.503  27.564  34.296  1.00  0.00     0.057 A 
ATOM     61  C   UNL A   1      44.405  26.364  35.008  1.00  0.00     0.134 A 
ATOM     62  C   UNL A   1      45.765  28.171  34.219  1.00  0.00     0.134 A 
ATOM     63  F   UNL A   1      43.225  25.738  35.125  1.00  0.00    -0.206 F 
ATOM     64  C   UNL A   1      45.517  25.798  35.636  1.00  0.00     0.040 A 
ATOM     65  C   UNL A   1      46.887  27.605  34.822  1.00  0.00     0.040 A 
ATOM     66  F   UNL A   1      45.927  29.318  33.540  1.00  0.00    -0.206 F 
ATOM     67  C   UNL A   1      46.764  26.415  35.538  1.00  0.00     0.006 A 
ENDBRANCH  46  60
BRANCH  47  68
ATOM     68  C   UNL A   1      36.935  31.450  29.191  1.00  0.00     0.057 A 
ATOM     69  C   UNL A   1      37.014  32.766  28.726  1.00  0.00     0.134 A 
ATOM     70  C   UNL A   1      35.767  30.732  28.909  1.00  0.00     0.134 A 
ATOM     71  F   UNL A   1      38.097  33.512  28.991  1.00  0.00    -0.206 F 
ATOM     72  C   UNL A   1      35.970  33.348  28.006  1.00  0.00     0.040 A 
ATOM     73  C   UNL A   1      34.727  31.291  28.169  1.00  0.00     0.040 A 
ATOM     74  F   UNL A   1      35.631  29.466  29.334  1.00  0.00    -0.206 F 
ATOM     75  C   UNL A   1      34.826  32.606  27.718  1.00  0.00     0.006 A 
ENDBRANCH  47  68
BRANCH  59  76
ATOM     76  C   UNL A   1      39.134  32.147  35.743  1.00  0.00     0.057 A 
ATOM     77  C   UNL A   1      38.232  31.592  36.661  1.00  0.00     0.134 A 
ATOM     78  C   UNL A   1      39.553  33.466  35.960  1.00  0.00     0.134 A 
ATOM     79  F   UNL A   1      37.782  30.339  36.498  1.00  0.00    -0.206 F 
ATOM     80  C   UNL A   1      37.752  32.328  37.746  1.00  0.00     0.040 A 
ATOM     81  C   UNL A   1      39.093  34.205  37.051  1.00  0.00     0.040 A 
ATOM     82  F   UNL A   1      40.417  34.052  35.120  1.00  0.00    -0.206 F 
ATOM     83  C   UNL A   1      38.186  33.638  37.945  1.00  0.00     0.006 A 
ENDBRANCH  59  76
ENDBRANCH  33  34
ENDBRANCH  26  28
ENDBRANCH  25  26
ENDBRANCH  24  25
ENDBRANCH   1  24
TORSDOF 14
ENDMDL
