MODEL 1
REMARK VINA RESULT:     -10.1      0.000      0.000
REMARK SMILES C[C@@H](Sc1nc2ccccc2c(=O)n1N)C(=O)OCCOC(=O)c1ccc(-c2c3nc(c(-c4c(F)cccc4F)c4ccc([nH]4)c(-c4c(F)cccc4F)c4nc(c(-c5c(F)cccc5F)c5ccc2[nH]5)C=C4)C=C3)cc1
REMARK SMILES IDX 19 1 18 2 16 3 17 4 2 5 1 6 3 7 4 8 5 9 14 10 6 11 12 12
REMARK SMILES IDX 7 13 11 14 13 15 8 16 10 17 9 18 15 19 20 22 21 23 22 24
REMARK SMILES IDX 23 25 24 26 25 27 77 28 26 29 76 30 27 31 28 32 29 33 70 34
REMARK SMILES IDX 30 35 75 36 69 37 71 38 31 39 74 40 68 41 67 42 32 44 58 45
REMARK SMILES IDX 41 46 57 47 42 48 45 49 56 50 72 51 43 52 44 53 55 55 73 56
REMARK SMILES IDX 46 57 33 58 34 59 39 60 35 61 36 62 38 63 40 64 37 65 59 66
REMARK SMILES IDX 60 67 65 68 61 69 62 70 64 71 66 72 63 73 47 74 48 75 53 76
REMARK SMILES IDX 49 77 50 78 52 79 54 80 51 81
REMARK H PARENT 15 20 15 21 71 43 45 54
REMARK Flexibility Score: inf
ROOT
ATOM      1  C   UNL A   1      34.038  34.443  28.826  1.00  0.00     0.274 C 
ENDROOT
BRANCH   1   2
ATOM      2  O   UNL A   1      33.211  34.580  29.998  1.00  0.00    -0.461 OA
BRANCH   2   3
ATOM      3  C   UNL A   1      33.114  35.831  30.526  1.00  0.00     0.319 C 
ATOM      4  O   UNL A   1      32.618  36.788  29.939  1.00  0.00    -0.251 OA
BRANCH   3   5
ATOM      5  C   UNL A   1      33.689  35.931  31.938  1.00  0.00     0.161 C 
ATOM      6  C   UNL A   1      32.905  36.829  32.885  1.00  0.00     0.032 C 
BRANCH   5   7
ATOM      7  S   UNL A   1      33.864  34.233  32.586  1.00  0.00    -0.071 SA
BRANCH   7   8
ATOM      8  C   UNL A   1      35.597  34.160  32.812  1.00  0.00     0.191 A 
ATOM      9  N   UNL A   1      36.324  34.141  31.742  1.00  0.00    -0.222 NA
ATOM     10  N   UNL A   1      36.122  34.186  34.104  1.00  0.00    -0.202 N 
ATOM     11  C   UNL A   1      37.717  34.165  31.885  1.00  0.00     0.079 A 
ATOM     12  C   UNL A   1      37.499  34.204  34.332  1.00  0.00     0.280 A 
ATOM     13  C   UNL A   1      38.507  34.185  30.733  1.00  0.00     0.029 A 
ATOM     14  C   UNL A   1      38.350  34.202  33.129  1.00  0.00     0.068 A 
ATOM     15  O   UNL A   1      37.997  34.235  35.457  1.00  0.00    -0.267 OA
ATOM     16  C   UNL A   1      39.900  34.246  30.825  1.00  0.00     0.002 A 
ATOM     17  C   UNL A   1      39.744  34.260  33.233  1.00  0.00     0.016 A 
ATOM     18  C   UNL A   1      40.518  34.284  32.073  1.00  0.00     0.001 A 
BRANCH  10  19
ATOM     19  N   UNL A   1      35.282  34.203  35.269  1.00  0.00    -0.334 N 
ATOM     20  H   UNL A   1      34.788  33.394  35.532  1.00  0.00     0.178 HD
ATOM     21  H   UNL A   1      35.201  35.025  35.805  1.00  0.00     0.178 HD
ENDBRANCH  10  19
ENDBRANCH   7   8
ENDBRANCH   5   7
ENDBRANCH   3   5
ENDBRANCH   2   3
ENDBRANCH   1   2
BRANCH   1  22
ATOM     22  C   UNL A   1      33.653  33.217  27.991  1.00  0.00     0.275 C 
BRANCH  22  23
ATOM     23  O   UNL A   1      34.796  32.413  27.640  1.00  0.00    -0.458 OA
BRANCH  23  24
ATOM     24  C   UNL A   1      34.587  31.076  27.683  1.00  0.00     0.338 C 
ATOM     25  O   UNL A   1      33.571  30.480  27.366  1.00  0.00    -0.246 OA
BRANCH  24  26
ATOM     26  C   UNL A   1      35.829  30.373  28.043  1.00  0.00     0.060 A 
ATOM     27  C   UNL A   1      35.857  29.703  29.270  1.00  0.00     0.016 A 
ATOM     28  C   UNL A   1      36.976  30.451  27.252  1.00  0.00     0.016 A 
ATOM     29  C   UNL A   1      37.034  29.122  29.723  1.00  0.00     0.010 A 
ATOM     30  C   UNL A   1      38.162  29.870  27.710  1.00  0.00     0.010 A 
ATOM     31  C   UNL A   1      38.201  29.219  28.956  1.00  0.00    -0.014 A 
BRANCH  31  32
ATOM     32  C   UNL A   1      39.470  28.698  29.513  1.00  0.00     0.031 A 
ATOM     33  C   UNL A   1      40.045  29.313  30.755  1.00  0.00     0.074 A 
ATOM     34  C   UNL A   1      40.070  27.640  28.939  1.00  0.00     0.049 A 
ATOM     35  N   UNL A   1      41.152  29.019  31.388  1.00  0.00    -0.248 NA
ATOM     36  C   UNL A   1      39.270  30.402  31.369  1.00  0.00     0.031 C 
ATOM     37  C   UNL A   1      39.576  26.926  27.762  1.00  0.00     0.029 A 
ATOM     38  N   UNL A   1      41.221  26.976  29.278  1.00  0.00    -0.354 N 
ATOM     39  C   UNL A   1      41.215  29.894  32.464  1.00  0.00     0.074 A 
ATOM     40  C   UNL A   1      40.044  30.742  32.390  1.00  0.00     0.031 C 
ATOM     41  C   UNL A   1      40.417  25.916  27.481  1.00  0.00     0.029 A 
ATOM     42  C   UNL A   1      41.523  25.937  28.435  1.00  0.00     0.049 A 
ATOM     43  H   UNL A   1      41.777  27.222  30.053  1.00  0.00     0.167 HD
ATOM     44  C   UNL A   1      42.162  29.979  33.429  1.00  0.00     0.037 A 
ATOM     45  C   UNL A   1      42.583  25.107  28.424  1.00  0.00     0.037 A 
ATOM     46  C   UNL A   1      43.318  29.126  33.510  1.00  0.00     0.049 A 
ATOM     47  C   UNL A   1      43.648  25.259  29.474  1.00  0.00     0.074 A 
ATOM     48  C   UNL A   1      44.332  29.132  34.453  1.00  0.00     0.029 A 
ATOM     49  N   UNL A   1      43.613  28.112  32.611  1.00  0.00    -0.354 N 
ATOM     50  N   UNL A   1      43.703  26.098  30.480  1.00  0.00    -0.248 NA
ATOM     51  C   UNL A   1      44.801  24.353  29.381  1.00  0.00     0.031 C 
ATOM     52  C   UNL A   1      45.258  28.141  34.105  1.00  0.00     0.029 A 
ATOM     53  C   UNL A   1      44.801  27.495  32.968  1.00  0.00     0.049 A 
ATOM     54  H   UNL A   1      43.059  27.866  31.836  1.00  0.00     0.167 HD
ATOM     55  C   UNL A   1      44.884  25.807  31.152  1.00  0.00     0.074 A 
ATOM     56  C   UNL A   1      45.508  24.708  30.445  1.00  0.00     0.031 C 
ATOM     57  C   UNL A   1      45.404  26.400  32.254  1.00  0.00     0.037 A 
BRANCH  44  58
ATOM     58  C   UNL A   1      41.997  31.055  34.458  1.00  0.00     0.057 A 
ATOM     59  C   UNL A   1      41.192  30.879  35.590  1.00  0.00     0.134 A 
ATOM     60  C   UNL A   1      42.667  32.277  34.323  1.00  0.00     0.134 A 
ATOM     61  F   UNL A   1      40.509  29.738  35.769  1.00  0.00    -0.206 F 
ATOM     62  C   UNL A   1      41.044  31.889  36.544  1.00  0.00     0.040 A 
ATOM     63  C   UNL A   1      42.544  33.286  35.280  1.00  0.00     0.040 A 
ATOM     64  F   UNL A   1      43.456  32.508  33.263  1.00  0.00    -0.206 F 
ATOM     65  C   UNL A   1      41.726  33.095  36.391  1.00  0.00     0.006 A 
ENDBRANCH  44  58
BRANCH  45  66
ATOM     66  C   UNL A   1      42.695  24.064  27.377  1.00  0.00     0.057 A 
ATOM     67  C   UNL A   1      43.291  24.338  26.142  1.00  0.00     0.134 A 
ATOM     68  C   UNL A   1      42.199  22.770  27.583  1.00  0.00     0.134 A 
ATOM     69  F   UNL A   1      43.764  25.566  25.879  1.00  0.00    -0.206 F 
ATOM     70  C   UNL A   1      43.383  23.367  25.144  1.00  0.00     0.040 A 
ATOM     71  C   UNL A   1      42.303  21.784  26.603  1.00  0.00     0.040 A 
ATOM     72  F   UNL A   1      41.615  22.446  28.747  1.00  0.00    -0.206 F 
ATOM     73  C   UNL A   1      42.892  22.083  25.376  1.00  0.00     0.006 A 
ENDBRANCH  45  66
BRANCH  57  74
ATOM     74  C   UNL A   1      46.697  25.850  32.775  1.00  0.00     0.057 A 
ATOM     75  C   UNL A   1      46.729  24.828  33.732  1.00  0.00     0.134 A 
ATOM     76  C   UNL A   1      47.922  26.329  32.296  1.00  0.00     0.134 A 
ATOM     77  F   UNL A   1      45.589  24.337  34.241  1.00  0.00    -0.206 F 
ATOM     78  C   UNL A   1      47.936  24.316  34.210  1.00  0.00     0.040 A 
ATOM     79  C   UNL A   1      49.135  25.812  32.751  1.00  0.00     0.040 A 
ATOM     80  F   UNL A   1      47.958  27.304  31.375  1.00  0.00    -0.206 F 
ATOM     81  C   UNL A   1      49.145  24.806  33.715  1.00  0.00     0.006 A 
ENDBRANCH  57  74
ENDBRANCH  31  32
ENDBRANCH  24  26
ENDBRANCH  23  24
ENDBRANCH  22  23
ENDBRANCH   1  22
TORSDOF 14
ENDMDL
MODEL 2
REMARK VINA RESULT:     -10.1      3.916      6.886
REMARK SMILES C[C@@H](Sc1nc2ccccc2c(=O)n1N)C(=O)OCCOC(=O)c1ccc(-c2c3nc(c(-c4c(F)cccc4F)c4ccc([nH]4)c(-c4c(F)cccc4F)c4nc(c(-c5c(F)cccc5F)c5ccc2[nH]5)C=C4)C=C3)cc1
REMARK SMILES IDX 19 1 18 2 16 3 17 4 2 5 1 6 3 7 4 8 5 9 14 10 6 11 12 12
REMARK SMILES IDX 7 13 11 14 13 15 8 16 10 17 9 18 15 19 20 22 21 23 22 24
REMARK SMILES IDX 23 25 24 26 25 27 77 28 26 29 76 30 27 31 28 32 29 33 70 34
REMARK SMILES IDX 30 35 75 36 69 37 71 38 31 39 74 40 68 41 67 42 32 44 58 45
REMARK SMILES IDX 41 46 57 47 42 48 45 49 56 50 72 51 43 52 44 53 55 55 73 56
REMARK SMILES IDX 46 57 33 58 34 59 39 60 35 61 36 62 38 63 40 64 37 65 59 66
REMARK SMILES IDX 60 67 65 68 61 69 62 70 64 71 66 72 63 73 47 74 48 75 53 76
REMARK SMILES IDX 49 77 50 78 52 79 54 80 51 81
REMARK H PARENT 15 20 15 21 71 43 45 54
REMARK Flexibility Score: inf
ROOT
ATOM      1  C   UNL A   1      31.400  31.909  26.441  1.00  0.00     0.274 C 
ENDROOT
BRANCH   1   2
ATOM      2  O   UNL A   1      31.952  30.917  27.328  1.00  0.00    -0.461 OA
BRANCH   2   3
ATOM      3  C   UNL A   1      32.899  30.095  26.800  1.00  0.00     0.319 C 
ATOM      4  O   UNL A   1      34.033  30.457  26.501  1.00  0.00    -0.251 OA
BRANCH   3   5
ATOM      5  C   UNL A   1      32.411  28.659  26.615  1.00  0.00     0.161 C 
ATOM      6  C   UNL A   1      31.403  28.187  27.653  1.00  0.00     0.032 C 
BRANCH   5   7
ATOM      7  S   UNL A   1      31.768  28.509  24.913  1.00  0.00    -0.071 SA
BRANCH   7   8
ATOM      8  C   UNL A   1      32.692  27.136  24.347  1.00  0.00     0.191 A 
ATOM      9  N   UNL A   1      33.183  26.352  25.251  1.00  0.00    -0.222 NA
ATOM     10  N   UNL A   1      32.811  26.907  22.976  1.00  0.00    -0.202 N 
ATOM     11  C   UNL A   1      33.859  25.198  24.834  1.00  0.00     0.079 A 
ATOM     12  C   UNL A   1      33.475  25.785  22.479  1.00  0.00     0.280 A 
ATOM     13  C   UNL A   1      34.357  24.328  25.806  1.00  0.00     0.029 A 
ATOM     14  C   UNL A   1      34.028  24.865  23.489  1.00  0.00     0.068 A 
ATOM     15  O   UNL A   1      33.593  25.546  21.277  1.00  0.00    -0.267 OA
ATOM     16  C   UNL A   1      35.006  23.145  25.439  1.00  0.00     0.002 A 
ATOM     17  C   UNL A   1      34.680  23.686  23.110  1.00  0.00     0.016 A 
ATOM     18  C   UNL A   1      35.166  22.824  24.092  1.00  0.00     0.001 A 
BRANCH  10  19
ATOM     19  N   UNL A   1      32.254  27.802  22.001  1.00  0.00    -0.334 N 
ATOM     20  H   UNL A   1      32.780  28.570  21.681  1.00  0.00     0.178 HD
ATOM     21  H   UNL A   1      31.346  27.649  21.653  1.00  0.00     0.178 HD
ENDBRANCH  10  19
ENDBRANCH   7   8
ENDBRANCH   5   7
ENDBRANCH   3   5
ENDBRANCH   2   3
ENDBRANCH   1   2
BRANCH   1  22
ATOM     22  C   UNL A   1      32.000  33.298  26.688  1.00  0.00     0.275 C 
BRANCH  22  23
ATOM     23  O   UNL A   1      32.169  33.580  28.090  1.00  0.00    -0.458 OA
BRANCH  23  24
ATOM     24  C   UNL A   1      33.186  34.425  28.382  1.00  0.00     0.338 C 
ATOM     25  O   UNL A   1      33.134  35.642  28.453  1.00  0.00    -0.246 OA
BRANCH  24  26
ATOM     26  C   UNL A   1      34.391  33.668  28.756  1.00  0.00     0.060 A 
ATOM     27  C   UNL A   1      34.208  32.415  29.347  1.00  0.00     0.016 A 
ATOM     28  C   UNL A   1      35.671  34.211  28.627  1.00  0.00     0.016 A 
ATOM     29  C   UNL A   1      35.298  31.703  29.831  1.00  0.00     0.010 A 
ATOM     30  C   UNL A   1      36.768  33.495  29.117  1.00  0.00     0.010 A 
ATOM     31  C   UNL A   1      36.584  32.247  29.738  1.00  0.00    -0.014 A 
BRANCH  31  32
ATOM     32  C   UNL A   1      37.714  31.526  30.367  1.00  0.00     0.031 A 
ATOM     33  C   UNL A   1      38.039  31.769  31.811  1.00  0.00     0.074 A 
ATOM     34  C   UNL A   1      38.406  30.616  29.659  1.00  0.00     0.049 A 
ATOM     35  N   UNL A   1      38.997  31.257  32.542  1.00  0.00    -0.248 NA
ATOM     36  C   UNL A   1      37.168  32.709  32.532  1.00  0.00     0.031 C 
ATOM     37  C   UNL A   1      38.147  30.257  28.265  1.00  0.00     0.029 A 
ATOM     38  N   UNL A   1      39.462  29.820  30.022  1.00  0.00    -0.354 N 
ATOM     39  C   UNL A   1      38.855  31.823  33.802  1.00  0.00     0.074 A 
ATOM     40  C   UNL A   1      37.728  32.730  33.734  1.00  0.00     0.031 C 
ATOM     41  C   UNL A   1      39.018  29.303  27.892  1.00  0.00     0.029 A 
ATOM     42  C   UNL A   1      39.915  29.014  29.008  1.00  0.00     0.049 A 
ATOM     43  H   UNL A   1      39.857  29.827  30.924  1.00  0.00     0.167 HD
ATOM     44  C   UNL A   1      39.594  31.602  34.914  1.00  0.00     0.037 A 
ATOM     45  C   UNL A   1      40.949  28.153  28.980  1.00  0.00     0.037 A 
ATOM     46  C   UNL A   1      40.704  30.689  34.985  1.00  0.00     0.049 A 
ATOM     47  C   UNL A   1      41.789  27.969  30.213  1.00  0.00     0.074 A 
ATOM     48  C   UNL A   1      41.513  30.394  36.069  1.00  0.00     0.029 A 
ATOM     49  N   UNL A   1      41.162  29.922  33.924  1.00  0.00    -0.354 N 
ATOM     50  N   UNL A   1      41.652  28.517  31.395  1.00  0.00    -0.248 NA
ATOM     51  C   UNL A   1      42.930  27.048  30.104  1.00  0.00     0.031 C 
ATOM     52  C   UNL A   1      42.480  29.471  35.654  1.00  0.00     0.029 A 
ATOM     53  C   UNL A   1      42.250  29.165  34.322  1.00  0.00     0.049 A 
ATOM     54  H   UNL A   1      40.769  29.916  33.021  1.00  0.00     0.167 HD
ATOM     55  C   UNL A   1      42.675  27.995  32.177  1.00  0.00     0.074 A 
ATOM     56  C   UNL A   1      43.416  27.078  31.337  1.00  0.00     0.031 C 
ATOM     57  C   UNL A   1      42.973  28.254  33.473  1.00  0.00     0.037 A 
BRANCH  44  58
ATOM     58  C   UNL A   1      39.239  32.388  36.140  1.00  0.00     0.057 A 
ATOM     59  C   UNL A   1      39.778  33.657  36.388  1.00  0.00     0.134 A 
ATOM     60  C   UNL A   1      38.331  31.876  37.075  1.00  0.00     0.134 A 
ATOM     61  F   UNL A   1      40.666  34.196  35.539  1.00  0.00    -0.206 F 
ATOM     62  C   UNL A   1      39.441  34.381  37.533  1.00  0.00     0.040 A 
ATOM     63  C   UNL A   1      37.971  32.598  38.213  1.00  0.00     0.040 A 
ATOM     64  F   UNL A   1      37.777  30.668  36.895  1.00  0.00    -0.206 F 
ATOM     65  C   UNL A   1      38.531  33.853  38.447  1.00  0.00     0.006 A 
ENDBRANCH  44  58
BRANCH  45  66
ATOM     66  C   UNL A   1      41.256  27.407  27.736  1.00  0.00     0.057 A 
ATOM     67  C   UNL A   1      40.749  26.121  27.519  1.00  0.00     0.134 A 
ATOM     68  C   UNL A   1      42.071  27.958  26.739  1.00  0.00     0.134 A 
ATOM     69  F   UNL A   1      39.982  25.533  28.449  1.00  0.00    -0.206 F 
ATOM     70  C   UNL A   1      41.049  25.404  26.360  1.00  0.00     0.040 A 
ATOM     71  C   UNL A   1      42.360  27.262  25.566  1.00  0.00     0.040 A 
ATOM     72  F   UNL A   1      42.587  29.186  26.889  1.00  0.00    -0.206 F 
ATOM     73  C   UNL A   1      41.853  25.978  25.376  1.00  0.00     0.006 A 
ENDBRANCH  45  66
BRANCH  57  74
ATOM     74  C   UNL A   1      44.134  27.513  34.065  1.00  0.00     0.057 A 
ATOM     75  C   UNL A   1      45.428  28.047  34.057  1.00  0.00     0.134 A 
ATOM     76  C   UNL A   1      43.949  26.266  34.672  1.00  0.00     0.134 A 
ATOM     77  F   UNL A   1      45.672  29.232  33.477  1.00  0.00    -0.206 F 
ATOM     78  C   UNL A   1      46.504  27.354  34.615  1.00  0.00     0.040 A 
ATOM     79  C   UNL A   1      45.013  25.573  35.251  1.00  0.00     0.040 A 
ATOM     80  F   UNL A   1      42.731  25.704  34.717  1.00  0.00    -0.206 F 
ATOM     81  C   UNL A   1      46.296  26.115  35.219  1.00  0.00     0.006 A 
ENDBRANCH  57  74
ENDBRANCH  31  32
ENDBRANCH  24  26
ENDBRANCH  23  24
ENDBRANCH  22  23
ENDBRANCH   1  22
TORSDOF 14
ENDMDL
MODEL 3
REMARK VINA RESULT:     -10.1      4.234      6.984
REMARK SMILES C[C@@H](Sc1nc2ccccc2c(=O)n1N)C(=O)OCCOC(=O)c1ccc(-c2c3nc(c(-c4c(F)cccc4F)c4ccc([nH]4)c(-c4c(F)cccc4F)c4nc(c(-c5c(F)cccc5F)c5ccc2[nH]5)C=C4)C=C3)cc1
REMARK SMILES IDX 19 1 18 2 16 3 17 4 2 5 1 6 3 7 4 8 5 9 14 10 6 11 12 12
REMARK SMILES IDX 7 13 11 14 13 15 8 16 10 17 9 18 15 19 20 22 21 23 22 24
REMARK SMILES IDX 23 25 24 26 25 27 77 28 26 29 76 30 27 31 28 32 29 33 70 34
REMARK SMILES IDX 30 35 75 36 69 37 71 38 31 39 74 40 68 41 67 42 32 44 58 45
REMARK SMILES IDX 41 46 57 47 42 48 45 49 56 50 72 51 43 52 44 53 55 55 73 56
REMARK SMILES IDX 46 57 33 58 34 59 39 60 35 61 36 62 38 63 40 64 37 65 59 66
REMARK SMILES IDX 60 67 65 68 61 69 62 70 64 71 66 72 63 73 47 74 48 75 53 76
REMARK SMILES IDX 49 77 50 78 52 79 54 80 51 81
REMARK H PARENT 15 20 15 21 71 43 45 54
REMARK Flexibility Score: inf
ROOT
ATOM      1  C   UNL A   1      31.552  30.939  26.348  1.00  0.00     0.274 C 
ENDROOT
BRANCH   1   2
ATOM      2  O   UNL A   1      31.742  30.013  27.435  1.00  0.00    -0.461 OA
BRANCH   2   3
ATOM      3  C   UNL A   1      32.047  28.732  27.091  1.00  0.00     0.319 C 
ATOM      4  O   UNL A   1      31.467  27.745  27.531  1.00  0.00    -0.251 OA
BRANCH   3   5
ATOM      5  C   UNL A   1      33.197  28.639  26.089  1.00  0.00     0.161 C 
ATOM      6  C   UNL A   1      34.584  28.559  26.712  1.00  0.00     0.032 C 
BRANCH   5   7
ATOM      7  S   UNL A   1      32.856  27.225  24.985  1.00  0.00    -0.071 SA
BRANCH   7   8
ATOM      8  C   UNL A   1      31.321  27.719  24.306  1.00  0.00     0.191 A 
ATOM      9  N   UNL A   1      31.323  28.791  23.583  1.00  0.00    -0.222 NA
ATOM     10  N   UNL A   1      30.193  26.927  24.514  1.00  0.00    -0.202 N 
ATOM     11  C   UNL A   1      30.128  29.171  22.956  1.00  0.00     0.079 A 
ATOM     12  C   UNL A   1      28.964  27.241  23.932  1.00  0.00     0.280 A 
ATOM     13  C   UNL A   1      30.134  30.306  22.142  1.00  0.00     0.029 A 
ATOM     14  C   UNL A   1      28.942  28.447  23.087  1.00  0.00     0.068 A 
ATOM     15  O   UNL A   1      27.949  26.560  24.086  1.00  0.00    -0.267 OA
ATOM     16  C   UNL A   1      28.976  30.704  21.467  1.00  0.00     0.002 A 
ATOM     17  C   UNL A   1      27.776  28.838  22.418  1.00  0.00     0.016 A 
ATOM     18  C   UNL A   1      27.799  29.970  21.604  1.00  0.00     0.001 A 
BRANCH  10  19
ATOM     19  N   UNL A   1      30.229  25.744  25.328  1.00  0.00    -0.334 N 
ATOM     20  H   UNL A   1      29.539  25.597  26.014  1.00  0.00     0.178 HD
ATOM     21  H   UNL A   1      30.945  25.080  25.199  1.00  0.00     0.178 HD
ENDBRANCH  10  19
ENDBRANCH   7   8
ENDBRANCH   5   7
ENDBRANCH   3   5
ENDBRANCH   2   3
ENDBRANCH   1   2
BRANCH   1  22
ATOM     22  C   UNL A   1      31.452  32.388  26.838  1.00  0.00     0.275 C 
BRANCH  22  23
ATOM     23  O   UNL A   1      32.691  33.106  26.680  1.00  0.00    -0.458 OA
BRANCH  23  24
ATOM     24  C   UNL A   1      33.157  33.691  27.808  1.00  0.00     0.338 C 
ATOM     25  O   UNL A   1      32.605  34.550  28.474  1.00  0.00    -0.246 OA
BRANCH  24  26
ATOM     26  C   UNL A   1      34.408  33.047  28.240  1.00  0.00     0.060 A 
ATOM     27  C   UNL A   1      34.333  31.722  28.677  1.00  0.00     0.016 A 
ATOM     28  C   UNL A   1      35.611  33.751  28.315  1.00  0.00     0.016 A 
ATOM     29  C   UNL A   1      35.453  31.096  29.210  1.00  0.00     0.010 A 
ATOM     30  C   UNL A   1      36.738  33.122  28.854  1.00  0.00     0.010 A 
ATOM     31  C   UNL A   1      36.659  31.797  29.321  1.00  0.00    -0.014 A 
BRANCH  31  32
ATOM     32  C   UNL A   1      37.805  31.151  30.000  1.00  0.00     0.031 A 
ATOM     33  C   UNL A   1      38.063  31.431  31.451  1.00  0.00     0.074 A 
ATOM     34  C   UNL A   1      38.573  30.273  29.331  1.00  0.00     0.049 A 
ATOM     35  N   UNL A   1      39.021  30.985  32.223  1.00  0.00    -0.248 NA
ATOM     36  C   UNL A   1      37.114  32.329  32.127  1.00  0.00     0.031 C 
ATOM     37  C   UNL A   1      38.385  29.882  27.934  1.00  0.00     0.029 A 
ATOM     38  N   UNL A   1      39.658  29.544  29.743  1.00  0.00    -0.354 N 
ATOM     39  C   UNL A   1      38.802  31.557  33.468  1.00  0.00     0.074 A 
ATOM     40  C   UNL A   1      37.628  32.398  33.347  1.00  0.00     0.031 C 
ATOM     41  C   UNL A   1      39.322  28.975  27.607  1.00  0.00     0.029 A 
ATOM     42  C   UNL A   1      40.193  28.753  28.758  1.00  0.00     0.049 A 
ATOM     43  H   UNL A   1      40.019  29.585  30.658  1.00  0.00     0.167 HD
ATOM     44  C   UNL A   1      39.511  31.395  34.609  1.00  0.00     0.037 A 
ATOM     45  C   UNL A   1      41.275  27.952  28.779  1.00  0.00     0.037 A 
ATOM     46  C   UNL A   1      40.668  30.548  34.733  1.00  0.00     0.049 A 
ATOM     47  C   UNL A   1      42.079  27.832  30.044  1.00  0.00     0.074 A 
ATOM     48  C   UNL A   1      41.453  30.313  35.849  1.00  0.00     0.029 A 
ATOM     49  N   UNL A   1      41.207  29.795  33.700  1.00  0.00    -0.354 N 
ATOM     50  N   UNL A   1      41.868  28.388  31.212  1.00  0.00    -0.248 NA
ATOM     51  C   UNL A   1      43.273  26.978  29.989  1.00  0.00     0.031 C 
ATOM     52  C   UNL A   1      42.486  29.442  35.483  1.00  0.00     0.029 A 
ATOM     53  C   UNL A   1      42.322  29.107  34.149  1.00  0.00     0.049 A 
ATOM     54  H   UNL A   1      40.848  29.754  32.785  1.00  0.00     0.167 HD
ATOM     55  C   UNL A   1      42.890  27.936  32.037  1.00  0.00     0.074 A 
ATOM     56  C   UNL A   1      43.712  27.051  31.238  1.00  0.00     0.031 C 
ATOM     57  C   UNL A   1      43.126  28.228  33.339  1.00  0.00     0.037 A 
BRANCH  44  58
ATOM     58  C   UNL A   1      39.068  32.174  35.810  1.00  0.00     0.057 A 
ATOM     59  C   UNL A   1      39.466  33.500  36.019  1.00  0.00     0.134 A 
ATOM     60  C   UNL A   1      38.216  31.596  36.758  1.00  0.00     0.134 A 
ATOM     61  F   UNL A   1      40.295  34.107  35.156  1.00  0.00    -0.206 F 
ATOM     62  C   UNL A   1      39.047  34.219  37.141  1.00  0.00     0.040 A 
ATOM     63  C   UNL A   1      37.774  32.310  37.874  1.00  0.00     0.040 A 
ATOM     64  F   UNL A   1      37.796  30.330  36.615  1.00  0.00    -0.206 F 
ATOM     65  C   UNL A   1      38.195  33.624  38.070  1.00  0.00     0.006 A 
ENDBRANCH  44  58
BRANCH  45  66
ATOM     66  C   UNL A   1      41.669  27.209  27.558  1.00  0.00     0.057 A 
ATOM     67  C   UNL A   1      41.279  25.879  27.363  1.00  0.00     0.134 A 
ATOM     68  C   UNL A   1      42.452  27.807  26.563  1.00  0.00     0.134 A 
ATOM     69  F   UNL A   1      40.547  25.247  28.292  1.00  0.00    -0.206 F 
ATOM     70  C   UNL A   1      41.661  25.167  26.225  1.00  0.00     0.040 A 
ATOM     71  C   UNL A   1      42.823  27.113  25.412  1.00  0.00     0.040 A 
ATOM     72  F   UNL A   1      42.858  29.078  26.694  1.00  0.00    -0.206 F 
ATOM     73  C   UNL A   1      42.432  25.787  25.243  1.00  0.00     0.006 A 
ENDBRANCH  45  66
BRANCH  57  74
ATOM     74  C   UNL A   1      44.305  27.563  33.983  1.00  0.00     0.057 A 
ATOM     75  C   UNL A   1      44.200  26.302  34.584  1.00  0.00     0.134 A 
ATOM     76  C   UNL A   1      45.562  28.178  33.979  1.00  0.00     0.134 A 
ATOM     77  F   UNL A   1      43.019  25.668  34.632  1.00  0.00    -0.206 F 
ATOM     78  C   UNL A   1      45.303  25.685  35.176  1.00  0.00     0.040 A 
ATOM     79  C   UNL A   1      46.676  27.563  34.551  1.00  0.00     0.040 A 
ATOM     80  F   UNL A   1      45.728  29.384  33.415  1.00  0.00    -0.206 F 
ATOM     81  C   UNL A   1      46.547  26.315  35.157  1.00  0.00     0.006 A 
ENDBRANCH  57  74
ENDBRANCH  31  32
ENDBRANCH  24  26
ENDBRANCH  23  24
ENDBRANCH  22  23
ENDBRANCH   1  22
TORSDOF 14
ENDMDL
