MODEL 1
REMARK VINA RESULT:     -11.3      0.000      0.000
REMARK SMILES Cc1nc2cc(C(=O)OCCOC(=O)c3ccc(-c4c5nc(c(-c6c(F)cccc6F)c6ccc([nH]6)c(-c6c(F)cccc6F)c6nc(c(-c7c(F)cccc7F)c7ccc4[nH]7)C=C6)C=C5)cc3)ccc2n1CCC[NH+]1CCOCC1
REMARK SMILES IDX 10 1 9 2 7 3 8 4 6 5 1 6 2 7 3 8 72 9 4 10 71 11 5 12 70 13
REMARK SMILES IDX 69 14 73 15 74 16 75 17 76 18 77 19 81 20 78 22 80 23 79 24
REMARK SMILES IDX 11 25 12 26 13 27 14 28 15 29 16 30 68 31 17 32 67 33 18 34
REMARK SMILES IDX 19 35 20 36 61 37 21 38 66 39 60 40 62 41 22 42 65 43 59 44
REMARK SMILES IDX 58 45 23 47 49 48 32 49 48 50 33 51 36 52 47 53 63 54 34 55
REMARK SMILES IDX 35 56 46 58 64 59 37 60 24 61 25 62 30 63 26 64 27 65 29 66
REMARK SMILES IDX 31 67 28 68 50 69 51 70 56 71 52 72 53 73 55 74 57 75 54 76
REMARK SMILES IDX 38 77 39 78 44 79 40 80 41 81 43 82 45 83 42 84
REMARK H PARENT 76 21 62 46 36 57
REMARK Flexibility Score: inf
ROOT
ATOM      1  C   UNL A   1      42.141  19.196  26.229  1.00  0.00     0.275 C 
ENDROOT
BRANCH   1   2
ATOM      2  O   UNL A   1      41.454  20.397  25.783  1.00  0.00    -0.458 OA
BRANCH   2   3
ATOM      3  C   UNL A   1      40.879  21.151  26.754  1.00  0.00     0.338 C 
ATOM      4  O   UNL A   1      41.375  21.449  27.829  1.00  0.00    -0.246 OA
BRANCH   3   5
ATOM      5  C   UNL A   1      39.618  21.766  26.274  1.00  0.00     0.062 A 
ATOM      6  C   UNL A   1      33.981  20.821  24.659  1.00  0.00     0.088 C 
ATOM      7  C   UNL A   1      35.388  21.276  24.813  1.00  0.00     0.106 A 
ATOM      8  N   UNL A   1      36.421  20.468  24.896  1.00  0.00    -0.233 NA
ATOM      9  N   UNL A   1      35.830  22.583  24.853  1.00  0.00    -0.328 N 
ATOM     10  C   UNL A   1      37.469  21.253  25.290  1.00  0.00     0.090 A 
ATOM     11  C   UNL A   1      37.098  22.582  25.402  1.00  0.00     0.068 A 
ATOM     12  C   UNL A   1      38.775  20.891  25.608  1.00  0.00     0.046 A 
ATOM     13  C   UNL A   1      37.983  23.549  25.921  1.00  0.00     0.029 A 
ATOM     14  C   UNL A   1      39.231  23.095  26.423  1.00  0.00     0.018 A 
BRANCH   9  15
ATOM     15  C   UNL A   1      35.174  23.718  24.233  1.00  0.00     0.130 C 
BRANCH  15  16
ATOM     16  C   UNL A   1      34.399  24.576  25.251  1.00  0.00     0.083 C 
BRANCH  16  17
ATOM     17  C   UNL A   1      33.647  25.785  24.665  1.00  0.00     0.264 C 
BRANCH  17  18
ATOM     18  N   UNL A   1      33.254  25.599  23.260  1.00  0.00    -0.331 N 
ATOM     19  C   UNL A   1      33.467  26.819  22.447  1.00  0.00     0.291 C 
ATOM     20  C   UNL A   1      31.844  25.189  23.094  1.00  0.00     0.291 C 
ATOM     21  H   UNL A   1      33.860  24.848  22.931  1.00  0.00     0.348 HD
ATOM     22  C   UNL A   1      32.431  27.928  22.691  1.00  0.00     0.221 C 
ATOM     23  C   UNL A   1      30.844  26.319  23.378  1.00  0.00     0.221 C 
ATOM     24  O   UNL A   1      31.091  27.448  22.532  1.00  0.00    -0.370 OA
ENDBRANCH  17  18
ENDBRANCH  16  17
ENDBRANCH  15  16
ENDBRANCH   9  15
ENDBRANCH   3   5
ENDBRANCH   2   3
ENDBRANCH   1   2
BRANCH   1  25
ATOM     25  C   UNL A   1      43.424  18.950  25.422  1.00  0.00     0.275 C 
BRANCH  25  26
ATOM     26  O   UNL A   1      43.771  20.167  24.743  1.00  0.00    -0.458 OA
BRANCH  26  27
ATOM     27  C   UNL A   1      45.063  20.556  24.812  1.00  0.00     0.338 C 
ATOM     28  O   UNL A   1      46.040  19.967  24.375  1.00  0.00    -0.246 OA
BRANCH  27  29
ATOM     29  C   UNL A   1      45.019  21.991  25.152  1.00  0.00     0.060 A 
ATOM     30  C   UNL A   1      45.894  22.587  26.073  1.00  0.00     0.016 A 
ATOM     31  C   UNL A   1      43.888  22.665  24.731  1.00  0.00     0.016 A 
ATOM     32  C   UNL A   1      45.513  23.756  26.748  1.00  0.00     0.010 A 
ATOM     33  C   UNL A   1      43.553  23.838  25.381  1.00  0.00     0.010 A 
ATOM     34  C   UNL A   1      44.266  24.321  26.495  1.00  0.00    -0.014 A 
BRANCH  34  35
ATOM     35  C   UNL A   1      43.766  25.542  27.178  1.00  0.00     0.031 A 
ATOM     36  C   UNL A   1      44.657  26.674  26.835  1.00  0.00     0.074 A 
ATOM     37  C   UNL A   1      42.617  25.805  27.860  1.00  0.00     0.049 A 
ATOM     38  N   UNL A   1      45.763  26.972  27.435  1.00  0.00    -0.248 NA
ATOM     39  C   UNL A   1      44.487  27.334  25.526  1.00  0.00     0.031 C 
ATOM     40  C   UNL A   1      41.427  24.970  28.039  1.00  0.00     0.029 A 
ATOM     41  N   UNL A   1      42.243  26.969  28.509  1.00  0.00    -0.354 N 
ATOM     42  C   UNL A   1      46.274  28.029  26.698  1.00  0.00     0.074 A 
ATOM     43  C   UNL A   1      45.685  27.910  25.399  1.00  0.00     0.031 C 
ATOM     44  C   UNL A   1      40.408  25.709  28.554  1.00  0.00     0.029 A 
ATOM     45  C   UNL A   1      40.894  27.040  28.891  1.00  0.00     0.049 A 
ATOM     46  H   UNL A   1      42.879  27.699  28.691  1.00  0.00     0.167 HD
ATOM     47  C   UNL A   1      46.737  29.144  27.326  1.00  0.00     0.037 A 
ATOM     48  C   UNL A   1      40.237  28.104  29.445  1.00  0.00     0.037 A 
ATOM     49  C   UNL A   1      46.835  28.900  28.751  1.00  0.00     0.049 A 
ATOM     50  C   UNL A   1      41.264  28.999  30.016  1.00  0.00     0.074 A 
ATOM     51  C   UNL A   1      47.542  28.065  29.590  1.00  0.00     0.029 A 
ATOM     52  N   UNL A   1      45.746  29.343  29.452  1.00  0.00    -0.354 N 
ATOM     53  N   UNL A   1      41.932  28.743  31.101  1.00  0.00    -0.248 NA
ATOM     54  C   UNL A   1      41.778  30.097  29.209  1.00  0.00     0.031 C 
ATOM     55  C   UNL A   1      46.719  27.870  30.741  1.00  0.00     0.029 A 
ATOM     56  C   UNL A   1      45.561  28.632  30.600  1.00  0.00     0.049 A 
ATOM     57  H   UNL A   1      45.167  30.086  29.162  1.00  0.00     0.167 HD
ATOM     58  C   UNL A   1      43.178  29.280  30.857  1.00  0.00     0.074 A 
ATOM     59  C   UNL A   1      42.967  30.256  29.794  1.00  0.00     0.031 C 
ATOM     60  C   UNL A   1      44.292  28.624  31.292  1.00  0.00     0.037 A 
BRANCH  47  61
ATOM     61  C   UNL A   1      46.558  30.571  26.809  1.00  0.00     0.057 A 
ATOM     62  C   UNL A   1      45.335  31.248  26.605  1.00  0.00     0.134 A 
ATOM     63  C   UNL A   1      47.689  31.412  26.818  1.00  0.00     0.134 A 
ATOM     64  F   UNL A   1      44.145  30.645  26.572  1.00  0.00    -0.206 F 
ATOM     65  C   UNL A   1      45.238  32.638  26.502  1.00  0.00     0.040 A 
ATOM     66  C   UNL A   1      47.597  32.808  26.757  1.00  0.00     0.040 A 
ATOM     67  F   UNL A   1      48.921  30.906  26.978  1.00  0.00    -0.206 F 
ATOM     68  C   UNL A   1      46.364  33.429  26.617  1.00  0.00     0.006 A 
ENDBRANCH  47  61
BRANCH  48  69
ATOM     69  C   UNL A   1      38.812  28.547  29.495  1.00  0.00     0.057 A 
ATOM     70  C   UNL A   1      38.235  29.267  28.441  1.00  0.00     0.134 A 
ATOM     71  C   UNL A   1      38.085  28.568  30.708  1.00  0.00     0.134 A 
ATOM     72  F   UNL A   1      38.859  29.367  27.259  1.00  0.00    -0.206 F 
ATOM     73  C   UNL A   1      37.045  30.000  28.592  1.00  0.00     0.040 A 
ATOM     74  C   UNL A   1      36.899  29.300  30.873  1.00  0.00     0.040 A 
ATOM     75  F   UNL A   1      38.548  27.938  31.798  1.00  0.00    -0.206 F 
ATOM     76  C   UNL A   1      36.383  30.036  29.815  1.00  0.00     0.006 A 
ENDBRANCH  48  69
BRANCH  60  77
ATOM     77  C   UNL A   1      44.139  27.719  32.477  1.00  0.00     0.057 A 
ATOM     78  C   UNL A   1      44.234  28.300  33.748  1.00  0.00     0.134 A 
ATOM     79  C   UNL A   1      43.965  26.329  32.423  1.00  0.00     0.134 A 
ATOM     80  F   UNL A   1      44.432  29.622  33.874  1.00  0.00    -0.206 F 
ATOM     81  C   UNL A   1      44.158  27.541  34.915  1.00  0.00     0.040 A 
ATOM     82  C   UNL A   1      43.843  25.563  33.587  1.00  0.00     0.040 A 
ATOM     83  F   UNL A   1      43.940  25.671  31.255  1.00  0.00    -0.206 F 
ATOM     84  C   UNL A   1      43.948  26.169  34.836  1.00  0.00     0.006 A 
ENDBRANCH  60  77
ENDBRANCH  34  35
ENDBRANCH  27  29
ENDBRANCH  26  27
ENDBRANCH  25  26
ENDBRANCH   1  25
TORSDOF 15
ENDMDL
MODEL 2
REMARK VINA RESULT:     -11.1      0.992      1.737
REMARK SMILES Cc1nc2cc(C(=O)OCCOC(=O)c3ccc(-c4c5nc(c(-c6c(F)cccc6F)c6ccc([nH]6)c(-c6c(F)cccc6F)c6nc(c(-c7c(F)cccc7F)c7ccc4[nH]7)C=C6)C=C5)cc3)ccc2n1CCC[NH+]1CCOCC1
REMARK SMILES IDX 10 1 9 2 7 3 8 4 6 5 1 6 2 7 3 8 72 9 4 10 71 11 5 12 70 13
REMARK SMILES IDX 69 14 73 15 74 16 75 17 76 18 77 19 81 20 78 22 80 23 79 24
REMARK SMILES IDX 11 25 12 26 13 27 14 28 15 29 16 30 68 31 17 32 67 33 18 34
REMARK SMILES IDX 19 35 20 36 61 37 21 38 66 39 60 40 62 41 22 42 65 43 59 44
REMARK SMILES IDX 58 45 23 47 49 48 32 49 48 50 33 51 36 52 47 53 63 54 34 55
REMARK SMILES IDX 35 56 46 58 64 59 37 60 24 61 25 62 30 63 26 64 27 65 29 66
REMARK SMILES IDX 31 67 28 68 50 69 51 70 56 71 52 72 53 73 55 74 57 75 54 76
REMARK SMILES IDX 38 77 39 78 44 79 40 80 41 81 43 82 45 83 42 84
REMARK H PARENT 76 21 62 46 36 57
REMARK Flexibility Score: inf
ROOT
ATOM      1  C   UNL A   1      41.643  19.487  26.566  1.00  0.00     0.275 C 
ENDROOT
BRANCH   1   2
ATOM      2  O   UNL A   1      41.010  20.672  26.010  1.00  0.00    -0.458 OA
BRANCH   2   3
ATOM      3  C   UNL A   1      40.506  21.556  26.907  1.00  0.00     0.338 C 
ATOM      4  O   UNL A   1      41.051  21.942  27.930  1.00  0.00    -0.246 OA
BRANCH   3   5
ATOM      5  C   UNL A   1      39.263  22.183  26.397  1.00  0.00     0.062 A 
ATOM      6  C   UNL A   1      33.718  21.269  24.478  1.00  0.00     0.088 C 
ATOM      7  C   UNL A   1      35.111  21.727  24.718  1.00  0.00     0.106 A 
ATOM      8  N   UNL A   1      36.147  20.924  24.813  1.00  0.00    -0.233 NA
ATOM      9  N   UNL A   1      35.538  23.034  24.838  1.00  0.00    -0.328 N 
ATOM     10  C   UNL A   1      37.168  21.699  25.291  1.00  0.00     0.090 A 
ATOM     11  C   UNL A   1      36.779  23.019  25.445  1.00  0.00     0.068 A 
ATOM     12  C   UNL A   1      38.461  21.332  25.653  1.00  0.00     0.046 A 
ATOM     13  C   UNL A   1      37.630  23.967  26.047  1.00  0.00     0.029 A 
ATOM     14  C   UNL A   1      38.856  23.501  26.587  1.00  0.00     0.018 A 
BRANCH   9  15
ATOM     15  C   UNL A   1      34.900  24.191  24.239  1.00  0.00     0.130 C 
BRANCH  15  16
ATOM     16  C   UNL A   1      33.867  24.844  25.178  1.00  0.00     0.083 C 
BRANCH  16  17
ATOM     17  C   UNL A   1      34.103  26.331  25.495  1.00  0.00     0.264 C 
BRANCH  17  18
ATOM     18  N   UNL A   1      32.926  26.996  26.075  1.00  0.00    -0.331 N 
ATOM     19  C   UNL A   1      32.017  27.540  25.039  1.00  0.00     0.291 C 
ATOM     20  C   UNL A   1      33.268  28.099  26.997  1.00  0.00     0.291 C 
ATOM     21  H   UNL A   1      32.458  26.256  26.598  1.00  0.00     0.348 HD
ATOM     22  C   UNL A   1      32.528  28.822  24.362  1.00  0.00     0.221 C 
ATOM     23  C   UNL A   1      33.804  29.347  26.280  1.00  0.00     0.221 C 
ATOM     24  O   UNL A   1      32.858  29.834  25.321  1.00  0.00    -0.370 OA
ENDBRANCH  17  18
ENDBRANCH  16  17
ENDBRANCH  15  16
ENDBRANCH   9  15
ENDBRANCH   3   5
ENDBRANCH   2   3
ENDBRANCH   1   2
BRANCH   1  25
ATOM     25  C   UNL A   1      42.975  19.180  25.868  1.00  0.00     0.275 C 
BRANCH  25  26
ATOM     26  O   UNL A   1      43.314  20.297  25.031  1.00  0.00    -0.458 OA
BRANCH  26  27
ATOM     27  C   UNL A   1      44.625  20.614  24.939  1.00  0.00     0.338 C 
ATOM     28  O   UNL A   1      45.510  19.964  24.403  1.00  0.00    -0.246 OA
BRANCH  27  29
ATOM     29  C   UNL A   1      44.699  22.054  25.251  1.00  0.00     0.060 A 
ATOM     30  C   UNL A   1      45.640  22.597  26.140  1.00  0.00     0.016 A 
ATOM     31  C   UNL A   1      43.615  22.805  24.842  1.00  0.00     0.016 A 
ATOM     32  C   UNL A   1      45.365  23.804  26.800  1.00  0.00     0.010 A 
ATOM     33  C   UNL A   1      43.385  24.013  25.475  1.00  0.00     0.010 A 
ATOM     34  C   UNL A   1      44.160  24.460  26.563  1.00  0.00    -0.014 A 
BRANCH  34  35
ATOM     35  C   UNL A   1      43.771  25.727  27.232  1.00  0.00     0.031 A 
ATOM     36  C   UNL A   1      44.769  26.767  26.891  1.00  0.00     0.074 A 
ATOM     37  C   UNL A   1      42.647  26.104  27.901  1.00  0.00     0.049 A 
ATOM     38  N   UNL A   1      45.893  26.963  27.501  1.00  0.00    -0.248 NA
ATOM     39  C   UNL A   1      44.676  27.430  25.576  1.00  0.00     0.031 C 
ATOM     40  C   UNL A   1      41.381  25.387  28.073  1.00  0.00     0.029 A 
ATOM     41  N   UNL A   1      42.378  27.304  28.538  1.00  0.00    -0.354 N 
ATOM     42  C   UNL A   1      46.509  27.961  26.762  1.00  0.00     0.074 A 
ATOM     43  C   UNL A   1      45.924  27.888  25.457  1.00  0.00     0.031 C 
ATOM     44  C   UNL A   1      40.432  26.224  28.571  1.00  0.00     0.029 A 
ATOM     45  C   UNL A   1      41.039  27.505  28.904  1.00  0.00     0.049 A 
ATOM     46  H   UNL A   1      43.079  27.970  28.721  1.00  0.00     0.167 HD
ATOM     47  C   UNL A   1      47.070  29.032  27.387  1.00  0.00     0.037 A 
ATOM     48  C   UNL A   1      40.480  28.631  29.445  1.00  0.00     0.037 A 
ATOM     49  C   UNL A   1      47.131  28.790  28.814  1.00  0.00     0.049 A 
ATOM     50  C   UNL A   1      41.583  29.429  30.020  1.00  0.00     0.074 A 
ATOM     51  C   UNL A   1      47.747  27.899  29.666  1.00  0.00     0.029 A 
ATOM     52  N   UNL A   1      46.082  29.341  29.501  1.00  0.00    -0.354 N 
ATOM     53  N   UNL A   1      42.212  29.119  31.114  1.00  0.00    -0.248 NA
ATOM     54  C   UNL A   1      42.206  30.467  29.210  1.00  0.00     0.031 C 
ATOM     55  C   UNL A   1      46.898  27.793  30.810  1.00  0.00     0.029 A 
ATOM     56  C   UNL A   1      45.819  28.659  30.651  1.00  0.00     0.049 A 
ATOM     57  H   UNL A   1      45.579  30.133  29.200  1.00  0.00     0.167 HD
ATOM     58  C   UNL A   1      43.506  29.533  30.879  1.00  0.00     0.074 A 
ATOM     59  C   UNL A   1      43.399  30.517  29.807  1.00  0.00     0.031 C 
ATOM     60  C   UNL A   1      44.548  28.778  31.330  1.00  0.00     0.037 A 
BRANCH  47  61
ATOM     61  C   UNL A   1      47.033  30.465  26.858  1.00  0.00     0.057 A 
ATOM     62  C   UNL A   1      45.881  31.246  26.615  1.00  0.00     0.134 A 
ATOM     63  C   UNL A   1      48.233  31.203  26.897  1.00  0.00     0.134 A 
ATOM     64  F   UNL A   1      44.644  30.749  26.549  1.00  0.00    -0.206 F 
ATOM     65  C   UNL A   1      45.910  32.638  26.503  1.00  0.00     0.040 A 
ATOM     66  C   UNL A   1      48.266  32.601  26.827  1.00  0.00     0.040 A 
ATOM     67  F   UNL A   1      49.410  30.592  27.096  1.00  0.00    -0.206 F 
ATOM     68  C   UNL A   1      47.098  33.327  26.647  1.00  0.00     0.006 A 
ENDBRANCH  47  61
BRANCH  48  69
ATOM     69  C   UNL A   1      39.103  29.208  29.476  1.00  0.00     0.057 A 
ATOM     70  C   UNL A   1      38.318  29.159  30.635  1.00  0.00     0.134 A 
ATOM     71  C   UNL A   1      38.405  29.521  28.287  1.00  0.00     0.134 A 
ATOM     72  F   UNL A   1      38.858  28.819  31.814  1.00  0.00    -0.206 F 
ATOM     73  C   UNL A   1      36.926  29.355  30.610  1.00  0.00     0.040 A 
ATOM     74  C   UNL A   1      37.015  29.712  28.249  1.00  0.00     0.040 A 
ATOM     75  F   UNL A   1      39.042  29.572  27.108  1.00  0.00    -0.206 F 
ATOM     76  C   UNL A   1      36.266  29.612  29.413  1.00  0.00     0.006 A 
ENDBRANCH  48  69
BRANCH  60  77
ATOM     77  C   UNL A   1      44.297  27.901  32.520  1.00  0.00     0.057 A 
ATOM     78  C   UNL A   1      43.992  26.556  32.276  1.00  0.00     0.134 A 
ATOM     79  C   UNL A   1      44.286  28.326  33.856  1.00  0.00     0.134 A 
ATOM     80  F   UNL A   1      43.955  26.088  31.018  1.00  0.00    -0.206 F 
ATOM     81  C   UNL A   1      43.691  25.668  33.308  1.00  0.00     0.040 A 
ATOM     82  C   UNL A   1      44.029  27.434  34.902  1.00  0.00     0.040 A 
ATOM     83  F   UNL A   1      44.488  29.610  34.185  1.00  0.00    -0.206 F 
ATOM     84  C   UNL A   1      43.723  26.104  34.628  1.00  0.00     0.006 A 
ENDBRANCH  60  77
ENDBRANCH  34  35
ENDBRANCH  27  29
ENDBRANCH  26  27
ENDBRANCH  25  26
ENDBRANCH   1  25
TORSDOF 15
ENDMDL
MODEL 3
REMARK VINA RESULT:     -11.0      1.966      5.468
REMARK SMILES Cc1nc2cc(C(=O)OCCOC(=O)c3ccc(-c4c5nc(c(-c6c(F)cccc6F)c6ccc([nH]6)c(-c6c(F)cccc6F)c6nc(c(-c7c(F)cccc7F)c7ccc4[nH]7)C=C6)C=C5)cc3)ccc2n1CCC[NH+]1CCOCC1
REMARK SMILES IDX 10 1 9 2 7 3 8 4 6 5 1 6 2 7 3 8 72 9 4 10 71 11 5 12 70 13
REMARK SMILES IDX 69 14 73 15 74 16 75 17 76 18 77 19 81 20 78 22 80 23 79 24
REMARK SMILES IDX 11 25 12 26 13 27 14 28 15 29 16 30 68 31 17 32 67 33 18 34
REMARK SMILES IDX 19 35 20 36 61 37 21 38 66 39 60 40 62 41 22 42 65 43 59 44
REMARK SMILES IDX 58 45 23 47 49 48 32 49 48 50 33 51 36 52 47 53 63 54 34 55
REMARK SMILES IDX 35 56 46 58 64 59 37 60 24 61 25 62 30 63 26 64 27 65 29 66
REMARK SMILES IDX 31 67 28 68 50 69 51 70 56 71 52 72 53 73 55 74 57 75 54 76
REMARK SMILES IDX 38 77 39 78 44 79 40 80 41 81 43 82 45 83 42 84
REMARK H PARENT 76 21 62 46 36 57
REMARK Flexibility Score: inf
ROOT
ATOM      1  C   UNL A   1      43.681  18.733  25.403  1.00  0.00     0.275 C 
ENDROOT
BRANCH   1   2
ATOM      2  O   UNL A   1      42.296  19.159  25.296  1.00  0.00    -0.458 OA
BRANCH   2   3
ATOM      3  C   UNL A   1      41.694  19.526  26.456  1.00  0.00     0.338 C 
ATOM      4  O   UNL A   1      42.137  19.373  27.583  1.00  0.00    -0.246 OA
BRANCH   3   5
ATOM      5  C   UNL A   1      40.485  20.345  26.192  1.00  0.00     0.062 A 
ATOM      6  C   UNL A   1      34.678  20.294  24.952  1.00  0.00     0.088 C 
ATOM      7  C   UNL A   1      36.136  20.563  25.051  1.00  0.00     0.106 A 
ATOM      8  N   UNL A   1      37.068  19.646  24.914  1.00  0.00    -0.233 NA
ATOM      9  N   UNL A   1      36.734  21.790  25.258  1.00  0.00    -0.328 N 
ATOM     10  C   UNL A   1      38.228  20.237  25.333  1.00  0.00     0.090 A 
ATOM     11  C   UNL A   1      38.028  21.561  25.686  1.00  0.00     0.068 A 
ATOM     12  C   UNL A   1      39.499  19.689  25.473  1.00  0.00     0.046 A 
ATOM     13  C   UNL A   1      39.057  22.327  26.270  1.00  0.00     0.029 A 
ATOM     14  C   UNL A   1      40.272  21.664  26.583  1.00  0.00     0.018 A 
BRANCH   9  15
ATOM     15  C   UNL A   1      36.178  23.076  24.885  1.00  0.00     0.130 C 
BRANCH  15  16
ATOM     16  C   UNL A   1      35.862  23.165  23.380  1.00  0.00     0.083 C 
BRANCH  16  17
ATOM     17  C   UNL A   1      34.384  23.408  23.024  1.00  0.00     0.264 C 
BRANCH  17  18
ATOM     18  N   UNL A   1      33.620  24.036  24.114  1.00  0.00    -0.331 N 
ATOM     19  C   UNL A   1      32.331  23.351  24.368  1.00  0.00     0.291 C 
ATOM     20  C   UNL A   1      33.332  25.466  23.880  1.00  0.00     0.291 C 
ATOM     21  H   UNL A   1      34.230  23.947  24.926  1.00  0.00     0.348 HD
ATOM     22  C   UNL A   1      31.248  23.635  23.314  1.00  0.00     0.221 C 
ATOM     23  C   UNL A   1      32.267  25.703  22.798  1.00  0.00     0.221 C 
ATOM     24  O   UNL A   1      31.042  25.040  23.130  1.00  0.00    -0.370 OA
ENDBRANCH  17  18
ENDBRANCH  16  17
ENDBRANCH  15  16
ENDBRANCH   9  15
ENDBRANCH   3   5
ENDBRANCH   2   3
ENDBRANCH   1   2
BRANCH   1  25
ATOM     25  C   UNL A   1      44.535  19.305  24.262  1.00  0.00     0.275 C 
BRANCH  25  26
ATOM     26  O   UNL A   1      45.148  20.520  24.720  1.00  0.00    -0.458 OA
BRANCH  26  27
ATOM     27  C   UNL A   1      44.685  21.673  24.191  1.00  0.00     0.338 C 
ATOM     28  O   UNL A   1      44.614  21.971  23.008  1.00  0.00    -0.246 OA
BRANCH  27  29
ATOM     29  C   UNL A   1      43.925  22.322  25.276  1.00  0.00     0.060 A 
ATOM     30  C   UNL A   1      43.019  23.371  25.056  1.00  0.00     0.016 A 
ATOM     31  C   UNL A   1      44.361  22.037  26.556  1.00  0.00     0.016 A 
ATOM     32  C   UNL A   1      42.735  24.281  26.085  1.00  0.00     0.010 A 
ATOM     33  C   UNL A   1      44.034  22.925  27.566  1.00  0.00     0.010 A 
ATOM     34  C   UNL A   1      43.352  24.133  27.324  1.00  0.00    -0.014 A 
BRANCH  34  35
ATOM     35  C   UNL A   1      43.133  25.059  28.465  1.00  0.00     0.031 A 
ATOM     36  C   UNL A   1      41.857  25.779  28.250  1.00  0.00     0.074 A 
ATOM     37  C   UNL A   1      43.767  25.207  29.661  1.00  0.00     0.049 A 
ATOM     38  N   UNL A   1      41.706  26.852  27.543  1.00  0.00    -0.248 NA
ATOM     39  C   UNL A   1      40.594  25.086  28.566  1.00  0.00     0.031 C 
ATOM     40  C   UNL A   1      44.826  24.392  30.261  1.00  0.00     0.029 A 
ATOM     41  N   UNL A   1      43.524  26.132  30.661  1.00  0.00    -0.354 N 
ATOM     42  C   UNL A   1      40.339  27.079  27.561  1.00  0.00     0.074 A 
ATOM     43  C   UNL A   1      39.743  25.807  27.832  1.00  0.00     0.031 C 
ATOM     44  C   UNL A   1      44.984  24.720  31.572  1.00  0.00     0.029 A 
ATOM     45  C   UNL A   1      44.151  25.872  31.889  1.00  0.00     0.049 A 
ATOM     46  H   UNL A   1      42.949  26.919  30.522  1.00  0.00     0.167 HD
ATOM     47  C   UNL A   1      39.853  28.323  27.823  1.00  0.00     0.037 A 
ATOM     48  C   UNL A   1      44.002  26.554  33.065  1.00  0.00     0.037 A 
ATOM     49  C   UNL A   1      40.934  29.288  27.797  1.00  0.00     0.049 A 
ATOM     50  C   UNL A   1      43.451  27.883  32.730  1.00  0.00     0.074 A 
ATOM     51  C   UNL A   1      41.836  29.774  26.875  1.00  0.00     0.029 A 
ATOM     52  N   UNL A   1      41.438  29.569  29.038  1.00  0.00    -0.354 N 
ATOM     53  N   UNL A   1      44.136  28.835  32.171  1.00  0.00    -0.248 NA
ATOM     54  C   UNL A   1      42.008  28.081  32.757  1.00  0.00     0.031 C 
ATOM     55  C   UNL A   1      42.990  30.168  27.619  1.00  0.00     0.029 A 
ATOM     56  C   UNL A   1      42.742  29.965  28.974  1.00  0.00     0.049 A 
ATOM     57  H   UNL A   1      40.923  29.495  29.874  1.00  0.00     0.167 HD
ATOM     58  C   UNL A   1      43.218  29.470  31.360  1.00  0.00     0.074 A 
ATOM     59  C   UNL A   1      41.916  29.106  31.907  1.00  0.00     0.031 C 
ATOM     60  C   UNL A   1      43.603  29.926  30.134  1.00  0.00     0.037 A 
BRANCH  47  61
ATOM     61  C   UNL A   1      38.597  28.610  28.645  1.00  0.00     0.057 A 
ATOM     62  C   UNL A   1      38.389  28.299  30.007  1.00  0.00     0.134 A 
ATOM     63  C   UNL A   1      37.671  29.531  28.115  1.00  0.00     0.134 A 
ATOM     64  F   UNL A   1      39.155  27.459  30.705  1.00  0.00    -0.206 F 
ATOM     65  C   UNL A   1      37.405  28.909  30.790  1.00  0.00     0.040 A 
ATOM     66  C   UNL A   1      36.709  30.177  28.901  1.00  0.00     0.040 A 
ATOM     67  F   UNL A   1      37.730  29.903  26.827  1.00  0.00    -0.206 F 
ATOM     68  C   UNL A   1      36.584  29.880  30.250  1.00  0.00     0.006 A 
ENDBRANCH  47  61
BRANCH  48  69
ATOM     69  C   UNL A   1      44.180  26.211  34.508  1.00  0.00     0.057 A 
ATOM     70  C   UNL A   1      45.449  26.182  35.100  1.00  0.00     0.134 A 
ATOM     71  C   UNL A   1      43.154  25.582  35.251  1.00  0.00     0.134 A 
ATOM     72  F   UNL A   1      46.512  26.698  34.465  1.00  0.00    -0.206 F 
ATOM     73  C   UNL A   1      45.696  25.531  36.321  1.00  0.00     0.040 A 
ATOM     74  C   UNL A   1      43.390  24.923  36.468  1.00  0.00     0.040 A 
ATOM     75  F   UNL A   1      41.901  25.520  34.777  1.00  0.00    -0.206 F 
ATOM     76  C   UNL A   1      44.671  24.880  37.000  1.00  0.00     0.006 A 
ENDBRANCH  48  69
BRANCH  60  77
ATOM     77  C   UNL A   1      45.053  30.262  29.950  1.00  0.00     0.057 A 
ATOM     78  C   UNL A   1      45.428  31.603  30.099  1.00  0.00     0.134 A 
ATOM     79  C   UNL A   1      46.057  29.356  29.582  1.00  0.00     0.134 A 
ATOM     80  F   UNL A   1      44.511  32.530  30.420  1.00  0.00    -0.206 F 
ATOM     81  C   UNL A   1      46.740  32.030  29.898  1.00  0.00     0.040 A 
ATOM     82  C   UNL A   1      47.385  29.766  29.420  1.00  0.00     0.040 A 
ATOM     83  F   UNL A   1      45.783  28.066  29.338  1.00  0.00    -0.206 F 
ATOM     84  C   UNL A   1      47.727  31.107  29.571  1.00  0.00     0.006 A 
ENDBRANCH  60  77
ENDBRANCH  34  35
ENDBRANCH  27  29
ENDBRANCH  26  27
ENDBRANCH  25  26
ENDBRANCH   1  25
TORSDOF 15
ENDMDL
