MODEL 1
REMARK VINA RESULT:      -9.9      0.000      0.000
REMARK SMILES C[C@@H]1SC[C@H](C(=O)OCCOC(=O)c2ccc(-c3c4nc(c(-c5c(F)cccc5F)c5ccc([nH]5)c(-c5c(F)cccc5F)c5nc(c(-c6c(F)cccc6F)c6ccc3[nH]6)C=C5)C=C4)cc2)N1C(=O)N(C)[C@@H](C)Cc1cccs1
REMARK SMILES IDX 8 1 6 2 7 3 5 4 1 5 2 6 3 7 68 8 4 9 69 10 70 11 71 12 72 13
REMARK SMILES IDX 73 14 74 15 75 16 76 17 77 18 80 19 78 20 79 21 9 22 10 23
REMARK SMILES IDX 11 24 12 25 13 26 14 27 15 28 67 29 16 30 66 31 17 32 18 33
REMARK SMILES IDX 19 34 60 35 20 36 65 37 59 38 61 39 21 40 64 41 58 42 57 43
REMARK SMILES IDX 22 45 48 46 31 47 47 48 32 49 35 50 46 51 62 52 33 53 34 54
REMARK SMILES IDX 45 56 63 57 36 58 23 59 24 60 29 61 25 62 26 63 28 64 30 65
REMARK SMILES IDX 27 66 49 67 50 68 55 69 51 70 52 71 54 72 56 73 53 74 37 75
REMARK SMILES IDX 38 76 43 77 39 78 40 79 42 80 44 81 41 82
REMARK H PARENT 61 44 35 55
REMARK Flexibility Score: inf
ROOT
ATOM      1  O   UNL A   1      32.043  26.865  26.811  1.00  0.00    -0.461 OA
ENDROOT
BRANCH   1   2
ATOM      2  C   UNL A   1      31.043  26.335  26.053  1.00  0.00     0.329 C 
ATOM      3  O   UNL A   1      30.067  25.744  26.511  1.00  0.00    -0.250 OA
BRANCH   2   4
ATOM      4  C   UNL A   1      31.213  26.582  24.540  1.00  0.00     0.208 C 
ATOM      5  C   UNL A   1      33.639  27.856  22.111  1.00  0.00     0.043 C 
ATOM      6  C   UNL A   1      32.441  26.984  22.475  1.00  0.00     0.143 C 
ATOM      7  S   UNL A   1      30.953  28.055  22.418  1.00  0.00    -0.134 SA
ATOM      8  N   UNL A   1      32.492  26.375  23.810  1.00  0.00    -0.298 N 
ATOM      9  C   UNL A   1      30.693  27.970  24.192  1.00  0.00     0.109 C 
BRANCH   8  10
ATOM     10  C   UNL A   1      33.345  25.443  24.346  1.00  0.00     0.321 C 
ATOM     11  O   UNL A   1      34.360  25.859  24.916  1.00  0.00    -0.248 OA
BRANCH  10  12
ATOM     12  N   UNL A   1      33.146  24.081  24.287  1.00  0.00    -0.325 N 
ATOM     13  C   UNL A   1      32.462  23.299  23.270  1.00  0.00     0.149 C 
BRANCH  12  14
ATOM     14  C   UNL A   1      33.580  23.277  25.470  1.00  0.00     0.088 C 
ATOM     15  C   UNL A   1      32.417  22.889  26.396  1.00  0.00     0.031 C 
BRANCH  14  16
ATOM     16  C   UNL A   1      34.438  22.040  25.085  1.00  0.00     0.071 C 
BRANCH  16  17
ATOM     17  C   UNL A   1      35.907  22.239  25.368  1.00  0.00     0.007 A 
ATOM     18  C   UNL A   1      36.521  23.330  25.952  1.00  0.00     0.015 A 
ATOM     19  S   UNL A   1      37.046  21.011  24.990  1.00  0.00    -0.149 S 
ATOM     20  C   UNL A   1      37.937  23.180  26.029  1.00  0.00     0.012 A 
ATOM     21  C   UNL A   1      38.356  21.975  25.513  1.00  0.00     0.065 A 
ENDBRANCH  16  17
ENDBRANCH  14  16
ENDBRANCH  12  14
ENDBRANCH  10  12
ENDBRANCH   8  10
ENDBRANCH   2   4
ENDBRANCH   1   2
BRANCH   1  22
ATOM     22  C   UNL A   1      31.686  28.061  27.534  1.00  0.00     0.274 C 
BRANCH  22  23
ATOM     23  C   UNL A   1      32.568  29.264  27.171  1.00  0.00     0.275 C 
BRANCH  23  24
ATOM     24  O   UNL A   1      33.935  29.100  27.600  1.00  0.00    -0.458 OA
BRANCH  24  25
ATOM     25  C   UNL A   1      34.552  30.238  27.987  1.00  0.00     0.338 C 
ATOM     26  O   UNL A   1      34.032  31.333  28.161  1.00  0.00    -0.246 OA
BRANCH  25  27
ATOM     27  C   UNL A   1      35.957  29.973  28.336  1.00  0.00     0.060 A 
ATOM     28  C   UNL A   1      36.915  30.074  27.321  1.00  0.00     0.016 A 
ATOM     29  C   UNL A   1      36.326  29.548  29.614  1.00  0.00     0.016 A 
ATOM     30  C   UNL A   1      38.243  29.748  27.570  1.00  0.00     0.010 A 
ATOM     31  C   UNL A   1      37.662  29.211  29.863  1.00  0.00     0.010 A 
ATOM     32  C   UNL A   1      38.622  29.297  28.839  1.00  0.00    -0.014 A 
BRANCH  32  33
ATOM     33  C   UNL A   1      40.015  28.849  29.060  1.00  0.00     0.031 A 
ATOM     34  C   UNL A   1      40.988  29.768  29.740  1.00  0.00     0.074 A 
ATOM     35  C   UNL A   1      40.393  27.613  28.690  1.00  0.00     0.049 A 
ATOM     36  N   UNL A   1      42.261  29.591  29.983  1.00  0.00    -0.248 NA
ATOM     37  C   UNL A   1      40.453  31.054  30.213  1.00  0.00     0.031 C 
ATOM     38  C   UNL A   1      39.521  26.611  28.079  1.00  0.00     0.029 A 
ATOM     39  N   UNL A   1      41.612  26.993  28.778  1.00  0.00    -0.354 N 
ATOM     40  C   UNL A   1      42.686  30.749  30.622  1.00  0.00     0.074 A 
ATOM     41  C   UNL A   1      41.538  31.625  30.719  1.00  0.00     0.031 C 
ATOM     42  C   UNL A   1      40.235  25.498  27.844  1.00  0.00     0.029 A 
ATOM     43  C   UNL A   1      41.619  25.725  28.251  1.00  0.00     0.049 A 
ATOM     44  H   UNL A   1      42.406  27.415  29.179  1.00  0.00     0.167 HD
ATOM     45  C   UNL A   1      43.921  31.050  31.087  1.00  0.00     0.037 A 
ATOM     46  C   UNL A   1      42.636  24.856  28.096  1.00  0.00     0.037 A 
ATOM     47  C   UNL A   1      45.058  30.172  30.999  1.00  0.00     0.049 A 
ATOM     48  C   UNL A   1      44.014  25.246  28.552  1.00  0.00     0.074 A 
ATOM     49  C   UNL A   1      46.348  30.381  31.454  1.00  0.00     0.029 A 
ATOM     50  N   UNL A   1      45.039  28.916  30.413  1.00  0.00    -0.354 N 
ATOM     51  N   UNL A   1      44.409  26.343  29.150  1.00  0.00    -0.248 NA
ATOM     52  C   UNL A   1      45.093  24.278  28.299  1.00  0.00     0.031 C 
ATOM     53  C   UNL A   1      47.119  29.266  31.109  1.00  0.00     0.029 A 
ATOM     54  C   UNL A   1      46.301  28.347  30.472  1.00  0.00     0.049 A 
ATOM     55  H   UNL A   1      44.246  28.491  30.013  1.00  0.00     0.167 HD
ATOM     56  C   UNL A   1      45.771  26.190  29.367  1.00  0.00     0.074 A 
ATOM     57  C   UNL A   1      46.136  24.890  28.843  1.00  0.00     0.031 C 
ATOM     58  C   UNL A   1      46.644  27.050  29.949  1.00  0.00     0.037 A 
BRANCH  45  59
ATOM     59  C   UNL A   1      44.111  32.404  31.700  1.00  0.00     0.057 A 
ATOM     60  C   UNL A   1      44.475  33.520  30.937  1.00  0.00     0.134 A 
ATOM     61  C   UNL A   1      43.912  32.595  33.073  1.00  0.00     0.134 A 
ATOM     62  F   UNL A   1      44.696  33.397  29.619  1.00  0.00    -0.206 F 
ATOM     63  C   UNL A   1      44.653  34.775  31.520  1.00  0.00     0.040 A 
ATOM     64  C   UNL A   1      44.066  33.849  33.665  1.00  0.00     0.040 A 
ATOM     65  F   UNL A   1      43.561  31.567  33.861  1.00  0.00    -0.206 F 
ATOM     66  C   UNL A   1      44.443  34.943  32.888  1.00  0.00     0.006 A 
ENDBRANCH  45  59
BRANCH  46  67
ATOM     67  C   UNL A   1      42.393  23.537  27.465  1.00  0.00     0.057 A 
ATOM     68  C   UNL A   1      42.046  22.421  28.233  1.00  0.00     0.134 A 
ATOM     69  C   UNL A   1      42.514  23.359  26.082  1.00  0.00     0.134 A 
ATOM     70  F   UNL A   1      41.940  22.525  29.566  1.00  0.00    -0.206 F 
ATOM     71  C   UNL A   1      41.836  21.170  27.650  1.00  0.00     0.040 A 
ATOM     72  C   UNL A   1      42.287  22.119  25.483  1.00  0.00     0.040 A 
ATOM     73  F   UNL A   1      42.849  24.389  25.292  1.00  0.00    -0.206 F 
ATOM     74  C   UNL A   1      41.951  21.019  26.268  1.00  0.00     0.006 A 
ENDBRANCH  46  67
BRANCH  58  75
ATOM     75  C   UNL A   1      48.066  26.596  30.076  1.00  0.00     0.057 A 
ATOM     76  C   UNL A   1      49.016  26.863  29.083  1.00  0.00     0.134 A 
ATOM     77  C   UNL A   1      48.498  25.912  31.221  1.00  0.00     0.134 A 
ATOM     78  F   UNL A   1      48.661  27.501  27.958  1.00  0.00    -0.206 F 
ATOM     79  C   UNL A   1      50.343  26.451  29.215  1.00  0.00     0.040 A 
ATOM     80  C   UNL A   1      49.825  25.514  31.374  1.00  0.00     0.040 A 
ATOM     81  F   UNL A   1      47.637  25.632  32.211  1.00  0.00    -0.206 F 
ATOM     82  C   UNL A   1      50.751  25.779  30.367  1.00  0.00     0.006 A 
ENDBRANCH  58  75
ENDBRANCH  32  33
ENDBRANCH  25  27
ENDBRANCH  24  25
ENDBRANCH  23  24
ENDBRANCH  22  23
ENDBRANCH   1  22
TORSDOF 16
ENDMDL
MODEL 2
REMARK VINA RESULT:      -9.9      3.551      4.948
REMARK SMILES C[C@@H]1SC[C@H](C(=O)OCCOC(=O)c2ccc(-c3c4nc(c(-c5c(F)cccc5F)c5ccc([nH]5)c(-c5c(F)cccc5F)c5nc(c(-c6c(F)cccc6F)c6ccc3[nH]6)C=C5)C=C4)cc2)N1C(=O)N(C)[C@@H](C)Cc1cccs1
REMARK SMILES IDX 8 1 6 2 7 3 5 4 1 5 2 6 3 7 68 8 4 9 69 10 70 11 71 12 72 13
REMARK SMILES IDX 73 14 74 15 75 16 76 17 77 18 80 19 78 20 79 21 9 22 10 23
REMARK SMILES IDX 11 24 12 25 13 26 14 27 15 28 67 29 16 30 66 31 17 32 18 33
REMARK SMILES IDX 19 34 60 35 20 36 65 37 59 38 61 39 21 40 64 41 58 42 57 43
REMARK SMILES IDX 22 45 48 46 31 47 47 48 32 49 35 50 46 51 62 52 33 53 34 54
REMARK SMILES IDX 45 56 63 57 36 58 23 59 24 60 29 61 25 62 26 63 28 64 30 65
REMARK SMILES IDX 27 66 49 67 50 68 55 69 51 70 52 71 54 72 56 73 53 74 37 75
REMARK SMILES IDX 38 76 43 77 39 78 40 79 42 80 44 81 41 82
REMARK H PARENT 61 44 35 55
REMARK Flexibility Score: inf
ROOT
ATOM      1  O   UNL A   1      31.917  30.265  26.445  1.00  0.00    -0.461 OA
ENDROOT
BRANCH   1   2
ATOM      2  C   UNL A   1      32.216  29.449  25.398  1.00  0.00     0.329 C 
ATOM      3  O   UNL A   1      33.330  29.362  24.884  1.00  0.00    -0.250 OA
BRANCH   2   4
ATOM      4  C   UNL A   1      31.029  28.585  24.925  1.00  0.00     0.208 C 
ATOM      5  C   UNL A   1      30.294  25.349  23.377  1.00  0.00     0.043 C 
ATOM      6  C   UNL A   1      29.898  26.535  24.251  1.00  0.00     0.143 C 
ATOM      7  S   UNL A   1      29.300  27.859  23.130  1.00  0.00    -0.134 SA
ATOM      8  N   UNL A   1      30.981  27.105  25.062  1.00  0.00    -0.298 N 
ATOM      9  C   UNL A   1      30.694  28.933  23.481  1.00  0.00     0.109 C 
BRANCH   8  10
ATOM     10  C   UNL A   1      31.709  26.574  26.097  1.00  0.00     0.321 C 
ATOM     11  O   UNL A   1      31.374  26.879  27.247  1.00  0.00    -0.248 OA
BRANCH  10  12
ATOM     12  N   UNL A   1      32.786  25.729  25.938  1.00  0.00    -0.325 N 
ATOM     13  C   UNL A   1      33.969  25.900  25.111  1.00  0.00     0.149 C 
BRANCH  12  14
ATOM     14  C   UNL A   1      32.709  24.394  26.604  1.00  0.00     0.088 C 
ATOM     15  C   UNL A   1      31.320  23.745  26.499  1.00  0.00     0.031 C 
BRANCH  14  16
ATOM     16  C   UNL A   1      33.829  23.418  26.146  1.00  0.00     0.071 C 
BRANCH  16  17
ATOM     17  C   UNL A   1      33.300  22.273  25.317  1.00  0.00     0.007 A 
ATOM     18  C   UNL A   1      32.978  20.997  25.736  1.00  0.00     0.015 A 
ATOM     19  S   UNL A   1      32.993  22.474  23.640  1.00  0.00    -0.149 S 
ATOM     20  C   UNL A   1      32.538  20.168  24.663  1.00  0.00     0.012 A 
ATOM     21  C   UNL A   1      32.528  20.840  23.462  1.00  0.00     0.065 A 
ENDBRANCH  16  17
ENDBRANCH  14  16
ENDBRANCH  12  14
ENDBRANCH  10  12
ENDBRANCH   8  10
ENDBRANCH   2   4
ENDBRANCH   1   2
BRANCH   1  22
ATOM     22  C   UNL A   1      31.282  31.508  26.082  1.00  0.00     0.274 C 
BRANCH  22  23
ATOM     23  C   UNL A   1      31.456  32.602  27.145  1.00  0.00     0.275 C 
BRANCH  23  24
ATOM     24  O   UNL A   1      32.612  33.430  26.905  1.00  0.00    -0.458 OA
BRANCH  24  25
ATOM     25  C   UNL A   1      33.117  34.038  28.001  1.00  0.00     0.338 C 
ATOM     26  O   UNL A   1      32.607  34.955  28.632  1.00  0.00    -0.246 OA
BRANCH  25  27
ATOM     27  C   UNL A   1      34.331  33.348  28.464  1.00  0.00     0.060 A 
ATOM     28  C   UNL A   1      34.228  31.991  28.792  1.00  0.00     0.016 A 
ATOM     29  C   UNL A   1      35.533  34.031  28.660  1.00  0.00     0.016 A 
ATOM     30  C   UNL A   1      35.319  31.309  29.320  1.00  0.00     0.010 A 
ATOM     31  C   UNL A   1      36.628  33.347  29.201  1.00  0.00     0.010 A 
ATOM     32  C   UNL A   1      36.521  31.987  29.545  1.00  0.00    -0.014 A 
BRANCH  32  33
ATOM     33  C   UNL A   1      37.637  31.278  30.208  1.00  0.00     0.031 A 
ATOM     34  C   UNL A   1      37.913  31.529  31.662  1.00  0.00     0.074 A 
ATOM     35  C   UNL A   1      38.371  30.385  29.522  1.00  0.00     0.049 A 
ATOM     36  N   UNL A   1      38.870  31.052  32.417  1.00  0.00    -0.248 NA
ATOM     37  C   UNL A   1      36.987  32.434  32.358  1.00  0.00     0.031 C 
ATOM     38  C   UNL A   1      38.155  30.011  28.125  1.00  0.00     0.029 A 
ATOM     39  N   UNL A   1      39.445  29.629  29.913  1.00  0.00    -0.354 N 
ATOM     40  C   UNL A   1      38.671  31.611  33.673  1.00  0.00     0.074 A 
ATOM     41  C   UNL A   1      37.511  32.471  33.576  1.00  0.00     0.031 C 
ATOM     42  C   UNL A   1      39.074  29.095  27.773  1.00  0.00     0.029 A 
ATOM     43  C   UNL A   1      39.961  28.850  28.907  1.00  0.00     0.049 A 
ATOM     44  H   UNL A   1      39.812  29.643  30.826  1.00  0.00     0.167 HD
ATOM     45  C   UNL A   1      39.392  31.421  34.803  1.00  0.00     0.037 A 
ATOM     46  C   UNL A   1      41.043  28.049  28.898  1.00  0.00     0.037 A 
ATOM     47  C   UNL A   1      40.539  30.557  34.898  1.00  0.00     0.049 A 
ATOM     48  C   UNL A   1      41.871  27.915  30.146  1.00  0.00     0.074 A 
ATOM     49  C   UNL A   1      41.327  30.287  36.004  1.00  0.00     0.029 A 
ATOM     50  N   UNL A   1      41.063  29.824  33.845  1.00  0.00    -0.354 N 
ATOM     51  N   UNL A   1      41.680  28.449  31.327  1.00  0.00    -0.248 NA
ATOM     52  C   UNL A   1      43.073  27.073  30.054  1.00  0.00     0.031 C 
ATOM     53  C   UNL A   1      42.351  29.419  35.609  1.00  0.00     0.029 A 
ATOM     54  C   UNL A   1      42.179  29.120  34.267  1.00  0.00     0.049 A 
ATOM     55  H   UNL A   1      40.697  29.807  32.931  1.00  0.00     0.167 HD
ATOM     56  C   UNL A   1      42.720  27.992  32.125  1.00  0.00     0.074 A 
ATOM     57  C   UNL A   1      43.535  27.129  31.296  1.00  0.00     0.031 C 
ATOM     58  C   UNL A   1      42.976  28.262  33.429  1.00  0.00     0.037 A 
BRANCH  45  59
ATOM     59  C   UNL A   1      38.978  32.194  36.018  1.00  0.00     0.057 A 
ATOM     60  C   UNL A   1      38.154  31.638  37.004  1.00  0.00     0.134 A 
ATOM     61  C   UNL A   1      39.423  33.507  36.209  1.00  0.00     0.134 A 
ATOM     62  F   UNL A   1      37.681  30.390  36.870  1.00  0.00    -0.206 F 
ATOM     63  C   UNL A   1      37.771  32.370  38.130  1.00  0.00     0.040 A 
ATOM     64  C   UNL A   1      39.065  34.242  37.341  1.00  0.00     0.040 A 
ATOM     65  F   UNL A   1      40.216  34.098  35.302  1.00  0.00    -0.206 F 
ATOM     66  C   UNL A   1      38.232  33.674  38.303  1.00  0.00     0.006 A 
ENDBRANCH  45  59
BRANCH  46  67
ATOM     67  C   UNL A   1      41.417  27.323  27.661  1.00  0.00     0.057 A 
ATOM     68  C   UNL A   1      41.016  26.000  27.450  1.00  0.00     0.134 A 
ATOM     69  C   UNL A   1      42.193  27.930  26.667  1.00  0.00     0.134 A 
ATOM     70  F   UNL A   1      40.292  25.357  28.378  1.00  0.00    -0.206 F 
ATOM     71  C   UNL A   1      41.381  25.300  26.298  1.00  0.00     0.040 A 
ATOM     72  C   UNL A   1      42.548  27.251  25.501  1.00  0.00     0.040 A 
ATOM     73  F   UNL A   1      42.613  29.195  26.813  1.00  0.00    -0.206 F 
ATOM     74  C   UNL A   1      42.146  25.930  25.316  1.00  0.00     0.006 A 
ENDBRANCH  46  67
BRANCH  58  75
ATOM     75  C   UNL A   1      44.168  27.593  34.042  1.00  0.00     0.057 A 
ATOM     76  C   UNL A   1      44.083  26.318  34.615  1.00  0.00     0.134 A 
ATOM     77  C   UNL A   1      45.422  28.217  34.030  1.00  0.00     0.134 A 
ATOM     78  F   UNL A   1      42.907  25.675  34.670  1.00  0.00    -0.206 F 
ATOM     79  C   UNL A   1      45.200  25.694  35.171  1.00  0.00     0.040 A 
ATOM     80  C   UNL A   1      46.550  27.594  34.563  1.00  0.00     0.040 A 
ATOM     81  F   UNL A   1      45.570  29.436  33.489  1.00  0.00    -0.206 F 
ATOM     82  C   UNL A   1      46.440  26.331  35.140  1.00  0.00     0.006 A 
ENDBRANCH  58  75
ENDBRANCH  32  33
ENDBRANCH  25  27
ENDBRANCH  24  25
ENDBRANCH  23  24
ENDBRANCH  22  23
ENDBRANCH   1  22
TORSDOF 16
ENDMDL
MODEL 3
REMARK VINA RESULT:      -9.8      1.226      3.785
REMARK SMILES C[C@@H]1SC[C@H](C(=O)OCCOC(=O)c2ccc(-c3c4nc(c(-c5c(F)cccc5F)c5ccc([nH]5)c(-c5c(F)cccc5F)c5nc(c(-c6c(F)cccc6F)c6ccc3[nH]6)C=C5)C=C4)cc2)N1C(=O)N(C)[C@@H](C)Cc1cccs1
REMARK SMILES IDX 8 1 6 2 7 3 5 4 1 5 2 6 3 7 68 8 4 9 69 10 70 11 71 12 72 13
REMARK SMILES IDX 73 14 74 15 75 16 76 17 77 18 80 19 78 20 79 21 9 22 10 23
REMARK SMILES IDX 11 24 12 25 13 26 14 27 15 28 67 29 16 30 66 31 17 32 18 33
REMARK SMILES IDX 19 34 60 35 20 36 65 37 59 38 61 39 21 40 64 41 58 42 57 43
REMARK SMILES IDX 22 45 48 46 31 47 47 48 32 49 35 50 46 51 62 52 33 53 34 54
REMARK SMILES IDX 45 56 63 57 36 58 23 59 24 60 29 61 25 62 26 63 28 64 30 65
REMARK SMILES IDX 27 66 49 67 50 68 55 69 51 70 52 71 54 72 56 73 53 74 37 75
REMARK SMILES IDX 38 76 43 77 39 78 40 79 42 80 44 81 41 82
REMARK H PARENT 61 44 35 55
REMARK Flexibility Score: inf
ROOT
ATOM      1  O   UNL A   1      31.108  27.336  26.242  1.00  0.00    -0.461 OA
ENDROOT
BRANCH   1   2
ATOM      2  C   UNL A   1      30.865  25.996  26.236  1.00  0.00     0.329 C 
ATOM      3  O   UNL A   1      29.779  25.489  26.510  1.00  0.00    -0.250 OA
BRANCH   2   4
ATOM      4  C   UNL A   1      32.077  25.147  25.803  1.00  0.00     0.208 C 
ATOM      5  C   UNL A   1      32.927  22.198  23.804  1.00  0.00     0.043 C 
ATOM      6  C   UNL A   1      33.292  23.539  24.434  1.00  0.00     0.143 C 
ATOM      7  S   UNL A   1      33.763  23.208  26.176  1.00  0.00    -0.134 SA
ATOM      8  N   UNL A   1      32.216  24.537  24.454  1.00  0.00    -0.298 N 
ATOM      9  C   UNL A   1      32.327  24.058  26.837  1.00  0.00     0.109 C 
BRANCH   8  10
ATOM     10  C   UNL A   1      31.566  25.184  23.433  1.00  0.00     0.321 C 
ATOM     11  O   UNL A   1      30.400  24.848  23.194  1.00  0.00    -0.248 OA
BRANCH  10  12
ATOM     12  N   UNL A   1      32.126  26.176  22.659  1.00  0.00    -0.325 N 
ATOM     13  C   UNL A   1      32.809  26.063  21.380  1.00  0.00     0.149 C 
BRANCH  12  14
ATOM     14  C   UNL A   1      32.156  27.555  23.234  1.00  0.00     0.088 C 
ATOM     15  C   UNL A   1      33.541  27.961  23.762  1.00  0.00     0.031 C 
BRANCH  14  16
ATOM     16  C   UNL A   1      31.576  28.630  22.273  1.00  0.00     0.071 C 
BRANCH  16  17
ATOM     17  C   UNL A   1      30.100  28.863  22.483  1.00  0.00     0.007 A 
ATOM     18  C   UNL A   1      29.199  28.064  23.160  1.00  0.00     0.015 A 
ATOM     19  S   UNL A   1      29.343  30.281  21.878  1.00  0.00    -0.149 S 
ATOM     20  C   UNL A   1      27.874  28.589  23.125  1.00  0.00     0.012 A 
ATOM     21  C   UNL A   1      27.808  29.777  22.433  1.00  0.00     0.065 A 
ENDBRANCH  16  17
ENDBRANCH  14  16
ENDBRANCH  12  14
ENDBRANCH  10  12
ENDBRANCH   8  10
ENDBRANCH   2   4
ENDBRANCH   1   2
BRANCH   1  22
ATOM     22  C   UNL A   1      31.778  27.825  27.422  1.00  0.00     0.274 C 
BRANCH  22  23
ATOM     23  C   UNL A   1      32.631  29.072  27.150  1.00  0.00     0.275 C 
BRANCH  23  24
ATOM     24  O   UNL A   1      33.984  28.933  27.629  1.00  0.00    -0.458 OA
BRANCH  24  25
ATOM     25  C   UNL A   1      34.617  30.096  27.900  1.00  0.00     0.338 C 
ATOM     26  O   UNL A   1      34.111  31.210  27.959  1.00  0.00    -0.246 OA
BRANCH  25  27
ATOM     27  C   UNL A   1      36.017  29.849  28.281  1.00  0.00     0.060 A 
ATOM     28  C   UNL A   1      37.002  30.025  27.303  1.00  0.00     0.016 A 
ATOM     29  C   UNL A   1      36.357  29.369  29.547  1.00  0.00     0.016 A 
ATOM     30  C   UNL A   1      38.331  29.721  27.578  1.00  0.00     0.010 A 
ATOM     31  C   UNL A   1      37.693  29.054  29.821  1.00  0.00     0.010 A 
ATOM     32  C   UNL A   1      38.682  29.215  28.834  1.00  0.00    -0.014 A 
BRANCH  32  33
ATOM     33  C   UNL A   1      40.079  28.792  29.077  1.00  0.00     0.031 A 
ATOM     34  C   UNL A   1      41.021  29.722  29.787  1.00  0.00     0.074 A 
ATOM     35  C   UNL A   1      40.488  27.568  28.701  1.00  0.00     0.049 A 
ATOM     36  N   UNL A   1      42.292  29.567  30.052  1.00  0.00    -0.248 NA
ATOM     37  C   UNL A   1      40.452  30.992  30.263  1.00  0.00     0.031 C 
ATOM     38  C   UNL A   1      39.647  26.556  28.063  1.00  0.00     0.029 A 
ATOM     39  N   UNL A   1      41.717  26.970  28.806  1.00  0.00    -0.354 N 
ATOM     40  C   UNL A   1      42.682  30.726  30.712  1.00  0.00     0.074 A 
ATOM     41  C   UNL A   1      41.515  31.579  30.796  1.00  0.00     0.031 C 
ATOM     42  C   UNL A   1      40.388  25.460  27.830  1.00  0.00     0.029 A 
ATOM     43  C   UNL A   1      41.759  25.709  28.266  1.00  0.00     0.049 A 
ATOM     44  H   UNL A   1      42.495  27.403  29.227  1.00  0.00     0.167 HD
ATOM     45  C   UNL A   1      43.902  31.045  31.203  1.00  0.00     0.037 A 
ATOM     46  C   UNL A   1      42.795  24.862  28.122  1.00  0.00     0.037 A 
ATOM     47  C   UNL A   1      45.057  30.190  31.128  1.00  0.00     0.049 A 
ATOM     48  C   UNL A   1      44.157  25.273  28.608  1.00  0.00     0.074 A 
ATOM     49  C   UNL A   1      46.334  30.420  31.611  1.00  0.00     0.029 A 
ATOM     50  N   UNL A   1      45.074  28.941  30.528  1.00  0.00    -0.354 N 
ATOM     51  N   UNL A   1      44.519  26.371  29.226  1.00  0.00    -0.248 NA
ATOM     52  C   UNL A   1      45.259  24.329  28.365  1.00  0.00     0.031 C 
ATOM     53  C   UNL A   1      47.133  29.323  31.268  1.00  0.00     0.029 A 
ATOM     54  C   UNL A   1      46.345  28.396  30.606  1.00  0.00     0.049 A 
ATOM     55  H   UNL A   1      44.297  28.505  30.108  1.00  0.00     0.167 HD
ATOM     56  C   UNL A   1      45.879  26.242  29.467  1.00  0.00     0.074 A 
ATOM     57  C   UNL A   1      46.279  24.955  28.937  1.00  0.00     0.031 C 
ATOM     58  C   UNL A   1      46.723  27.111  30.076  1.00  0.00     0.037 A 
BRANCH  45  59
ATOM     59  C   UNL A   1      44.054  32.395  31.835  1.00  0.00     0.057 A 
ATOM     60  C   UNL A   1      43.783  32.615  33.191  1.00  0.00     0.134 A 
ATOM     61  C   UNL A   1      44.492  33.488  31.077  1.00  0.00     0.134 A 
ATOM     62  F   UNL A   1      43.343  31.611  33.966  1.00  0.00    -0.206 F 
ATOM     63  C   UNL A   1      43.924  33.878  33.767  1.00  0.00     0.040 A 
ATOM     64  C   UNL A   1      44.658  34.752  31.646  1.00  0.00     0.040 A 
ATOM     65  F   UNL A   1      44.771  33.345  29.772  1.00  0.00    -0.206 F 
ATOM     66  C   UNL A   1      44.368  34.950  32.995  1.00  0.00     0.006 A 
ENDBRANCH  45  59
BRANCH  46  67
ATOM     67  C   UNL A   1      42.590  23.545  27.471  1.00  0.00     0.057 A 
ATOM     68  C   UNL A   1      42.714  23.397  26.086  1.00  0.00     0.134 A 
ATOM     69  C   UNL A   1      42.253  22.409  28.216  1.00  0.00     0.134 A 
ATOM     70  F   UNL A   1      43.009  24.455  25.317  1.00  0.00    -0.206 F 
ATOM     71  C   UNL A   1      42.501  22.167  25.461  1.00  0.00     0.040 A 
ATOM     72  C   UNL A   1      42.058  21.169  27.608  1.00  0.00     0.040 A 
ATOM     73  F   UNL A   1      42.115  22.488  29.548  1.00  0.00    -0.206 F 
ATOM     74  C   UNL A   1      42.177  21.046  26.226  1.00  0.00     0.006 A 
ENDBRANCH  46  67
BRANCH  58  75
ATOM     75  C   UNL A   1      48.151  26.684  30.225  1.00  0.00     0.057 A 
ATOM     76  C   UNL A   1      48.601  26.001  31.363  1.00  0.00     0.134 A 
ATOM     77  C   UNL A   1      49.080  26.928  29.205  1.00  0.00     0.134 A 
ATOM     78  F   UNL A   1      47.763  25.750  32.380  1.00  0.00    -0.206 F 
ATOM     79  C   UNL A   1      49.929  25.593  31.488  1.00  0.00     0.040 A 
ATOM     80  C   UNL A   1      50.405  26.505  29.310  1.00  0.00     0.040 A 
ATOM     81  F   UNL A   1      48.710  27.571  28.088  1.00  0.00    -0.206 F 
ATOM     82  C   UNL A   1      50.834  25.839  30.457  1.00  0.00     0.006 A 
ENDBRANCH  58  75
ENDBRANCH  32  33
ENDBRANCH  25  27
ENDBRANCH  24  25
ENDBRANCH  23  24
ENDBRANCH  22  23
ENDBRANCH   1  22
TORSDOF 16
ENDMDL
