MODEL 1
REMARK VINA RESULT:     -11.0      0.000      0.000
REMARK SMILES C[C@H](NC(=O)c1ccc(NC(N)=O)cc1)C(=O)OCCOC(=O)c1ccc(-c2c3nc(c(-c4c(F)cccc4F)c4ccc([nH]4)c(-c4c(F)cccc4F)c4nc(c(-c5c(F)cccc5F)c5ccc2[nH]5)C=C4)C=C3)cc1
REMARK SMILES IDX 19 1 18 2 16 3 17 4 2 5 1 6 3 7 4 8 5 10 6 11 7 12 15 13
REMARK SMILES IDX 8 14 14 15 9 16 10 17 11 18 12 20 13 21 20 24 21 25 22 26
REMARK SMILES IDX 23 27 24 28 25 29 77 30 26 31 76 32 27 33 28 34 29 35 70 36
REMARK SMILES IDX 30 37 75 38 69 39 71 40 31 41 74 42 68 43 67 44 32 46 58 47
REMARK SMILES IDX 41 48 57 49 42 50 45 51 56 52 72 53 43 54 44 55 55 57 73 58
REMARK SMILES IDX 46 59 33 60 34 61 39 62 35 63 36 64 38 65 40 66 37 67 59 68
REMARK SMILES IDX 60 69 65 70 61 71 62 72 64 73 66 74 63 75 47 76 48 77 53 78
REMARK SMILES IDX 49 79 50 80 52 81 54 82 51 83
REMARK H PARENT 3 9 10 19 12 22 12 23 71 45 45 56
REMARK Flexibility Score: inf
ROOT
ATOM      1  C   UNL A   1      31.658  31.665  26.648  1.00  0.00     0.274 C 
ENDROOT
BRANCH   1   2
ATOM      2  O   UNL A   1      32.673  30.835  27.251  1.00  0.00    -0.461 OA
BRANCH   2   3
ATOM      3  C   UNL A   1      32.527  29.494  27.075  1.00  0.00     0.328 C 
ATOM      4  O   UNL A   1      31.522  28.858  27.379  1.00  0.00    -0.250 OA
BRANCH   3   5
ATOM      5  C   UNL A   1      33.783  28.818  26.500  1.00  0.00     0.189 C 
ATOM      6  C   UNL A   1      34.999  29.349  27.250  1.00  0.00     0.043 C 
BRANCH   5   7
ATOM      7  N   UNL A   1      33.983  28.994  25.060  1.00  0.00    -0.339 N 
ATOM      8  C   UNL A   1      33.540  28.216  24.020  1.00  0.00     0.251 C 
ATOM      9  H   UNL A   1      34.511  29.784  24.801  1.00  0.00     0.164 HD
ATOM     10  O   UNL A   1      33.757  28.538  22.857  1.00  0.00    -0.269 OA
BRANCH   8  11
ATOM     11  C   UNL A   1      32.763  26.993  24.302  1.00  0.00     0.039 A 
ATOM     12  C   UNL A   1      33.393  25.765  24.502  1.00  0.00     0.016 A 
ATOM     13  C   UNL A   1      31.373  27.085  24.358  1.00  0.00     0.016 A 
ATOM     14  C   UNL A   1      32.629  24.639  24.837  1.00  0.00     0.027 A 
ATOM     15  C   UNL A   1      30.616  25.957  24.691  1.00  0.00     0.027 A 
ATOM     16  C   UNL A   1      31.239  24.730  24.964  1.00  0.00     0.042 A 
BRANCH  16  17
ATOM     17  N   UNL A   1      30.425  23.672  25.418  1.00  0.00    -0.308 N 
ATOM     18  C   UNL A   1      30.383  23.127  26.674  1.00  0.00     0.316 C 
ATOM     19  H   UNL A   1      29.814  23.280  24.754  1.00  0.00     0.171 HD
ATOM     20  N   UNL A   1      29.329  22.283  26.842  1.00  0.00    -0.351 N 
ATOM     21  O   UNL A   1      31.160  23.325  27.597  1.00  0.00    -0.249 OA
ATOM     22  H   UNL A   1      28.703  22.123  26.100  1.00  0.00     0.161 HD
ATOM     23  H   UNL A   1      29.194  21.831  27.707  1.00  0.00     0.161 HD
ENDBRANCH  16  17
ENDBRANCH   8  11
ENDBRANCH   5   7
ENDBRANCH   3   5
ENDBRANCH   2   3
ENDBRANCH   1   2
BRANCH   1  24
ATOM     24  C   UNL A   1      31.775  33.116  27.111  1.00  0.00     0.275 C 
BRANCH  24  25
ATOM     25  O   UNL A   1      33.155  33.499  27.259  1.00  0.00    -0.458 OA
BRANCH  25  26
ATOM     26  C   UNL A   1      33.421  34.272  28.335  1.00  0.00     0.338 C 
ATOM     27  O   UNL A   1      32.856  35.291  28.687  1.00  0.00    -0.246 OA
BRANCH  26  28
ATOM     28  C   UNL A   1      34.501  33.664  29.119  1.00  0.00     0.060 A 
ATOM     29  C   UNL A   1      35.818  33.952  28.768  1.00  0.00     0.016 A 
ATOM     30  C   UNL A   1      34.218  32.707  30.095  1.00  0.00     0.016 A 
ATOM     31  C   UNL A   1      36.860  33.245  29.359  1.00  0.00     0.010 A 
ATOM     32  C   UNL A   1      35.272  32.035  30.726  1.00  0.00     0.010 A 
ATOM     33  C   UNL A   1      36.600  32.281  30.345  1.00  0.00    -0.014 A 
BRANCH  33  34
ATOM     34  C   UNL A   1      37.744  31.576  30.976  1.00  0.00     0.031 A 
ATOM     35  C   UNL A   1      38.443  30.442  30.283  1.00  0.00     0.074 A 
ATOM     36  C   UNL A   1      38.219  32.034  32.151  1.00  0.00     0.049 A 
ATOM     37  N   UNL A   1      39.560  29.849  30.626  1.00  0.00    -0.248 NA
ATOM     38  C   UNL A   1      37.883  29.959  29.011  1.00  0.00     0.031 C 
ATOM     39  C   UNL A   1      37.665  33.167  32.896  1.00  0.00     0.029 A 
ATOM     40  N   UNL A   1      39.274  31.614  32.921  1.00  0.00    -0.354 N 
ATOM     41  C   UNL A   1      39.851  28.950  29.609  1.00  0.00     0.074 A 
ATOM     42  C   UNL A   1      38.790  29.064  28.633  1.00  0.00     0.031 C 
ATOM     43  C   UNL A   1      38.385  33.353  34.011  1.00  0.00     0.029 A 
ATOM     44  C   UNL A   1      39.406  32.315  34.096  1.00  0.00     0.049 A 
ATOM     45  H   UNL A   1      39.879  30.882  32.658  1.00  0.00     0.167 HD
ATOM     46  C   UNL A   1      40.931  28.142  29.491  1.00  0.00     0.037 A 
ATOM     47  C   UNL A   1      40.218  32.115  35.150  1.00  0.00     0.037 A 
ATOM     48  C   UNL A   1      41.941  27.970  30.500  1.00  0.00     0.049 A 
ATOM     49  C   UNL A   1      41.213  30.994  35.105  1.00  0.00     0.074 A 
ATOM     50  C   UNL A   1      43.101  27.215  30.440  1.00  0.00     0.029 A 
ATOM     51  N   UNL A   1      41.884  28.510  31.774  1.00  0.00    -0.354 N 
ATOM     52  N   UNL A   1      41.531  30.221  34.097  1.00  0.00    -0.248 NA
ATOM     53  C   UNL A   1      41.940  30.698  36.348  1.00  0.00     0.031 C 
ATOM     54  C   UNL A   1      43.712  27.247  31.701  1.00  0.00     0.029 A 
ATOM     55  C   UNL A   1      42.950  28.050  32.531  1.00  0.00     0.049 A 
ATOM     56  H   UNL A   1      41.190  29.130  32.094  1.00  0.00     0.167 HD
ATOM     57  C   UNL A   1      42.497  29.349  34.581  1.00  0.00     0.074 A 
ATOM     58  C   UNL A   1      42.723  29.697  35.968  1.00  0.00     0.031 C 
ATOM     59  C   UNL A   1      43.138  28.353  33.924  1.00  0.00     0.037 A 
BRANCH  46  60
ATOM     60  C   UNL A   1      41.105  27.392  28.209  1.00  0.00     0.057 A 
ATOM     61  C   UNL A   1      40.434  26.181  28.001  1.00  0.00     0.134 A 
ATOM     62  C   UNL A   1      41.828  27.931  27.141  1.00  0.00     0.134 A 
ATOM     63  F   UNL A   1      39.725  25.622  28.992  1.00  0.00    -0.206 F 
ATOM     64  C   UNL A   1      40.468  25.534  26.765  1.00  0.00     0.040 A 
ATOM     65  C   UNL A   1      41.867  27.295  25.899  1.00  0.00     0.040 A 
ATOM     66  F   UNL A   1      42.487  29.090  27.283  1.00  0.00    -0.206 F 
ATOM     67  C   UNL A   1      41.180  26.097  25.707  1.00  0.00     0.006 A 
ENDBRANCH  46  60
BRANCH  47  68
ATOM     68  C   UNL A   1      40.045  32.931  36.376  1.00  0.00     0.057 A 
ATOM     69  C   UNL A   1      39.066  32.635  37.327  1.00  0.00     0.134 A 
ATOM     70  C   UNL A   1      40.864  34.045  36.613  1.00  0.00     0.134 A 
ATOM     71  F   UNL A   1      38.233  31.601  37.141  1.00  0.00    -0.206 F 
ATOM     72  C   UNL A   1      38.907  33.417  38.473  1.00  0.00     0.040 A 
ATOM     73  C   UNL A   1      40.733  34.818  37.765  1.00  0.00     0.040 A 
ATOM     74  F   UNL A   1      41.814  34.387  35.730  1.00  0.00    -0.206 F 
ATOM     75  C   UNL A   1      39.748  34.507  38.698  1.00  0.00     0.006 A 
ENDBRANCH  47  68
BRANCH  59  76
ATOM     76  C   UNL A   1      44.119  27.539  34.711  1.00  0.00     0.057 A 
ATOM     77  C   UNL A   1      45.436  27.977  34.897  1.00  0.00     0.134 A 
ATOM     78  C   UNL A   1      43.750  26.322  35.296  1.00  0.00     0.134 A 
ATOM     79  F   UNL A   1      45.854  29.125  34.344  1.00  0.00    -0.206 F 
ATOM     80  C   UNL A   1      46.358  27.224  35.626  1.00  0.00     0.040 A 
ATOM     81  C   UNL A   1      44.657  25.570  36.045  1.00  0.00     0.040 A 
ATOM     82  F   UNL A   1      42.503  25.849  35.156  1.00  0.00    -0.206 F 
ATOM     83  C   UNL A   1      45.967  26.019  36.207  1.00  0.00     0.006 A 
ENDBRANCH  59  76
ENDBRANCH  33  34
ENDBRANCH  26  28
ENDBRANCH  25  26
ENDBRANCH  24  25
ENDBRANCH   1  24
TORSDOF 14
ENDMDL
MODEL 2
REMARK VINA RESULT:     -11.0      5.408      9.260
REMARK SMILES C[C@H](NC(=O)c1ccc(NC(N)=O)cc1)C(=O)OCCOC(=O)c1ccc(-c2c3nc(c(-c4c(F)cccc4F)c4ccc([nH]4)c(-c4c(F)cccc4F)c4nc(c(-c5c(F)cccc5F)c5ccc2[nH]5)C=C4)C=C3)cc1
REMARK SMILES IDX 19 1 18 2 16 3 17 4 2 5 1 6 3 7 4 8 5 10 6 11 7 12 15 13
REMARK SMILES IDX 8 14 14 15 9 16 10 17 11 18 12 20 13 21 20 24 21 25 22 26
REMARK SMILES IDX 23 27 24 28 25 29 77 30 26 31 76 32 27 33 28 34 29 35 70 36
REMARK SMILES IDX 30 37 75 38 69 39 71 40 31 41 74 42 68 43 67 44 32 46 58 47
REMARK SMILES IDX 41 48 57 49 42 50 45 51 56 52 72 53 43 54 44 55 55 57 73 58
REMARK SMILES IDX 46 59 33 60 34 61 39 62 35 63 36 64 38 65 40 66 37 67 59 68
REMARK SMILES IDX 60 69 65 70 61 71 62 72 64 73 66 74 63 75 47 76 48 77 53 78
REMARK SMILES IDX 49 79 50 80 52 81 54 82 51 83
REMARK H PARENT 3 9 10 19 12 22 12 23 71 45 45 56
REMARK Flexibility Score: inf
ROOT
ATOM      1  C   UNL A   1      38.514  20.897  25.540  1.00  0.00     0.274 C 
ENDROOT
BRANCH   1   2
ATOM      2  O   UNL A   1      37.150  20.691  25.116  1.00  0.00    -0.461 OA
BRANCH   2   3
ATOM      3  C   UNL A   1      36.328  21.771  25.214  1.00  0.00     0.328 C 
ATOM      4  O   UNL A   1      36.119  22.394  26.251  1.00  0.00    -0.250 OA
BRANCH   3   5
ATOM      5  C   UNL A   1      35.620  22.115  23.892  1.00  0.00     0.189 C 
ATOM      6  C   UNL A   1      36.563  22.966  23.051  1.00  0.00     0.043 C 
BRANCH   5   7
ATOM      7  N   UNL A   1      34.336  22.804  24.033  1.00  0.00    -0.339 N 
ATOM      8  C   UNL A   1      33.095  22.283  24.303  1.00  0.00     0.251 C 
ATOM      9  H   UNL A   1      34.366  23.781  23.918  1.00  0.00     0.164 HD
ATOM     10  O   UNL A   1      32.121  23.016  24.439  1.00  0.00    -0.269 OA
BRANCH   8  11
ATOM     11  C   UNL A   1      32.935  20.825  24.466  1.00  0.00     0.039 A 
ATOM     12  C   UNL A   1      33.136  20.209  25.701  1.00  0.00     0.016 A 
ATOM     13  C   UNL A   1      32.581  20.064  23.352  1.00  0.00     0.016 A 
ATOM     14  C   UNL A   1      32.907  18.832  25.836  1.00  0.00     0.027 A 
ATOM     15  C   UNL A   1      32.356  18.691  23.493  1.00  0.00     0.027 A 
ATOM     16  C   UNL A   1      32.487  18.067  24.742  1.00  0.00     0.042 A 
BRANCH  16  17
ATOM     17  N   UNL A   1      32.118  16.709  24.836  1.00  0.00    -0.308 N 
ATOM     18  C   UNL A   1      32.931  15.635  25.084  1.00  0.00     0.316 C 
ATOM     19  H   UNL A   1      31.163  16.510  24.709  1.00  0.00     0.171 HD
ATOM     20  N   UNL A   1      32.231  14.498  25.340  1.00  0.00    -0.351 N 
ATOM     21  O   UNL A   1      34.154  15.616  25.096  1.00  0.00    -0.249 OA
ATOM     22  H   UNL A   1      31.247  14.512  25.330  1.00  0.00     0.161 HD
ATOM     23  H   UNL A   1      32.709  13.659  25.535  1.00  0.00     0.161 HD
ENDBRANCH  16  17
ENDBRANCH   8  11
ENDBRANCH   5   7
ENDBRANCH   3   5
ENDBRANCH   2   3
ENDBRANCH   1   2
BRANCH   1  24
ATOM     24  C   UNL A   1      39.326  19.606  25.454  1.00  0.00     0.275 C 
BRANCH  24  25
ATOM     25  O   UNL A   1      40.252  19.507  26.552  1.00  0.00    -0.458 OA
BRANCH  25  26
ATOM     26  C   UNL A   1      41.557  19.560  26.205  1.00  0.00     0.338 C 
ATOM     27  O   UNL A   1      42.236  18.686  25.698  1.00  0.00    -0.246 OA
BRANCH  26  28
ATOM     28  C   UNL A   1      42.079  20.905  26.469  1.00  0.00     0.060 A 
ATOM     29  C   UNL A   1      42.210  21.318  27.793  1.00  0.00     0.016 A 
ATOM     30  C   UNL A   1      42.299  21.799  25.420  1.00  0.00     0.016 A 
ATOM     31  C   UNL A   1      42.514  22.646  28.074  1.00  0.00     0.010 A 
ATOM     32  C   UNL A   1      42.658  23.122  25.706  1.00  0.00     0.010 A 
ATOM     33  C   UNL A   1      42.743  23.562  27.037  1.00  0.00    -0.014 A 
BRANCH  33  34
ATOM     34  C   UNL A   1      43.100  24.961  27.383  1.00  0.00     0.031 A 
ATOM     35  C   UNL A   1      44.495  25.482  27.197  1.00  0.00     0.074 A 
ATOM     36  C   UNL A   1      42.121  25.799  27.779  1.00  0.00     0.049 A 
ATOM     37  N   UNL A   1      44.915  26.720  27.286  1.00  0.00    -0.248 NA
ATOM     38  C   UNL A   1      45.538  24.531  26.781  1.00  0.00     0.031 C 
ATOM     39  C   UNL A   1      40.713  25.429  27.940  1.00  0.00     0.029 A 
ATOM     40  N   UNL A   1      42.155  27.130  28.109  1.00  0.00    -0.354 N 
ATOM     41  C   UNL A   1      46.252  26.704  26.914  1.00  0.00     0.074 A 
ATOM     42  C   UNL A   1      46.584  25.331  26.604  1.00  0.00     0.031 C 
ATOM     43  C   UNL A   1      40.019  26.506  28.335  1.00  0.00     0.029 A 
ATOM     44  C   UNL A   1      40.939  27.622  28.520  1.00  0.00     0.049 A 
ATOM     45  H   UNL A   1      42.971  27.680  28.056  1.00  0.00     0.167 HD
ATOM     46  C   UNL A   1      47.102  27.752  26.804  1.00  0.00     0.037 A 
ATOM     47  C   UNL A   1      40.608  28.818  29.041  1.00  0.00     0.037 A 
ATOM     48  C   UNL A   1      46.794  29.103  27.191  1.00  0.00     0.049 A 
ATOM     49  C   UNL A   1      41.665  29.871  29.189  1.00  0.00     0.074 A 
ATOM     50  C   UNL A   1      47.576  30.239  27.059  1.00  0.00     0.029 A 
ATOM     51  N   UNL A   1      45.636  29.492  27.842  1.00  0.00    -0.354 N 
ATOM     52  N   UNL A   1      42.897  29.863  28.744  1.00  0.00    -0.248 NA
ATOM     53  C   UNL A   1      41.299  31.083  29.934  1.00  0.00     0.031 C 
ATOM     54  C   UNL A   1      46.917  31.302  27.689  1.00  0.00     0.029 A 
ATOM     55  C   UNL A   1      45.711  30.834  28.181  1.00  0.00     0.049 A 
ATOM     56  H   UNL A   1      44.871  28.903  28.036  1.00  0.00     0.167 HD
ATOM     57  C   UNL A   1      43.453  31.067  29.151  1.00  0.00     0.074 A 
ATOM     58  C   UNL A   1      42.421  31.788  29.867  1.00  0.00     0.031 C 
ATOM     59  C   UNL A   1      44.709  31.530  28.942  1.00  0.00     0.037 A 
BRANCH  46  60
ATOM     60  C   UNL A   1      48.451  27.499  26.210  1.00  0.00     0.057 A 
ATOM     61  C   UNL A   1      49.538  27.182  27.033  1.00  0.00     0.134 A 
ATOM     62  C   UNL A   1      48.639  27.441  24.826  1.00  0.00     0.134 A 
ATOM     63  F   UNL A   1      49.410  27.221  28.367  1.00  0.00    -0.206 F 
ATOM     64  C   UNL A   1      50.770  26.804  26.498  1.00  0.00     0.040 A 
ATOM     65  C   UNL A   1      49.866  27.061  24.278  1.00  0.00     0.040 A 
ATOM     66  F   UNL A   1      47.632  27.730  23.991  1.00  0.00    -0.206 F 
ATOM     67  C   UNL A   1      50.932  26.735  25.115  1.00  0.00     0.006 A 
ENDBRANCH  46  60
BRANCH  47  68
ATOM     68  C   UNL A   1      39.235  29.039  29.558  1.00  0.00     0.057 A 
ATOM     69  C   UNL A   1      38.214  29.541  28.748  1.00  0.00     0.134 A 
ATOM     70  C   UNL A   1      38.922  28.755  30.896  1.00  0.00     0.134 A 
ATOM     71  F   UNL A   1      38.460  29.859  27.469  1.00  0.00    -0.206 F 
ATOM     72  C   UNL A   1      36.928  29.753  29.249  1.00  0.00     0.040 A 
ATOM     73  C   UNL A   1      37.637  28.937  31.401  1.00  0.00     0.040 A 
ATOM     74  F   UNL A   1      39.864  28.282  31.726  1.00  0.00    -0.206 F 
ATOM     75  C   UNL A   1      36.635  29.442  30.577  1.00  0.00     0.006 A 
ENDBRANCH  47  68
BRANCH  59  76
ATOM     76  C   UNL A   1      45.050  32.864  29.530  1.00  0.00     0.057 A 
ATOM     77  C   UNL A   1      45.681  32.965  30.776  1.00  0.00     0.134 A 
ATOM     78  C   UNL A   1      44.762  34.054  28.850  1.00  0.00     0.134 A 
ATOM     79  F   UNL A   1      45.964  31.861  31.485  1.00  0.00    -0.206 F 
ATOM     80  C   UNL A   1      46.000  34.204  31.333  1.00  0.00     0.040 A 
ATOM     81  C   UNL A   1      45.095  35.298  29.387  1.00  0.00     0.040 A 
ATOM     82  F   UNL A   1      44.161  34.025  27.652  1.00  0.00    -0.206 F 
ATOM     83  C   UNL A   1      45.712  35.375  30.635  1.00  0.00     0.006 A 
ENDBRANCH  59  76
ENDBRANCH  33  34
ENDBRANCH  26  28
ENDBRANCH  25  26
ENDBRANCH  24  25
ENDBRANCH   1  24
TORSDOF 14
ENDMDL
MODEL 3
REMARK VINA RESULT:     -11.0      4.650      8.049
REMARK SMILES C[C@H](NC(=O)c1ccc(NC(N)=O)cc1)C(=O)OCCOC(=O)c1ccc(-c2c3nc(c(-c4c(F)cccc4F)c4ccc([nH]4)c(-c4c(F)cccc4F)c4nc(c(-c5c(F)cccc5F)c5ccc2[nH]5)C=C4)C=C3)cc1
REMARK SMILES IDX 19 1 18 2 16 3 17 4 2 5 1 6 3 7 4 8 5 10 6 11 7 12 15 13
REMARK SMILES IDX 8 14 14 15 9 16 10 17 11 18 12 20 13 21 20 24 21 25 22 26
REMARK SMILES IDX 23 27 24 28 25 29 77 30 26 31 76 32 27 33 28 34 29 35 70 36
REMARK SMILES IDX 30 37 75 38 69 39 71 40 31 41 74 42 68 43 67 44 32 46 58 47
REMARK SMILES IDX 41 48 57 49 42 50 45 51 56 52 72 53 43 54 44 55 55 57 73 58
REMARK SMILES IDX 46 59 33 60 34 61 39 62 35 63 36 64 38 65 40 66 37 67 59 68
REMARK SMILES IDX 60 69 65 70 61 71 62 72 64 73 66 74 63 75 47 76 48 77 53 78
REMARK SMILES IDX 49 79 50 80 52 81 54 82 51 83
REMARK H PARENT 3 9 10 19 12 22 12 23 71 45 45 56
REMARK Flexibility Score: inf
ROOT
ATOM      1  C   UNL A   1      34.178  34.360  32.435  1.00  0.00     0.274 C 
ENDROOT
BRANCH   1   2
ATOM      2  O   UNL A   1      32.772  34.683  32.472  1.00  0.00    -0.461 OA
BRANCH   2   3
ATOM      3  C   UNL A   1      32.459  35.993  32.281  1.00  0.00     0.328 C 
ATOM      4  O   UNL A   1      31.356  36.484  32.504  1.00  0.00    -0.250 OA
BRANCH   3   5
ATOM      5  C   UNL A   1      33.619  36.814  31.693  1.00  0.00     0.189 C 
ATOM      6  C   UNL A   1      34.028  37.868  32.715  1.00  0.00     0.043 C 
BRANCH   5   7
ATOM      7  N   UNL A   1      33.338  37.462  30.410  1.00  0.00    -0.339 N 
ATOM      8  C   UNL A   1      33.394  36.939  29.142  1.00  0.00     0.251 C 
ATOM      9  H   UNL A   1      33.071  38.408  30.465  1.00  0.00     0.164 HD
ATOM     10  O   UNL A   1      33.074  37.614  28.170  1.00  0.00    -0.269 OA
BRANCH   8  11
ATOM     11  C   UNL A   1      33.811  35.537  28.948  1.00  0.00     0.039 A 
ATOM     12  C   UNL A   1      35.157  35.172  28.967  1.00  0.00     0.016 A 
ATOM     13  C   UNL A   1      32.826  34.573  28.736  1.00  0.00     0.016 A 
ATOM     14  C   UNL A   1      35.512  33.821  28.848  1.00  0.00     0.027 A 
ATOM     15  C   UNL A   1      33.187  33.226  28.617  1.00  0.00     0.027 A 
ATOM     16  C   UNL A   1      34.531  32.834  28.703  1.00  0.00     0.042 A 
BRANCH  16  17
ATOM     17  N   UNL A   1      34.808  31.452  28.705  1.00  0.00    -0.308 N 
ATOM     18  C   UNL A   1      34.455  30.525  27.761  1.00  0.00     0.316 C 
ATOM     19  H   UNL A   1      35.318  31.113  29.476  1.00  0.00     0.171 HD
ATOM     20  N   UNL A   1      35.076  29.328  27.945  1.00  0.00    -0.351 N 
ATOM     21  O   UNL A   1      33.682  30.673  26.825  1.00  0.00    -0.249 OA
ATOM     22  H   UNL A   1      35.699  29.207  28.698  1.00  0.00     0.161 HD
ATOM     23  H   UNL A   1      34.901  28.582  27.326  1.00  0.00     0.161 HD
ENDBRANCH  16  17
ENDBRANCH   8  11
ENDBRANCH   5   7
ENDBRANCH   3   5
ENDBRANCH   2   3
ENDBRANCH   1   2
BRANCH   1  24
ATOM     24  C   UNL A   1      34.477  33.078  33.213  1.00  0.00     0.275 C 
BRANCH  24  25
ATOM     25  O   UNL A   1      35.487  32.298  32.549  1.00  0.00    -0.458 OA
BRANCH  25  26
ATOM     26  C   UNL A   1      36.617  32.099  33.265  1.00  0.00     0.338 C 
ATOM     27  O   UNL A   1      36.809  32.329  34.444  1.00  0.00    -0.246 OA
BRANCH  26  28
ATOM     28  C   UNL A   1      37.632  31.471  32.413  1.00  0.00     0.060 A 
ATOM     29  C   UNL A   1      38.775  30.953  33.015  1.00  0.00     0.016 A 
ATOM     30  C   UNL A   1      37.522  31.525  31.022  1.00  0.00     0.016 A 
ATOM     31  C   UNL A   1      39.840  30.530  32.226  1.00  0.00     0.010 A 
ATOM     32  C   UNL A   1      38.574  31.049  30.230  1.00  0.00     0.010 A 
ATOM     33  C   UNL A   1      39.752  30.571  30.826  1.00  0.00    -0.014 A 
BRANCH  33  34
ATOM     34  C   UNL A   1      40.898  30.076  30.022  1.00  0.00     0.031 A 
ATOM     35  C   UNL A   1      40.984  28.645  29.579  1.00  0.00     0.074 A 
ATOM     36  C   UNL A   1      41.824  30.961  29.604  1.00  0.00     0.049 A 
ATOM     37  N   UNL A   1      41.826  28.109  28.731  1.00  0.00    -0.248 NA
ATOM     38  C   UNL A   1      39.963  27.706  30.073  1.00  0.00     0.031 C 
ATOM     39  C   UNL A   1      41.820  32.393  29.916  1.00  0.00     0.029 A 
ATOM     40  N   UNL A   1      42.941  30.794  28.824  1.00  0.00    -0.354 N 
ATOM     41  C   UNL A   1      41.425  26.790  28.566  1.00  0.00     0.074 A 
ATOM     42  C   UNL A   1      40.267  26.596  29.409  1.00  0.00     0.031 C 
ATOM     43  C   UNL A   1      42.879  32.972  29.333  1.00  0.00     0.029 A 
ATOM     44  C   UNL A   1      43.672  31.948  28.664  1.00  0.00     0.049 A 
ATOM     45  H   UNL A   1      43.194  29.933  28.418  1.00  0.00     0.167 HD
ATOM     46  C   UNL A   1      41.958  25.851  27.750  1.00  0.00     0.037 A 
ATOM     47  C   UNL A   1      44.874  32.151  28.093  1.00  0.00     0.037 A 
ATOM     48  C   UNL A   1      43.159  26.021  26.975  1.00  0.00     0.049 A 
ATOM     49  C   UNL A   1      45.586  30.997  27.454  1.00  0.00     0.074 A 
ATOM     50  C   UNL A   1      43.738  25.141  26.075  1.00  0.00     0.029 A 
ATOM     51  N   UNL A   1      43.998  27.119  27.053  1.00  0.00    -0.354 N 
ATOM     52  N   UNL A   1      45.145  29.785  27.229  1.00  0.00    -0.248 NA
ATOM     53  C   UNL A   1      46.970  31.228  27.016  1.00  0.00     0.031 C 
ATOM     54  C   UNL A   1      44.961  25.681  25.658  1.00  0.00     0.029 A 
ATOM     55  C   UNL A   1      45.124  26.910  26.273  1.00  0.00     0.049 A 
ATOM     56  H   UNL A   1      43.821  27.929  27.584  1.00  0.00     0.167 HD
ATOM     57  C   UNL A   1      46.193  29.108  26.622  1.00  0.00     0.074 A 
ATOM     58  C   UNL A   1      47.287  30.048  26.500  1.00  0.00     0.031 C 
ATOM     59  C   UNL A   1      46.235  27.821  26.200  1.00  0.00     0.037 A 
BRANCH  46  60
ATOM     60  C   UNL A   1      41.235  24.549  27.617  1.00  0.00     0.057 A 
ATOM     61  C   UNL A   1      40.140  24.433  26.752  1.00  0.00     0.134 A 
ATOM     62  C   UNL A   1      41.700  23.389  28.243  1.00  0.00     0.134 A 
ATOM     63  F   UNL A   1      39.655  25.515  26.126  1.00  0.00    -0.206 F 
ATOM     64  C   UNL A   1      39.536  23.200  26.504  1.00  0.00     0.040 A 
ATOM     65  C   UNL A   1      41.107  22.148  28.001  1.00  0.00     0.040 A 
ATOM     66  F   UNL A   1      42.747  23.441  29.078  1.00  0.00    -0.206 F 
ATOM     67  C   UNL A   1      40.027  22.051  27.124  1.00  0.00     0.006 A 
ENDBRANCH  46  60
BRANCH  47  68
ATOM     68  C   UNL A   1      45.520  33.482  28.198  1.00  0.00     0.057 A 
ATOM     69  C   UNL A   1      46.355  33.814  29.266  1.00  0.00     0.134 A 
ATOM     70  C   UNL A   1      45.300  34.461  27.218  1.00  0.00     0.134 A 
ATOM     71  F   UNL A   1      46.579  32.931  30.250  1.00  0.00    -0.206 F 
ATOM     72  C   UNL A   1      46.951  35.074  29.358  1.00  0.00     0.040 A 
ATOM     73  C   UNL A   1      45.909  35.713  27.284  1.00  0.00     0.040 A 
ATOM     74  F   UNL A   1      44.498  34.206  26.173  1.00  0.00    -0.206 F 
ATOM     75  C   UNL A   1      46.735  36.024  28.360  1.00  0.00     0.006 A 
ENDBRANCH  47  68
BRANCH  59  76
ATOM     76  C   UNL A   1      47.521  27.341  25.603  1.00  0.00     0.057 A 
ATOM     77  C   UNL A   1      48.511  26.751  26.399  1.00  0.00     0.134 A 
ATOM     78  C   UNL A   1      47.773  27.455  24.231  1.00  0.00     0.134 A 
ATOM     79  F   UNL A   1      48.336  26.632  27.724  1.00  0.00    -0.206 F 
ATOM     80  C   UNL A   1      49.714  26.303  25.852  1.00  0.00     0.040 A 
ATOM     81  C   UNL A   1      48.964  26.992  23.669  1.00  0.00     0.040 A 
ATOM     82  F   UNL A   1      46.865  28.009  23.416  1.00  0.00    -0.206 F 
ATOM     83  C   UNL A   1      49.941  26.418  24.482  1.00  0.00     0.006 A 
ENDBRANCH  59  76
ENDBRANCH  33  34
ENDBRANCH  26  28
ENDBRANCH  25  26
ENDBRANCH  24  25
ENDBRANCH   1  24
TORSDOF 14
ENDMDL
