MODEL 1
REMARK VINA RESULT:     -12.3      0.000      0.000
REMARK SMILES CCOC(=O)c1c(NC(=O)[C@H]2CCCC[C@@H]2C(=O)OCCOC(=O)c2ccc(-c3c4nc(c(-c5c(F)cccc5F)c5ccc([nH]5)c(-c5c(F)cccc5F)c5nc(c(-c6c(F)cccc6F)c6ccc3[nH]6)C=C5)C=C4)cc2)sc2c1CC[C@H](C)C2
REMARK SMILES IDX 19 1 17 2 18 3 16 4 11 5 12 6 13 7 15 8 14 9 9 10 8 11 10 13
REMARK SMILES IDX 7 14 6 15 81 16 79 17 80 18 82 19 86 20 83 21 84 22 85 23
REMARK SMILES IDX 4 24 5 25 3 26 2 27 1 28 20 29 21 30 22 31 23 32 24 33 25 34
REMARK SMILES IDX 26 35 78 36 27 37 77 38 28 39 29 40 30 41 71 42 31 43 76 44
REMARK SMILES IDX 70 45 72 46 32 47 75 48 69 49 68 50 33 52 59 53 42 54 58 55
REMARK SMILES IDX 43 56 46 57 57 58 73 59 44 60 45 61 56 63 74 64 47 65 34 66
REMARK SMILES IDX 35 67 40 68 36 69 37 70 39 71 41 72 38 73 60 74 61 75 66 76
REMARK SMILES IDX 62 77 63 78 65 79 67 80 64 81 48 82 49 83 54 84 50 85 51 86
REMARK SMILES IDX 53 87 55 88 52 89
REMARK H PARENT 8 12 72 51 46 62
REMARK Flexibility Score: inf
ROOT
ATOM      1  O   UNL A   1      36.583  23.073  26.185  1.00  0.00    -0.462 OA
ENDROOT
BRANCH   1   2
ATOM      2  C   UNL A   1      35.364  23.522  25.765  1.00  0.00     0.309 C 
ATOM      3  O   UNL A   1      34.828  24.528  26.218  1.00  0.00    -0.252 OA
BRANCH   2   4
ATOM      4  C   UNL A   1      34.729  22.718  24.580  1.00  0.00     0.111 C 
ATOM      5  C   UNL A   1      33.210  22.829  24.325  1.00  0.00     0.093 C 
ATOM      6  C   UNL A   1      32.299  21.573  24.346  1.00  0.00     0.014 C 
ATOM      7  C   UNL A   1      33.007  20.239  24.272  1.00  0.00     0.001 C 
ATOM      8  C   UNL A   1      35.264  21.289  24.529  1.00  0.00     0.016 C 
ATOM      9  C   UNL A   1      34.303  20.235  25.060  1.00  0.00     0.001 C 
BRANCH   5  10
ATOM     10  C   UNL A   1      32.898  23.573  23.062  1.00  0.00     0.228 C 
ATOM     11  N   UNL A   1      32.418  24.841  23.090  1.00  0.00    -0.317 N 
ATOM     12  H   UNL A   1      32.088  25.122  22.205  1.00  0.00     0.170 HD
ATOM     13  O   UNL A   1      33.012  23.011  21.969  1.00  0.00    -0.274 OA
BRANCH  11  14
ATOM     14  C   UNL A   1      32.267  25.842  24.029  1.00  0.00     0.110 A 
ATOM     15  C   UNL A   1      31.454  26.277  25.082  1.00  0.00     0.098 A 
ATOM     16  C   UNL A   1      32.200  27.297  25.861  1.00  0.00    -0.017 A 
ATOM     17  S   UNL A   1      33.636  26.857  23.800  1.00  0.00    -0.122 S 
ATOM     18  C   UNL A   1      33.370  27.683  25.237  1.00  0.00     0.011 A 
ATOM     19  C   UNL A   1      31.859  27.884  27.215  1.00  0.00     0.038 C 
ATOM     20  C   UNL A   1      34.342  28.724  25.706  1.00  0.00     0.050 C 
ATOM     21  C   UNL A   1      32.619  29.205  27.486  1.00  0.00     0.008 C 
ATOM     22  C   UNL A   1      34.127  29.052  27.193  1.00  0.00    -0.009 C 
ATOM     23  C   UNL A   1      34.917  30.304  27.568  1.00  0.00     0.008 C 
BRANCH  15  24
ATOM     24  C   UNL A   1      30.162  25.721  25.515  1.00  0.00     0.341 C 
ATOM     25  O   UNL A   1      29.138  25.959  24.853  1.00  0.00    -0.246 OA
BRANCH  24  26
ATOM     26  O   UNL A   1      30.184  24.928  26.632  1.00  0.00    -0.462 OA
BRANCH  26  27
ATOM     27  C   UNL A   1      30.196  23.443  26.794  1.00  0.00     0.230 C 
ATOM     28  C   UNL A   1      29.131  22.464  27.291  1.00  0.00     0.049 C 
ENDBRANCH  26  27
ENDBRANCH  24  26
ENDBRANCH  15  24
ENDBRANCH  11  14
ENDBRANCH   5  10
ENDBRANCH   2   4
ENDBRANCH   1   2
BRANCH   1  29
ATOM     29  C   UNL A   1      37.786  23.786  25.746  1.00  0.00     0.274 C 
BRANCH  29  30
ATOM     30  C   UNL A   1      38.881  24.155  26.783  1.00  0.00     0.275 C 
BRANCH  30  31
ATOM     31  O   UNL A   1      39.812  25.156  26.314  1.00  0.00    -0.458 OA
BRANCH  31  32
ATOM     32  C   UNL A   1      40.259  26.010  27.264  1.00  0.00     0.338 C 
ATOM     33  O   UNL A   1      41.423  26.346  27.432  1.00  0.00    -0.246 OA
BRANCH  32  34
ATOM     34  C   UNL A   1      39.169  26.618  28.088  1.00  0.00     0.060 A 
ATOM     35  C   UNL A   1      38.689  27.865  27.708  1.00  0.00     0.016 A 
ATOM     36  C   UNL A   1      39.200  26.338  29.441  1.00  0.00     0.016 A 
ATOM     37  C   UNL A   1      38.767  28.960  28.519  1.00  0.00     0.010 A 
ATOM     38  C   UNL A   1      39.110  27.398  30.326  1.00  0.00     0.010 A 
ATOM     39  C   UNL A   1      39.084  28.713  29.830  1.00  0.00    -0.014 A 
BRANCH  39  40
ATOM     40  C   UNL A   1      39.288  29.865  30.695  1.00  0.00     0.031 A 
ATOM     41  C   UNL A   1      40.696  30.377  30.718  1.00  0.00     0.074 A 
ATOM     42  C   UNL A   1      38.160  30.411  31.200  1.00  0.00     0.049 A 
ATOM     43  N   UNL A   1      41.325  31.018  31.651  1.00  0.00    -0.248 NA
ATOM     44  C   UNL A   1      41.568  30.032  29.566  1.00  0.00     0.031 C 
ATOM     45  C   UNL A   1      36.791  29.889  31.033  1.00  0.00     0.029 A 
ATOM     46  N   UNL A   1      37.931  31.630  31.751  1.00  0.00    -0.354 N 
ATOM     47  C   UNL A   1      42.568  31.349  31.103  1.00  0.00     0.074 A 
ATOM     48  C   UNL A   1      42.732  30.569  29.914  1.00  0.00     0.031 C 
ATOM     49  C   UNL A   1      35.915  30.906  31.137  1.00  0.00     0.029 A 
ATOM     50  C   UNL A   1      36.655  32.109  31.464  1.00  0.00     0.049 A 
ATOM     51  H   UNL A   1      38.591  32.120  32.292  1.00  0.00     0.167 HD
ATOM     52  C   UNL A   1      43.213  32.487  31.469  1.00  0.00     0.037 A 
ATOM     53  C   UNL A   1      36.285  33.406  31.327  1.00  0.00     0.037 A 
ATOM     54  C   UNL A   1      42.928  32.822  32.837  1.00  0.00     0.049 A 
ATOM     55  C   UNL A   1      37.394  34.245  31.850  1.00  0.00     0.074 A 
ATOM     56  C   UNL A   1      43.087  32.154  34.036  1.00  0.00     0.029 A 
ATOM     57  N   UNL A   1      42.067  33.858  33.097  1.00  0.00    -0.354 N 
ATOM     58  N   UNL A   1      37.724  34.324  33.108  1.00  0.00    -0.248 NA
ATOM     59  C   UNL A   1      38.435  34.633  30.906  1.00  0.00     0.031 C 
ATOM     60  C   UNL A   1      41.952  32.517  34.813  1.00  0.00     0.029 A 
ATOM     61  C   UNL A   1      41.205  33.432  34.073  1.00  0.00     0.049 A 
ATOM     62  H   UNL A   1      42.068  34.742  32.664  1.00  0.00     0.167 HD
ATOM     63  C   UNL A   1      39.111  34.346  33.107  1.00  0.00     0.074 A 
ATOM     64  C   UNL A   1      39.492  34.617  31.723  1.00  0.00     0.031 C 
ATOM     65  C   UNL A   1      39.828  33.854  34.161  1.00  0.00     0.037 A 
BRANCH  52  66
ATOM     66  C   UNL A   1      43.698  33.493  30.444  1.00  0.00     0.057 A 
ATOM     67  C   UNL A   1      45.019  33.965  30.527  1.00  0.00     0.134 A 
ATOM     68  C   UNL A   1      42.857  34.237  29.584  1.00  0.00     0.134 A 
ATOM     69  F   UNL A   1      45.921  33.347  31.304  1.00  0.00    -0.206 F 
ATOM     70  C   UNL A   1      45.437  35.142  29.893  1.00  0.00     0.040 A 
ATOM     71  C   UNL A   1      43.278  35.386  28.911  1.00  0.00     0.040 A 
ATOM     72  F   UNL A   1      41.560  33.960  29.410  1.00  0.00    -0.206 F 
ATOM     73  C   UNL A   1      44.561  35.866  29.095  1.00  0.00     0.006 A 
ENDBRANCH  52  66
BRANCH  53  74
ATOM     74  C   UNL A   1      35.224  33.953  30.445  1.00  0.00     0.057 A 
ATOM     75  C   UNL A   1      34.165  34.701  30.975  1.00  0.00     0.134 A 
ATOM     76  C   UNL A   1      35.326  33.945  29.039  1.00  0.00     0.134 A 
ATOM     77  F   UNL A   1      34.014  34.817  32.302  1.00  0.00    -0.206 F 
ATOM     78  C   UNL A   1      33.261  35.395  30.159  1.00  0.00     0.040 A 
ATOM     79  C   UNL A   1      34.418  34.616  28.214  1.00  0.00     0.040 A 
ATOM     80  F   UNL A   1      36.357  33.357  28.418  1.00  0.00    -0.206 F 
ATOM     81  C   UNL A   1      33.385  35.355  28.773  1.00  0.00     0.006 A 
ENDBRANCH  53  74
BRANCH  65  82
ATOM     82  C   UNL A   1      39.085  33.490  35.417  1.00  0.00     0.057 A 
ATOM     83  C   UNL A   1      38.577  32.210  35.689  1.00  0.00     0.134 A 
ATOM     84  C   UNL A   1      39.014  34.425  36.455  1.00  0.00     0.134 A 
ATOM     85  F   UNL A   1      38.714  31.207  34.814  1.00  0.00    -0.206 F 
ATOM     86  C   UNL A   1      37.972  31.898  36.909  1.00  0.00     0.040 A 
ATOM     87  C   UNL A   1      38.464  34.109  37.699  1.00  0.00     0.040 A 
ATOM     88  F   UNL A   1      39.531  35.653  36.295  1.00  0.00    -0.206 F 
ATOM     89  C   UNL A   1      37.927  32.845  37.925  1.00  0.00     0.006 A 
ENDBRANCH  65  82
ENDBRANCH  39  40
ENDBRANCH  32  34
ENDBRANCH  31  32
ENDBRANCH  30  31
ENDBRANCH  29  30
ENDBRANCH   1  29
TORSDOF 16
ENDMDL
MODEL 2
REMARK VINA RESULT:     -12.0      5.225      9.974
REMARK SMILES CCOC(=O)c1c(NC(=O)[C@H]2CCCC[C@@H]2C(=O)OCCOC(=O)c2ccc(-c3c4nc(c(-c5c(F)cccc5F)c5ccc([nH]5)c(-c5c(F)cccc5F)c5nc(c(-c6c(F)cccc6F)c6ccc3[nH]6)C=C5)C=C4)cc2)sc2c1CC[C@H](C)C2
REMARK SMILES IDX 19 1 17 2 18 3 16 4 11 5 12 6 13 7 15 8 14 9 9 10 8 11 10 13
REMARK SMILES IDX 7 14 6 15 81 16 79 17 80 18 82 19 86 20 83 21 84 22 85 23
REMARK SMILES IDX 4 24 5 25 3 26 2 27 1 28 20 29 21 30 22 31 23 32 24 33 25 34
REMARK SMILES IDX 26 35 78 36 27 37 77 38 28 39 29 40 30 41 71 42 31 43 76 44
REMARK SMILES IDX 70 45 72 46 32 47 75 48 69 49 68 50 33 52 59 53 42 54 58 55
REMARK SMILES IDX 43 56 46 57 57 58 73 59 44 60 45 61 56 63 74 64 47 65 34 66
REMARK SMILES IDX 35 67 40 68 36 69 37 70 39 71 41 72 38 73 60 74 61 75 66 76
REMARK SMILES IDX 62 77 63 78 65 79 67 80 64 81 48 82 49 83 54 84 50 85 51 86
REMARK SMILES IDX 53 87 55 88 52 89
REMARK H PARENT 8 12 72 51 46 62
REMARK Flexibility Score: inf
ROOT
ATOM      1  O   UNL A   1      34.018  27.913  26.463  1.00  0.00    -0.462 OA
ENDROOT
BRANCH   1   2
ATOM      2  C   UNL A   1      33.465  28.175  25.244  1.00  0.00     0.309 C 
ATOM      3  O   UNL A   1      34.123  28.535  24.273  1.00  0.00    -0.252 OA
BRANCH   2   4
ATOM      4  C   UNL A   1      31.930  27.885  25.130  1.00  0.00     0.111 C 
ATOM      5  C   UNL A   1      31.455  26.644  24.344  1.00  0.00     0.093 C 
ATOM      6  C   UNL A   1      30.501  26.781  23.127  1.00  0.00     0.014 C 
ATOM      7  C   UNL A   1      29.797  28.112  22.983  1.00  0.00     0.001 C 
ATOM      8  C   UNL A   1      31.147  29.157  24.813  1.00  0.00     0.016 C 
ATOM      9  C   UNL A   1      30.692  29.276  23.365  1.00  0.00     0.001 C 
BRANCH   5  10
ATOM     10  C   UNL A   1      30.873  25.592  25.238  1.00  0.00     0.228 C 
ATOM     11  N   UNL A   1      31.460  24.378  25.375  1.00  0.00    -0.317 N 
ATOM     12  H   UNL A   1      30.869  23.740  25.839  1.00  0.00     0.170 HD
ATOM     13  O   UNL A   1      29.802  25.796  25.818  1.00  0.00    -0.274 OA
BRANCH  11  14
ATOM     14  C   UNL A   1      32.666  23.796  25.036  1.00  0.00     0.110 A 
ATOM     15  C   UNL A   1      33.378  23.234  23.970  1.00  0.00     0.098 A 
ATOM     16  C   UNL A   1      34.812  23.169  24.345  1.00  0.00    -0.017 A 
ATOM     17  S   UNL A   1      33.601  23.871  26.477  1.00  0.00    -0.122 S 
ATOM     18  C   UNL A   1      35.022  23.472  25.676  1.00  0.00     0.011 A 
ATOM     19  C   UNL A   1      36.006  22.874  23.460  1.00  0.00     0.038 C 
ATOM     20  C   UNL A   1      36.328  23.456  26.411  1.00  0.00     0.050 C 
ATOM     21  C   UNL A   1      37.254  22.468  24.281  1.00  0.00     0.008 C 
ATOM     22  C   UNL A   1      37.514  23.464  25.431  1.00  0.00    -0.009 C 
ATOM     23  C   UNL A   1      38.809  23.154  26.180  1.00  0.00     0.008 C 
BRANCH  15  24
ATOM     24  C   UNL A   1      32.885  22.927  22.617  1.00  0.00     0.341 C 
ATOM     25  O   UNL A   1      32.072  22.002  22.455  1.00  0.00    -0.246 OA
BRANCH  24  26
ATOM     26  O   UNL A   1      33.347  23.727  21.606  1.00  0.00    -0.462 OA
BRANCH  26  27
ATOM     27  C   UNL A   1      32.918  25.079  21.137  1.00  0.00     0.230 C 
ATOM     28  C   UNL A   1      32.422  25.578  19.778  1.00  0.00     0.049 C 
ENDBRANCH  26  27
ENDBRANCH  24  26
ENDBRANCH  15  24
ENDBRANCH  11  14
ENDBRANCH   5  10
ENDBRANCH   2   4
ENDBRANCH   1   2
BRANCH   1  29
ATOM     29  C   UNL A   1      34.240  29.026  27.390  1.00  0.00     0.274 C 
BRANCH  29  30
ATOM     30  C   UNL A   1      35.681  29.553  27.626  1.00  0.00     0.275 C 
BRANCH  30  31
ATOM     31  O   UNL A   1      36.159  29.359  28.977  1.00  0.00    -0.458 OA
BRANCH  31  32
ATOM     32  C   UNL A   1      37.505  29.350  29.110  1.00  0.00     0.338 C 
ATOM     33  O   UNL A   1      38.133  29.831  30.044  1.00  0.00    -0.246 OA
BRANCH  32  34
ATOM     34  C   UNL A   1      38.214  28.600  28.028  1.00  0.00     0.060 A 
ATOM     35  C   UNL A   1      38.519  27.264  28.259  1.00  0.00     0.016 A 
ATOM     36  C   UNL A   1      39.105  29.329  27.265  1.00  0.00     0.016 A 
ATOM     37  C   UNL A   1      39.801  26.795  28.270  1.00  0.00     0.010 A 
ATOM     38  C   UNL A   1      40.381  28.821  27.092  1.00  0.00     0.010 A 
ATOM     39  C   UNL A   1      40.753  27.643  27.765  1.00  0.00    -0.014 A 
BRANCH  39  40
ATOM     40  C   UNL A   1      42.142  27.223  27.866  1.00  0.00     0.031 A 
ATOM     41  C   UNL A   1      42.828  27.657  29.125  1.00  0.00     0.074 A 
ATOM     42  C   UNL A   1      42.550  26.358  26.912  1.00  0.00     0.049 A 
ATOM     43  N   UNL A   1      44.085  27.880  29.344  1.00  0.00    -0.248 NA
ATOM     44  C   UNL A   1      41.970  27.994  30.290  1.00  0.00     0.031 C 
ATOM     45  C   UNL A   1      41.759  25.901  25.754  1.00  0.00     0.029 A 
ATOM     46  N   UNL A   1      43.623  25.527  26.864  1.00  0.00    -0.354 N 
ATOM     47  C   UNL A   1      44.182  28.148  30.714  1.00  0.00     0.074 A 
ATOM     48  C   UNL A   1      42.856  28.388  31.197  1.00  0.00     0.031 C 
ATOM     49  C   UNL A   1      42.198  24.688  25.370  1.00  0.00     0.029 A 
ATOM     50  C   UNL A   1      43.343  24.341  26.188  1.00  0.00     0.049 A 
ATOM     51  H   UNL A   1      44.498  25.738  27.262  1.00  0.00     0.167 HD
ATOM     52  C   UNL A   1      45.294  27.809  31.415  1.00  0.00     0.037 A 
ATOM     53  C   UNL A   1      43.894  23.124  26.420  1.00  0.00     0.037 A 
ATOM     54  C   UNL A   1      46.468  27.893  30.589  1.00  0.00     0.049 A 
ATOM     55  C   UNL A   1      45.076  23.327  27.297  1.00  0.00     0.074 A 
ATOM     56  C   UNL A   1      47.046  28.909  29.852  1.00  0.00     0.029 A 
ATOM     57  N   UNL A   1      47.043  26.731  30.141  1.00  0.00    -0.354 N 
ATOM     58  N   UNL A   1      46.178  23.911  26.919  1.00  0.00    -0.248 NA
ATOM     59  C   UNL A   1      44.849  23.296  28.736  1.00  0.00     0.031 C 
ATOM     60  C   UNL A   1      47.556  28.273  28.686  1.00  0.00     0.029 A 
ATOM     61  C   UNL A   1      47.320  26.905  28.810  1.00  0.00     0.049 A 
ATOM     62  H   UNL A   1      47.223  25.923  30.674  1.00  0.00     0.167 HD
ATOM     63  C   UNL A   1      46.555  24.687  28.005  1.00  0.00     0.074 A 
ATOM     64  C   UNL A   1      45.747  24.205  29.122  1.00  0.00     0.031 C 
ATOM     65  C   UNL A   1      47.270  25.838  27.839  1.00  0.00     0.037 A 
BRANCH  52  66
ATOM     66  C   UNL A   1      45.217  26.975  32.678  1.00  0.00     0.057 A 
ATOM     67  C   UNL A   1      45.915  27.403  33.819  1.00  0.00     0.134 A 
ATOM     68  C   UNL A   1      44.751  25.640  32.735  1.00  0.00     0.134 A 
ATOM     69  F   UNL A   1      46.406  28.648  33.897  1.00  0.00    -0.206 F 
ATOM     70  C   UNL A   1      46.219  26.541  34.881  1.00  0.00     0.040 A 
ATOM     71  C   UNL A   1      45.009  24.787  33.810  1.00  0.00     0.040 A 
ATOM     72  F   UNL A   1      44.102  25.048  31.727  1.00  0.00    -0.206 F 
ATOM     73  C   UNL A   1      45.780  25.224  34.872  1.00  0.00     0.006 A 
ENDBRANCH  52  66
BRANCH  53  74
ATOM     74  C   UNL A   1      43.252  21.796  26.247  1.00  0.00     0.057 A 
ATOM     75  C   UNL A   1      43.818  20.830  25.407  1.00  0.00     0.134 A 
ATOM     76  C   UNL A   1      42.189  21.356  27.060  1.00  0.00     0.134 A 
ATOM     77  F   UNL A   1      44.871  21.136  24.634  1.00  0.00    -0.206 F 
ATOM     78  C   UNL A   1      43.354  19.508  25.373  1.00  0.00     0.040 A 
ATOM     79  C   UNL A   1      41.703  20.045  27.020  1.00  0.00     0.040 A 
ATOM     80  F   UNL A   1      41.638  22.156  27.983  1.00  0.00    -0.206 F 
ATOM     81  C   UNL A   1      42.293  19.111  26.181  1.00  0.00     0.006 A 
ENDBRANCH  53  74
BRANCH  65  82
ATOM     82  C   UNL A   1      47.830  26.136  26.475  1.00  0.00     0.057 A 
ATOM     83  C   UNL A   1      47.135  26.826  25.471  1.00  0.00     0.134 A 
ATOM     84  C   UNL A   1      49.177  25.850  26.221  1.00  0.00     0.134 A 
ATOM     85  F   UNL A   1      45.885  27.263  25.664  1.00  0.00    -0.206 F 
ATOM     86  C   UNL A   1      47.731  27.156  24.251  1.00  0.00     0.040 A 
ATOM     87  C   UNL A   1      49.799  26.226  25.029  1.00  0.00     0.040 A 
ATOM     88  F   UNL A   1      49.927  25.246  27.155  1.00  0.00    -0.206 F 
ATOM     89  C   UNL A   1      49.072  26.869  24.032  1.00  0.00     0.006 A 
ENDBRANCH  65  82
ENDBRANCH  39  40
ENDBRANCH  32  34
ENDBRANCH  31  32
ENDBRANCH  30  31
ENDBRANCH  29  30
ENDBRANCH   1  29
TORSDOF 16
ENDMDL
MODEL 3
REMARK VINA RESULT:     -11.5      1.451      2.777
REMARK SMILES CCOC(=O)c1c(NC(=O)[C@H]2CCCC[C@@H]2C(=O)OCCOC(=O)c2ccc(-c3c4nc(c(-c5c(F)cccc5F)c5ccc([nH]5)c(-c5c(F)cccc5F)c5nc(c(-c6c(F)cccc6F)c6ccc3[nH]6)C=C5)C=C4)cc2)sc2c1CC[C@H](C)C2
REMARK SMILES IDX 19 1 17 2 18 3 16 4 11 5 12 6 13 7 15 8 14 9 9 10 8 11 10 13
REMARK SMILES IDX 7 14 6 15 81 16 79 17 80 18 82 19 86 20 83 21 84 22 85 23
REMARK SMILES IDX 4 24 5 25 3 26 2 27 1 28 20 29 21 30 22 31 23 32 24 33 25 34
REMARK SMILES IDX 26 35 78 36 27 37 77 38 28 39 29 40 30 41 71 42 31 43 76 44
REMARK SMILES IDX 70 45 72 46 32 47 75 48 69 49 68 50 33 52 59 53 42 54 58 55
REMARK SMILES IDX 43 56 46 57 57 58 73 59 44 60 45 61 56 63 74 64 47 65 34 66
REMARK SMILES IDX 35 67 40 68 36 69 37 70 39 71 41 72 38 73 60 74 61 75 66 76
REMARK SMILES IDX 62 77 63 78 65 79 67 80 64 81 48 82 49 83 54 84 50 85 51 86
REMARK SMILES IDX 53 87 55 88 52 89
REMARK H PARENT 8 12 72 51 46 62
REMARK Flexibility Score: inf
ROOT
ATOM      1  O   UNL A   1      36.374  24.147  25.721  1.00  0.00    -0.462 OA
ENDROOT
BRANCH   1   2
ATOM      2  C   UNL A   1      35.519  23.706  24.754  1.00  0.00     0.309 C 
ATOM      3  O   UNL A   1      35.832  22.866  23.916  1.00  0.00    -0.252 OA
BRANCH   2   4
ATOM      4  C   UNL A   1      34.061  24.270  24.842  1.00  0.00     0.111 C 
ATOM      5  C   UNL A   1      32.889  23.292  25.078  1.00  0.00     0.093 C 
ATOM      6  C   UNL A   1      31.716  23.188  24.067  1.00  0.00     0.014 C 
ATOM      7  C   UNL A   1      31.602  24.313  23.063  1.00  0.00     0.001 C 
ATOM      8  C   UNL A   1      33.797  25.302  23.748  1.00  0.00     0.016 C 
ATOM      9  C   UNL A   1      32.961  24.789  22.584  1.00  0.00     0.001 C 
BRANCH   5  10
ATOM     10  C   UNL A   1      32.281  23.451  26.438  1.00  0.00     0.228 C 
ATOM     11  N   UNL A   1      31.801  24.646  26.862  1.00  0.00    -0.317 N 
ATOM     12  H   UNL A   1      31.611  24.638  27.828  1.00  0.00     0.170 HD
ATOM     13  O   UNL A   1      32.270  22.501  27.226  1.00  0.00    -0.274 OA
BRANCH  11  14
ATOM     14  C   UNL A   1      31.510  25.873  26.298  1.00  0.00     0.110 A 
ATOM     15  C   UNL A   1      32.031  27.151  26.063  1.00  0.00     0.098 A 
ATOM     16  C   UNL A   1      31.200  27.815  25.028  1.00  0.00    -0.017 A 
ATOM     17  S   UNL A   1      29.948  25.670  25.608  1.00  0.00    -0.122 S 
ATOM     18  C   UNL A   1      30.053  27.104  24.739  1.00  0.00     0.011 A 
ATOM     19  C   UNL A   1      31.489  29.090  24.263  1.00  0.00     0.038 C 
ATOM     20  C   UNL A   1      28.962  27.496  23.788  1.00  0.00     0.050 C 
ATOM     21  C   UNL A   1      30.215  29.680  23.612  1.00  0.00     0.008 C 
ATOM     22  C   UNL A   1      29.436  28.601  22.830  1.00  0.00    -0.009 C 
ATOM     23  C   UNL A   1      28.241  29.184  22.077  1.00  0.00     0.008 C 
BRANCH  15  24
ATOM     24  C   UNL A   1      33.292  27.718  26.569  1.00  0.00     0.341 C 
ATOM     25  O   UNL A   1      34.375  27.243  26.190  1.00  0.00    -0.246 OA
BRANCH  24  26
ATOM     26  O   UNL A   1      33.180  28.783  27.424  1.00  0.00    -0.462 OA
BRANCH  26  27
ATOM     27  C   UNL A   1      33.978  30.040  27.551  1.00  0.00     0.230 C 
ATOM     28  C   UNL A   1      35.487  30.287  27.622  1.00  0.00     0.049 C 
ENDBRANCH  26  27
ENDBRANCH  24  26
ENDBRANCH  15  24
ENDBRANCH  11  14
ENDBRANCH   5  10
ENDBRANCH   2   4
ENDBRANCH   1   2
BRANCH   1  29
ATOM     29  C   UNL A   1      37.791  23.784  25.630  1.00  0.00     0.274 C 
BRANCH  29  30
ATOM     30  C   UNL A   1      38.767  24.206  26.761  1.00  0.00     0.275 C 
BRANCH  30  31
ATOM     31  O   UNL A   1      39.789  25.133  26.332  1.00  0.00    -0.458 OA
BRANCH  31  32
ATOM     32  C   UNL A   1      40.258  25.955  27.299  1.00  0.00     0.338 C 
ATOM     33  O   UNL A   1      41.433  26.231  27.494  1.00  0.00    -0.246 OA
BRANCH  32  34
ATOM     34  C   UNL A   1      39.182  26.609  28.108  1.00  0.00     0.060 A 
ATOM     35  C   UNL A   1      38.747  27.866  27.708  1.00  0.00     0.016 A 
ATOM     36  C   UNL A   1      39.194  26.345  29.464  1.00  0.00     0.016 A 
ATOM     37  C   UNL A   1      38.856  28.968  28.506  1.00  0.00     0.010 A 
ATOM     38  C   UNL A   1      39.134  27.418  30.335  1.00  0.00     0.010 A 
ATOM     39  C   UNL A   1      39.155  28.727  29.823  1.00  0.00    -0.014 A 
BRANCH  39  40
ATOM     40  C   UNL A   1      39.390  29.883  30.675  1.00  0.00     0.031 A 
ATOM     41  C   UNL A   1      40.799  30.392  30.647  1.00  0.00     0.074 A 
ATOM     42  C   UNL A   1      38.281  30.433  31.216  1.00  0.00     0.049 A 
ATOM     43  N   UNL A   1      41.461  31.037  31.555  1.00  0.00    -0.248 NA
ATOM     44  C   UNL A   1      41.630  30.041  29.467  1.00  0.00     0.031 C 
ATOM     45  C   UNL A   1      36.906  29.912  31.100  1.00  0.00     0.029 A 
ATOM     46  N   UNL A   1      38.073  31.655  31.770  1.00  0.00    -0.354 N 
ATOM     47  C   UNL A   1      42.684  31.363  30.962  1.00  0.00     0.074 A 
ATOM     48  C   UNL A   1      42.806  30.578  29.772  1.00  0.00     0.031 C 
ATOM     49  C   UNL A   1      36.036  30.931  31.230  1.00  0.00     0.029 A 
ATOM     50  C   UNL A   1      36.789  32.134  31.525  1.00  0.00     0.049 A 
ATOM     51  H   UNL A   1      38.753  32.146  32.285  1.00  0.00     0.167 HD
ATOM     52  C   UNL A   1      43.343  32.502  31.300  1.00  0.00     0.037 A 
ATOM     53  C   UNL A   1      36.416  33.431  31.395  1.00  0.00     0.037 A 
ATOM     54  C   UNL A   1      43.107  32.843  32.677  1.00  0.00     0.049 A 
ATOM     55  C   UNL A   1      37.544  34.271  31.875  1.00  0.00     0.074 A 
ATOM     56  C   UNL A   1      43.306  32.180  33.872  1.00  0.00     0.029 A 
ATOM     57  N   UNL A   1      42.257  33.882  32.961  1.00  0.00    -0.354 N 
ATOM     58  N   UNL A   1      37.918  34.355  33.121  1.00  0.00    -0.248 NA
ATOM     59  C   UNL A   1      38.552  34.653  30.895  1.00  0.00     0.031 C 
ATOM     60  C   UNL A   1      42.200  32.548  34.686  1.00  0.00     0.029 A 
ATOM     61  C   UNL A   1      41.428  33.461  33.968  1.00  0.00     0.049 A 
ATOM     62  H   UNL A   1      42.245  34.764  32.525  1.00  0.00     0.167 HD
ATOM     63  C   UNL A   1      39.304  34.374  33.072  1.00  0.00     0.074 A 
ATOM     64  C   UNL A   1      39.636  34.638  31.675  1.00  0.00     0.031 C 
ATOM     65  C   UNL A   1      40.056  33.886  34.102  1.00  0.00     0.037 A 
BRANCH  52  66
ATOM     66  C   UNL A   1      43.794  33.502  30.255  1.00  0.00     0.057 A 
ATOM     67  C   UNL A   1      45.129  33.940  30.264  1.00  0.00     0.134 A 
ATOM     68  C   UNL A   1      42.924  34.273  29.449  1.00  0.00     0.134 A 
ATOM     69  F   UNL A   1      46.059  33.295  30.984  1.00  0.00    -0.206 F 
ATOM     70  C   UNL A   1      45.540  35.111  29.614  1.00  0.00     0.040 A 
ATOM     71  C   UNL A   1      43.334  35.416  28.759  1.00  0.00     0.040 A 
ATOM     72  F   UNL A   1      41.613  34.030  29.349  1.00  0.00    -0.206 F 
ATOM     73  C   UNL A   1      44.638  35.862  28.872  1.00  0.00     0.006 A 
ENDBRANCH  52  66
BRANCH  53  74
ATOM     74  C   UNL A   1      35.325  33.976  30.548  1.00  0.00     0.057 A 
ATOM     75  C   UNL A   1      34.247  34.662  31.120  1.00  0.00     0.134 A 
ATOM     76  C   UNL A   1      35.412  34.032  29.143  1.00  0.00     0.134 A 
ATOM     77  F   UNL A   1      34.108  34.716  32.453  1.00  0.00    -0.206 F 
ATOM     78  C   UNL A   1      33.309  35.357  30.344  1.00  0.00     0.040 A 
ATOM     79  C   UNL A   1      34.471  34.703  28.356  1.00  0.00     0.040 A 
ATOM     80  F   UNL A   1      36.456  33.508  28.486  1.00  0.00    -0.206 F 
ATOM     81  C   UNL A   1      33.419  35.379  28.957  1.00  0.00     0.006 A 
ENDBRANCH  53  74
BRANCH  65  82
ATOM     82  C   UNL A   1      39.357  33.528  35.385  1.00  0.00     0.057 A 
ATOM     83  C   UNL A   1      39.059  34.447  36.403  1.00  0.00     0.134 A 
ATOM     84  C   UNL A   1      38.828  32.240  35.530  1.00  0.00     0.134 A 
ATOM     85  F   UNL A   1      39.402  35.736  36.299  1.00  0.00    -0.206 F 
ATOM     86  C   UNL A   1      38.329  34.084  37.537  1.00  0.00     0.040 A 
ATOM     87  C   UNL A   1      38.049  31.881  36.631  1.00  0.00     0.040 A 
ATOM     88  F   UNL A   1      39.018  31.320  34.572  1.00  0.00    -0.206 F 
ATOM     89  C   UNL A   1      37.808  32.801  37.648  1.00  0.00     0.006 A 
ENDBRANCH  65  82
ENDBRANCH  39  40
ENDBRANCH  32  34
ENDBRANCH  31  32
ENDBRANCH  30  31
ENDBRANCH  29  30
ENDBRANCH   1  29
TORSDOF 16
ENDMDL
