MODEL 1
REMARK VINA RESULT:     -12.0      0.000      0.000
REMARK SMILES CNC(=O)c1cc(S(=O)(=O)N2CCC(C(=O)OCCOC(=O)c3ccc(-c4c5nc(c(-c6c(F)cccc6F)c6ccc([nH]6)c(-c6c(F)cccc6F)c6nc(c(-c7c(F)cccc7F)c7ccc4[nH]7)C=C6)C=C5)cc3)CC2)ccc1OC
REMARK SMILES IDX 18 1 17 2 15 3 16 4 14 5 11 6 12 7 78 8 13 9 77 10 8 11 9 12
REMARK SMILES IDX 10 13 7 14 5 15 6 16 81 17 80 18 79 19 3 20 1 21 2 22 4 24
REMARK SMILES IDX 82 25 83 26 19 27 20 28 21 29 22 30 23 31 24 32 76 33 25 34
REMARK SMILES IDX 75 35 26 36 27 37 28 38 69 39 29 40 74 41 68 42 70 43 30 44
REMARK SMILES IDX 73 45 67 46 66 47 31 49 57 50 40 51 56 52 41 53 44 54 55 55
REMARK SMILES IDX 71 56 42 57 43 58 54 60 72 61 45 62 32 63 33 64 38 65 34 66
REMARK SMILES IDX 35 67 37 68 39 69 36 70 58 71 59 72 64 73 60 74 61 75 63 76
REMARK SMILES IDX 65 77 62 78 46 79 47 80 52 81 48 82 49 83 51 84 53 85 50 86
REMARK H PARENT 2 23 70 48 44 59
REMARK Flexibility Score: inf
ROOT
ATOM      1  C   UNL A   1      39.445  21.373  26.124  1.00  0.00     0.274 C 
ENDROOT
BRANCH   1   2
ATOM      2  O   UNL A   1      38.163  22.027  26.039  1.00  0.00    -0.462 OA
BRANCH   2   3
ATOM      3  C   UNL A   1      37.203  21.364  25.352  1.00  0.00     0.309 C 
ATOM      4  O   UNL A   1      37.404  20.434  24.579  1.00  0.00    -0.252 OA
BRANCH   3   5
ATOM      5  C   UNL A   1      35.807  21.878  25.624  1.00  0.00     0.102 C 
ATOM      6  N   UNL A   1      33.282  23.229  25.567  1.00  0.00    -0.198 NA
ATOM      7  C   UNL A   1      34.289  23.607  26.589  1.00  0.00     0.103 C 
ATOM      8  C   UNL A   1      33.462  21.969  24.804  1.00  0.00     0.103 C 
ATOM      9  C   UNL A   1      35.711  23.311  26.130  1.00  0.00     0.032 C 
ATOM     10  C   UNL A   1      34.914  21.742  24.401  1.00  0.00     0.032 C 
BRANCH   6  11
ATOM     11  S   UNL A   1      31.669  23.699  25.881  1.00  0.00     0.243 S 
ATOM     12  O   UNL A   1      31.647  24.280  27.206  1.00  0.00    -0.207 OA
ATOM     13  O   UNL A   1      30.806  22.594  25.524  1.00  0.00    -0.207 OA
BRANCH  11  14
ATOM     14  C   UNL A   1      31.249  25.029  24.761  1.00  0.00     0.083 A 
ATOM     15  C   UNL A   1      31.937  26.339  22.827  1.00  0.00     0.083 A 
ATOM     16  C   UNL A   1      32.188  25.321  23.761  1.00  0.00     0.039 A 
ATOM     17  C   UNL A   1      30.714  27.019  22.851  1.00  0.00     0.131 A 
ATOM     18  C   UNL A   1      29.801  26.751  23.875  1.00  0.00     0.048 A 
ATOM     19  C   UNL A   1      30.064  25.760  24.828  1.00  0.00     0.025 A 
BRANCH  15  20
ATOM     20  C   UNL A   1      33.007  26.613  21.847  1.00  0.00     0.254 C 
ATOM     21  C   UNL A   1      33.684  28.810  22.926  1.00  0.00     0.143 C 
ATOM     22  N   UNL A   1      33.757  27.756  21.939  1.00  0.00    -0.355 N 
ATOM     23  H   UNL A   1      34.438  27.875  21.238  1.00  0.00     0.163 HD
ATOM     24  O   UNL A   1      33.233  25.790  20.965  1.00  0.00    -0.269 OA
ENDBRANCH  15  20
BRANCH  17  25
ATOM     25  O   UNL A   1      30.326  27.990  21.969  1.00  0.00    -0.496 OA
ATOM     26  C   UNL A   1      30.034  29.243  22.592  1.00  0.00     0.278 C 
ENDBRANCH  17  25
ENDBRANCH  11  14
ENDBRANCH   6  11
ENDBRANCH   3   5
ENDBRANCH   2   3
ENDBRANCH   1   2
BRANCH   1  27
ATOM     27  C   UNL A   1      40.541  22.346  26.566  1.00  0.00     0.275 C 
BRANCH  27  28
ATOM     28  O   UNL A   1      40.107  23.718  26.485  1.00  0.00    -0.458 OA
BRANCH  28  29
ATOM     29  C   UNL A   1      41.102  24.635  26.491  1.00  0.00     0.338 C 
ATOM     30  O   UNL A   1      42.069  24.684  25.749  1.00  0.00    -0.246 OA
BRANCH  29  31
ATOM     31  C   UNL A   1      40.808  25.701  27.460  1.00  0.00     0.060 A 
ATOM     32  C   UNL A   1      41.687  26.785  27.519  1.00  0.00     0.016 A 
ATOM     33  C   UNL A   1      39.759  25.589  28.374  1.00  0.00     0.016 A 
ATOM     34  C   UNL A   1      41.528  27.763  28.496  1.00  0.00     0.010 A 
ATOM     35  C   UNL A   1      39.599  26.575  29.357  1.00  0.00     0.010 A 
ATOM     36  C   UNL A   1      40.491  27.660  29.432  1.00  0.00    -0.014 A 
BRANCH  36  37
ATOM     37  C   UNL A   1      40.384  28.677  30.507  1.00  0.00     0.031 A 
ATOM     38  C   UNL A   1      39.346  29.759  30.425  1.00  0.00     0.074 A 
ATOM     39  C   UNL A   1      41.188  28.595  31.584  1.00  0.00     0.049 A 
ATOM     40  N   UNL A   1      39.097  30.732  31.265  1.00  0.00    -0.248 NA
ATOM     41  C   UNL A   1      38.470  29.745  29.244  1.00  0.00     0.031 C 
ATOM     42  C   UNL A   1      42.215  27.575  31.792  1.00  0.00     0.029 A 
ATOM     43  N   UNL A   1      41.260  29.378  32.707  1.00  0.00    -0.354 N 
ATOM     44  C   UNL A   1      38.048  31.454  30.710  1.00  0.00     0.074 A 
ATOM     45  C   UNL A   1      37.721  30.819  29.450  1.00  0.00     0.031 C 
ATOM     46  C   UNL A   1      42.807  27.788  32.979  1.00  0.00     0.029 A 
ATOM     47  C   UNL A   1      42.227  28.978  33.594  1.00  0.00     0.049 A 
ATOM     48  H   UNL A   1      40.673  30.154  32.862  1.00  0.00     0.167 HD
ATOM     49  C   UNL A   1      37.413  32.543  31.207  1.00  0.00     0.037 A 
ATOM     50  C   UNL A   1      42.613  29.517  34.767  1.00  0.00     0.037 A 
ATOM     51  C   UNL A   1      37.733  33.170  32.464  1.00  0.00     0.049 A 
ATOM     52  C   UNL A   1      41.913  30.745  35.279  1.00  0.00     0.074 A 
ATOM     53  C   UNL A   1      37.139  34.273  33.055  1.00  0.00     0.029 A 
ATOM     54  N   UNL A   1      38.736  32.749  33.324  1.00  0.00    -0.354 N 
ATOM     55  N   UNL A   1      40.919  31.413  34.747  1.00  0.00    -0.248 NA
ATOM     56  C   UNL A   1      42.390  31.291  36.557  1.00  0.00     0.031 C 
ATOM     57  C   UNL A   1      37.807  34.540  34.256  1.00  0.00     0.029 A 
ATOM     58  C   UNL A   1      38.787  33.578  34.435  1.00  0.00     0.049 A 
ATOM     59  H   UNL A   1      39.326  31.976  33.169  1.00  0.00     0.167 HD
ATOM     60  C   UNL A   1      40.636  32.444  35.634  1.00  0.00     0.074 A 
ATOM     61  C   UNL A   1      41.552  32.301  36.747  1.00  0.00     0.031 C 
ATOM     62  C   UNL A   1      39.704  33.423  35.535  1.00  0.00     0.037 A 
BRANCH  49  63
ATOM     63  C   UNL A   1      36.319  33.142  30.374  1.00  0.00     0.057 A 
ATOM     64  C   UNL A   1      34.965  32.901  30.644  1.00  0.00     0.134 A 
ATOM     65  C   UNL A   1      36.622  33.998  29.307  1.00  0.00     0.134 A 
ATOM     66  F   UNL A   1      34.608  32.080  31.643  1.00  0.00    -0.206 F 
ATOM     67  C   UNL A   1      33.954  33.473  29.870  1.00  0.00     0.040 A 
ATOM     68  C   UNL A   1      35.619  34.594  28.541  1.00  0.00     0.040 A 
ATOM     69  F   UNL A   1      37.898  34.274  28.997  1.00  0.00    -0.206 F 
ATOM     70  C   UNL A   1      34.280  34.328  28.819  1.00  0.00     0.006 A 
ENDBRANCH  49  63
BRANCH  50  71
ATOM     71  C   UNL A   1      43.721  28.900  35.536  1.00  0.00     0.057 A 
ATOM     72  C   UNL A   1      45.054  29.249  35.293  1.00  0.00     0.134 A 
ATOM     73  C   UNL A   1      43.474  27.942  36.525  1.00  0.00     0.134 A 
ATOM     74  F   UNL A   1      45.354  30.145  34.341  1.00  0.00    -0.206 F 
ATOM     75  C   UNL A   1      46.104  28.656  35.995  1.00  0.00     0.040 A 
ATOM     76  C   UNL A   1      44.511  27.359  37.253  1.00  0.00     0.040 A 
ATOM     77  F   UNL A   1      42.217  27.568  36.807  1.00  0.00    -0.206 F 
ATOM     78  C   UNL A   1      45.832  27.712  36.984  1.00  0.00     0.006 A 
ENDBRANCH  50  71
BRANCH  62  79
ATOM     79  C   UNL A   1      39.611  34.390  36.678  1.00  0.00     0.057 A 
ATOM     80  C   UNL A   1      38.864  34.106  37.829  1.00  0.00     0.134 A 
ATOM     81  C   UNL A   1      40.283  35.618  36.630  1.00  0.00     0.134 A 
ATOM     82  F   UNL A   1      38.185  32.953  37.930  1.00  0.00    -0.206 F 
ATOM     83  C   UNL A   1      38.764  35.021  38.878  1.00  0.00     0.040 A 
ATOM     84  C   UNL A   1      40.211  36.531  37.683  1.00  0.00     0.040 A 
ATOM     85  F   UNL A   1      41.022  35.949  35.560  1.00  0.00    -0.206 F 
ATOM     86  C   UNL A   1      39.442  36.237  38.807  1.00  0.00     0.006 A 
ENDBRANCH  62  79
ENDBRANCH  36  37
ENDBRANCH  29  31
ENDBRANCH  28  29
ENDBRANCH  27  28
ENDBRANCH   1  27
TORSDOF 15
ENDMDL
MODEL 2
REMARK VINA RESULT:     -11.7      3.960      7.900
REMARK SMILES CNC(=O)c1cc(S(=O)(=O)N2CCC(C(=O)OCCOC(=O)c3ccc(-c4c5nc(c(-c6c(F)cccc6F)c6ccc([nH]6)c(-c6c(F)cccc6F)c6nc(c(-c7c(F)cccc7F)c7ccc4[nH]7)C=C6)C=C5)cc3)CC2)ccc1OC
REMARK SMILES IDX 18 1 17 2 15 3 16 4 14 5 11 6 12 7 78 8 13 9 77 10 8 11 9 12
REMARK SMILES IDX 10 13 7 14 5 15 6 16 81 17 80 18 79 19 3 20 1 21 2 22 4 24
REMARK SMILES IDX 82 25 83 26 19 27 20 28 21 29 22 30 23 31 24 32 76 33 25 34
REMARK SMILES IDX 75 35 26 36 27 37 28 38 69 39 29 40 74 41 68 42 70 43 30 44
REMARK SMILES IDX 73 45 67 46 66 47 31 49 57 50 40 51 56 52 41 53 44 54 55 55
REMARK SMILES IDX 71 56 42 57 43 58 54 60 72 61 45 62 32 63 33 64 38 65 34 66
REMARK SMILES IDX 35 67 37 68 39 69 36 70 58 71 59 72 64 73 60 74 61 75 63 76
REMARK SMILES IDX 65 77 62 78 46 79 47 80 52 81 48 82 49 83 51 84 53 85 50 86
REMARK H PARENT 2 23 70 48 44 59
REMARK Flexibility Score: inf
ROOT
ATOM      1  C   UNL A   1      38.472  21.091  25.511  1.00  0.00     0.274 C 
ENDROOT
BRANCH   1   2
ATOM      2  O   UNL A   1      37.072  20.968  25.189  1.00  0.00    -0.462 OA
BRANCH   2   3
ATOM      3  C   UNL A   1      36.558  21.933  24.390  1.00  0.00     0.309 C 
ATOM      4  O   UNL A   1      37.105  22.384  23.390  1.00  0.00    -0.252 OA
BRANCH   3   5
ATOM      5  C   UNL A   1      35.202  22.428  24.842  1.00  0.00     0.102 C 
ATOM      6  N   UNL A   1      32.823  23.938  25.349  1.00  0.00    -0.198 NA
ATOM      7  C   UNL A   1      33.797  23.723  26.445  1.00  0.00     0.103 C 
ATOM      8  C   UNL A   1      32.929  23.121  24.114  1.00  0.00     0.103 C 
ATOM      9  C   UNL A   1      35.211  23.501  25.922  1.00  0.00     0.032 C 
ATOM     10  C   UNL A   1      34.375  22.934  23.671  1.00  0.00     0.032 C 
BRANCH   6  11
ATOM     11  S   UNL A   1      31.244  24.399  25.816  1.00  0.00     0.243 S 
ATOM     12  O   UNL A   1      31.302  24.746  27.219  1.00  0.00    -0.207 OA
ATOM     13  O   UNL A   1      30.323  23.399  25.321  1.00  0.00    -0.207 OA
BRANCH  11  14
ATOM     14  C   UNL A   1      30.831  25.913  24.957  1.00  0.00     0.083 A 
ATOM     15  C   UNL A   1      31.508  28.192  24.432  1.00  0.00     0.083 A 
ATOM     16  C   UNL A   1      31.742  26.971  25.084  1.00  0.00     0.039 A 
ATOM     17  C   UNL A   1      30.394  28.332  23.596  1.00  0.00     0.131 A 
ATOM     18  C   UNL A   1      29.469  27.287  23.507  1.00  0.00     0.048 A 
ATOM     19  C   UNL A   1      29.683  26.081  24.182  1.00  0.00     0.025 A 
BRANCH  15  20
ATOM     20  C   UNL A   1      32.493  29.266  24.671  1.00  0.00     0.254 C 
ATOM     21  C   UNL A   1      33.888  28.692  22.628  1.00  0.00     0.143 C 
ATOM     22  N   UNL A   1      33.556  29.434  23.823  1.00  0.00    -0.355 N 
ATOM     23  H   UNL A   1      34.178  30.160  24.060  1.00  0.00     0.163 HD
ATOM     24  O   UNL A   1      32.331  30.022  25.624  1.00  0.00    -0.269 OA
ENDBRANCH  15  20
BRANCH  17  25
ATOM     25  O   UNL A   1      30.082  29.445  22.866  1.00  0.00    -0.496 OA
ATOM     26  C   UNL A   1      28.786  29.974  23.156  1.00  0.00     0.278 C 
ENDBRANCH  17  25
ENDBRANCH  11  14
ENDBRANCH   6  11
ENDBRANCH   3   5
ENDBRANCH   2   3
ENDBRANCH   1   2
BRANCH   1  27
ATOM     27  C   UNL A   1      39.224  19.783  25.251  1.00  0.00     0.275 C 
BRANCH  27  28
ATOM     28  O   UNL A   1      40.169  19.488  26.298  1.00  0.00    -0.458 OA
BRANCH  28  29
ATOM     29  C   UNL A   1      41.466  19.688  25.972  1.00  0.00     0.338 C 
ATOM     30  O   UNL A   1      42.166  18.990  25.259  1.00  0.00    -0.246 OA
BRANCH  29  31
ATOM     31  C   UNL A   1      41.931  20.981  26.496  1.00  0.00     0.060 A 
ATOM     32  C   UNL A   1      41.836  21.196  27.873  1.00  0.00     0.016 A 
ATOM     33  C   UNL A   1      42.343  22.009  25.646  1.00  0.00     0.016 A 
ATOM     34  C   UNL A   1      42.147  22.441  28.411  1.00  0.00     0.010 A 
ATOM     35  C   UNL A   1      42.657  23.262  26.188  1.00  0.00     0.010 A 
ATOM     36  C   UNL A   1      42.547  23.489  27.573  1.00  0.00    -0.014 A 
BRANCH  36  37
ATOM     37  C   UNL A   1      42.806  24.826  28.161  1.00  0.00     0.031 A 
ATOM     38  C   UNL A   1      44.200  25.224  28.553  1.00  0.00     0.074 A 
ATOM     39  C   UNL A   1      41.793  25.703  28.293  1.00  0.00     0.049 A 
ATOM     40  N   UNL A   1      44.623  26.347  29.078  1.00  0.00    -0.248 NA
ATOM     41  C   UNL A   1      45.259  24.229  28.324  1.00  0.00     0.031 C 
ATOM     42  C   UNL A   1      40.402  25.445  27.921  1.00  0.00     0.029 A 
ATOM     43  N   UNL A   1      41.780  26.990  28.767  1.00  0.00    -0.354 N 
ATOM     44  C   UNL A   1      45.992  26.191  29.256  1.00  0.00     0.074 A 
ATOM     45  C   UNL A   1      46.325  24.856  28.802  1.00  0.00     0.031 C 
ATOM     46  C   UNL A   1      39.672  26.544  28.171  1.00  0.00     0.029 A 
ATOM     47  C   UNL A   1      40.536  27.568  28.753  1.00  0.00     0.049 A 
ATOM     48  H   UNL A   1      42.587  27.453  29.087  1.00  0.00     0.167 HD
ATOM     49  C   UNL A   1      46.889  27.079  29.747  1.00  0.00     0.037 A 
ATOM     50  C   UNL A   1      40.133  28.782  29.173  1.00  0.00     0.037 A 
ATOM     51  C   UNL A   1      46.558  28.410  30.191  1.00  0.00     0.049 A 
ATOM     52  C   UNL A   1      41.144  29.737  29.744  1.00  0.00     0.074 A 
ATOM     53  C   UNL A   1      47.401  29.386  30.697  1.00  0.00     0.029 A 
ATOM     54  N   UNL A   1      45.282  28.951  30.183  1.00  0.00    -0.354 N 
ATOM     55  N   UNL A   1      42.436  29.579  29.901  1.00  0.00    -0.248 NA
ATOM     56  C   UNL A   1      40.638  31.040  30.197  1.00  0.00     0.031 C 
ATOM     57  C   UNL A   1      46.628  30.505  31.028  1.00  0.00     0.029 A 
ATOM     58  C   UNL A   1      45.311  30.242  30.687  1.00  0.00     0.049 A 
ATOM     59  H   UNL A   1      44.473  28.487  29.866  1.00  0.00     0.167 HD
ATOM     60  C   UNL A   1      42.901  30.767  30.447  1.00  0.00     0.074 A 
ATOM     61  C   UNL A   1      41.755  31.644  30.578  1.00  0.00     0.031 C 
ATOM     62  C   UNL A   1      44.163  31.103  30.811  1.00  0.00     0.037 A 
BRANCH  49  63
ATOM     63  C   UNL A   1      48.316  26.630  29.853  1.00  0.00     0.057 A 
ATOM     64  C   UNL A   1      49.260  26.922  28.859  1.00  0.00     0.134 A 
ATOM     65  C   UNL A   1      48.760  25.925  30.979  1.00  0.00     0.134 A 
ATOM     66  F   UNL A   1      48.896  27.582  27.750  1.00  0.00    -0.206 F 
ATOM     67  C   UNL A   1      50.589  26.510  28.973  1.00  0.00     0.040 A 
ATOM     68  C   UNL A   1      50.091  25.528  31.114  1.00  0.00     0.040 A 
ATOM     69  F   UNL A   1      47.909  25.617  31.969  1.00  0.00    -0.206 F 
ATOM     70  C   UNL A   1      51.010  25.817  30.107  1.00  0.00     0.006 A 
ENDBRANCH  49  63
BRANCH  50  71
ATOM     71  C   UNL A   1      38.703  29.164  29.072  1.00  0.00     0.057 A 
ATOM     72  C   UNL A   1      38.160  29.627  27.868  1.00  0.00     0.134 A 
ATOM     73  C   UNL A   1      37.849  29.083  30.178  1.00  0.00     0.134 A 
ATOM     74  F   UNL A   1      38.935  29.747  26.780  1.00  0.00    -0.206 F 
ATOM     75  C   UNL A   1      36.823  30.011  27.771  1.00  0.00     0.040 A 
ATOM     76  C   UNL A   1      36.504  29.439  30.090  1.00  0.00     0.040 A 
ATOM     77  F   UNL A   1      38.311  28.644  31.359  1.00  0.00    -0.206 F 
ATOM     78  C   UNL A   1      35.988  29.911  28.883  1.00  0.00     0.006 A 
ENDBRANCH  50  71
BRANCH  62  79
ATOM     79  C   UNL A   1      44.369  32.488  31.351  1.00  0.00     0.057 A 
ATOM     80  C   UNL A   1      44.652  33.574  30.514  1.00  0.00     0.134 A 
ATOM     81  C   UNL A   1      44.274  32.738  32.726  1.00  0.00     0.134 A 
ATOM     82  F   UNL A   1      44.769  33.398  29.189  1.00  0.00    -0.206 F 
ATOM     83  C   UNL A   1      44.865  34.855  31.027  1.00  0.00     0.040 A 
ATOM     84  C   UNL A   1      44.461  34.018  33.249  1.00  0.00     0.040 A 
ATOM     85  F   UNL A   1      43.998  31.743  33.583  1.00  0.00    -0.206 F 
ATOM     86  C   UNL A   1      44.766  35.079  32.399  1.00  0.00     0.006 A 
ENDBRANCH  62  79
ENDBRANCH  36  37
ENDBRANCH  29  31
ENDBRANCH  28  29
ENDBRANCH  27  28
ENDBRANCH   1  27
TORSDOF 15
ENDMDL
MODEL 3
REMARK VINA RESULT:     -11.7      5.396     10.437
REMARK SMILES CNC(=O)c1cc(S(=O)(=O)N2CCC(C(=O)OCCOC(=O)c3ccc(-c4c5nc(c(-c6c(F)cccc6F)c6ccc([nH]6)c(-c6c(F)cccc6F)c6nc(c(-c7c(F)cccc7F)c7ccc4[nH]7)C=C6)C=C5)cc3)CC2)ccc1OC
REMARK SMILES IDX 18 1 17 2 15 3 16 4 14 5 11 6 12 7 78 8 13 9 77 10 8 11 9 12
REMARK SMILES IDX 10 13 7 14 5 15 6 16 81 17 80 18 79 19 3 20 1 21 2 22 4 24
REMARK SMILES IDX 82 25 83 26 19 27 20 28 21 29 22 30 23 31 24 32 76 33 25 34
REMARK SMILES IDX 75 35 26 36 27 37 28 38 69 39 29 40 74 41 68 42 70 43 30 44
REMARK SMILES IDX 73 45 67 46 66 47 31 49 57 50 40 51 56 52 41 53 44 54 55 55
REMARK SMILES IDX 71 56 42 57 43 58 54 60 72 61 45 62 32 63 33 64 38 65 34 66
REMARK SMILES IDX 35 67 37 68 39 69 36 70 58 71 59 72 64 73 60 74 61 75 63 76
REMARK SMILES IDX 65 77 62 78 46 79 47 80 52 81 48 82 49 83 51 84 53 85 50 86
REMARK H PARENT 2 23 70 48 44 59
REMARK Flexibility Score: inf
ROOT
ATOM      1  C   UNL A   1      33.461  31.689  27.842  1.00  0.00     0.274 C 
ENDROOT
BRANCH   1   2
ATOM      2  O   UNL A   1      33.388  30.491  27.044  1.00  0.00    -0.462 OA
BRANCH   2   3
ATOM      3  C   UNL A   1      32.375  30.434  26.148  1.00  0.00     0.309 C 
ATOM      4  O   UNL A   1      31.418  31.200  26.116  1.00  0.00    -0.252 OA
BRANCH   3   5
ATOM      5  C   UNL A   1      32.522  29.311  25.145  1.00  0.00     0.102 C 
ATOM      6  N   UNL A   1      32.566  26.796  23.776  1.00  0.00    -0.198 NA
ATOM      7  C   UNL A   1      33.844  27.421  24.194  1.00  0.00     0.103 C 
ATOM      8  C   UNL A   1      31.324  27.608  23.787  1.00  0.00     0.103 C 
ATOM      9  C   UNL A   1      33.668  28.340  25.397  1.00  0.00     0.032 C 
ATOM     10  C   UNL A   1      31.237  28.509  25.012  1.00  0.00     0.032 C 
BRANCH   6  11
ATOM     11  S   UNL A   1      32.671  25.590  22.569  1.00  0.00     0.243 S 
ATOM     12  O   UNL A   1      34.028  25.608  22.069  1.00  0.00    -0.207 OA
ATOM     13  O   UNL A   1      31.536  25.747  21.685  1.00  0.00    -0.207 OA
BRANCH  11  14
ATOM     14  C   UNL A   1      32.463  23.997  23.355  1.00  0.00     0.083 A 
ATOM     15  C   UNL A   1      31.962  22.809  25.421  1.00  0.00     0.083 A 
ATOM     16  C   UNL A   1      32.158  24.012  24.724  1.00  0.00     0.039 A 
ATOM     17  C   UNL A   1      32.003  21.591  24.732  1.00  0.00     0.131 A 
ATOM     18  C   UNL A   1      32.347  21.582  23.377  1.00  0.00     0.048 A 
ATOM     19  C   UNL A   1      32.576  22.777  22.688  1.00  0.00     0.025 A 
BRANCH  15  20
ATOM     20  C   UNL A   1      31.703  22.922  26.870  1.00  0.00     0.254 C 
ATOM     21  C   UNL A   1      33.921  21.878  27.535  1.00  0.00     0.143 C 
ATOM     22  N   UNL A   1      32.626  22.471  27.778  1.00  0.00    -0.355 N 
ATOM     23  H   UNL A   1      32.371  22.565  28.725  1.00  0.00     0.163 HD
ATOM     24  O   UNL A   1      30.662  23.450  27.250  1.00  0.00    -0.269 OA
ENDBRANCH  15  20
BRANCH  17  25
ATOM     25  O   UNL A   1      31.778  20.359  25.281  1.00  0.00    -0.496 OA
ATOM     26  C   UNL A   1      32.795  19.403  24.974  1.00  0.00     0.278 C 
ENDBRANCH  17  25
ENDBRANCH  11  14
ENDBRANCH   6  11
ENDBRANCH   3   5
ENDBRANCH   2   3
ENDBRANCH   1   2
BRANCH   1  27
ATOM     27  C   UNL A   1      34.856  31.878  28.442  1.00  0.00     0.275 C 
BRANCH  27  28
ATOM     28  O   UNL A   1      35.459  30.621  28.808  1.00  0.00    -0.458 OA
BRANCH  28  29
ATOM     29  C   UNL A   1      36.341  30.685  29.831  1.00  0.00     0.338 C 
ATOM     30  O   UNL A   1      36.133  31.081  30.966  1.00  0.00    -0.246 OA
BRANCH  29  31
ATOM     31  C   UNL A   1      37.619  30.072  29.442  1.00  0.00     0.060 A 
ATOM     32  C   UNL A   1      38.523  29.754  30.459  1.00  0.00     0.016 A 
ATOM     33  C   UNL A   1      37.978  29.917  28.102  1.00  0.00     0.016 A 
ATOM     34  C   UNL A   1      39.794  29.283  30.144  1.00  0.00     0.010 A 
ATOM     35  C   UNL A   1      39.258  29.442  27.786  1.00  0.00     0.010 A 
ATOM     36  C   UNL A   1      40.178  29.135  28.806  1.00  0.00    -0.014 A 
BRANCH  36  37
ATOM     37  C   UNL A   1      41.562  28.699  28.494  1.00  0.00     0.031 A 
ATOM     38  C   UNL A   1      41.839  27.271  28.124  1.00  0.00     0.074 A 
ATOM     39  C   UNL A   1      42.560  29.602  28.494  1.00  0.00     0.049 A 
ATOM     40  N   UNL A   1      42.978  26.703  27.817  1.00  0.00    -0.248 NA
ATOM     41  C   UNL A   1      40.685  26.360  28.093  1.00  0.00     0.031 C 
ATOM     42  C   UNL A   1      42.411  31.023  28.808  1.00  0.00     0.029 A 
ATOM     43  N   UNL A   1      43.894  29.459  28.211  1.00  0.00    -0.354 N 
ATOM     44  C   UNL A   1      42.683  25.367  27.570  1.00  0.00     0.074 A 
ATOM     45  C   UNL A   1      41.259  25.206  27.784  1.00  0.00     0.031 C 
ATOM     46  C   UNL A   1      43.607  31.624  28.689  1.00  0.00     0.029 A 
ATOM     47  C   UNL A   1      44.608  30.625  28.327  1.00  0.00     0.049 A 
ATOM     48  H   UNL A   1      44.300  28.601  27.950  1.00  0.00     0.167 HD
ATOM     49  C   UNL A   1      43.519  24.370  27.195  1.00  0.00     0.037 A 
ATOM     50  C   UNL A   1      45.925  30.860  28.172  1.00  0.00     0.037 A 
ATOM     51  C   UNL A   1      44.934  24.533  26.975  1.00  0.00     0.049 A 
ATOM     52  C   UNL A   1      46.836  29.728  27.787  1.00  0.00     0.074 A 
ATOM     53  C   UNL A   1      45.862  23.582  26.585  1.00  0.00     0.029 A 
ATOM     54  N   UNL A   1      45.625  25.725  27.126  1.00  0.00    -0.354 N 
ATOM     55  N   UNL A   1      46.542  28.473  27.551  1.00  0.00    -0.248 NA
ATOM     56  C   UNL A   1      48.263  30.050  27.647  1.00  0.00     0.031 C 
ATOM     57  C   UNL A   1      47.121  24.191  26.535  1.00  0.00     0.029 A 
ATOM     58  C   UNL A   1      46.970  25.532  26.850  1.00  0.00     0.049 A 
ATOM     59  H   UNL A   1      45.221  26.583  27.390  1.00  0.00     0.167 HD
ATOM     60  C   UNL A   1      47.741  27.859  27.213  1.00  0.00     0.074 A 
ATOM     61  C   UNL A   1      48.763  28.885  27.257  1.00  0.00     0.031 C 
ATOM     62  C   UNL A   1      47.976  26.562  26.897  1.00  0.00     0.037 A 
BRANCH  49  63
ATOM     63  C   UNL A   1      42.927  23.003  27.023  1.00  0.00     0.057 A 
ATOM     64  C   UNL A   1      42.660  22.465  25.756  1.00  0.00     0.134 A 
ATOM     65  C   UNL A   1      42.650  22.199  28.137  1.00  0.00     0.134 A 
ATOM     66  F   UNL A   1      42.889  23.189  24.650  1.00  0.00    -0.206 F 
ATOM     67  C   UNL A   1      42.120  21.187  25.606  1.00  0.00     0.040 A 
ATOM     68  C   UNL A   1      42.132  20.911  27.997  1.00  0.00     0.040 A 
ATOM     69  F   UNL A   1      42.887  22.651  29.377  1.00  0.00    -0.206 F 
ATOM     70  C   UNL A   1      41.861  20.403  26.729  1.00  0.00     0.006 A 
ENDBRANCH  49  63
BRANCH  50  71
ATOM     71  C   UNL A   1      46.462  32.227  28.384  1.00  0.00     0.057 A 
ATOM     72  C   UNL A   1      46.489  33.164  27.345  1.00  0.00     0.134 A 
ATOM     73  C   UNL A   1      46.969  32.624  29.626  1.00  0.00     0.134 A 
ATOM     74  F   UNL A   1      46.039  32.833  26.126  1.00  0.00    -0.206 F 
ATOM     75  C   UNL A   1      47.015  34.443  27.529  1.00  0.00     0.040 A 
ATOM     76  C   UNL A   1      47.474  33.907  29.833  1.00  0.00     0.040 A 
ATOM     77  F   UNL A   1      46.967  31.772  30.662  1.00  0.00    -0.206 F 
ATOM     78  C   UNL A   1      47.504  34.820  28.779  1.00  0.00     0.006 A 
ENDBRANCH  50  71
BRANCH  62  79
ATOM     79  C   UNL A   1      49.386  26.194  26.542  1.00  0.00     0.057 A 
ATOM     80  C   UNL A   1      50.284  25.697  27.495  1.00  0.00     0.134 A 
ATOM     81  C   UNL A   1      49.849  26.331  25.227  1.00  0.00     0.134 A 
ATOM     82  F   UNL A   1      49.906  25.556  28.775  1.00  0.00    -0.206 F 
ATOM     83  C   UNL A   1      51.601  25.379  27.161  1.00  0.00     0.040 A 
ATOM     84  C   UNL A   1      51.157  25.992  24.875  1.00  0.00     0.040 A 
ATOM     85  F   UNL A   1      49.038  26.793  24.263  1.00  0.00    -0.206 F 
ATOM     86  C   UNL A   1      52.039  25.524  25.846  1.00  0.00     0.006 A 
ENDBRANCH  62  79
ENDBRANCH  36  37
ENDBRANCH  29  31
ENDBRANCH  28  29
ENDBRANCH  27  28
ENDBRANCH   1  27
TORSDOF 15
ENDMDL
