MODEL 1
REMARK VINA RESULT:     -12.7      0.000      0.000
REMARK SMILES Cc1ccc(NC(=O)C[C@H]2SC[C@H](C(=O)OCCOC(=O)c3ccc(-c4c5nc(c(-c6c(F)cccc6F)c6ccc([nH]6)c(-c6c(F)cccc6F)c6nc(c(-c7c(F)cccc7F)c7ccc4[nH]7)C=C6)C=C5)cc3)NC2=O)cc1
REMARK SMILES IDX 17 1 16 2 14 3 15 4 13 5 10 6 11 7 77 8 12 9 76 10 78 11
REMARK SMILES IDX 9 13 7 14 6 15 8 17 5 18 1 19 2 20 3 21 80 22 4 23 79 24
REMARK SMILES IDX 18 25 19 26 20 27 21 28 22 29 23 30 75 31 24 32 74 33 25 34
REMARK SMILES IDX 26 35 27 36 68 37 28 38 73 39 67 40 69 41 29 42 72 43 66 44
REMARK SMILES IDX 65 45 30 47 56 48 39 49 55 50 40 51 43 52 54 53 70 54 41 55
REMARK SMILES IDX 42 56 53 58 71 59 44 60 31 61 32 62 37 63 33 64 34 65 36 66
REMARK SMILES IDX 38 67 35 68 57 69 58 70 63 71 59 72 60 73 62 74 64 75 61 76
REMARK SMILES IDX 45 77 46 78 51 79 47 80 48 81 50 82 52 83 49 84
REMARK H PARENT 76 12 6 16 69 46 43 57
REMARK Flexibility Score: inf
ROOT
ATOM      1  C   UNL A   1      32.889  29.766  25.396  1.00  0.00     0.274 C 
ENDROOT
BRANCH   1   2
ATOM      2  O   UNL A   1      32.571  28.933  24.280  1.00  0.00    -0.461 OA
BRANCH   2   3
ATOM      3  C   UNL A   1      31.247  28.928  23.947  1.00  0.00     0.329 C 
ATOM      4  O   UNL A   1      30.600  29.912  23.650  1.00  0.00    -0.250 OA
BRANCH   3   5
ATOM      5  C   UNL A   1      30.716  27.495  23.992  1.00  0.00     0.202 C 
ATOM      6  C   UNL A   1      31.113  24.703  25.052  1.00  0.00     0.145 C 
ATOM      7  S   UNL A   1      31.081  24.884  23.220  1.00  0.00    -0.145 SA
ATOM      8  C   UNL A   1      30.224  25.761  25.710  1.00  0.00     0.234 C 
ATOM      9  C   UNL A   1      31.632  26.615  23.158  1.00  0.00     0.107 C 
ATOM     10  N   UNL A   1      30.500  27.064  25.374  1.00  0.00    -0.341 N 
ATOM     11  O   UNL A   1      29.383  25.551  26.577  1.00  0.00    -0.274 OA
ATOM     12  H   UNL A   1      30.555  27.735  26.091  1.00  0.00     0.164 HD
BRANCH   6  13
ATOM     13  C   UNL A   1      30.905  23.240  25.438  1.00  0.00     0.124 C 
BRANCH  13  14
ATOM     14  C   UNL A   1      31.231  22.799  26.850  1.00  0.00     0.226 C 
ATOM     15  N   UNL A   1      32.444  22.335  27.245  1.00  0.00    -0.326 N 
ATOM     16  H   UNL A   1      32.503  22.196  28.218  1.00  0.00     0.169 HD
ATOM     17  O   UNL A   1      30.343  22.850  27.711  1.00  0.00    -0.275 OA
BRANCH  15  18
ATOM     18  C   UNL A   1      33.629  22.010  26.575  1.00  0.00     0.041 A 
ATOM     19  C   UNL A   1      37.368  21.328  24.535  1.00  0.00     0.044 C 
ATOM     20  C   UNL A   1      36.077  21.567  25.258  1.00  0.00    -0.051 A 
ATOM     21  C   UNL A   1      35.018  20.662  25.122  1.00  0.00     0.005 A 
ATOM     22  C   UNL A   1      35.912  22.683  26.080  1.00  0.00     0.005 A 
ATOM     23  C   UNL A   1      33.807  20.874  25.791  1.00  0.00     0.026 A 
ATOM     24  C   UNL A   1      34.702  22.893  26.742  1.00  0.00     0.026 A 
ENDBRANCH  15  18
ENDBRANCH  13  14
ENDBRANCH   6  13
ENDBRANCH   3   5
ENDBRANCH   2   3
ENDBRANCH   1   2
BRANCH   1  25
ATOM     25  C   UNL A   1      33.808  29.019  26.370  1.00  0.00     0.275 C 
BRANCH  25  26
ATOM     26  O   UNL A   1      34.252  29.653  27.609  1.00  0.00    -0.458 OA
BRANCH  26  27
ATOM     27  C   UNL A   1      35.262  30.543  27.765  1.00  0.00     0.338 C 
ATOM     28  O   UNL A   1      35.133  31.734  27.520  1.00  0.00    -0.246 OA
BRANCH  27  29
ATOM     29  C   UNL A   1      36.561  29.991  28.200  1.00  0.00     0.060 A 
ATOM     30  C   UNL A   1      36.673  29.370  29.457  1.00  0.00     0.016 A 
ATOM     31  C   UNL A   1      37.641  30.009  27.326  1.00  0.00     0.016 A 
ATOM     32  C   UNL A   1      37.812  28.621  29.771  1.00  0.00     0.010 A 
ATOM     33  C   UNL A   1      38.727  29.206  27.602  1.00  0.00     0.010 A 
ATOM     34  C   UNL A   1      38.811  28.489  28.809  1.00  0.00    -0.014 A 
BRANCH  34  35
ATOM     35  C   UNL A   1      40.071  27.772  28.989  1.00  0.00     0.031 A 
ATOM     36  C   UNL A   1      40.314  26.367  28.589  1.00  0.00     0.074 A 
ATOM     37  C   UNL A   1      41.087  28.563  29.384  1.00  0.00     0.049 A 
ATOM     38  N   UNL A   1      41.418  25.737  28.816  1.00  0.00    -0.248 NA
ATOM     39  C   UNL A   1      39.319  25.524  27.942  1.00  0.00     0.031 C 
ATOM     40  C   UNL A   1      42.521  28.351  29.283  1.00  0.00     0.029 A 
ATOM     41  N   UNL A   1      40.953  29.716  30.166  1.00  0.00    -0.354 N 
ATOM     42  C   UNL A   1      41.379  24.513  28.181  1.00  0.00     0.074 A 
ATOM     43  C   UNL A   1      40.016  24.402  27.720  1.00  0.00     0.031 C 
ATOM     44  C   UNL A   1      43.129  29.156  30.174  1.00  0.00     0.029 A 
ATOM     45  C   UNL A   1      42.078  29.731  31.004  1.00  0.00     0.049 A 
ATOM     46  H   UNL A   1      40.223  30.376  30.135  1.00  0.00     0.167 HD
ATOM     47  C   UNL A   1      42.539  23.798  28.062  1.00  0.00     0.037 A 
ATOM     48  C   UNL A   1      41.916  29.488  32.341  1.00  0.00     0.037 A 
ATOM     49  C   UNL A   1      43.594  24.409  28.873  1.00  0.00     0.049 A 
ATOM     50  C   UNL A   1      42.684  28.287  32.841  1.00  0.00     0.074 A 
ATOM     51  C   UNL A   1      44.642  25.272  28.603  1.00  0.00     0.029 A 
ATOM     52  N   UNL A   1      43.485  24.346  30.251  1.00  0.00    -0.354 N 
ATOM     53  N   UNL A   1      43.145  27.340  32.072  1.00  0.00    -0.248 NA
ATOM     54  C   UNL A   1      42.926  28.026  34.258  1.00  0.00     0.031 C 
ATOM     55  C   UNL A   1      45.131  25.766  29.847  1.00  0.00     0.029 A 
ATOM     56  C   UNL A   1      44.392  25.186  30.862  1.00  0.00     0.049 A 
ATOM     57  H   UNL A   1      42.843  23.776  30.731  1.00  0.00     0.167 HD
ATOM     58  C   UNL A   1      43.757  26.395  32.842  1.00  0.00     0.074 A 
ATOM     59  C   UNL A   1      43.565  26.845  34.206  1.00  0.00     0.031 C 
ATOM     60  C   UNL A   1      44.375  25.306  32.308  1.00  0.00     0.037 A 
BRANCH  47  61
ATOM     61  C   UNL A   1      42.832  22.623  27.136  1.00  0.00     0.057 A 
ATOM     62  C   UNL A   1      42.138  21.400  27.298  1.00  0.00     0.134 A 
ATOM     63  C   UNL A   1      43.806  22.579  26.123  1.00  0.00     0.134 A 
ATOM     64  F   UNL A   1      41.155  21.260  28.199  1.00  0.00    -0.206 F 
ATOM     65  C   UNL A   1      42.418  20.241  26.556  1.00  0.00     0.040 A 
ATOM     66  C   UNL A   1      44.091  21.429  25.366  1.00  0.00     0.040 A 
ATOM     67  F   UNL A   1      44.541  23.638  25.792  1.00  0.00    -0.206 F 
ATOM     68  C   UNL A   1      43.406  20.248  25.587  1.00  0.00     0.006 A 
ENDBRANCH  47  61
BRANCH  48  69
ATOM     69  C   UNL A   1      40.577  29.889  32.870  1.00  0.00     0.057 A 
ATOM     70  C   UNL A   1      40.288  31.252  33.076  1.00  0.00     0.134 A 
ATOM     71  C   UNL A   1      39.491  29.007  32.872  1.00  0.00     0.134 A 
ATOM     72  F   UNL A   1      41.278  32.161  33.074  1.00  0.00    -0.206 F 
ATOM     73  C   UNL A   1      38.978  31.724  33.177  1.00  0.00     0.040 A 
ATOM     74  C   UNL A   1      38.175  29.467  32.991  1.00  0.00     0.040 A 
ATOM     75  F   UNL A   1      39.675  27.693  32.678  1.00  0.00    -0.206 F 
ATOM     76  C   UNL A   1      37.914  30.831  33.112  1.00  0.00     0.006 A 
ENDBRANCH  48  69
BRANCH  60  77
ATOM     77  C   UNL A   1      45.047  24.268  33.142  1.00  0.00     0.057 A 
ATOM     78  C   UNL A   1      44.399  23.095  33.546  1.00  0.00     0.134 A 
ATOM     79  C   UNL A   1      46.337  24.481  33.659  1.00  0.00     0.134 A 
ATOM     80  F   UNL A   1      43.146  22.827  33.145  1.00  0.00    -0.206 F 
ATOM     81  C   UNL A   1      45.011  22.168  34.394  1.00  0.00     0.040 A 
ATOM     82  C   UNL A   1      46.942  23.586  34.540  1.00  0.00     0.040 A 
ATOM     83  F   UNL A   1      47.058  25.558  33.312  1.00  0.00    -0.206 F 
ATOM     84  C   UNL A   1      46.282  22.418  34.904  1.00  0.00     0.006 A 
ENDBRANCH  60  77
ENDBRANCH  34  35
ENDBRANCH  27  29
ENDBRANCH  26  27
ENDBRANCH  25  26
ENDBRANCH   1  25
TORSDOF 14
ENDMDL
MODEL 2
REMARK VINA RESULT:     -12.4      3.959      9.199
REMARK SMILES Cc1ccc(NC(=O)C[C@H]2SC[C@H](C(=O)OCCOC(=O)c3ccc(-c4c5nc(c(-c6c(F)cccc6F)c6ccc([nH]6)c(-c6c(F)cccc6F)c6nc(c(-c7c(F)cccc7F)c7ccc4[nH]7)C=C6)C=C5)cc3)NC2=O)cc1
REMARK SMILES IDX 17 1 16 2 14 3 15 4 13 5 10 6 11 7 77 8 12 9 76 10 78 11
REMARK SMILES IDX 9 13 7 14 6 15 8 17 5 18 1 19 2 20 3 21 80 22 4 23 79 24
REMARK SMILES IDX 18 25 19 26 20 27 21 28 22 29 23 30 75 31 24 32 74 33 25 34
REMARK SMILES IDX 26 35 27 36 68 37 28 38 73 39 67 40 69 41 29 42 72 43 66 44
REMARK SMILES IDX 65 45 30 47 56 48 39 49 55 50 40 51 43 52 54 53 70 54 41 55
REMARK SMILES IDX 42 56 53 58 71 59 44 60 31 61 32 62 37 63 33 64 34 65 36 66
REMARK SMILES IDX 38 67 35 68 57 69 58 70 63 71 59 72 60 73 62 74 64 75 61 76
REMARK SMILES IDX 45 77 46 78 51 79 47 80 48 81 50 82 52 83 49 84
REMARK H PARENT 76 12 6 16 69 46 43 57
REMARK Flexibility Score: inf
ROOT
ATOM      1  C   UNL A   1      36.592  21.587  26.089  1.00  0.00     0.274 C 
ENDROOT
BRANCH   1   2
ATOM      2  O   UNL A   1      35.293  21.246  25.605  1.00  0.00    -0.461 OA
BRANCH   2   3
ATOM      3  C   UNL A   1      34.272  21.626  26.428  1.00  0.00     0.329 C 
ATOM      4  O   UNL A   1      34.241  21.442  27.628  1.00  0.00    -0.250 OA
BRANCH   3   5
ATOM      5  C   UNL A   1      33.191  22.329  25.607  1.00  0.00     0.202 C 
ATOM      6  C   UNL A   1      32.593  24.208  23.328  1.00  0.00     0.145 C 
ATOM      7  S   UNL A   1      31.958  24.705  24.985  1.00  0.00    -0.145 SA
ATOM      8  C   UNL A   1      32.634  22.684  23.206  1.00  0.00     0.234 C 
ATOM      9  C   UNL A   1      33.189  23.804  25.974  1.00  0.00     0.107 C 
ATOM     10  N   UNL A   1      33.339  22.025  24.183  1.00  0.00    -0.341 N 
ATOM     11  O   UNL A   1      32.194  22.029  22.267  1.00  0.00    -0.274 OA
ATOM     12  H   UNL A   1      33.972  21.321  23.915  1.00  0.00     0.164 HD
BRANCH   6  13
ATOM     13  C   UNL A   1      31.885  25.005  22.235  1.00  0.00     0.124 C 
BRANCH  13  14
ATOM     14  C   UNL A   1      32.687  25.983  21.403  1.00  0.00     0.226 C 
ATOM     15  N   UNL A   1      32.999  27.245  21.794  1.00  0.00    -0.326 N 
ATOM     16  H   UNL A   1      33.613  27.699  21.173  1.00  0.00     0.169 HD
ATOM     17  O   UNL A   1      33.084  25.630  20.285  1.00  0.00    -0.275 OA
BRANCH  15  18
ATOM     18  C   UNL A   1      32.640  28.044  22.886  1.00  0.00     0.041 A 
ATOM     19  C   UNL A   1      31.819  30.412  26.396  1.00  0.00     0.044 C 
ATOM     20  C   UNL A   1      32.116  29.601  25.172  1.00  0.00    -0.051 A 
ATOM     21  C   UNL A   1      31.080  29.223  24.311  1.00  0.00     0.005 A 
ATOM     22  C   UNL A   1      33.423  29.215  24.868  1.00  0.00     0.005 A 
ATOM     23  C   UNL A   1      31.343  28.465  23.165  1.00  0.00     0.026 A 
ATOM     24  C   UNL A   1      33.681  28.454  23.727  1.00  0.00     0.026 A 
ENDBRANCH  15  18
ENDBRANCH  13  14
ENDBRANCH   6  13
ENDBRANCH   3   5
ENDBRANCH   2   3
ENDBRANCH   1   2
BRANCH   1  25
ATOM     25  C   UNL A   1      36.905  23.055  25.776  1.00  0.00     0.275 C 
BRANCH  25  26
ATOM     26  O   UNL A   1      38.287  23.510  25.647  1.00  0.00    -0.458 OA
BRANCH  26  27
ATOM     27  C   UNL A   1      39.260  23.472  26.590  1.00  0.00     0.338 C 
ATOM     28  O   UNL A   1      39.779  22.428  26.958  1.00  0.00    -0.246 OA
BRANCH  27  29
ATOM     29  C   UNL A   1      39.633  24.764  27.201  1.00  0.00     0.060 A 
ATOM     30  C   UNL A   1      40.288  25.741  26.428  1.00  0.00     0.016 A 
ATOM     31  C   UNL A   1      39.251  25.041  28.508  1.00  0.00     0.016 A 
ATOM     32  C   UNL A   1      40.412  27.048  26.909  1.00  0.00     0.010 A 
ATOM     33  C   UNL A   1      39.300  26.346  28.948  1.00  0.00     0.010 A 
ATOM     34  C   UNL A   1      39.855  27.362  28.147  1.00  0.00    -0.014 A 
BRANCH  34  35
ATOM     35  C   UNL A   1      39.925  28.665  28.803  1.00  0.00     0.031 A 
ATOM     36  C   UNL A   1      38.874  29.706  28.738  1.00  0.00     0.074 A 
ATOM     37  C   UNL A   1      40.962  28.783  29.653  1.00  0.00     0.049 A 
ATOM     38  N   UNL A   1      38.988  30.875  29.275  1.00  0.00    -0.248 NA
ATOM     39  C   UNL A   1      37.618  29.548  28.019  1.00  0.00     0.031 C 
ATOM     40  C   UNL A   1      41.155  29.705  30.760  1.00  0.00     0.029 A 
ATOM     41  N   UNL A   1      42.193  28.129  29.519  1.00  0.00    -0.354 N 
ATOM     42  C   UNL A   1      37.782  31.539  29.173  1.00  0.00     0.074 A 
ATOM     43  C   UNL A   1      36.991  30.695  28.310  1.00  0.00     0.031 C 
ATOM     44  C   UNL A   1      42.470  29.764  31.035  1.00  0.00     0.029 A 
ATOM     45  C   UNL A   1      43.154  29.048  29.966  1.00  0.00     0.049 A 
ATOM     46  H   UNL A   1      42.350  27.217  29.182  1.00  0.00     0.167 HD
ATOM     47  C   UNL A   1      37.595  32.677  29.908  1.00  0.00     0.037 A 
ATOM     48  C   UNL A   1      44.000  29.622  29.056  1.00  0.00     0.037 A 
ATOM     49  C   UNL A   1      38.860  33.101  30.511  1.00  0.00     0.049 A 
ATOM     50  C   UNL A   1      43.904  31.129  28.997  1.00  0.00     0.074 A 
ATOM     51  C   UNL A   1      39.436  32.944  31.760  1.00  0.00     0.029 A 
ATOM     52  N   UNL A   1      39.856  33.585  29.681  1.00  0.00    -0.354 N 
ATOM     53  N   UNL A   1      42.891  31.815  29.449  1.00  0.00    -0.248 NA
ATOM     54  C   UNL A   1      44.911  31.970  28.356  1.00  0.00     0.031 C 
ATOM     55  C   UNL A   1      40.813  33.296  31.653  1.00  0.00     0.029 A 
ATOM     56  C   UNL A   1      41.058  33.685  30.349  1.00  0.00     0.049 A 
ATOM     57  H   UNL A   1      39.722  33.826  28.736  1.00  0.00     0.167 HD
ATOM     58  C   UNL A   1      43.107  33.142  29.211  1.00  0.00     0.074 A 
ATOM     59  C   UNL A   1      44.365  33.190  28.493  1.00  0.00     0.031 C 
ATOM     60  C   UNL A   1      42.237  34.107  29.616  1.00  0.00     0.037 A 
BRANCH  47  61
ATOM     61  C   UNL A   1      36.286  33.385  30.235  1.00  0.00     0.057 A 
ATOM     62  C   UNL A   1      35.502  33.946  29.198  1.00  0.00     0.134 A 
ATOM     63  C   UNL A   1      35.758  33.617  31.517  1.00  0.00     0.134 A 
ATOM     64  F   UNL A   1      35.834  33.804  27.907  1.00  0.00    -0.206 F 
ATOM     65  C   UNL A   1      34.339  34.699  29.421  1.00  0.00     0.040 A 
ATOM     66  C   UNL A   1      34.589  34.361  31.755  1.00  0.00     0.040 A 
ATOM     67  F   UNL A   1      36.328  33.141  32.622  1.00  0.00    -0.206 F 
ATOM     68  C   UNL A   1      33.879  34.918  30.707  1.00  0.00     0.006 A 
ENDBRANCH  47  61
BRANCH  48  69
ATOM     69  C   UNL A   1      44.273  28.767  27.861  1.00  0.00     0.057 A 
ATOM     70  C   UNL A   1      45.135  27.659  27.979  1.00  0.00     0.134 A 
ATOM     71  C   UNL A   1      43.472  28.824  26.715  1.00  0.00     0.134 A 
ATOM     72  F   UNL A   1      45.924  27.528  29.058  1.00  0.00    -0.206 F 
ATOM     73  C   UNL A   1      45.126  26.612  27.055  1.00  0.00     0.040 A 
ATOM     74  C   UNL A   1      43.468  27.789  25.773  1.00  0.00     0.040 A 
ATOM     75  F   UNL A   1      42.619  29.840  26.525  1.00  0.00    -0.206 F 
ATOM     76  C   UNL A   1      44.273  26.666  25.957  1.00  0.00     0.006 A 
ENDBRANCH  48  69
BRANCH  60  77
ATOM     77  C   UNL A   1      42.465  35.559  29.360  1.00  0.00     0.057 A 
ATOM     78  C   UNL A   1      41.926  36.219  28.250  1.00  0.00     0.134 A 
ATOM     79  C   UNL A   1      43.337  36.306  30.171  1.00  0.00     0.134 A 
ATOM     80  F   UNL A   1      41.121  35.575  27.389  1.00  0.00    -0.206 F 
ATOM     81  C   UNL A   1      42.212  37.560  27.978  1.00  0.00     0.040 A 
ATOM     82  C   UNL A   1      43.666  37.631  29.886  1.00  0.00     0.040 A 
ATOM     83  F   UNL A   1      43.885  35.778  31.276  1.00  0.00    -0.206 F 
ATOM     84  C   UNL A   1      43.095  38.266  28.790  1.00  0.00     0.006 A 
ENDBRANCH  60  77
ENDBRANCH  34  35
ENDBRANCH  27  29
ENDBRANCH  26  27
ENDBRANCH  25  26
ENDBRANCH   1  25
TORSDOF 14
ENDMDL
MODEL 3
REMARK VINA RESULT:     -12.4      1.338      1.983
REMARK SMILES Cc1ccc(NC(=O)C[C@H]2SC[C@H](C(=O)OCCOC(=O)c3ccc(-c4c5nc(c(-c6c(F)cccc6F)c6ccc([nH]6)c(-c6c(F)cccc6F)c6nc(c(-c7c(F)cccc7F)c7ccc4[nH]7)C=C6)C=C5)cc3)NC2=O)cc1
REMARK SMILES IDX 17 1 16 2 14 3 15 4 13 5 10 6 11 7 77 8 12 9 76 10 78 11
REMARK SMILES IDX 9 13 7 14 6 15 8 17 5 18 1 19 2 20 3 21 80 22 4 23 79 24
REMARK SMILES IDX 18 25 19 26 20 27 21 28 22 29 23 30 75 31 24 32 74 33 25 34
REMARK SMILES IDX 26 35 27 36 68 37 28 38 73 39 67 40 69 41 29 42 72 43 66 44
REMARK SMILES IDX 65 45 30 47 56 48 39 49 55 50 40 51 43 52 54 53 70 54 41 55
REMARK SMILES IDX 42 56 53 58 71 59 44 60 31 61 32 62 37 63 33 64 34 65 36 66
REMARK SMILES IDX 38 67 35 68 57 69 58 70 63 71 59 72 60 73 62 74 64 75 61 76
REMARK SMILES IDX 45 77 46 78 51 79 47 80 48 81 50 82 52 83 49 84
REMARK H PARENT 76 12 6 16 69 46 43 57
REMARK Flexibility Score: inf
ROOT
ATOM      1  C   UNL A   1      32.159  30.063  25.858  1.00  0.00     0.274 C 
ENDROOT
BRANCH   1   2
ATOM      2  O   UNL A   1      31.301  28.938  25.667  1.00  0.00    -0.461 OA
BRANCH   2   3
ATOM      3  C   UNL A   1      31.382  28.377  24.425  1.00  0.00     0.329 C 
ATOM      4  O   UNL A   1      31.141  28.954  23.384  1.00  0.00    -0.250 OA
BRANCH   3   5
ATOM      5  C   UNL A   1      31.839  26.923  24.552  1.00  0.00     0.202 C 
ATOM      6  C   UNL A   1      33.592  24.961  26.020  1.00  0.00     0.145 C 
ATOM      7  S   UNL A   1      33.880  25.116  24.208  1.00  0.00    -0.145 SA
ATOM      8  C   UNL A   1      32.122  25.227  26.354  1.00  0.00     0.234 C 
ATOM      9  C   UNL A   1      33.261  26.817  24.029  1.00  0.00     0.107 C 
ATOM     10  N   UNL A   1      31.618  26.426  25.911  1.00  0.00    -0.341 N 
ATOM     11  O   UNL A   1      31.410  24.525  27.063  1.00  0.00    -0.274 OA
ATOM     12  H   UNL A   1      31.088  26.974  26.533  1.00  0.00     0.164 HD
BRANCH   6  13
ATOM     13  C   UNL A   1      34.233  23.678  26.545  1.00  0.00     0.124 C 
BRANCH  13  14
ATOM     14  C   UNL A   1      35.515  23.184  25.907  1.00  0.00     0.226 C 
ATOM     15  N   UNL A   1      35.600  22.092  25.107  1.00  0.00    -0.326 N 
ATOM     16  H   UNL A   1      36.488  21.983  24.698  1.00  0.00     0.169 HD
ATOM     17  O   UNL A   1      36.566  23.800  26.127  1.00  0.00    -0.275 OA
BRANCH  15  18
ATOM     18  C   UNL A   1      34.701  21.085  24.733  1.00  0.00     0.041 A 
ATOM     19  C   UNL A   1      32.194  17.781  23.549  1.00  0.00     0.044 C 
ATOM     20  C   UNL A   1      33.068  18.921  23.976  1.00  0.00    -0.051 A 
ATOM     21  C   UNL A   1      32.603  20.237  23.875  1.00  0.00     0.005 A 
ATOM     22  C   UNL A   1      34.348  18.692  24.483  1.00  0.00     0.005 A 
ATOM     23  C   UNL A   1      33.409  21.312  24.269  1.00  0.00     0.026 A 
ATOM     24  C   UNL A   1      35.151  19.767  24.870  1.00  0.00     0.026 A 
ENDBRANCH  15  18
ENDBRANCH  13  14
ENDBRANCH   6  13
ENDBRANCH   3   5
ENDBRANCH   2   3
ENDBRANCH   1   2
BRANCH   1  25
ATOM     25  C   UNL A   1      33.008  29.874  27.120  1.00  0.00     0.275 C 
BRANCH  25  26
ATOM     26  O   UNL A   1      34.467  29.886  27.045  1.00  0.00    -0.458 OA
BRANCH  26  27
ATOM     27  C   UNL A   1      35.320  30.724  27.683  1.00  0.00     0.338 C 
ATOM     28  O   UNL A   1      35.066  31.906  27.868  1.00  0.00    -0.246 OA
BRANCH  27  29
ATOM     29  C   UNL A   1      36.614  30.149  28.101  1.00  0.00     0.060 A 
ATOM     30  C   UNL A   1      36.741  29.561  29.373  1.00  0.00     0.016 A 
ATOM     31  C   UNL A   1      37.672  30.110  27.200  1.00  0.00     0.016 A 
ATOM     32  C   UNL A   1      37.867  28.790  29.681  1.00  0.00     0.010 A 
ATOM     33  C   UNL A   1      38.741  29.285  27.473  1.00  0.00     0.010 A 
ATOM     34  C   UNL A   1      38.837  28.601  28.699  1.00  0.00    -0.014 A 
BRANCH  34  35
ATOM     35  C   UNL A   1      40.081  27.855  28.868  1.00  0.00     0.031 A 
ATOM     36  C   UNL A   1      40.264  26.424  28.536  1.00  0.00     0.074 A 
ATOM     37  C   UNL A   1      41.135  28.632  29.180  1.00  0.00     0.049 A 
ATOM     38  N   UNL A   1      41.358  25.771  28.755  1.00  0.00    -0.248 NA
ATOM     39  C   UNL A   1      39.220  25.580  27.975  1.00  0.00     0.031 C 
ATOM     40  C   UNL A   1      42.557  28.369  29.036  1.00  0.00     0.029 A 
ATOM     41  N   UNL A   1      41.068  29.828  29.903  1.00  0.00    -0.354 N 
ATOM     42  C   UNL A   1      41.255  24.516  28.189  1.00  0.00     0.074 A 
ATOM     43  C   UNL A   1      39.873  24.425  27.787  1.00  0.00     0.031 C 
ATOM     44  C   UNL A   1      43.224  29.199  29.857  1.00  0.00     0.029 A 
ATOM     45  C   UNL A   1      42.226  29.852  30.695  1.00  0.00     0.049 A 
ATOM     46  H   UNL A   1      40.358  30.510  29.865  1.00  0.00     0.167 HD
ATOM     47  C   UNL A   1      42.387  23.759  28.064  1.00  0.00     0.037 A 
ATOM     48  C   UNL A   1      42.110  29.685  32.049  1.00  0.00     0.037 A 
ATOM     49  C   UNL A   1      43.492  24.378  28.799  1.00  0.00     0.049 A 
ATOM     50  C   UNL A   1      42.862  28.488  32.583  1.00  0.00     0.074 A 
ATOM     51  C   UNL A   1      44.555  25.190  28.442  1.00  0.00     0.029 A 
ATOM     52  N   UNL A   1      43.437  24.392  30.181  1.00  0.00    -0.354 N 
ATOM     53  N   UNL A   1      43.262  27.487  31.849  1.00  0.00    -0.248 NA
ATOM     54  C   UNL A   1      43.153  28.295  34.002  1.00  0.00     0.031 C 
ATOM     55  C   UNL A   1      45.108  25.734  29.638  1.00  0.00     0.029 A 
ATOM     56  C   UNL A   1      44.394  25.232  30.710  1.00  0.00     0.049 A 
ATOM     57  H   UNL A   1      42.798  23.869  30.716  1.00  0.00     0.167 HD
ATOM     58  C   UNL A   1      43.876  26.564  32.645  1.00  0.00     0.074 A 
ATOM     59  C   UNL A   1      43.752  27.093  33.989  1.00  0.00     0.031 C 
ATOM     60  C   UNL A   1      44.438  25.429  32.148  1.00  0.00     0.037 A 
BRANCH  47  61
ATOM     61  C   UNL A   1      42.608  22.527  27.193  1.00  0.00     0.057 A 
ATOM     62  C   UNL A   1      41.859  21.349  27.426  1.00  0.00     0.134 A 
ATOM     63  C   UNL A   1      43.559  22.387  26.167  1.00  0.00     0.134 A 
ATOM     64  F   UNL A   1      40.888  21.300  28.348  1.00  0.00    -0.206 F 
ATOM     65  C   UNL A   1      42.070  20.143  26.737  1.00  0.00     0.040 A 
ATOM     66  C   UNL A   1      43.775  21.190  25.463  1.00  0.00     0.040 A 
ATOM     67  F   UNL A   1      44.337  23.392  25.773  1.00  0.00    -0.206 F 
ATOM     68  C   UNL A   1      43.039  20.055  25.754  1.00  0.00     0.006 A 
ENDBRANCH  47  61
BRANCH  48  69
ATOM     69  C   UNL A   1      40.807  30.157  32.607  1.00  0.00     0.057 A 
ATOM     70  C   UNL A   1      39.762  29.235  32.813  1.00  0.00     0.134 A 
ATOM     71  C   UNL A   1      40.680  31.404  33.229  1.00  0.00     0.134 A 
ATOM     72  F   UNL A   1      39.820  28.012  32.260  1.00  0.00    -0.206 F 
ATOM     73  C   UNL A   1      38.696  29.504  33.675  1.00  0.00     0.040 A 
ATOM     74  C   UNL A   1      39.607  31.691  34.080  1.00  0.00     0.040 A 
ATOM     75  F   UNL A   1      41.630  32.339  33.090  1.00  0.00    -0.206 F 
ATOM     76  C   UNL A   1      38.629  30.729  34.329  1.00  0.00     0.006 A 
ENDBRANCH  48  69
BRANCH  60  77
ATOM     77  C   UNL A   1      45.111  24.416  33.010  1.00  0.00     0.057 A 
ATOM     78  C   UNL A   1      44.465  23.254  33.446  1.00  0.00     0.134 A 
ATOM     79  C   UNL A   1      46.400  24.646  33.523  1.00  0.00     0.134 A 
ATOM     80  F   UNL A   1      43.213  22.972  33.051  1.00  0.00    -0.206 F 
ATOM     81  C   UNL A   1      45.079  22.351  34.319  1.00  0.00     0.040 A 
ATOM     82  C   UNL A   1      47.006  23.776  34.428  1.00  0.00     0.040 A 
ATOM     83  F   UNL A   1      47.119  25.714  33.146  1.00  0.00    -0.206 F 
ATOM     84  C   UNL A   1      46.349  22.617  34.823  1.00  0.00     0.006 A 
ENDBRANCH  60  77
ENDBRANCH  34  35
ENDBRANCH  27  29
ENDBRANCH  26  27
ENDBRANCH  25  26
ENDBRANCH   1  25
TORSDOF 14
ENDMDL
