MODEL 1
REMARK VINA RESULT:     -11.0      0.000      0.000
REMARK SMILES C[C@@H](C(=O)OCCOC(=O)c1ccc(-c2c3nc(c(-c4c(F)cccc4F)c4ccc([nH]4)c(-c4c(F)cccc4F)c4nc(c(-c5c(F)cccc5F)c5ccc2[nH]5)C=C4)C=C3)cc1)c1ccc(C[C@@H]2CCC[C@@H]2O)cc1F
REMARK SMILES IDX 6 1 5 2 3 3 4 4 2 5 1 6 65 7 66 8 77 9 67 10 76 11 78 12
REMARK SMILES IDX 68 13 69 14 70 15 71 16 74 17 72 18 73 19 75 20 7 22 8 23
REMARK SMILES IDX 9 24 10 25 11 26 12 27 64 28 13 29 63 30 14 31 15 32 16 33
REMARK SMILES IDX 57 34 17 35 62 36 56 37 58 38 18 39 61 40 55 41 54 42 19 44
REMARK SMILES IDX 45 45 28 46 44 47 29 48 32 49 43 50 59 51 30 52 31 53 42 55
REMARK SMILES IDX 60 56 33 57 20 58 21 59 26 60 22 61 23 62 25 63 27 64 24 65
REMARK SMILES IDX 46 66 47 67 52 68 48 69 49 70 51 71 53 72 50 73 34 74 35 75
REMARK SMILES IDX 40 76 36 77 37 78 39 79 41 80 38 81
REMARK H PARENT 75 21 58 43 32 54
REMARK Flexibility Score: inf
ROOT
ATOM      1  C   UNL A   1      43.688  21.824  25.320  1.00  0.00     0.274 C 
ENDROOT
BRANCH   1   2
ATOM      2  O   UNL A   1      42.258  21.923  25.496  1.00  0.00    -0.462 OA
BRANCH   2   3
ATOM      3  C   UNL A   1      41.792  21.714  26.760  1.00  0.00     0.313 C 
ATOM      4  O   UNL A   1      42.441  22.006  27.760  1.00  0.00    -0.252 OA
BRANCH   3   5
ATOM      5  C   UNL A   1      40.420  20.994  26.789  1.00  0.00     0.129 C 
ATOM      6  C   UNL A   1      40.514  19.606  26.137  1.00  0.00     0.025 C 
BRANCH   5   7
ATOM      7  C   UNL A   1      39.280  21.881  26.263  1.00  0.00     0.002 A 
ATOM      8  C   UNL A   1      38.434  21.387  25.253  1.00  0.00     0.008 A 
ATOM      9  C   UNL A   1      38.986  23.167  26.737  1.00  0.00     0.127 A 
ATOM     10  C   UNL A   1      37.285  22.076  24.849  1.00  0.00     0.004 A 
ATOM     11  C   UNL A   1      37.876  23.891  26.282  1.00  0.00     0.043 A 
ATOM     12  F   UNL A   1      39.739  23.746  27.680  1.00  0.00    -0.207 F 
ATOM     13  C   UNL A   1      36.990  23.346  25.345  1.00  0.00    -0.045 A 
BRANCH  13  14
ATOM     14  C   UNL A   1      35.700  24.070  25.016  1.00  0.00     0.041 C 
BRANCH  14  15
ATOM     15  C   UNL A   1      34.371  23.677  25.693  1.00  0.00     0.022 C 
ATOM     16  C   UNL A   1      34.494  23.066  27.093  1.00  0.00     0.007 C 
ATOM     17  C   UNL A   1      33.484  22.686  24.940  1.00  0.00     0.117 C 
ATOM     18  C   UNL A   1      34.216  21.567  26.946  1.00  0.00     0.003 C 
ATOM     19  C   UNL A   1      33.893  21.323  25.477  1.00  0.00     0.032 C 
BRANCH  17  20
ATOM     20  O   UNL A   1      33.623  22.777  23.537  1.00  0.00    -0.393 OA
ATOM     21  H   UNL A   1      32.795  23.107  23.152  1.00  0.00     0.210 HD
ENDBRANCH  17  20
ENDBRANCH  14  15
ENDBRANCH  13  14
ENDBRANCH   5   7
ENDBRANCH   3   5
ENDBRANCH   2   3
ENDBRANCH   1   2
BRANCH   1  22
ATOM     22  C   UNL A   1      44.194  22.915  24.381  1.00  0.00     0.275 C 
BRANCH  22  23
ATOM     23  O   UNL A   1      43.516  24.152  24.669  1.00  0.00    -0.458 OA
BRANCH  23  24
ATOM     24  C   UNL A   1      44.292  25.176  25.080  1.00  0.00     0.338 C 
ATOM     25  O   UNL A   1      45.393  25.498  24.664  1.00  0.00    -0.246 OA
BRANCH  24  26
ATOM     26  C   UNL A   1      43.584  25.909  26.140  1.00  0.00     0.060 A 
ATOM     27  C   UNL A   1      43.991  27.205  26.441  1.00  0.00     0.016 A 
ATOM     28  C   UNL A   1      42.589  25.290  26.900  1.00  0.00     0.016 A 
ATOM     29  C   UNL A   1      43.424  27.875  27.520  1.00  0.00     0.010 A 
ATOM     30  C   UNL A   1      41.996  25.984  27.965  1.00  0.00     0.010 A 
ATOM     31  C   UNL A   1      42.425  27.279  28.297  1.00  0.00    -0.014 A 
BRANCH  31  32
ATOM     32  C   UNL A   1      41.930  27.993  29.503  1.00  0.00     0.031 A 
ATOM     33  C   UNL A   1      40.659  28.791  29.426  1.00  0.00     0.074 A 
ATOM     34  C   UNL A   1      42.538  27.839  30.696  1.00  0.00     0.049 A 
ATOM     35  N   UNL A   1      40.099  29.549  30.335  1.00  0.00    -0.248 NA
ATOM     36  C   UNL A   1      39.912  28.716  28.161  1.00  0.00     0.031 C 
ATOM     37  C   UNL A   1      43.704  26.995  30.951  1.00  0.00     0.029 A 
ATOM     38  N   UNL A   1      42.232  28.367  31.928  1.00  0.00    -0.354 N 
ATOM     39  C   UNL A   1      38.958  30.071  29.741  1.00  0.00     0.074 A 
ATOM     40  C   UNL A   1      38.896  29.534  28.397  1.00  0.00     0.031 C 
ATOM     41  C   UNL A   1      43.990  27.029  32.264  1.00  0.00     0.029 A 
ATOM     42  C   UNL A   1      43.071  27.949  32.931  1.00  0.00     0.049 A 
ATOM     43  H   UNL A   1      41.481  28.986  32.077  1.00  0.00     0.167 HD
ATOM     44  C   UNL A   1      38.049  30.929  30.261  1.00  0.00     0.037 A 
ATOM     45  C   UNL A   1      43.111  28.288  34.235  1.00  0.00     0.037 A 
ATOM     46  C   UNL A   1      38.084  31.445  31.604  1.00  0.00     0.049 A 
ATOM     47  C   UNL A   1      42.144  29.310  34.767  1.00  0.00     0.074 A 
ATOM     48  C   UNL A   1      37.237  32.364  32.199  1.00  0.00     0.029 A 
ATOM     49  N   UNL A   1      39.008  31.072  32.566  1.00  0.00    -0.354 N 
ATOM     50  N   UNL A   1      41.130  29.882  34.166  1.00  0.00    -0.248 NA
ATOM     51  C   UNL A   1      42.350  29.758  36.153  1.00  0.00     0.031 C 
ATOM     52  C   UNL A   1      37.667  32.568  33.515  1.00  0.00     0.029 A 
ATOM     53  C   UNL A   1      38.762  31.753  33.747  1.00  0.00     0.049 A 
ATOM     54  H   UNL A   1      39.733  30.419  32.430  1.00  0.00     0.167 HD
ATOM     55  C   UNL A   1      40.579  30.754  35.097  1.00  0.00     0.074 A 
ATOM     56  C   UNL A   1      41.352  30.616  36.313  1.00  0.00     0.031 C 
ATOM     57  C   UNL A   1      39.535  31.605  34.951  1.00  0.00     0.037 A 
BRANCH  44  58
ATOM     58  C   UNL A   1      36.969  31.416  29.346  1.00  0.00     0.057 A 
ATOM     59  C   UNL A   1      35.869  30.621  29.004  1.00  0.00     0.134 A 
ATOM     60  C   UNL A   1      37.025  32.712  28.819  1.00  0.00     0.134 A 
ATOM     61  F   UNL A   1      35.768  29.366  29.465  1.00  0.00    -0.206 F 
ATOM     62  C   UNL A   1      34.868  31.095  28.155  1.00  0.00     0.040 A 
ATOM     63  C   UNL A   1      36.022  33.203  27.984  1.00  0.00     0.040 A 
ATOM     64  F   UNL A   1      38.054  33.522  29.112  1.00  0.00    -0.206 F 
ATOM     65  C   UNL A   1      34.941  32.392  27.646  1.00  0.00     0.006 A 
ENDBRANCH  44  58
BRANCH  45  66
ATOM     66  C   UNL A   1      44.131  27.694  35.134  1.00  0.00     0.057 A 
ATOM     67  C   UNL A   1      45.410  28.255  35.242  1.00  0.00     0.134 A 
ATOM     68  C   UNL A   1      43.873  26.529  35.867  1.00  0.00     0.134 A 
ATOM     69  F   UNL A   1      45.725  29.355  34.543  1.00  0.00    -0.206 F 
ATOM     70  C   UNL A   1      46.398  27.672  36.037  1.00  0.00     0.040 A 
ATOM     71  C   UNL A   1      44.844  25.950  36.684  1.00  0.00     0.040 A 
ATOM     72  F   UNL A   1      42.671  25.938  35.798  1.00  0.00    -0.206 F 
ATOM     73  C   UNL A   1      46.114  26.518  36.765  1.00  0.00     0.006 A 
ENDBRANCH  45  66
BRANCH  57  74
ATOM     74  C   UNL A   1      39.162  32.447  36.134  1.00  0.00     0.057 A 
ATOM     75  C   UNL A   1      38.306  31.966  37.132  1.00  0.00     0.134 A 
ATOM     76  C   UNL A   1      39.697  33.730  36.301  1.00  0.00     0.134 A 
ATOM     77  F   UNL A   1      37.751  30.750  37.023  1.00  0.00    -0.206 F 
ATOM     78  C   UNL A   1      37.982  32.739  38.249  1.00  0.00     0.040 A 
ATOM     79  C   UNL A   1      39.396  34.505  37.422  1.00  0.00     0.040 A 
ATOM     80  F   UNL A   1      40.528  34.246  35.383  1.00  0.00    -0.206 F 
ATOM     81  C   UNL A   1      38.533  34.010  38.398  1.00  0.00     0.006 A 
ENDBRANCH  57  74
ENDBRANCH  31  32
ENDBRANCH  24  26
ENDBRANCH  23  24
ENDBRANCH  22  23
ENDBRANCH   1  22
TORSDOF 15
ENDMDL
MODEL 2
REMARK VINA RESULT:     -10.9      4.257      7.579
REMARK SMILES C[C@@H](C(=O)OCCOC(=O)c1ccc(-c2c3nc(c(-c4c(F)cccc4F)c4ccc([nH]4)c(-c4c(F)cccc4F)c4nc(c(-c5c(F)cccc5F)c5ccc2[nH]5)C=C4)C=C3)cc1)c1ccc(C[C@@H]2CCC[C@@H]2O)cc1F
REMARK SMILES IDX 6 1 5 2 3 3 4 4 2 5 1 6 65 7 66 8 77 9 67 10 76 11 78 12
REMARK SMILES IDX 68 13 69 14 70 15 71 16 74 17 72 18 73 19 75 20 7 22 8 23
REMARK SMILES IDX 9 24 10 25 11 26 12 27 64 28 13 29 63 30 14 31 15 32 16 33
REMARK SMILES IDX 57 34 17 35 62 36 56 37 58 38 18 39 61 40 55 41 54 42 19 44
REMARK SMILES IDX 45 45 28 46 44 47 29 48 32 49 43 50 59 51 30 52 31 53 42 55
REMARK SMILES IDX 60 56 33 57 20 58 21 59 26 60 22 61 23 62 25 63 27 64 24 65
REMARK SMILES IDX 46 66 47 67 52 68 48 69 49 70 51 71 53 72 50 73 34 74 35 75
REMARK SMILES IDX 40 76 36 77 37 78 39 79 41 80 38 81
REMARK H PARENT 75 21 58 43 32 54
REMARK Flexibility Score: inf
ROOT
ATOM      1  C   UNL A   1      35.408  20.126  25.085  1.00  0.00     0.274 C 
ENDROOT
BRANCH   1   2
ATOM      2  O   UNL A   1      35.184  21.553  25.062  1.00  0.00    -0.462 OA
BRANCH   2   3
ATOM      3  C   UNL A   1      34.239  21.998  24.185  1.00  0.00     0.313 C 
ATOM      4  O   UNL A   1      33.082  21.590  24.197  1.00  0.00    -0.252 OA
BRANCH   3   5
ATOM      5  C   UNL A   1      34.806  22.986  23.134  1.00  0.00     0.129 C 
ATOM      6  C   UNL A   1      36.342  22.952  23.120  1.00  0.00     0.025 C 
BRANCH   5   7
ATOM      7  C   UNL A   1      34.190  24.389  23.255  1.00  0.00     0.002 A 
ATOM      8  C   UNL A   1      34.397  25.132  24.430  1.00  0.00     0.008 A 
ATOM      9  C   UNL A   1      33.440  25.020  22.252  1.00  0.00     0.127 A 
ATOM     10  C   UNL A   1      34.004  26.472  24.537  1.00  0.00     0.004 A 
ATOM     11  C   UNL A   1      32.982  26.337  22.385  1.00  0.00     0.043 A 
ATOM     12  F   UNL A   1      33.161  24.397  21.101  1.00  0.00    -0.207 F 
ATOM     13  C   UNL A   1      33.278  27.096  23.524  1.00  0.00    -0.045 A 
BRANCH  13  14
ATOM     14  C   UNL A   1      32.935  28.572  23.556  1.00  0.00     0.041 C 
BRANCH  14  15
ATOM     15  C   UNL A   1      31.511  29.052  23.900  1.00  0.00     0.022 C 
ATOM     16  C   UNL A   1      30.649  28.062  24.692  1.00  0.00     0.007 C 
ATOM     17  C   UNL A   1      30.618  29.451  22.725  1.00  0.00     0.117 C 
ATOM     18  C   UNL A   1      29.618  27.492  23.713  1.00  0.00     0.003 C 
ATOM     19  C   UNL A   1      29.856  28.182  22.376  1.00  0.00     0.032 C 
BRANCH  17  20
ATOM     20  O   UNL A   1      31.346  29.964  21.629  1.00  0.00    -0.393 OA
ATOM     21  H   UNL A   1      32.250  30.175  21.912  1.00  0.00     0.210 HD
ENDBRANCH  17  20
ENDBRANCH  14  15
ENDBRANCH  13  14
ENDBRANCH   5   7
ENDBRANCH   3   5
ENDBRANCH   2   3
ENDBRANCH   1   2
BRANCH   1  22
ATOM     22  C   UNL A   1      36.895  19.810  24.960  1.00  0.00     0.275 C 
BRANCH  22  23
ATOM     23  O   UNL A   1      37.667  20.927  25.440  1.00  0.00    -0.458 OA
BRANCH  23  24
ATOM     24  C   UNL A   1      38.932  20.656  25.825  1.00  0.00     0.338 C 
ATOM     25  O   UNL A   1      39.522  19.589  25.768  1.00  0.00    -0.246 OA
BRANCH  24  26
ATOM     26  C   UNL A   1      39.547  21.893  26.329  1.00  0.00     0.060 A 
ATOM     27  C   UNL A   1      38.951  23.110  26.014  1.00  0.00     0.016 A 
ATOM     28  C   UNL A   1      40.757  21.861  27.025  1.00  0.00     0.016 A 
ATOM     29  C   UNL A   1      39.577  24.300  26.370  1.00  0.00     0.010 A 
ATOM     30  C   UNL A   1      41.366  23.064  27.413  1.00  0.00     0.010 A 
ATOM     31  C   UNL A   1      40.790  24.297  27.069  1.00  0.00    -0.014 A 
BRANCH  31  32
ATOM     32  C   UNL A   1      41.472  25.591  27.330  1.00  0.00     0.031 A 
ATOM     33  C   UNL A   1      40.826  26.605  28.232  1.00  0.00     0.074 A 
ATOM     34  C   UNL A   1      42.717  25.823  26.867  1.00  0.00     0.049 A 
ATOM     35  N   UNL A   1      41.213  27.820  28.526  1.00  0.00    -0.248 NA
ATOM     36  C   UNL A   1      39.584  26.190  28.904  1.00  0.00     0.031 C 
ATOM     37  C   UNL A   1      43.519  24.883  26.086  1.00  0.00     0.029 A 
ATOM     38  N   UNL A   1      43.536  26.917  27.018  1.00  0.00    -0.354 N 
ATOM     39  C   UNL A   1      40.246  28.328  29.383  1.00  0.00     0.074 A 
ATOM     40  C   UNL A   1      39.259  27.286  29.574  1.00  0.00     0.031 C 
ATOM     41  C   UNL A   1      44.729  25.422  25.862  1.00  0.00     0.029 A 
ATOM     42  C   UNL A   1      44.765  26.771  26.424  1.00  0.00     0.049 A 
ATOM     43  H   UNL A   1      43.266  27.727  27.507  1.00  0.00     0.167 HD
ATOM     44  C   UNL A   1      40.178  29.556  29.951  1.00  0.00     0.037 A 
ATOM     45  C   UNL A   1      45.794  27.636  26.322  1.00  0.00     0.037 A 
ATOM     46  C   UNL A   1      41.168  30.588  29.792  1.00  0.00     0.049 A 
ATOM     47  C   UNL A   1      45.657  29.023  26.887  1.00  0.00     0.074 A 
ATOM     48  C   UNL A   1      41.153  31.882  30.285  1.00  0.00     0.029 A 
ATOM     49  N   UNL A   1      42.358  30.437  29.101  1.00  0.00    -0.354 N 
ATOM     50  N   UNL A   1      44.688  29.533  27.607  1.00  0.00    -0.248 NA
ATOM     51  C   UNL A   1      46.747  29.968  26.594  1.00  0.00     0.031 C 
ATOM     52  C   UNL A   1      42.325  32.523  29.866  1.00  0.00     0.029 A 
ATOM     53  C   UNL A   1      43.081  31.618  29.141  1.00  0.00     0.049 A 
ATOM     54  H   UNL A   1      42.648  29.611  28.649  1.00  0.00     0.167 HD
ATOM     55  C   UNL A   1      45.050  30.851  27.853  1.00  0.00     0.074 A 
ATOM     56  C   UNL A   1      46.340  31.058  27.231  1.00  0.00     0.031 C 
ATOM     57  C   UNL A   1      44.365  31.811  28.521  1.00  0.00     0.037 A 
BRANCH  44  58
ATOM     58  C   UNL A   1      38.952  29.871  30.750  1.00  0.00     0.057 A 
ATOM     59  C   UNL A   1      37.819  30.457  30.174  1.00  0.00     0.134 A 
ATOM     60  C   UNL A   1      38.903  29.560  32.114  1.00  0.00     0.134 A 
ATOM     61  F   UNL A   1      37.812  30.792  28.876  1.00  0.00    -0.206 F 
ATOM     62  C   UNL A   1      36.683  30.737  30.935  1.00  0.00     0.040 A 
ATOM     63  C   UNL A   1      37.767  29.819  32.880  1.00  0.00     0.040 A 
ATOM     64  F   UNL A   1      39.957  28.996  32.722  1.00  0.00    -0.206 F 
ATOM     65  C   UNL A   1      36.653  30.413  32.292  1.00  0.00     0.006 A 
ENDBRANCH  44  58
BRANCH  45  66
ATOM     66  C   UNL A   1      47.039  27.242  25.616  1.00  0.00     0.057 A 
ATOM     67  C   UNL A   1      48.084  26.610  26.301  1.00  0.00     0.134 A 
ATOM     68  C   UNL A   1      47.234  27.529  24.261  1.00  0.00     0.134 A 
ATOM     69  F   UNL A   1      47.965  26.333  27.608  1.00  0.00    -0.206 F 
ATOM     70  C   UNL A   1      49.284  26.288  25.664  1.00  0.00     0.040 A 
ATOM     71  C   UNL A   1      48.419  27.192  23.606  1.00  0.00     0.040 A 
ATOM     72  F   UNL A   1      46.275  28.143  23.552  1.00  0.00    -0.206 F 
ATOM     73  C   UNL A   1      49.452  26.576  24.310  1.00  0.00     0.006 A 
ENDBRANCH  45  66
BRANCH  57  74
ATOM     74  C   UNL A   1      44.999  33.166  28.621  1.00  0.00     0.057 A 
ATOM     75  C   UNL A   1      45.910  33.472  29.640  1.00  0.00     0.134 A 
ATOM     76  C   UNL A   1      44.731  34.156  27.670  1.00  0.00     0.134 A 
ATOM     77  F   UNL A   1      46.198  32.569  30.589  1.00  0.00    -0.206 F 
ATOM     78  C   UNL A   1      46.522  34.724  29.717  1.00  0.00     0.040 A 
ATOM     79  C   UNL A   1      45.351  35.406  27.725  1.00  0.00     0.040 A 
ATOM     80  F   UNL A   1      43.871  33.923  26.667  1.00  0.00    -0.206 F 
ATOM     81  C   UNL A   1      46.248  35.693  28.753  1.00  0.00     0.006 A 
ENDBRANCH  57  74
ENDBRANCH  31  32
ENDBRANCH  24  26
ENDBRANCH  23  24
ENDBRANCH  22  23
ENDBRANCH   1  22
TORSDOF 15
ENDMDL
MODEL 3
REMARK VINA RESULT:     -10.8      4.922     10.597
REMARK SMILES C[C@@H](C(=O)OCCOC(=O)c1ccc(-c2c3nc(c(-c4c(F)cccc4F)c4ccc([nH]4)c(-c4c(F)cccc4F)c4nc(c(-c5c(F)cccc5F)c5ccc2[nH]5)C=C4)C=C3)cc1)c1ccc(C[C@@H]2CCC[C@@H]2O)cc1F
REMARK SMILES IDX 6 1 5 2 3 3 4 4 2 5 1 6 65 7 66 8 77 9 67 10 76 11 78 12
REMARK SMILES IDX 68 13 69 14 70 15 71 16 74 17 72 18 73 19 75 20 7 22 8 23
REMARK SMILES IDX 9 24 10 25 11 26 12 27 64 28 13 29 63 30 14 31 15 32 16 33
REMARK SMILES IDX 57 34 17 35 62 36 56 37 58 38 18 39 61 40 55 41 54 42 19 44
REMARK SMILES IDX 45 45 28 46 44 47 29 48 32 49 43 50 59 51 30 52 31 53 42 55
REMARK SMILES IDX 60 56 33 57 20 58 21 59 26 60 22 61 23 62 25 63 27 64 24 65
REMARK SMILES IDX 46 66 47 67 52 68 48 69 49 70 51 71 53 72 50 73 34 74 35 75
REMARK SMILES IDX 40 76 36 77 37 78 39 79 41 80 38 81
REMARK H PARENT 75 21 58 43 32 54
REMARK Flexibility Score: inf
ROOT
ATOM      1  C   UNL A   1      34.420  33.906  31.588  1.00  0.00     0.274 C 
ENDROOT
BRANCH   1   2
ATOM      2  O   UNL A   1      34.307  33.018  30.455  1.00  0.00    -0.462 OA
BRANCH   2   3
ATOM      3  C   UNL A   1      35.028  33.361  29.349  1.00  0.00     0.313 C 
ATOM      4  O   UNL A   1      36.121  33.914  29.419  1.00  0.00    -0.252 OA
BRANCH   3   5
ATOM      5  C   UNL A   1      34.281  33.065  28.024  1.00  0.00     0.129 C 
ATOM      6  C   UNL A   1      32.963  33.850  27.949  1.00  0.00     0.025 C 
BRANCH   5   7
ATOM      7  C   UNL A   1      34.156  31.558  27.744  1.00  0.00     0.002 A 
ATOM      8  C   UNL A   1      32.879  30.994  27.577  1.00  0.00     0.008 A 
ATOM      9  C   UNL A   1      35.239  30.680  27.609  1.00  0.00     0.127 A 
ATOM     10  C   UNL A   1      32.705  29.669  27.160  1.00  0.00     0.004 A 
ATOM     11  C   UNL A   1      35.065  29.333  27.262  1.00  0.00     0.043 A 
ATOM     12  F   UNL A   1      36.499  31.103  27.770  1.00  0.00    -0.207 F 
ATOM     13  C   UNL A   1      33.792  28.809  27.007  1.00  0.00    -0.045 A 
BRANCH  13  14
ATOM     14  C   UNL A   1      33.651  27.407  26.450  1.00  0.00     0.041 C 
BRANCH  14  15
ATOM     15  C   UNL A   1      33.384  27.169  24.950  1.00  0.00     0.022 C 
ATOM     16  C   UNL A   1      34.021  28.182  23.992  1.00  0.00     0.007 C 
ATOM     17  C   UNL A   1      31.920  27.126  24.512  1.00  0.00     0.117 C 
ATOM     18  C   UNL A   1      32.889  29.078  23.480  1.00  0.00     0.003 C 
ATOM     19  C   UNL A   1      31.600  28.556  24.104  1.00  0.00     0.032 C 
BRANCH  17  20
ATOM     20  O   UNL A   1      31.056  26.646  25.521  1.00  0.00    -0.393 OA
ATOM     21  H   UNL A   1      30.136  26.836  25.276  1.00  0.00     0.210 HD
ENDBRANCH  17  20
ENDBRANCH  14  15
ENDBRANCH  13  14
ENDBRANCH   5   7
ENDBRANCH   3   5
ENDBRANCH   2   3
ENDBRANCH   1   2
BRANCH   1  22
ATOM     22  C   UNL A   1      34.703  33.119  32.865  1.00  0.00     0.275 C 
BRANCH  22  23
ATOM     23  O   UNL A   1      35.483  31.951  32.549  1.00  0.00    -0.458 OA
BRANCH  23  24
ATOM     24  C   UNL A   1      36.623  31.787  33.251  1.00  0.00     0.338 C 
ATOM     25  O   UNL A   1      36.825  32.046  34.426  1.00  0.00    -0.246 OA
BRANCH  24  26
ATOM     26  C   UNL A   1      37.641  31.199  32.367  1.00  0.00     0.060 A 
ATOM     27  C   UNL A   1      38.804  30.689  32.937  1.00  0.00     0.016 A 
ATOM     28  C   UNL A   1      37.496  31.237  30.979  1.00  0.00     0.016 A 
ATOM     29  C   UNL A   1      39.835  30.241  32.119  1.00  0.00     0.010 A 
ATOM     30  C   UNL A   1      38.525  30.751  30.160  1.00  0.00     0.010 A 
ATOM     31  C   UNL A   1      39.716  30.267  30.725  1.00  0.00    -0.014 A 
BRANCH  31  32
ATOM     32  C   UNL A   1      40.887  29.880  29.896  1.00  0.00     0.031 A 
ATOM     33  C   UNL A   1      40.934  28.518  29.263  1.00  0.00     0.074 A 
ATOM     34  C   UNL A   1      41.853  30.774  29.603  1.00  0.00     0.049 A 
ATOM     35  N   UNL A   1      41.894  27.956  28.572  1.00  0.00    -0.248 NA
ATOM     36  C   UNL A   1      39.734  27.681  29.417  1.00  0.00     0.031 C 
ATOM     37  C   UNL A   1      41.878  32.169  30.040  1.00  0.00     0.029 A 
ATOM     38  N   UNL A   1      42.987  30.644  28.836  1.00  0.00    -0.354 N 
ATOM     39  C   UNL A   1      41.432  26.689  28.244  1.00  0.00     0.074 A 
ATOM     40  C   UNL A   1      40.099  26.567  28.799  1.00  0.00     0.031 C 
ATOM     41  C   UNL A   1      42.949  32.777  29.501  1.00  0.00     0.029 A 
ATOM     42  C   UNL A   1      43.722  31.799  28.738  1.00  0.00     0.049 A 
ATOM     43  H   UNL A   1      43.247  29.801  28.399  1.00  0.00     0.167 HD
ATOM     44  C   UNL A   1      42.063  25.711  27.553  1.00  0.00     0.037 A 
ATOM     45  C   UNL A   1      44.897  32.037  28.124  1.00  0.00     0.037 A 
ATOM     46  C   UNL A   1      43.373  25.832  26.972  1.00  0.00     0.049 A 
ATOM     47  C   UNL A   1      45.619  30.909  27.438  1.00  0.00     0.074 A 
ATOM     48  C   UNL A   1      44.114  24.872  26.304  1.00  0.00     0.029 A 
ATOM     49  N   UNL A   1      44.131  26.991  26.975  1.00  0.00    -0.354 N 
ATOM     50  N   UNL A   1      45.221  29.679  27.225  1.00  0.00    -0.248 NA
ATOM     51  C   UNL A   1      46.972  31.197  26.936  1.00  0.00     0.031 C 
ATOM     52  C   UNL A   1      45.335  25.444  25.927  1.00  0.00     0.029 A 
ATOM     53  C   UNL A   1      45.338  26.768  26.334  1.00  0.00     0.049 A 
ATOM     54  H   UNL A   1      43.852  27.847  27.375  1.00  0.00     0.167 HD
ATOM     55  C   UNL A   1      46.269  29.049  26.566  1.00  0.00     0.074 A 
ATOM     56  C   UNL A   1      47.311  30.038  26.388  1.00  0.00     0.031 C 
ATOM     57  C   UNL A   1      46.366  27.760  26.160  1.00  0.00     0.037 A 
BRANCH  44  58
ATOM     58  C   UNL A   1      41.362  24.392  27.444  1.00  0.00     0.057 A 
ATOM     59  C   UNL A   1      40.307  24.181  26.548  1.00  0.00     0.134 A 
ATOM     60  C   UNL A   1      41.769  23.312  28.237  1.00  0.00     0.134 A 
ATOM     61  F   UNL A   1      39.863  25.183  25.775  1.00  0.00    -0.206 F 
ATOM     62  C   UNL A   1      39.670  22.943  26.457  1.00  0.00     0.040 A 
ATOM     63  C   UNL A   1      41.151  22.065  28.142  1.00  0.00     0.040 A 
ATOM     64  F   UNL A   1      42.774  23.452  29.113  1.00  0.00    -0.206 F 
ATOM     65  C   UNL A   1      40.096  21.878  27.252  1.00  0.00     0.006 A 
ENDBRANCH  44  58
BRANCH  45  66
ATOM     66  C   UNL A   1      45.504  33.392  28.161  1.00  0.00     0.057 A 
ATOM     67  C   UNL A   1      45.246  34.323  27.149  1.00  0.00     0.134 A 
ATOM     68  C   UNL A   1      46.389  33.769  29.177  1.00  0.00     0.134 A 
ATOM     69  F   UNL A   1      44.427  34.008  26.135  1.00  0.00    -0.206 F 
ATOM     70  C   UNL A   1      45.857  35.579  27.139  1.00  0.00     0.040 A 
ATOM     71  C   UNL A   1      46.988  35.030  29.193  1.00  0.00     0.040 A 
ATOM     72  F   UNL A   1      46.686  32.918  30.170  1.00  0.00    -0.206 F 
ATOM     73  C   UNL A   1      46.728  35.936  28.167  1.00  0.00     0.006 A 
ENDBRANCH  45  66
BRANCH  57  74
ATOM     74  C   UNL A   1      47.635  27.347  25.477  1.00  0.00     0.057 A 
ATOM     75  C   UNL A   1      48.706  26.801  26.196  1.00  0.00     0.134 A 
ATOM     76  C   UNL A   1      47.771  27.453  24.089  1.00  0.00     0.134 A 
ATOM     77  F   UNL A   1      48.641  26.685  27.530  1.00  0.00    -0.206 F 
ATOM     78  C   UNL A   1      49.877  26.388  25.557  1.00  0.00     0.040 A 
ATOM     79  C   UNL A   1      48.929  27.026  23.436  1.00  0.00     0.040 A 
ATOM     80  F   UNL A   1      46.779  27.962  23.343  1.00  0.00    -0.206 F 
ATOM     81  C   UNL A   1      49.987  26.495  24.171  1.00  0.00     0.006 A 
ENDBRANCH  57  74
ENDBRANCH  31  32
ENDBRANCH  24  26
ENDBRANCH  23  24
ENDBRANCH  22  23
ENDBRANCH   1  22
TORSDOF 15
ENDMDL
