MODEL 1
REMARK VINA RESULT:     -12.0      0.000      0.000
REMARK SMILES COc1cccc(-c2ccc(=O)n(CC(=O)N[C@@H](C(=O)OCCOC(=O)c3ccc(-c4c5nc(c(-c6c(F)cccc6F)c6ccc([nH]6)c(-c6c(F)cccc6F)c6nc(c(-c7c(F)cccc7F)c7ccc4[nH]7)C=C6)C=C5)cc3)C(C)C)n2)c1
REMARK SMILES IDX 21 1 19 2 20 3 18 4 17 5 15 6 16 7 14 9 13 10 8 11 9 12
REMARK SMILES IDX 84 13 10 14 11 15 12 16 7 17 3 18 4 19 85 20 5 21 6 22 2 23
REMARK SMILES IDX 1 24 81 25 82 26 83 27 22 28 23 29 24 30 25 31 26 32 27 33
REMARK SMILES IDX 28 34 80 35 29 36 79 37 30 38 31 39 32 40 73 41 33 42 78 43
REMARK SMILES IDX 72 44 74 45 34 46 77 47 71 48 70 49 35 51 61 52 44 53 60 54
REMARK SMILES IDX 45 55 48 56 59 57 75 58 46 59 47 60 58 62 76 63 49 64 36 65
REMARK SMILES IDX 37 66 42 67 38 68 39 69 41 70 43 71 40 72 62 73 63 74 68 75
REMARK SMILES IDX 64 76 65 77 67 78 69 79 66 80 50 81 51 82 56 83 52 84 53 85
REMARK SMILES IDX 55 86 57 87 54 88
REMARK H PARENT 17 8 74 50 48 61
REMARK Flexibility Score: inf
ROOT
ATOM      1  O   UNL A   1      30.259  29.479  23.847  1.00  0.00    -0.461 OA
ENDROOT
BRANCH   1   2
ATOM      2  C   UNL A   1      30.174  28.655  22.760  1.00  0.00     0.329 C 
ATOM      3  O   UNL A   1      29.657  28.991  21.700  1.00  0.00    -0.250 OA
BRANCH   2   4
ATOM      4  C   UNL A   1      30.785  27.250  23.018  1.00  0.00     0.194 C 
BRANCH   4   5
ATOM      5  N   UNL A   1      31.442  26.730  21.814  1.00  0.00    -0.341 N 
ATOM      6  C   UNL A   1      32.757  26.419  21.625  1.00  0.00     0.242 C 
ATOM      7  O   UNL A   1      33.052  25.837  20.577  1.00  0.00    -0.273 OA
ATOM      8  H   UNL A   1      30.854  26.585  21.038  1.00  0.00     0.164 HD
BRANCH   6   9
ATOM      9  C   UNL A   1      33.789  26.632  22.739  1.00  0.00     0.248 C 
BRANCH   9  10
ATOM     10  N   UNL A   1      33.693  25.624  23.791  1.00  0.00    -0.220 N 
ATOM     11  C   UNL A   1      33.284  23.436  24.336  1.00  0.00     0.091 A 
ATOM     12  C   UNL A   1      33.367  23.716  25.782  1.00  0.00     0.036 A 
ATOM     13  N   UNL A   1      33.473  24.316  23.404  1.00  0.00    -0.169 NA
ATOM     14  C   UNL A   1      33.666  24.968  26.130  1.00  0.00     0.075 A 
ATOM     15  C   UNL A   1      33.855  26.021  25.111  1.00  0.00     0.267 A 
ATOM     16  O   UNL A   1      34.110  27.163  25.479  1.00  0.00    -0.268 OA
BRANCH  11  17
ATOM     17  C   UNL A   1      32.942  22.045  23.960  1.00  0.00     0.006 A 
ATOM     18  C   UNL A   1      33.069  19.677  24.408  1.00  0.00     0.119 A 
ATOM     19  C   UNL A   1      32.413  19.428  23.199  1.00  0.00     0.046 A 
ATOM     20  C   UNL A   1      33.362  20.991  24.778  1.00  0.00     0.056 A 
ATOM     21  C   UNL A   1      32.009  20.479  22.378  1.00  0.00     0.005 A 
ATOM     22  C   UNL A   1      32.264  21.793  22.763  1.00  0.00     0.011 A 
BRANCH  18  23
ATOM     23  O   UNL A   1      33.405  18.562  25.125  1.00  0.00    -0.497 OA
ATOM     24  C   UNL A   1      32.432  17.523  25.137  1.00  0.00     0.278 C 
ENDBRANCH  18  23
ENDBRANCH  11  17
ENDBRANCH   9  10
ENDBRANCH   6   9
ENDBRANCH   4   5
BRANCH   4  25
ATOM     25  C   UNL A   1      29.779  26.208  23.575  1.00  0.00     0.017 C 
ATOM     26  C   UNL A   1      30.226  25.678  24.947  1.00  0.00     0.010 C 
ATOM     27  C   UNL A   1      28.367  26.791  23.735  1.00  0.00     0.010 C 
ENDBRANCH   4  25
ENDBRANCH   2   4
ENDBRANCH   1   2
BRANCH   1  28
ATOM     28  C   UNL A   1      31.401  29.308  24.718  1.00  0.00     0.274 C 
BRANCH  28  29
ATOM     29  C   UNL A   1      31.480  30.449  25.726  1.00  0.00     0.275 C 
BRANCH  29  30
ATOM     30  O   UNL A   1      32.819  30.497  26.240  1.00  0.00    -0.458 OA
BRANCH  30  31
ATOM     31  C   UNL A   1      33.131  31.560  27.010  1.00  0.00     0.338 C 
ATOM     32  O   UNL A   1      32.477  32.576  27.187  1.00  0.00    -0.246 OA
BRANCH  31  33
ATOM     33  C   UNL A   1      34.416  31.287  27.674  1.00  0.00     0.060 A 
ATOM     34  C   UNL A   1      34.737  29.974  28.019  1.00  0.00     0.016 A 
ATOM     35  C   UNL A   1      35.273  32.328  28.023  1.00  0.00     0.016 A 
ATOM     36  C   UNL A   1      35.878  29.699  28.762  1.00  0.00     0.010 A 
ATOM     37  C   UNL A   1      36.472  32.038  28.685  1.00  0.00     0.010 A 
ATOM     38  C   UNL A   1      36.779  30.721  29.074  1.00  0.00    -0.014 A 
BRANCH  38  39
ATOM     39  C   UNL A   1      38.033  30.413  29.810  1.00  0.00     0.031 A 
ATOM     40  C   UNL A   1      39.091  29.561  29.168  1.00  0.00     0.074 A 
ATOM     41  C   UNL A   1      38.238  30.906  31.048  1.00  0.00     0.049 A 
ATOM     42  N   UNL A   1      40.130  28.985  29.713  1.00  0.00    -0.248 NA
ATOM     43  C   UNL A   1      38.957  29.322  27.722  1.00  0.00     0.031 C 
ATOM     44  C   UNL A   1      37.339  31.813  31.765  1.00  0.00     0.029 A 
ATOM     45  N   UNL A   1      39.277  30.712  31.925  1.00  0.00    -0.354 N 
ATOM     46  C   UNL A   1      40.743  28.269  28.692  1.00  0.00     0.074 A 
ATOM     47  C   UNL A   1      39.966  28.493  27.491  1.00  0.00     0.031 C 
ATOM     48  C   UNL A   1      37.878  32.122  32.954  1.00  0.00     0.029 A 
ATOM     49  C   UNL A   1      39.106  31.354  33.127  1.00  0.00     0.049 A 
ATOM     50  H   UNL A   1      40.067  30.165  31.713  1.00  0.00     0.167 HD
ATOM     51  C   UNL A   1      41.848  27.490  28.759  1.00  0.00     0.037 A 
ATOM     52  C   UNL A   1      39.818  31.287  34.267  1.00  0.00     0.037 A 
ATOM     53  C   UNL A   1      42.643  27.310  29.945  1.00  0.00     0.049 A 
ATOM     54  C   UNL A   1      40.990  30.353  34.343  1.00  0.00     0.074 A 
ATOM     55  C   UNL A   1      43.785  26.545  30.112  1.00  0.00     0.029 A 
ATOM     56  N   UNL A   1      42.387  27.920  31.163  1.00  0.00    -0.354 N 
ATOM     57  N   UNL A   1      41.506  29.601  33.403  1.00  0.00    -0.248 NA
ATOM     58  C   UNL A   1      41.648  30.223  35.650  1.00  0.00     0.031 C 
ATOM     59  C   UNL A   1      44.201  26.669  31.444  1.00  0.00     0.029 A 
ATOM     60  C   UNL A   1      43.336  27.532  32.094  1.00  0.00     0.049 A 
ATOM     61  H   UNL A   1      41.640  28.538  31.340  1.00  0.00     0.167 HD
ATOM     62  C   UNL A   1      42.540  28.899  34.004  1.00  0.00     0.074 A 
ATOM     63  C   UNL A   1      42.598  29.337  35.384  1.00  0.00     0.031 C 
ATOM     64  C   UNL A   1      43.361  27.966  33.466  1.00  0.00     0.037 A 
BRANCH  51  65
ATOM     65  C   UNL A   1      42.235  26.737  27.524  1.00  0.00     0.057 A 
ATOM     66  C   UNL A   1      41.793  25.432  27.279  1.00  0.00     0.134 A 
ATOM     67  C   UNL A   1      43.041  27.343  26.552  1.00  0.00     0.134 A 
ATOM     68  F   UNL A   1      41.032  24.792  28.180  1.00  0.00    -0.206 F 
ATOM     69  C   UNL A   1      42.150  24.750  26.115  1.00  0.00     0.040 A 
ATOM     70  C   UNL A   1      43.390  26.679  25.375  1.00  0.00     0.040 A 
ATOM     71  F   UNL A   1      43.496  28.592  26.727  1.00  0.00    -0.206 F 
ATOM     72  C   UNL A   1      42.946  25.376  25.156  1.00  0.00     0.006 A 
ENDBRANCH  51  65
BRANCH  52  73
ATOM     73  C   UNL A   1      39.385  32.062  35.456  1.00  0.00     0.057 A 
ATOM     74  C   UNL A   1      38.482  31.526  36.379  1.00  0.00     0.134 A 
ATOM     75  C   UNL A   1      39.871  33.353  35.700  1.00  0.00     0.134 A 
ATOM     76  F   UNL A   1      37.963  30.305  36.184  1.00  0.00    -0.206 F 
ATOM     77  C   UNL A   1      38.078  32.246  37.505  1.00  0.00     0.040 A 
ATOM     78  C   UNL A   1      39.494  34.074  36.834  1.00  0.00     0.040 A 
ATOM     79  F   UNL A   1      40.737  33.924  34.850  1.00  0.00    -0.206 F 
ATOM     80  C   UNL A   1      38.592  33.520  37.738  1.00  0.00     0.006 A 
ENDBRANCH  52  73
BRANCH  64  81
ATOM     81  C   UNL A   1      44.379  27.354  34.378  1.00  0.00     0.057 A 
ATOM     82  C   UNL A   1      44.118  26.160  35.061  1.00  0.00     0.134 A 
ATOM     83  C   UNL A   1      45.633  27.948  34.557  1.00  0.00     0.134 A 
ATOM     84  F   UNL A   1      42.927  25.555  34.941  1.00  0.00    -0.206 F 
ATOM     85  C   UNL A   1      45.069  25.582  35.902  1.00  0.00     0.040 A 
ATOM     86  C   UNL A   1      46.599  27.371  35.382  1.00  0.00     0.040 A 
ATOM     87  F   UNL A   1      45.942  29.091  33.927  1.00  0.00    -0.206 F 
ATOM     88  C   UNL A   1      46.316  26.186  36.060  1.00  0.00     0.006 A 
ENDBRANCH  64  81
ENDBRANCH  38  39
ENDBRANCH  31  33
ENDBRANCH  30  31
ENDBRANCH  29  30
ENDBRANCH  28  29
ENDBRANCH   1  28
TORSDOF 17
ENDMDL
MODEL 2
REMARK VINA RESULT:     -11.7      1.786      3.257
REMARK SMILES COc1cccc(-c2ccc(=O)n(CC(=O)N[C@@H](C(=O)OCCOC(=O)c3ccc(-c4c5nc(c(-c6c(F)cccc6F)c6ccc([nH]6)c(-c6c(F)cccc6F)c6nc(c(-c7c(F)cccc7F)c7ccc4[nH]7)C=C6)C=C5)cc3)C(C)C)n2)c1
REMARK SMILES IDX 21 1 19 2 20 3 18 4 17 5 15 6 16 7 14 9 13 10 8 11 9 12
REMARK SMILES IDX 84 13 10 14 11 15 12 16 7 17 3 18 4 19 85 20 5 21 6 22 2 23
REMARK SMILES IDX 1 24 81 25 82 26 83 27 22 28 23 29 24 30 25 31 26 32 27 33
REMARK SMILES IDX 28 34 80 35 29 36 79 37 30 38 31 39 32 40 73 41 33 42 78 43
REMARK SMILES IDX 72 44 74 45 34 46 77 47 71 48 70 49 35 51 61 52 44 53 60 54
REMARK SMILES IDX 45 55 48 56 59 57 75 58 46 59 47 60 58 62 76 63 49 64 36 65
REMARK SMILES IDX 37 66 42 67 38 68 39 69 41 70 43 71 40 72 62 73 63 74 68 75
REMARK SMILES IDX 64 76 65 77 67 78 69 79 66 80 50 81 51 82 56 83 52 84 53 85
REMARK SMILES IDX 55 86 57 87 54 88
REMARK H PARENT 17 8 74 50 48 61
REMARK Flexibility Score: inf
ROOT
ATOM      1  O   UNL A   1      31.196  27.265  25.073  1.00  0.00    -0.461 OA
ENDROOT
BRANCH   1   2
ATOM      2  C   UNL A   1      31.034  26.177  24.263  1.00  0.00     0.329 C 
ATOM      3  O   UNL A   1      30.168  26.106  23.398  1.00  0.00    -0.250 OA
BRANCH   2   4
ATOM      4  C   UNL A   1      32.049  25.041  24.568  1.00  0.00     0.194 C 
BRANCH   4   5
ATOM      5  N   UNL A   1      31.915  24.569  25.950  1.00  0.00    -0.341 N 
ATOM      6  C   UNL A   1      31.744  23.293  26.405  1.00  0.00     0.242 C 
ATOM      7  O   UNL A   1      31.824  23.116  27.624  1.00  0.00    -0.273 OA
ATOM      8  H   UNL A   1      31.953  25.266  26.643  1.00  0.00     0.164 HD
BRANCH   6   9
ATOM      9  C   UNL A   1      31.630  22.114  25.431  1.00  0.00     0.248 C 
BRANCH   9  10
ATOM     10  N   UNL A   1      32.875  21.361  25.314  1.00  0.00    -0.220 N 
ATOM     11  C   UNL A   1      35.163  21.383  25.453  1.00  0.00     0.091 A 
ATOM     12  C   UNL A   1      35.267  19.994  24.965  1.00  0.00     0.036 A 
ATOM     13  N   UNL A   1      34.047  22.011  25.653  1.00  0.00    -0.169 NA
ATOM     14  C   UNL A   1      34.119  19.359  24.728  1.00  0.00     0.075 A 
ATOM     15  C   UNL A   1      32.818  20.038  24.902  1.00  0.00     0.267 A 
ATOM     16  O   UNL A   1      31.789  19.419  24.652  1.00  0.00    -0.268 OA
BRANCH  11  17
ATOM     17  C   UNL A   1      36.443  22.082  25.706  1.00  0.00     0.006 A 
ATOM     18  C   UNL A   1      38.834  21.998  26.021  1.00  0.00     0.119 A 
ATOM     19  C   UNL A   1      38.831  23.368  26.301  1.00  0.00     0.046 A 
ATOM     20  C   UNL A   1      37.631  21.344  25.751  1.00  0.00     0.056 A 
ATOM     21  C   UNL A   1      37.645  24.099  26.271  1.00  0.00     0.005 A 
ATOM     22  C   UNL A   1      36.448  23.458  25.962  1.00  0.00     0.011 A 
BRANCH  18  23
ATOM     23  O   UNL A   1      40.062  21.400  26.075  1.00  0.00    -0.497 OA
ATOM     24  C   UNL A   1      40.769  21.553  27.301  1.00  0.00     0.278 C 
ENDBRANCH  18  23
ENDBRANCH  11  17
ENDBRANCH   9  10
ENDBRANCH   6   9
ENDBRANCH   4   5
BRANCH   4  25
ATOM     25  C   UNL A   1      33.526  25.406  24.266  1.00  0.00     0.017 C 
ATOM     26  C   UNL A   1      33.654  26.154  22.928  1.00  0.00     0.010 C 
ATOM     27  C   UNL A   1      34.142  26.292  25.358  1.00  0.00     0.010 C 
ENDBRANCH   4  25
ENDBRANCH   2   4
ENDBRANCH   1   2
BRANCH   1  28
ATOM     28  C   UNL A   1      31.472  28.531  24.432  1.00  0.00     0.274 C 
BRANCH  28  29
ATOM     29  C   UNL A   1      31.440  29.665  25.452  1.00  0.00     0.275 C 
BRANCH  29  30
ATOM     30  O   UNL A   1      32.789  29.937  25.856  1.00  0.00    -0.458 OA
BRANCH  30  31
ATOM     31  C   UNL A   1      32.970  30.989  26.682  1.00  0.00     0.338 C 
ATOM     32  O   UNL A   1      32.214  31.929  26.876  1.00  0.00    -0.246 OA
BRANCH  31  33
ATOM     33  C   UNL A   1      34.252  30.811  27.382  1.00  0.00     0.060 A 
ATOM     34  C   UNL A   1      34.669  29.523  27.720  1.00  0.00     0.016 A 
ATOM     35  C   UNL A   1      35.011  31.913  27.771  1.00  0.00     0.016 A 
ATOM     36  C   UNL A   1      35.805  29.329  28.495  1.00  0.00     0.010 A 
ATOM     37  C   UNL A   1      36.209  31.710  28.466  1.00  0.00     0.010 A 
ATOM     38  C   UNL A   1      36.611  30.416  28.848  1.00  0.00    -0.014 A 
BRANCH  38  39
ATOM     39  C   UNL A   1      37.862  30.199  29.619  1.00  0.00     0.031 A 
ATOM     40  C   UNL A   1      38.987  29.406  29.017  1.00  0.00     0.074 A 
ATOM     41  C   UNL A   1      38.005  30.723  30.853  1.00  0.00     0.049 A 
ATOM     42  N   UNL A   1      40.047  28.905  29.597  1.00  0.00    -0.248 NA
ATOM     43  C   UNL A   1      38.904  29.136  27.573  1.00  0.00     0.031 C 
ATOM     44  C   UNL A   1      37.034  31.583  31.533  1.00  0.00     0.029 A 
ATOM     45  N   UNL A   1      39.032  30.609  31.758  1.00  0.00    -0.354 N 
ATOM     46  C   UNL A   1      40.728  28.213  28.604  1.00  0.00     0.074 A 
ATOM     47  C   UNL A   1      39.969  28.369  27.381  1.00  0.00     0.031 C 
ATOM     48  C   UNL A   1      37.522  31.944  32.728  1.00  0.00     0.029 A 
ATOM     49  C   UNL A   1      38.792  31.259  32.944  1.00  0.00     0.049 A 
ATOM     50  H   UNL A   1      39.860  30.110  31.574  1.00  0.00     0.167 HD
ATOM     51  C   UNL A   1      41.878  27.506  28.710  1.00  0.00     0.037 A 
ATOM     52  C   UNL A   1      39.478  31.254  34.102  1.00  0.00     0.037 A 
ATOM     53  C   UNL A   1      42.653  27.395  29.917  1.00  0.00     0.049 A 
ATOM     54  C   UNL A   1      40.703  30.396  34.221  1.00  0.00     0.074 A 
ATOM     55  C   UNL A   1      43.835  26.706  30.125  1.00  0.00     0.029 A 
ATOM     56  N   UNL A   1      42.329  28.006  31.118  1.00  0.00    -0.354 N 
ATOM     57  N   UNL A   1      41.289  29.664  33.307  1.00  0.00    -0.248 NA
ATOM     58  C   UNL A   1      41.335  30.329  35.546  1.00  0.00     0.031 C 
ATOM     59  C   UNL A   1      44.210  26.877  31.464  1.00  0.00     0.029 A 
ATOM     60  C   UNL A   1      43.276  27.694  32.078  1.00  0.00     0.049 A 
ATOM     61  H   UNL A   1      41.541  28.579  31.267  1.00  0.00     0.167 HD
ATOM     62  C   UNL A   1      42.350  29.038  33.945  1.00  0.00     0.074 A 
ATOM     63  C   UNL A   1      42.346  29.500  35.318  1.00  0.00     0.031 C 
ATOM     64  C   UNL A   1      43.240  28.150  33.443  1.00  0.00     0.037 A 
BRANCH  51  65
ATOM     65  C   UNL A   1      42.341  26.759  27.498  1.00  0.00     0.057 A 
ATOM     66  C   UNL A   1      43.162  27.347  26.530  1.00  0.00     0.134 A 
ATOM     67  C   UNL A   1      41.980  25.417  27.316  1.00  0.00     0.134 A 
ATOM     68  F   UNL A   1      43.528  28.633  26.639  1.00  0.00    -0.206 F 
ATOM     69  C   UNL A   1      43.598  26.630  25.414  1.00  0.00     0.040 A 
ATOM     70  C   UNL A   1      42.424  24.685  26.215  1.00  0.00     0.040 A 
ATOM     71  F   UNL A   1      41.195  24.797  28.210  1.00  0.00    -0.206 F 
ATOM     72  C   UNL A   1      43.233  25.293  25.257  1.00  0.00     0.006 A 
ENDBRANCH  51  65
BRANCH  52  73
ATOM     73  C   UNL A   1      38.968  32.019  35.267  1.00  0.00     0.057 A 
ATOM     74  C   UNL A   1      38.248  31.389  36.286  1.00  0.00     0.134 A 
ATOM     75  C   UNL A   1      39.195  33.396  35.389  1.00  0.00     0.134 A 
ATOM     76  F   UNL A   1      37.977  30.078  36.210  1.00  0.00    -0.206 F 
ATOM     77  C   UNL A   1      37.774  32.100  37.390  1.00  0.00     0.040 A 
ATOM     78  C   UNL A   1      38.747  34.114  36.498  1.00  0.00     0.040 A 
ATOM     79  F   UNL A   1      39.876  34.058  34.442  1.00  0.00    -0.206 F 
ATOM     80  C   UNL A   1      38.032  33.466  37.501  1.00  0.00     0.006 A 
ENDBRANCH  52  73
BRANCH  64  81
ATOM     81  C   UNL A   1      44.271  27.618  34.389  1.00  0.00     0.057 A 
ATOM     82  C   UNL A   1      44.098  26.388  35.036  1.00  0.00     0.134 A 
ATOM     83  C   UNL A   1      45.452  28.326  34.638  1.00  0.00     0.134 A 
ATOM     84  F   UNL A   1      42.979  25.673  34.849  1.00  0.00    -0.206 F 
ATOM     85  C   UNL A   1      45.063  25.885  35.909  1.00  0.00     0.040 A 
ATOM     86  C   UNL A   1      46.432  27.826  35.497  1.00  0.00     0.040 A 
ATOM     87  F   UNL A   1      45.676  29.509  34.046  1.00  0.00    -0.206 F 
ATOM     88  C   UNL A   1      46.237  26.603  36.137  1.00  0.00     0.006 A 
ENDBRANCH  64  81
ENDBRANCH  38  39
ENDBRANCH  31  33
ENDBRANCH  30  31
ENDBRANCH  29  30
ENDBRANCH  28  29
ENDBRANCH   1  28
TORSDOF 17
ENDMDL
MODEL 3
REMARK VINA RESULT:     -11.6      3.658      9.097
REMARK SMILES COc1cccc(-c2ccc(=O)n(CC(=O)N[C@@H](C(=O)OCCOC(=O)c3ccc(-c4c5nc(c(-c6c(F)cccc6F)c6ccc([nH]6)c(-c6c(F)cccc6F)c6nc(c(-c7c(F)cccc7F)c7ccc4[nH]7)C=C6)C=C5)cc3)C(C)C)n2)c1
REMARK SMILES IDX 21 1 19 2 20 3 18 4 17 5 15 6 16 7 14 9 13 10 8 11 9 12
REMARK SMILES IDX 84 13 10 14 11 15 12 16 7 17 3 18 4 19 85 20 5 21 6 22 2 23
REMARK SMILES IDX 1 24 81 25 82 26 83 27 22 28 23 29 24 30 25 31 26 32 27 33
REMARK SMILES IDX 28 34 80 35 29 36 79 37 30 38 31 39 32 40 73 41 33 42 78 43
REMARK SMILES IDX 72 44 74 45 34 46 77 47 71 48 70 49 35 51 61 52 44 53 60 54
REMARK SMILES IDX 45 55 48 56 59 57 75 58 46 59 47 60 58 62 76 63 49 64 36 65
REMARK SMILES IDX 37 66 42 67 38 68 39 69 41 70 43 71 40 72 62 73 63 74 68 75
REMARK SMILES IDX 64 76 65 77 67 78 69 79 66 80 50 81 51 82 56 83 52 84 53 85
REMARK SMILES IDX 55 86 57 87 54 88
REMARK H PARENT 17 8 74 50 48 61
REMARK Flexibility Score: inf
ROOT
ATOM      1  O   UNL A   1      34.958  23.504  24.460  1.00  0.00    -0.461 OA
ENDROOT
BRANCH   1   2
ATOM      2  C   UNL A   1      34.002  24.091  23.680  1.00  0.00     0.329 C 
ATOM      3  O   UNL A   1      34.264  24.801  22.715  1.00  0.00    -0.250 OA
BRANCH   2   4
ATOM      4  C   UNL A   1      32.557  23.777  24.157  1.00  0.00     0.194 C 
BRANCH   4   5
ATOM      5  N   UNL A   1      32.472  23.777  25.621  1.00  0.00    -0.341 N 
ATOM      6  C   UNL A   1      31.496  24.298  26.421  1.00  0.00     0.242 C 
ATOM      7  O   UNL A   1      31.554  24.031  27.625  1.00  0.00    -0.273 OA
ATOM      8  H   UNL A   1      33.220  23.342  26.091  1.00  0.00     0.164 HD
BRANCH   6   9
ATOM      9  C   UNL A   1      30.292  25.036  25.822  1.00  0.00     0.248 C 
BRANCH   9  10
ATOM     10  N   UNL A   1      30.639  26.365  25.328  1.00  0.00    -0.220 N 
ATOM     11  C   UNL A   1      31.877  28.271  25.623  1.00  0.00     0.091 A 
ATOM     12  C   UNL A   1      31.217  28.950  24.491  1.00  0.00     0.036 A 
ATOM     13  N   UNL A   1      31.637  27.053  25.992  1.00  0.00    -0.169 NA
ATOM     14  C   UNL A   1      30.319  28.236  23.811  1.00  0.00     0.075 A 
ATOM     15  C   UNL A   1      29.978  26.855  24.211  1.00  0.00     0.267 A 
ATOM     16  O   UNL A   1      29.131  26.244  23.567  1.00  0.00    -0.268 OA
BRANCH  11  17
ATOM     17  C   UNL A   1      32.866  29.075  26.377  1.00  0.00     0.006 A 
ATOM     18  C   UNL A   1      33.521  31.178  27.364  1.00  0.00     0.119 A 
ATOM     19  C   UNL A   1      34.765  30.625  27.682  1.00  0.00     0.046 A 
ATOM     20  C   UNL A   1      32.576  30.409  26.682  1.00  0.00     0.056 A 
ATOM     21  C   UNL A   1      35.058  29.300  27.363  1.00  0.00     0.005 A 
ATOM     22  C   UNL A   1      34.103  28.518  26.718  1.00  0.00     0.011 A 
BRANCH  18  23
ATOM     23  O   UNL A   1      33.356  32.483  27.738  1.00  0.00    -0.497 OA
ATOM     24  C   UNL A   1      34.378  33.019  28.571  1.00  0.00     0.278 C 
ENDBRANCH  18  23
ENDBRANCH  11  17
ENDBRANCH   9  10
ENDBRANCH   6   9
ENDBRANCH   4   5
BRANCH   4  25
ATOM     25  C   UNL A   1      31.968  22.461  23.584  1.00  0.00     0.017 C 
ATOM     26  C   UNL A   1      32.572  22.130  22.210  1.00  0.00     0.010 C 
ATOM     27  C   UNL A   1      32.219  21.260  24.508  1.00  0.00     0.010 C 
ENDBRANCH   4  25
ENDBRANCH   2   4
ENDBRANCH   1   2
BRANCH   1  28
ATOM     28  C   UNL A   1      35.835  22.547  23.822  1.00  0.00     0.274 C 
BRANCH  28  29
ATOM     29  C   UNL A   1      35.946  21.280  24.664  1.00  0.00     0.275 C 
BRANCH  29  30
ATOM     30  O   UNL A   1      36.754  21.580  25.812  1.00  0.00    -0.458 OA
BRANCH  30  31
ATOM     31  C   UNL A   1      38.058  21.237  25.735  1.00  0.00     0.338 C 
ATOM     32  O   UNL A   1      38.534  20.171  25.379  1.00  0.00    -0.246 OA
BRANCH  31  33
ATOM     33  C   UNL A   1      38.865  22.406  26.121  1.00  0.00     0.060 A 
ATOM     34  C   UNL A   1      40.047  22.209  26.836  1.00  0.00     0.016 A 
ATOM     35  C   UNL A   1      38.425  23.698  25.844  1.00  0.00     0.016 A 
ATOM     36  C   UNL A   1      40.762  23.293  27.329  1.00  0.00     0.010 A 
ATOM     37  C   UNL A   1      39.200  24.789  26.255  1.00  0.00     0.010 A 
ATOM     38  C   UNL A   1      40.369  24.598  27.015  1.00  0.00    -0.014 A 
BRANCH  38  39
ATOM     39  C   UNL A   1      41.174  25.755  27.486  1.00  0.00     0.031 A 
ATOM     40  C   UNL A   1      40.554  26.783  28.389  1.00  0.00     0.074 A 
ATOM     41  C   UNL A   1      42.466  25.883  27.123  1.00  0.00     0.049 A 
ATOM     42  N   UNL A   1      40.996  27.970  28.713  1.00  0.00    -0.248 NA
ATOM     43  C   UNL A   1      39.264  26.430  29.001  1.00  0.00     0.031 C 
ATOM     44  C   UNL A   1      43.226  24.922  26.320  1.00  0.00     0.029 A 
ATOM     45  N   UNL A   1      43.373  26.880  27.386  1.00  0.00    -0.354 N 
ATOM     46  C   UNL A   1      40.014  28.530  29.521  1.00  0.00     0.074 A 
ATOM     47  C   UNL A   1      38.958  27.547  29.648  1.00  0.00     0.031 C 
ATOM     48  C   UNL A   1      44.487  25.357  26.184  1.00  0.00     0.029 A 
ATOM     49  C   UNL A   1      44.598  26.676  26.798  1.00  0.00     0.049 A 
ATOM     50  H   UNL A   1      43.166  27.665  27.942  1.00  0.00     0.167 HD
ATOM     51  C   UNL A   1      39.996  29.756  30.095  1.00  0.00     0.037 A 
ATOM     52  C   UNL A   1      45.672  27.481  26.704  1.00  0.00     0.037 A 
ATOM     53  C   UNL A   1      41.070  30.709  30.005  1.00  0.00     0.049 A 
ATOM     54  C   UNL A   1      45.597  28.867  27.275  1.00  0.00     0.074 A 
ATOM     55  C   UNL A   1      41.150  31.977  30.555  1.00  0.00     0.029 A 
ATOM     56  N   UNL A   1      42.262  30.489  29.331  1.00  0.00    -0.354 N 
ATOM     57  N   UNL A   1      44.627  29.428  27.953  1.00  0.00    -0.248 NA
ATOM     58  C   UNL A   1      46.748  29.746  27.028  1.00  0.00     0.031 C 
ATOM     59  C   UNL A   1      42.380  32.536  30.188  1.00  0.00     0.029 A 
ATOM     60  C   UNL A   1      43.075  31.605  29.434  1.00  0.00     0.049 A 
ATOM     61  H   UNL A   1      42.495  29.661  28.851  1.00  0.00     0.167 HD
ATOM     62  C   UNL A   1      45.041  30.728  28.203  1.00  0.00     0.074 A 
ATOM     63  C   UNL A   1      46.365  30.864  27.630  1.00  0.00     0.031 C 
ATOM     64  C   UNL A   1      44.380  31.724  28.839  1.00  0.00     0.037 A 
BRANCH  51  65
ATOM     65  C   UNL A   1      38.755  30.153  30.833  1.00  0.00     0.057 A 
ATOM     66  C   UNL A   1      37.705  30.834  30.209  1.00  0.00     0.134 A 
ATOM     67  C   UNL A   1      38.602  29.819  32.185  1.00  0.00     0.134 A 
ATOM     68  F   UNL A   1      37.799  31.196  28.921  1.00  0.00    -0.206 F 
ATOM     69  C   UNL A   1      36.548  31.183  30.909  1.00  0.00     0.040 A 
ATOM     70  C   UNL A   1      37.443  30.145  32.891  1.00  0.00     0.040 A 
ATOM     71  F   UNL A   1      39.573  29.165  32.839  1.00  0.00    -0.206 F 
ATOM     72  C   UNL A   1      36.413  30.833  32.252  1.00  0.00     0.006 A 
ENDBRANCH  51  65
BRANCH  52  73
ATOM     73  C   UNL A   1      46.874  27.028  25.962  1.00  0.00     0.057 A 
ATOM     74  C   UNL A   1      47.008  27.264  24.590  1.00  0.00     0.134 A 
ATOM     75  C   UNL A   1      47.918  26.355  26.609  1.00  0.00     0.134 A 
ATOM     76  F   UNL A   1      46.030  27.879  23.912  1.00  0.00    -0.206 F 
ATOM     77  C   UNL A   1      48.142  26.848  23.888  1.00  0.00     0.040 A 
ATOM     78  C   UNL A   1      49.066  25.956  25.924  1.00  0.00     0.040 A 
ATOM     79  F   UNL A   1      47.847  26.097  27.923  1.00  0.00    -0.206 F 
ATOM     80  C   UNL A   1      49.178  26.201  24.558  1.00  0.00     0.006 A 
ENDBRANCH  52  73
BRANCH  64  81
ATOM     81  C   UNL A   1      45.079  33.045  28.935  1.00  0.00     0.057 A 
ATOM     82  C   UNL A   1      44.867  34.049  27.983  1.00  0.00     0.134 A 
ATOM     83  C   UNL A   1      45.948  33.323  29.995  1.00  0.00     0.134 A 
ATOM     84  F   UNL A   1      44.057  33.834  26.936  1.00  0.00    -0.206 F 
ATOM     85  C   UNL A   1      45.508  35.285  28.077  1.00  0.00     0.040 A 
ATOM     86  C   UNL A   1      46.583  34.561  30.109  1.00  0.00     0.040 A 
ATOM     87  F   UNL A   1      46.189  32.401  30.939  1.00  0.00    -0.206 F 
ATOM     88  C   UNL A   1      46.365  35.545  29.146  1.00  0.00     0.006 A 
ENDBRANCH  64  81
ENDBRANCH  38  39
ENDBRANCH  31  33
ENDBRANCH  30  31
ENDBRANCH  29  30
ENDBRANCH  28  29
ENDBRANCH   1  28
TORSDOF 17
ENDMDL
