MODEL 1
REMARK VINA RESULT:     -12.5      0.000      0.000
REMARK SMILES O=C(OCCOC(=O)c1cc(-c2ccccn2)nc2ccc(F)cc12)c1ccc(-c2c3nc(c(-c4c(F)cccc4F)c4ccc([nH]4)c(-c4c(F)cccc4F)c4nc(c(-c5c(F)cccc5F)c5ccc2[nH]5)C=C4)C=C3)cc1
REMARK SMILES IDX 4 1 3 2 2 3 1 4 26 5 27 6 79 7 28 8 78 9 29 10 30 11 31 12
REMARK SMILES IDX 72 13 32 14 77 15 71 16 73 17 33 18 76 19 70 20 69 21 34 23
REMARK SMILES IDX 60 24 43 25 59 26 44 27 47 28 58 29 74 30 45 31 46 32 57 34
REMARK SMILES IDX 75 35 48 36 35 37 36 38 41 39 37 40 38 41 40 42 42 43 39 44
REMARK SMILES IDX 61 45 62 46 67 47 63 48 64 49 66 50 68 51 65 52 49 53 50 54
REMARK SMILES IDX 55 55 51 56 52 57 54 58 56 59 53 60 5 61 6 62 7 63 8 64 9 65
REMARK SMILES IDX 10 66 25 67 11 68 19 69 24 70 18 71 20 72 22 73 21 74 23 75
REMARK SMILES IDX 12 76 13 77 17 78 14 79 16 80 15 81
REMARK H PARENT 73 22 47 33
REMARK Flexibility Score: inf
ROOT
ATOM      1  C   UNL A   1      38.909  19.674  25.210  1.00  0.00     0.275 C 
ENDROOT
BRANCH   1   2
ATOM      2  O   UNL A   1      39.942  19.078  26.016  1.00  0.00    -0.458 OA
BRANCH   2   3
ATOM      3  C   UNL A   1      41.278  19.300  26.009  1.00  0.00     0.338 C 
ATOM      4  O   UNL A   1      42.040  18.366  25.774  1.00  0.00    -0.246 OA
BRANCH   3   5
ATOM      5  C   UNL A   1      41.888  20.605  26.409  1.00  0.00     0.060 A 
ATOM      6  C   UNL A   1      42.441  21.378  25.376  1.00  0.00     0.016 A 
ATOM      7  C   UNL A   1      41.877  21.144  27.696  1.00  0.00     0.016 A 
ATOM      8  C   UNL A   1      43.047  22.613  25.635  1.00  0.00     0.010 A 
ATOM      9  C   UNL A   1      42.446  22.405  27.954  1.00  0.00     0.010 A 
ATOM     10  C   UNL A   1      43.030  23.158  26.927  1.00  0.00    -0.014 A 
BRANCH  10  11
ATOM     11  C   UNL A   1      43.353  24.601  27.123  1.00  0.00     0.031 A 
ATOM     12  C   UNL A   1      42.315  25.668  27.371  1.00  0.00     0.074 A 
ATOM     13  C   UNL A   1      44.648  24.958  26.998  1.00  0.00     0.049 A 
ATOM     14  N   UNL A   1      42.493  26.925  27.711  1.00  0.00    -0.248 NA
ATOM     15  C   UNL A   1      40.902  25.301  27.202  1.00  0.00     0.031 C 
ATOM     16  C   UNL A   1      45.747  24.053  26.638  1.00  0.00     0.029 A 
ATOM     17  N   UNL A   1      45.258  26.180  27.119  1.00  0.00    -0.354 N 
ATOM     18  C   UNL A   1      41.224  27.452  27.939  1.00  0.00     0.074 A 
ATOM     19  C   UNL A   1      40.281  26.433  27.530  1.00  0.00     0.031 C 
ATOM     20  C   UNL A   1      46.882  24.758  26.528  1.00  0.00     0.029 A 
ATOM     21  C   UNL A   1      46.593  26.159  26.800  1.00  0.00     0.049 A 
ATOM     22  H   UNL A   1      44.784  26.993  27.407  1.00  0.00     0.167 HD
ATOM     23  C   UNL A   1      40.914  28.630  28.543  1.00  0.00     0.037 A 
ATOM     24  C   UNL A   1      47.483  27.164  26.709  1.00  0.00     0.037 A 
ATOM     25  C   UNL A   1      41.886  29.652  28.840  1.00  0.00     0.049 A 
ATOM     26  C   UNL A   1      47.059  28.547  27.099  1.00  0.00     0.074 A 
ATOM     27  C   UNL A   1      41.700  30.856  29.500  1.00  0.00     0.029 A 
ATOM     28  N   UNL A   1      43.210  29.611  28.447  1.00  0.00    -0.354 N 
ATOM     29  N   UNL A   1      45.917  28.940  27.606  1.00  0.00    -0.248 NA
ATOM     30  C   UNL A   1      48.042  29.623  26.919  1.00  0.00     0.031 C 
ATOM     31  C   UNL A   1      42.907  31.555  29.483  1.00  0.00     0.029 A 
ATOM     32  C   UNL A   1      43.832  30.798  28.785  1.00  0.00     0.049 A 
ATOM     33  H   UNL A   1      43.645  28.851  27.996  1.00  0.00     0.167 HD
ATOM     34  C   UNL A   1      46.064  30.296  27.854  1.00  0.00     0.074 A 
ATOM     35  C   UNL A   1      47.397  30.662  27.433  1.00  0.00     0.031 C 
ATOM     36  C   UNL A   1      45.167  31.154  28.393  1.00  0.00     0.037 A 
BRANCH  23  37
ATOM     37  C   UNL A   1      39.526  28.866  29.078  1.00  0.00     0.057 A 
ATOM     38  C   UNL A   1      39.113  28.544  30.370  1.00  0.00     0.134 A 
ATOM     39  C   UNL A   1      38.540  29.370  28.204  1.00  0.00     0.134 A 
ATOM     40  F   UNL A   1      39.975  28.008  31.246  1.00  0.00    -0.206 F 
ATOM     41  C   UNL A   1      37.798  28.779  30.793  1.00  0.00     0.040 A 
ATOM     42  C   UNL A   1      37.226  29.609  28.611  1.00  0.00     0.040 A 
ATOM     43  F   UNL A   1      38.858  29.703  26.942  1.00  0.00    -0.206 F 
ATOM     44  C   UNL A   1      36.856  29.328  29.920  1.00  0.00     0.006 A 
ENDBRANCH  23  37
BRANCH  24  45
ATOM     45  C   UNL A   1      48.848  26.899  26.194  1.00  0.00     0.057 A 
ATOM     46  C   UNL A   1      49.875  26.507  27.061  1.00  0.00     0.134 A 
ATOM     47  C   UNL A   1      49.151  27.003  24.834  1.00  0.00     0.134 A 
ATOM     48  F   UNL A   1      49.645  26.391  28.378  1.00  0.00    -0.206 F 
ATOM     49  C   UNL A   1      51.160  26.231  26.594  1.00  0.00     0.040 A 
ATOM     50  C   UNL A   1      50.427  26.705  24.349  1.00  0.00     0.040 A 
ATOM     51  F   UNL A   1      48.204  27.356  23.954  1.00  0.00    -0.206 F 
ATOM     52  C   UNL A   1      51.435  26.321  25.232  1.00  0.00     0.006 A 
ENDBRANCH  24  45
BRANCH  36  53
ATOM     53  C   UNL A   1      45.586  32.576  28.579  1.00  0.00     0.057 A 
ATOM     54  C   UNL A   1      46.226  32.989  29.754  1.00  0.00     0.134 A 
ATOM     55  C   UNL A   1      45.271  33.553  27.628  1.00  0.00     0.134 A 
ATOM     56  F   UNL A   1      46.535  32.101  30.711  1.00  0.00    -0.206 F 
ATOM     57  C   UNL A   1      46.523  34.331  29.984  1.00  0.00     0.040 A 
ATOM     58  C   UNL A   1      45.588  34.893  27.835  1.00  0.00     0.040 A 
ATOM     59  F   UNL A   1      44.663  33.213  26.481  1.00  0.00    -0.206 F 
ATOM     60  C   UNL A   1      46.206  35.287  29.022  1.00  0.00     0.006 A 
ENDBRANCH  36  53
ENDBRANCH  10  11
ENDBRANCH   3   5
ENDBRANCH   2   3
ENDBRANCH   1   2
BRANCH   1  61
ATOM     61  C   UNL A   1      38.662  21.159  25.460  1.00  0.00     0.275 C 
BRANCH  61  62
ATOM     62  O   UNL A   1      37.617  21.687  24.644  1.00  0.00    -0.458 OA
BRANCH  62  63
ATOM     63  C   UNL A   1      36.631  22.359  25.297  1.00  0.00     0.339 C 
ATOM     64  O   UNL A   1      36.775  23.239  26.132  1.00  0.00    -0.246 OA
BRANCH  63  65
ATOM     65  C   UNL A   1      35.334  21.841  24.825  1.00  0.00     0.071 A 
ATOM     66  C   UNL A   1      35.123  20.482  25.001  1.00  0.00     0.047 A 
ATOM     67  C   UNL A   1      34.358  22.636  24.190  1.00  0.00     0.018 A 
ATOM     68  C   UNL A   1      33.936  19.928  24.566  1.00  0.00     0.090 A 
ATOM     69  C   UNL A   1      33.212  21.957  23.712  1.00  0.00     0.072 A 
ATOM     70  C   UNL A   1      34.473  24.024  23.954  1.00  0.00     0.050 A 
ATOM     71  N   UNL A   1      33.004  20.651  23.908  1.00  0.00    -0.246 NA
ATOM     72  C   UNL A   1      32.259  22.656  22.985  1.00  0.00     0.032 A 
ATOM     73  C   UNL A   1      33.486  24.699  23.246  1.00  0.00     0.123 A 
ATOM     74  C   UNL A   1      32.386  24.024  22.745  1.00  0.00     0.041 A 
ATOM     75  F   UNL A   1      33.605  26.015  23.036  1.00  0.00    -0.207 F 
BRANCH  68  76
ATOM     76  C   UNL A   1      33.676  18.510  24.822  1.00  0.00     0.089 A 
ATOM     77  C   UNL A   1      34.520  17.532  24.282  1.00  0.00     0.030 A 
ATOM     78  N   UNL A   1      32.528  18.209  25.468  1.00  0.00    -0.255 NA
ATOM     79  C   UNL A   1      34.140  16.208  24.333  1.00  0.00     0.004 A 
ATOM     80  C   UNL A   1      32.203  16.908  25.551  1.00  0.00     0.112 A 
ATOM     81  C   UNL A   1      32.958  15.898  24.973  1.00  0.00     0.020 A 
ENDBRANCH  68  76
ENDBRANCH  63  65
ENDBRANCH  62  63
ENDBRANCH  61  62
ENDBRANCH   1  61
TORSDOF 12
ENDMDL
MODEL 2
REMARK VINA RESULT:     -12.5      6.002     11.043
REMARK SMILES O=C(OCCOC(=O)c1cc(-c2ccccn2)nc2ccc(F)cc12)c1ccc(-c2c3nc(c(-c4c(F)cccc4F)c4ccc([nH]4)c(-c4c(F)cccc4F)c4nc(c(-c5c(F)cccc5F)c5ccc2[nH]5)C=C4)C=C3)cc1
REMARK SMILES IDX 4 1 3 2 2 3 1 4 26 5 27 6 79 7 28 8 78 9 29 10 30 11 31 12
REMARK SMILES IDX 72 13 32 14 77 15 71 16 73 17 33 18 76 19 70 20 69 21 34 23
REMARK SMILES IDX 60 24 43 25 59 26 44 27 47 28 58 29 74 30 45 31 46 32 57 34
REMARK SMILES IDX 75 35 48 36 35 37 36 38 41 39 37 40 38 41 40 42 42 43 39 44
REMARK SMILES IDX 61 45 62 46 67 47 63 48 64 49 66 50 68 51 65 52 49 53 50 54
REMARK SMILES IDX 55 55 51 56 52 57 54 58 56 59 53 60 5 61 6 62 7 63 8 64 9 65
REMARK SMILES IDX 10 66 25 67 11 68 19 69 24 70 18 71 20 72 22 73 21 74 23 75
REMARK SMILES IDX 12 76 13 77 17 78 14 79 16 80 15 81
REMARK H PARENT 73 22 47 33
REMARK Flexibility Score: inf
ROOT
ATOM      1  C   UNL A   1      31.979  32.471  27.251  1.00  0.00     0.275 C 
ENDROOT
BRANCH   1   2
ATOM      2  O   UNL A   1      32.448  33.828  27.352  1.00  0.00    -0.458 OA
BRANCH   2   3
ATOM      3  C   UNL A   1      32.991  34.476  28.409  1.00  0.00     0.338 C 
ATOM      4  O   UNL A   1      32.528  35.562  28.750  1.00  0.00    -0.246 OA
BRANCH   3   5
ATOM      5  C   UNL A   1      34.223  34.001  29.109  1.00  0.00     0.060 A 
ATOM      6  C   UNL A   1      34.028  33.299  30.309  1.00  0.00     0.016 A 
ATOM      7  C   UNL A   1      35.527  34.127  28.630  1.00  0.00     0.016 A 
ATOM      8  C   UNL A   1      35.110  32.815  31.055  1.00  0.00     0.010 A 
ATOM      9  C   UNL A   1      36.615  33.603  29.353  1.00  0.00     0.010 A 
ATOM     10  C   UNL A   1      36.420  32.935  30.569  1.00  0.00    -0.014 A 
BRANCH  10  11
ATOM     11  C   UNL A   1      37.511  32.121  31.180  1.00  0.00     0.031 A 
ATOM     12  C   UNL A   1      38.043  30.844  30.578  1.00  0.00     0.074 A 
ATOM     13  C   UNL A   1      37.984  32.535  32.373  1.00  0.00     0.049 A 
ATOM     14  N   UNL A   1      39.092  30.140  30.938  1.00  0.00    -0.248 NA
ATOM     15  C   UNL A   1      37.308  30.261  29.446  1.00  0.00     0.031 C 
ATOM     16  C   UNL A   1      37.481  33.685  33.134  1.00  0.00     0.029 A 
ATOM     17  N   UNL A   1      38.967  32.017  33.177  1.00  0.00    -0.354 N 
ATOM     18  C   UNL A   1      39.226  29.125  29.994  1.00  0.00     0.074 A 
ATOM     19  C   UNL A   1      38.054  29.199  29.149  1.00  0.00     0.031 C 
ATOM     20  C   UNL A   1      38.127  33.757  34.306  1.00  0.00     0.029 A 
ATOM     21  C   UNL A   1      39.082  32.661  34.385  1.00  0.00     0.049 A 
ATOM     22  H   UNL A   1      39.534  31.258  32.914  1.00  0.00     0.167 HD
ATOM     23  C   UNL A   1      40.295  28.304  29.807  1.00  0.00     0.037 A 
ATOM     24  C   UNL A   1      39.852  32.381  35.451  1.00  0.00     0.037 A 
ATOM     25  C   UNL A   1      41.392  28.203  30.735  1.00  0.00     0.049 A 
ATOM     26  C   UNL A   1      40.848  31.265  35.355  1.00  0.00     0.074 A 
ATOM     27  C   UNL A   1      42.553  27.455  30.623  1.00  0.00     0.029 A 
ATOM     28  N   UNL A   1      41.436  28.828  31.967  1.00  0.00    -0.354 N 
ATOM     29  N   UNL A   1      41.150  30.525  34.318  1.00  0.00    -0.248 NA
ATOM     30  C   UNL A   1      41.619  30.952  36.564  1.00  0.00     0.031 C 
ATOM     31  C   UNL A   1      43.286  27.606  31.800  1.00  0.00     0.029 A 
ATOM     32  C   UNL A   1      42.566  28.423  32.654  1.00  0.00     0.049 A 
ATOM     33  H   UNL A   1      40.765  29.465  32.305  1.00  0.00     0.167 HD
ATOM     34  C   UNL A   1      42.179  29.696  34.734  1.00  0.00     0.074 A 
ATOM     35  C   UNL A   1      42.444  30.013  36.119  1.00  0.00     0.031 C 
ATOM     36  C   UNL A   1      42.847  28.761  34.021  1.00  0.00     0.037 A 
BRANCH  23  37
ATOM     37  C   UNL A   1      40.456  27.553  28.511  1.00  0.00     0.057 A 
ATOM     38  C   UNL A   1      41.091  28.061  27.379  1.00  0.00     0.134 A 
ATOM     39  C   UNL A   1      39.860  26.281  28.388  1.00  0.00     0.134 A 
ATOM     40  F   UNL A   1      41.635  29.286  27.395  1.00  0.00    -0.206 F 
ATOM     41  C   UNL A   1      41.190  27.307  26.201  1.00  0.00     0.040 A 
ATOM     42  C   UNL A   1      39.950  25.519  27.222  1.00  0.00     0.040 A 
ATOM     43  F   UNL A   1      39.228  25.723  29.434  1.00  0.00    -0.206 F 
ATOM     44  C   UNL A   1      40.635  26.028  26.126  1.00  0.00     0.006 A 
ENDBRANCH  23  37
BRANCH  24  45
ATOM     45  C   UNL A   1      39.682  33.148  36.708  1.00  0.00     0.057 A 
ATOM     46  C   UNL A   1      40.477  34.270  36.973  1.00  0.00     0.134 A 
ATOM     47  C   UNL A   1      38.713  32.801  37.654  1.00  0.00     0.134 A 
ATOM     48  F   UNL A   1      41.425  34.652  36.104  1.00  0.00    -0.206 F 
ATOM     49  C   UNL A   1      40.318  35.019  38.139  1.00  0.00     0.040 A 
ATOM     50  C   UNL A   1      38.526  33.557  38.813  1.00  0.00     0.040 A 
ATOM     51  F   UNL A   1      37.911  31.749  37.445  1.00  0.00    -0.206 F 
ATOM     52  C   UNL A   1      39.333  34.667  39.058  1.00  0.00     0.006 A 
ENDBRANCH  24  45
BRANCH  36  53
ATOM     53  C   UNL A   1      43.944  28.012  34.705  1.00  0.00     0.057 A 
ATOM     54  C   UNL A   1      43.691  26.789  35.339  1.00  0.00     0.134 A 
ATOM     55  C   UNL A   1      45.230  28.550  34.813  1.00  0.00     0.134 A 
ATOM     56  F   UNL A   1      42.471  26.233  35.288  1.00  0.00    -0.206 F 
ATOM     57  C   UNL A   1      44.680  26.135  36.073  1.00  0.00     0.040 A 
ATOM     58  C   UNL A   1      46.234  27.892  35.520  1.00  0.00     0.040 A 
ATOM     59  F   UNL A   1      45.530  29.716  34.220  1.00  0.00    -0.206 F 
ATOM     60  C   UNL A   1      45.956  26.685  36.163  1.00  0.00     0.006 A 
ENDBRANCH  36  53
ENDBRANCH  10  11
ENDBRANCH   3   5
ENDBRANCH   2   3
ENDBRANCH   1   2
BRANCH   1  61
ATOM     61  C   UNL A   1      33.069  31.403  27.252  1.00  0.00     0.275 C 
BRANCH  61  62
ATOM     62  O   UNL A   1      32.540  30.078  27.190  1.00  0.00    -0.458 OA
BRANCH  62  63
ATOM     63  C   UNL A   1      33.126  29.242  26.291  1.00  0.00     0.339 C 
ATOM     64  O   UNL A   1      34.319  29.000  26.187  1.00  0.00    -0.246 OA
BRANCH  63  65
ATOM     65  C   UNL A   1      32.066  28.665  25.444  1.00  0.00     0.071 A 
ATOM     66  C   UNL A   1      31.299  29.573  24.729  1.00  0.00     0.047 A 
ATOM     67  C   UNL A   1      31.789  27.285  25.368  1.00  0.00     0.018 A 
ATOM     68  C   UNL A   1      30.277  29.102  23.929  1.00  0.00     0.090 A 
ATOM     69  C   UNL A   1      30.673  26.913  24.582  1.00  0.00     0.072 A 
ATOM     70  C   UNL A   1      32.501  26.278  26.057  1.00  0.00     0.050 A 
ATOM     71  N   UNL A   1      29.953  27.792  23.876  1.00  0.00    -0.246 NA
ATOM     72  C   UNL A   1      30.278  25.584  24.545  1.00  0.00     0.032 A 
ATOM     73  C   UNL A   1      32.093  24.952  25.976  1.00  0.00     0.123 A 
ATOM     74  C   UNL A   1      30.977  24.597  25.238  1.00  0.00     0.041 A 
ATOM     75  F   UNL A   1      32.781  24.008  26.628  1.00  0.00    -0.207 F 
BRANCH  68  76
ATOM     76  C   UNL A   1      29.518  30.050  23.112  1.00  0.00     0.089 A 
ATOM     77  C   UNL A   1      28.992  31.211  23.690  1.00  0.00     0.030 A 
ATOM     78  N   UNL A   1      29.243  29.675  21.843  1.00  0.00    -0.255 NA
ATOM     79  C   UNL A   1      28.091  31.973  22.976  1.00  0.00     0.004 A 
ATOM     80  C   UNL A   1      28.403  30.460  21.148  1.00  0.00     0.112 A 
ATOM     81  C   UNL A   1      27.790  31.582  21.688  1.00  0.00     0.020 A 
ENDBRANCH  68  76
ENDBRANCH  63  65
ENDBRANCH  62  63
ENDBRANCH  61  62
ENDBRANCH   1  61
TORSDOF 12
ENDMDL
MODEL 3
REMARK VINA RESULT:     -12.5      5.752      9.846
REMARK SMILES O=C(OCCOC(=O)c1cc(-c2ccccn2)nc2ccc(F)cc12)c1ccc(-c2c3nc(c(-c4c(F)cccc4F)c4ccc([nH]4)c(-c4c(F)cccc4F)c4nc(c(-c5c(F)cccc5F)c5ccc2[nH]5)C=C4)C=C3)cc1
REMARK SMILES IDX 4 1 3 2 2 3 1 4 26 5 27 6 79 7 28 8 78 9 29 10 30 11 31 12
REMARK SMILES IDX 72 13 32 14 77 15 71 16 73 17 33 18 76 19 70 20 69 21 34 23
REMARK SMILES IDX 60 24 43 25 59 26 44 27 47 28 58 29 74 30 45 31 46 32 57 34
REMARK SMILES IDX 75 35 48 36 35 37 36 38 41 39 37 40 38 41 40 42 42 43 39 44
REMARK SMILES IDX 61 45 62 46 67 47 63 48 64 49 66 50 68 51 65 52 49 53 50 54
REMARK SMILES IDX 55 55 51 56 52 57 54 58 56 59 53 60 5 61 6 62 7 63 8 64 9 65
REMARK SMILES IDX 10 66 25 67 11 68 19 69 24 70 18 71 20 72 22 73 21 74 23 75
REMARK SMILES IDX 12 76 13 77 17 78 14 79 16 80 15 81
REMARK H PARENT 73 22 47 33
REMARK Flexibility Score: inf
ROOT
ATOM      1  C   UNL A   1      32.162  31.420  27.083  1.00  0.00     0.275 C 
ENDROOT
BRANCH   1   2
ATOM      2  O   UNL A   1      32.478  32.824  27.051  1.00  0.00    -0.458 OA
BRANCH   2   3
ATOM      3  C   UNL A   1      33.031  33.606  28.009  1.00  0.00     0.338 C 
ATOM      4  O   UNL A   1      32.513  34.688  28.273  1.00  0.00    -0.246 OA
BRANCH   3   5
ATOM      5  C   UNL A   1      34.327  33.280  28.676  1.00  0.00     0.060 A 
ATOM      6  C   UNL A   1      34.245  32.678  29.942  1.00  0.00     0.016 A 
ATOM      7  C   UNL A   1      35.593  33.449  28.114  1.00  0.00     0.016 A 
ATOM      8  C   UNL A   1      35.395  32.338  30.664  1.00  0.00     0.010 A 
ATOM      9  C   UNL A   1      36.751  33.067  28.817  1.00  0.00     0.010 A 
ATOM     10  C   UNL A   1      36.667  32.500  30.096  1.00  0.00    -0.014 A 
BRANCH  10  11
ATOM     11  C   UNL A   1      37.843  31.820  30.712  1.00  0.00     0.031 A 
ATOM     12  C   UNL A   1      38.504  32.278  31.988  1.00  0.00     0.074 A 
ATOM     13  C   UNL A   1      38.368  30.779  30.034  1.00  0.00     0.049 A 
ATOM     14  N   UNL A   1      39.431  31.674  32.697  1.00  0.00    -0.248 NA
ATOM     15  C   UNL A   1      38.104  33.581  32.538  1.00  0.00     0.031 C 
ATOM     16  C   UNL A   1      37.907  30.299  28.725  1.00  0.00     0.029 A 
ATOM     17  N   UNL A   1      39.427  29.960  30.328  1.00  0.00    -0.354 N 
ATOM     18  C   UNL A   1      39.614  32.445  33.842  1.00  0.00     0.074 A 
ATOM     19  C   UNL A   1      38.832  33.648  33.651  1.00  0.00     0.031 C 
ATOM     20  C   UNL A   1      38.704  29.303  28.314  1.00  0.00     0.029 A 
ATOM     21  C   UNL A   1      39.732  29.077  29.321  1.00  0.00     0.049 A 
ATOM     22  H   UNL A   1      39.921  30.001  31.178  1.00  0.00     0.167 HD
ATOM     23  C   UNL A   1      40.281  32.098  34.975  1.00  0.00     0.037 A 
ATOM     24  C   UNL A   1      40.745  28.201  29.208  1.00  0.00     0.037 A 
ATOM     25  C   UNL A   1      41.124  30.934  35.077  1.00  0.00     0.049 A 
ATOM     26  C   UNL A   1      41.682  28.021  30.364  1.00  0.00     0.074 A 
ATOM     27  C   UNL A   1      41.800  30.451  36.186  1.00  0.00     0.029 A 
ATOM     28  N   UNL A   1      41.448  30.106  34.019  1.00  0.00    -0.354 N 
ATOM     29  N   UNL A   1      41.625  28.562  31.555  1.00  0.00    -0.248 NA
ATOM     30  C   UNL A   1      42.813  27.104  30.172  1.00  0.00     0.031 C 
ATOM     31  C   UNL A   1      42.554  29.346  35.791  1.00  0.00     0.029 A 
ATOM     32  C   UNL A   1      42.370  29.162  34.432  1.00  0.00     0.049 A 
ATOM     33  H   UNL A   1      41.077  30.176  33.109  1.00  0.00     0.167 HD
ATOM     34  C   UNL A   1      42.679  28.013  32.268  1.00  0.00     0.074 A 
ATOM     35  C   UNL A   1      43.366  27.105  31.377  1.00  0.00     0.031 C 
ATOM     36  C   UNL A   1      43.034  28.240  33.554  1.00  0.00     0.037 A 
BRANCH  23  37
ATOM     37  C   UNL A   1      40.045  32.855  36.256  1.00  0.00     0.057 A 
ATOM     38  C   UNL A   1      40.875  33.865  36.740  1.00  0.00     0.134 A 
ATOM     39  C   UNL A   1      38.961  32.478  37.075  1.00  0.00     0.134 A 
ATOM     40  F   UNL A   1      41.959  34.246  36.049  1.00  0.00    -0.206 F 
ATOM     41  C   UNL A   1      40.599  34.516  37.950  1.00  0.00     0.040 A 
ATOM     42  C   UNL A   1      38.674  33.116  38.282  1.00  0.00     0.040 A 
ATOM     43  F   UNL A   1      38.116  31.512  36.679  1.00  0.00    -0.206 F 
ATOM     44  C   UNL A   1      39.487  34.155  38.715  1.00  0.00     0.006 A 
ENDBRANCH  23  37
BRANCH  24  45
ATOM     45  C   UNL A   1      40.944  27.457  27.941  1.00  0.00     0.057 A 
ATOM     46  C   UNL A   1      41.689  28.015  26.894  1.00  0.00     0.134 A 
ATOM     47  C   UNL A   1      40.424  26.173  27.755  1.00  0.00     0.134 A 
ATOM     48  F   UNL A   1      42.212  29.245  27.013  1.00  0.00    -0.206 F 
ATOM     49  C   UNL A   1      41.907  27.323  25.703  1.00  0.00     0.040 A 
ATOM     50  C   UNL A   1      40.656  25.459  26.577  1.00  0.00     0.040 A 
ATOM     51  F   UNL A   1      39.719  25.581  28.728  1.00  0.00    -0.206 F 
ATOM     52  C   UNL A   1      41.397  26.037  25.547  1.00  0.00     0.006 A 
ENDBRANCH  24  45
BRANCH  36  53
ATOM     53  C   UNL A   1      44.208  27.493  34.097  1.00  0.00     0.057 A 
ATOM     54  C   UNL A   1      44.051  26.227  34.672  1.00  0.00     0.134 A 
ATOM     55  C   UNL A   1      45.481  28.073  34.130  1.00  0.00     0.134 A 
ATOM     56  F   UNL A   1      42.850  25.629  34.689  1.00  0.00    -0.206 F 
ATOM     57  C   UNL A   1      45.119  25.568  35.279  1.00  0.00     0.040 A 
ATOM     58  C   UNL A   1      46.562  27.413  34.709  1.00  0.00     0.040 A 
ATOM     59  F   UNL A   1      45.691  29.283  33.588  1.00  0.00    -0.206 F 
ATOM     60  C   UNL A   1      46.380  26.160  35.296  1.00  0.00     0.006 A 
ENDBRANCH  36  53
ENDBRANCH  10  11
ENDBRANCH   3   5
ENDBRANCH   2   3
ENDBRANCH   1   2
BRANCH   1  61
ATOM     61  C   UNL A   1      33.360  30.481  26.980  1.00  0.00     0.275 C 
BRANCH  61  62
ATOM     62  O   UNL A   1      33.399  29.773  25.741  1.00  0.00    -0.458 OA
BRANCH  62  63
ATOM     63  C   UNL A   1      32.875  28.518  25.753  1.00  0.00     0.339 C 
ATOM     64  O   UNL A   1      32.945  27.705  26.662  1.00  0.00    -0.246 OA
BRANCH  63  65
ATOM     65  C   UNL A   1      32.197  28.293  24.463  1.00  0.00     0.071 A 
ATOM     66  C   UNL A   1      31.207  29.206  24.130  1.00  0.00     0.047 A 
ATOM     67  C   UNL A   1      32.476  27.205  23.611  1.00  0.00     0.018 A 
ATOM     68  C   UNL A   1      30.519  29.043  22.945  1.00  0.00     0.090 A 
ATOM     69  C   UNL A   1      31.662  27.086  22.460  1.00  0.00     0.072 A 
ATOM     70  C   UNL A   1      33.455  26.216  23.856  1.00  0.00     0.050 A 
ATOM     71  N   UNL A   1      30.727  27.984  22.133  1.00  0.00    -0.246 NA
ATOM     72  C   UNL A   1      31.810  25.984  21.631  1.00  0.00     0.032 A 
ATOM     73  C   UNL A   1      33.595  25.139  22.989  1.00  0.00     0.123 A 
ATOM     74  C   UNL A   1      32.770  25.005  21.886  1.00  0.00     0.041 A 
ATOM     75  F   UNL A   1      34.531  24.214  23.230  1.00  0.00    -0.207 F 
BRANCH  68  76
ATOM     76  C   UNL A   1      29.530  30.049  22.552  1.00  0.00     0.089 A 
ATOM     77  C   UNL A   1      28.883  30.817  23.528  1.00  0.00     0.030 A 
ATOM     78  N   UNL A   1      29.187  30.087  21.245  1.00  0.00    -0.255 NA
ATOM     79  C   UNL A   1      27.798  31.588  23.171  1.00  0.00     0.004 A 
ATOM     80  C   UNL A   1      28.160  30.886  20.912  1.00  0.00     0.112 A 
ATOM     81  C   UNL A   1      27.431  31.613  21.841  1.00  0.00     0.020 A 
ENDBRANCH  68  76
ENDBRANCH  63  65
ENDBRANCH  62  63
ENDBRANCH  61  62
ENDBRANCH   1  61
TORSDOF 12
ENDMDL
