MODEL 1
REMARK VINA RESULT:     -13.0      0.000      0.000
REMARK SMILES O=C(OCCOC(=O)c1ccn(-c2cc(-c3ccncc3)nc(-c3ccccc3F)n2)n1)c1ccc(-c2c3nc(c(-c4c(F)cccc4F)c4ccc([nH]4)c(-c4c(F)cccc4F)c4nc(c(-c5c(F)cccc5F)c5ccc2[nH]5)C=C4)C=C3)cc1
REMARK SMILES IDX 4 1 3 2 2 3 1 4 33 5 34 6 86 7 35 8 85 9 36 10 37 11 38 12
REMARK SMILES IDX 79 13 39 14 84 15 78 16 80 17 40 18 83 19 77 20 76 21 41 23
REMARK SMILES IDX 67 24 50 25 66 26 51 27 54 28 65 29 81 30 52 31 53 32 64 34
REMARK SMILES IDX 82 35 55 36 42 37 43 38 48 39 44 40 45 41 47 42 49 43 46 44
REMARK SMILES IDX 68 45 69 46 74 47 70 48 71 49 73 50 75 51 72 52 56 53 57 54
REMARK SMILES IDX 62 55 58 56 59 57 61 58 63 59 60 60 5 61 6 62 7 63 8 64 9 65
REMARK SMILES IDX 10 66 32 67 11 68 12 69 13 70 14 71 31 72 15 73 23 74 22 75
REMARK SMILES IDX 16 76 17 77 21 78 18 79 20 80 19 81 24 82 25 83 29 84 26 85
REMARK SMILES IDX 28 86 30 87 27 88
REMARK H PARENT 80 22 54 33
REMARK Flexibility Score: inf
ROOT
ATOM      1  C   UNL A   1      44.151  18.800  24.997  1.00  0.00     0.275 C 
ENDROOT
BRANCH   1   2
ATOM      2  O   UNL A   1      44.746  20.063  25.355  1.00  0.00    -0.458 OA
BRANCH   2   3
ATOM      3  C   UNL A   1      44.723  21.101  24.489  1.00  0.00     0.338 C 
ATOM      4  O   UNL A   1      44.548  20.965  23.288  1.00  0.00    -0.246 OA
BRANCH   3   5
ATOM      5  C   UNL A   1      44.630  22.421  25.160  1.00  0.00     0.060 A 
ATOM      6  C   UNL A   1      45.382  22.769  26.288  1.00  0.00     0.016 A 
ATOM      7  C   UNL A   1      43.705  23.330  24.634  1.00  0.00     0.016 A 
ATOM      8  C   UNL A   1      45.140  23.967  26.945  1.00  0.00     0.010 A 
ATOM      9  C   UNL A   1      43.466  24.529  25.285  1.00  0.00     0.010 A 
ATOM     10  C   UNL A   1      44.147  24.822  26.465  1.00  0.00    -0.014 A 
BRANCH  10  11
ATOM     11  C   UNL A   1      43.901  26.083  27.163  1.00  0.00     0.031 A 
ATOM     12  C   UNL A   1      44.886  27.169  26.857  1.00  0.00     0.074 A 
ATOM     13  C   UNL A   1      42.777  26.260  27.896  1.00  0.00     0.049 A 
ATOM     14  N   UNL A   1      45.537  27.925  27.677  1.00  0.00    -0.248 NA
ATOM     15  C   UNL A   1      45.277  27.392  25.455  1.00  0.00     0.031 C 
ATOM     16  C   UNL A   1      41.656  25.319  28.050  1.00  0.00     0.029 A 
ATOM     17  N   UNL A   1      42.335  27.349  28.586  1.00  0.00    -0.354 N 
ATOM     18  C   UNL A   1      46.257  28.840  26.902  1.00  0.00     0.074 A 
ATOM     19  C   UNL A   1      46.121  28.419  25.540  1.00  0.00     0.031 C 
ATOM     20  C   UNL A   1      40.587  25.964  28.566  1.00  0.00     0.029 A 
ATOM     21  C   UNL A   1      40.982  27.312  28.924  1.00  0.00     0.049 A 
ATOM     22  H   UNL A   1      42.924  28.100  28.825  1.00  0.00     0.167 HD
ATOM     23  C   UNL A   1      46.746  29.982  27.458  1.00  0.00     0.037 A 
ATOM     24  C   UNL A   1      40.233  28.319  29.446  1.00  0.00     0.037 A 
ATOM     25  C   UNL A   1      46.893  29.805  28.879  1.00  0.00     0.049 A 
ATOM     26  C   UNL A   1      41.184  29.289  30.034  1.00  0.00     0.074 A 
ATOM     27  C   UNL A   1      47.670  28.994  29.679  1.00  0.00     0.029 A 
ATOM     28  N   UNL A   1      45.859  30.252  29.658  1.00  0.00    -0.354 N 
ATOM     29  N   UNL A   1      41.939  29.036  31.067  1.00  0.00    -0.248 NA
ATOM     30  C   UNL A   1      41.602  30.411  29.213  1.00  0.00     0.031 C 
ATOM     31  C   UNL A   1      46.830  28.650  30.777  1.00  0.00     0.029 A 
ATOM     32  C   UNL A   1      45.621  29.334  30.642  1.00  0.00     0.049 A 
ATOM     33  H   UNL A   1      45.368  31.095  29.530  1.00  0.00     0.167 HD
ATOM     34  C   UNL A   1      43.147  29.647  30.770  1.00  0.00     0.074 A 
ATOM     35  C   UNL A   1      42.842  30.574  29.682  1.00  0.00     0.031 C 
ATOM     36  C   UNL A   1      44.318  29.127  31.238  1.00  0.00     0.037 A 
BRANCH  23  37
ATOM     37  C   UNL A   1      46.627  31.361  26.833  1.00  0.00     0.057 A 
ATOM     38  C   UNL A   1      45.415  32.023  26.566  1.00  0.00     0.134 A 
ATOM     39  C   UNL A   1      47.765  32.197  26.830  1.00  0.00     0.134 A 
ATOM     40  F   UNL A   1      44.248  31.376  26.483  1.00  0.00    -0.206 F 
ATOM     41  C   UNL A   1      45.319  33.414  26.444  1.00  0.00     0.040 A 
ATOM     42  C   UNL A   1      47.678  33.592  26.739  1.00  0.00     0.040 A 
ATOM     43  F   UNL A   1      48.993  31.691  27.019  1.00  0.00    -0.206 F 
ATOM     44  C   UNL A   1      46.447  34.208  26.577  1.00  0.00     0.006 A 
ENDBRANCH  23  37
BRANCH  24  45
ATOM     45  C   UNL A   1      38.809  28.678  29.198  1.00  0.00     0.057 A 
ATOM     46  C   UNL A   1      38.389  29.292  28.007  1.00  0.00     0.134 A 
ATOM     47  C   UNL A   1      37.881  28.711  30.254  1.00  0.00     0.134 A 
ATOM     48  F   UNL A   1      39.183  29.335  26.928  1.00  0.00    -0.206 F 
ATOM     49  C   UNL A   1      37.168  29.972  27.899  1.00  0.00     0.040 A 
ATOM     50  C   UNL A   1      36.651  29.380  30.156  1.00  0.00     0.040 A 
ATOM     51  F   UNL A   1      38.175  28.153  31.438  1.00  0.00    -0.206 F 
ATOM     52  C   UNL A   1      36.304  30.039  28.982  1.00  0.00     0.006 A 
ENDBRANCH  24  45
BRANCH  36  53
ATOM     53  C   UNL A   1      44.249  28.104  32.339  1.00  0.00     0.057 A 
ATOM     54  C   UNL A   1      44.415  28.552  33.655  1.00  0.00     0.134 A 
ATOM     55  C   UNL A   1      44.193  26.716  32.147  1.00  0.00     0.134 A 
ATOM     56  F   UNL A   1      44.529  29.865  33.911  1.00  0.00    -0.206 F 
ATOM     57  C   UNL A   1      44.531  27.669  34.729  1.00  0.00     0.040 A 
ATOM     58  C   UNL A   1      44.270  25.820  33.219  1.00  0.00     0.040 A 
ATOM     59  F   UNL A   1      44.124  26.183  30.921  1.00  0.00    -0.206 F 
ATOM     60  C   UNL A   1      44.451  26.296  34.514  1.00  0.00     0.006 A 
ENDBRANCH  36  53
ENDBRANCH  10  11
ENDBRANCH   3   5
ENDBRANCH   2   3
ENDBRANCH   1   2
BRANCH   1  61
ATOM     61  C   UNL A   1      42.841  18.419  25.683  1.00  0.00     0.275 C 
BRANCH  61  62
ATOM     62  O   UNL A   1      41.878  19.481  25.557  1.00  0.00    -0.457 OA
BRANCH  62  63
ATOM     63  C   UNL A   1      41.653  20.214  26.688  1.00  0.00     0.358 C 
ATOM     64  O   UNL A   1      42.307  20.115  27.729  1.00  0.00    -0.244 OA
BRANCH  63  65
ATOM     65  C   UNL A   1      40.479  21.076  26.576  1.00  0.00     0.170 A 
ATOM     66  C   UNL A   1      40.493  22.488  26.671  1.00  0.00     0.058 A 
ATOM     67  N   UNL A   1      39.235  20.619  26.318  1.00  0.00    -0.159 NA
ATOM     68  C   UNL A   1      39.253  22.880  26.234  1.00  0.00     0.118 A 
ATOM     69  N   UNL A   1      38.540  21.734  25.970  1.00  0.00    -0.222 N 
BRANCH  69  70
ATOM     70  C   UNL A   1      37.224  21.692  25.433  1.00  0.00     0.158 A 
ATOM     71  C   UNL A   1      36.693  20.477  25.055  1.00  0.00     0.078 A 
ATOM     72  N   UNL A   1      36.517  22.841  25.407  1.00  0.00    -0.209 NA
ATOM     73  C   UNL A   1      35.338  20.468  24.791  1.00  0.00     0.077 A 
ATOM     74  C   UNL A   1      35.259  22.746  24.951  1.00  0.00     0.165 A 
ATOM     75  N   UNL A   1      34.622  21.598  24.682  1.00  0.00    -0.228 NA
BRANCH  73  76
ATOM     76  C   UNL A   1      34.540  19.241  24.752  1.00  0.00     0.003 A 
ATOM     77  C   UNL A   1      35.146  18.017  24.440  1.00  0.00     0.030 A 
ATOM     78  C   UNL A   1      33.194  19.223  25.108  1.00  0.00     0.030 A 
ATOM     79  C   UNL A   1      34.389  16.857  24.446  1.00  0.00     0.111 A 
ATOM     80  C   UNL A   1      32.529  18.006  25.120  1.00  0.00     0.111 A 
ATOM     81  N   UNL A   1      33.088  16.821  24.789  1.00  0.00    -0.265 NA
ENDBRANCH  73  76
BRANCH  74  82
ATOM     82  C   UNL A   1      34.596  23.974  24.551  1.00  0.00     0.055 A 
ATOM     83  C   UNL A   1      34.456  25.037  25.464  1.00  0.00     0.015 A 
ATOM     84  C   UNL A   1      34.123  24.153  23.251  1.00  0.00     0.134 A 
ATOM     85  C   UNL A   1      33.862  26.240  25.075  1.00  0.00     0.001 A 
ATOM     86  C   UNL A   1      33.522  25.347  22.859  1.00  0.00     0.040 A 
ATOM     87  F   UNL A   1      34.230  23.164  22.349  1.00  0.00    -0.206 F 
ATOM     88  C   UNL A   1      33.392  26.393  23.772  1.00  0.00     0.003 A 
ENDBRANCH  74  82
ENDBRANCH  69  70
ENDBRANCH  63  65
ENDBRANCH  62  63
ENDBRANCH  61  62
ENDBRANCH   1  61
TORSDOF 14
ENDMDL
MODEL 2
REMARK VINA RESULT:     -12.3      3.416      5.933
REMARK SMILES O=C(OCCOC(=O)c1ccn(-c2cc(-c3ccncc3)nc(-c3ccccc3F)n2)n1)c1ccc(-c2c3nc(c(-c4c(F)cccc4F)c4ccc([nH]4)c(-c4c(F)cccc4F)c4nc(c(-c5c(F)cccc5F)c5ccc2[nH]5)C=C4)C=C3)cc1
REMARK SMILES IDX 4 1 3 2 2 3 1 4 33 5 34 6 86 7 35 8 85 9 36 10 37 11 38 12
REMARK SMILES IDX 79 13 39 14 84 15 78 16 80 17 40 18 83 19 77 20 76 21 41 23
REMARK SMILES IDX 67 24 50 25 66 26 51 27 54 28 65 29 81 30 52 31 53 32 64 34
REMARK SMILES IDX 82 35 55 36 42 37 43 38 48 39 44 40 45 41 47 42 49 43 46 44
REMARK SMILES IDX 68 45 69 46 74 47 70 48 71 49 73 50 75 51 72 52 56 53 57 54
REMARK SMILES IDX 62 55 58 56 59 57 61 58 63 59 60 60 5 61 6 62 7 63 8 64 9 65
REMARK SMILES IDX 10 66 32 67 11 68 12 69 13 70 14 71 31 72 15 73 23 74 22 75
REMARK SMILES IDX 16 76 17 77 21 78 18 79 20 80 19 81 24 82 25 83 29 84 26 85
REMARK SMILES IDX 28 86 30 87 27 88
REMARK H PARENT 80 22 54 33
REMARK Flexibility Score: inf
ROOT
ATOM      1  C   UNL A   1      37.869  21.535  25.191  1.00  0.00     0.275 C 
ENDROOT
BRANCH   1   2
ATOM      2  O   UNL A   1      38.369  22.513  26.123  1.00  0.00    -0.458 OA
BRANCH   2   3
ATOM      3  C   UNL A   1      39.670  22.507  26.489  1.00  0.00     0.338 C 
ATOM      4  O   UNL A   1      40.456  21.635  26.149  1.00  0.00    -0.246 OA
BRANCH   3   5
ATOM      5  C   UNL A   1      40.118  23.792  27.080  1.00  0.00     0.060 A 
ATOM      6  C   UNL A   1      41.221  23.907  27.934  1.00  0.00     0.016 A 
ATOM      7  C   UNL A   1      39.353  24.924  26.777  1.00  0.00     0.016 A 
ATOM      8  C   UNL A   1      41.494  25.114  28.560  1.00  0.00     0.010 A 
ATOM      9  C   UNL A   1      39.628  26.132  27.396  1.00  0.00     0.010 A 
ATOM     10  C   UNL A   1      40.665  26.213  28.324  1.00  0.00    -0.014 A 
BRANCH  10  11
ATOM     11  C   UNL A   1      40.964  27.481  28.987  1.00  0.00     0.031 A 
ATOM     12  C   UNL A   1      42.252  28.118  28.565  1.00  0.00     0.074 A 
ATOM     13  C   UNL A   1      40.051  28.070  29.794  1.00  0.00     0.049 A 
ATOM     14  N   UNL A   1      43.203  28.585  29.303  1.00  0.00    -0.248 NA
ATOM     15  C   UNL A   1      42.578  28.166  27.130  1.00  0.00     0.031 C 
ATOM     16  C   UNL A   1      38.679  27.617  30.068  1.00  0.00     0.029 A 
ATOM     17  N   UNL A   1      40.104  29.252  30.470  1.00  0.00    -0.354 N 
ATOM     18  C   UNL A   1      44.143  29.159  28.441  1.00  0.00     0.074 A 
ATOM     19  C   UNL A   1      43.747  28.806  27.110  1.00  0.00     0.031 C 
ATOM     20  C   UNL A   1      37.972  28.618  30.636  1.00  0.00     0.029 A 
ATOM     21  C   UNL A   1      38.867  29.725  30.910  1.00  0.00     0.049 A 
ATOM     22  H   UNL A   1      40.947  29.733  30.635  1.00  0.00     0.167 HD
ATOM     23  C   UNL A   1      45.065  30.042  28.912  1.00  0.00     0.037 A 
ATOM     24  C   UNL A   1      38.591  30.944  31.445  1.00  0.00     0.037 A 
ATOM     25  C   UNL A   1      45.255  29.836  30.324  1.00  0.00     0.049 A 
ATOM     26  C   UNL A   1      39.880  31.495  31.922  1.00  0.00     0.074 A 
ATOM     27  C   UNL A   1      45.740  28.802  31.096  1.00  0.00     0.029 A 
ATOM     28  N   UNL A   1      44.529  30.643  31.160  1.00  0.00    -0.354 N 
ATOM     29  N   UNL A   1      40.571  30.989  32.904  1.00  0.00    -0.248 NA
ATOM     30  C   UNL A   1      40.613  32.373  31.027  1.00  0.00     0.031 C 
ATOM     31  C   UNL A   1      44.929  28.806  32.267  1.00  0.00     0.029 A 
ATOM     32  C   UNL A   1      44.052  29.890  32.195  1.00  0.00     0.049 A 
ATOM     33  H   UNL A   1      44.377  31.608  31.035  1.00  0.00     0.167 HD
ATOM     34  C   UNL A   1      41.890  31.103  32.494  1.00  0.00     0.074 A 
ATOM     35  C   UNL A   1      41.860  32.067  31.395  1.00  0.00     0.031 C 
ATOM     36  C   UNL A   1      42.820  30.189  32.894  1.00  0.00     0.037 A 
BRANCH  23  37
ATOM     37  C   UNL A   1      45.413  31.360  28.243  1.00  0.00     0.057 A 
ATOM     38  C   UNL A   1      46.621  31.629  27.572  1.00  0.00     0.134 A 
ATOM     39  C   UNL A   1      44.367  32.261  27.951  1.00  0.00     0.134 A 
ATOM     40  F   UNL A   1      47.726  30.905  27.768  1.00  0.00    -0.206 F 
ATOM     41  C   UNL A   1      46.741  32.622  26.592  1.00  0.00     0.040 A 
ATOM     42  C   UNL A   1      44.466  33.238  26.953  1.00  0.00     0.040 A 
ATOM     43  F   UNL A   1      43.175  32.155  28.558  1.00  0.00    -0.206 F 
ATOM     44  C   UNL A   1      45.648  33.400  26.247  1.00  0.00     0.006 A 
ENDBRANCH  23  37
BRANCH  24  45
ATOM     45  C   UNL A   1      37.386  31.805  31.290  1.00  0.00     0.057 A 
ATOM     46  C   UNL A   1      37.174  32.595  30.148  1.00  0.00     0.134 A 
ATOM     47  C   UNL A   1      36.573  32.111  32.396  1.00  0.00     0.134 A 
ATOM     48  F   UNL A   1      37.888  32.408  29.030  1.00  0.00    -0.206 F 
ATOM     49  C   UNL A   1      36.279  33.673  30.133  1.00  0.00     0.040 A 
ATOM     50  C   UNL A   1      35.667  33.183  32.391  1.00  0.00     0.040 A 
ATOM     51  F   UNL A   1      36.690  31.420  33.539  1.00  0.00    -0.206 F 
ATOM     52  C   UNL A   1      35.539  33.987  31.264  1.00  0.00     0.006 A 
ENDBRANCH  24  45
BRANCH  36  53
ATOM     53  C   UNL A   1      42.469  29.276  34.038  1.00  0.00     0.057 A 
ATOM     54  C   UNL A   1      42.878  29.655  35.321  1.00  0.00     0.134 A 
ATOM     55  C   UNL A   1      41.908  27.998  33.905  1.00  0.00     0.134 A 
ATOM     56  F   UNL A   1      43.472  30.843  35.518  1.00  0.00    -0.206 F 
ATOM     57  C   UNL A   1      42.749  28.805  36.421  1.00  0.00     0.040 A 
ATOM     58  C   UNL A   1      41.738  27.150  35.005  1.00  0.00     0.040 A 
ATOM     59  F   UNL A   1      41.566  27.506  32.708  1.00  0.00    -0.206 F 
ATOM     60  C   UNL A   1      42.169  27.549  36.266  1.00  0.00     0.006 A 
ENDBRANCH  36  53
ENDBRANCH  10  11
ENDBRANCH   3   5
ENDBRANCH   2   3
ENDBRANCH   1   2
BRANCH   1  61
ATOM     61  C   UNL A   1      36.353  21.378  25.080  1.00  0.00     0.275 C 
BRANCH  61  62
ATOM     62  O   UNL A   1      35.783  22.483  24.356  1.00  0.00    -0.457 OA
BRANCH  62  63
ATOM     63  C   UNL A   1      34.452  22.379  24.066  1.00  0.00     0.358 C 
ATOM     64  O   UNL A   1      33.790  21.345  24.177  1.00  0.00    -0.244 OA
BRANCH  63  65
ATOM     65  C   UNL A   1      33.898  23.610  23.509  1.00  0.00     0.170 A 
ATOM     66  C   UNL A   1      33.217  23.711  22.273  1.00  0.00     0.058 A 
ATOM     67  N   UNL A   1      33.931  24.802  24.144  1.00  0.00    -0.159 NA
ATOM     68  C   UNL A   1      32.641  24.956  22.291  1.00  0.00     0.118 A 
ATOM     69  N   UNL A   1      33.040  25.565  23.459  1.00  0.00    -0.222 N 
BRANCH  69  70
ATOM     70  C   UNL A   1      32.616  26.848  23.902  1.00  0.00     0.158 A 
ATOM     71  C   UNL A   1      31.586  27.479  23.237  1.00  0.00     0.078 A 
ATOM     72  N   UNL A   1      33.184  27.350  25.018  1.00  0.00    -0.209 NA
ATOM     73  C   UNL A   1      31.053  28.587  23.864  1.00  0.00     0.077 A 
ATOM     74  C   UNL A   1      32.711  28.533  25.437  1.00  0.00     0.165 A 
ATOM     75  N   UNL A   1      31.636  29.155  24.932  1.00  0.00    -0.228 NA
BRANCH  73  76
ATOM     76  C   UNL A   1      29.744  29.146  23.522  1.00  0.00     0.003 A 
ATOM     77  C   UNL A   1      28.681  28.297  23.190  1.00  0.00     0.030 A 
ATOM     78  C   UNL A   1      29.480  30.511  23.601  1.00  0.00     0.030 A 
ATOM     79  C   UNL A   1      27.436  28.835  22.907  1.00  0.00     0.111 A 
ATOM     80  C   UNL A   1      28.192  30.952  23.335  1.00  0.00     0.111 A 
ATOM     81  N   UNL A   1      27.163  30.151  22.980  1.00  0.00    -0.265 NA
ENDBRANCH  73  76
BRANCH  74  82
ATOM     82  C   UNL A   1      33.518  29.281  26.383  1.00  0.00     0.055 A 
ATOM     83  C   UNL A   1      34.762  28.779  26.811  1.00  0.00     0.015 A 
ATOM     84  C   UNL A   1      33.111  30.529  26.857  1.00  0.00     0.134 A 
ATOM     85  C   UNL A   1      35.568  29.513  27.684  1.00  0.00     0.001 A 
ATOM     86  C   UNL A   1      33.905  31.262  27.735  1.00  0.00     0.040 A 
ATOM     87  F   UNL A   1      31.930  31.044  26.481  1.00  0.00    -0.206 F 
ATOM     88  C   UNL A   1      35.136  30.754  28.149  1.00  0.00     0.003 A 
ENDBRANCH  74  82
ENDBRANCH  69  70
ENDBRANCH  63  65
ENDBRANCH  62  63
ENDBRANCH  61  62
ENDBRANCH   1  61
TORSDOF 14
ENDMDL
MODEL 3
REMARK VINA RESULT:     -12.2      3.707      8.204
REMARK SMILES O=C(OCCOC(=O)c1ccn(-c2cc(-c3ccncc3)nc(-c3ccccc3F)n2)n1)c1ccc(-c2c3nc(c(-c4c(F)cccc4F)c4ccc([nH]4)c(-c4c(F)cccc4F)c4nc(c(-c5c(F)cccc5F)c5ccc2[nH]5)C=C4)C=C3)cc1
REMARK SMILES IDX 4 1 3 2 2 3 1 4 33 5 34 6 86 7 35 8 85 9 36 10 37 11 38 12
REMARK SMILES IDX 79 13 39 14 84 15 78 16 80 17 40 18 83 19 77 20 76 21 41 23
REMARK SMILES IDX 67 24 50 25 66 26 51 27 54 28 65 29 81 30 52 31 53 32 64 34
REMARK SMILES IDX 82 35 55 36 42 37 43 38 48 39 44 40 45 41 47 42 49 43 46 44
REMARK SMILES IDX 68 45 69 46 74 47 70 48 71 49 73 50 75 51 72 52 56 53 57 54
REMARK SMILES IDX 62 55 58 56 59 57 61 58 63 59 60 60 5 61 6 62 7 63 8 64 9 65
REMARK SMILES IDX 10 66 32 67 11 68 12 69 13 70 14 71 31 72 15 73 23 74 22 75
REMARK SMILES IDX 16 76 17 77 21 78 18 79 20 80 19 81 24 82 25 83 29 84 26 85
REMARK SMILES IDX 28 86 30 87 27 88
REMARK H PARENT 80 22 54 33
REMARK Flexibility Score: inf
ROOT
ATOM      1  C   UNL A   1      32.876  30.520  27.257  1.00  0.00     0.275 C 
ENDROOT
BRANCH   1   2
ATOM      2  O   UNL A   1      34.269  30.824  27.048  1.00  0.00    -0.458 OA
BRANCH   2   3
ATOM      3  C   UNL A   1      35.013  31.344  28.048  1.00  0.00     0.338 C 
ATOM      4  O   UNL A   1      34.573  32.138  28.866  1.00  0.00    -0.246 OA
BRANCH   3   5
ATOM      5  C   UNL A   1      36.308  30.644  28.239  1.00  0.00     0.060 A 
ATOM      6  C   UNL A   1      36.495  29.281  27.978  1.00  0.00     0.016 A 
ATOM      7  C   UNL A   1      37.367  31.407  28.742  1.00  0.00     0.016 A 
ATOM      8  C   UNL A   1      37.693  28.666  28.313  1.00  0.00     0.010 A 
ATOM      9  C   UNL A   1      38.565  30.796  29.071  1.00  0.00     0.010 A 
ATOM     10  C   UNL A   1      38.708  29.420  28.904  1.00  0.00    -0.014 A 
BRANCH  10  11
ATOM     11  C   UNL A   1      39.967  28.763  29.251  1.00  0.00     0.031 A 
ATOM     12  C   UNL A   1      40.250  28.691  30.720  1.00  0.00     0.074 A 
ATOM     13  C   UNL A   1      40.711  28.148  28.302  1.00  0.00     0.049 A 
ATOM     14  N   UNL A   1      41.328  29.013  31.353  1.00  0.00    -0.248 NA
ATOM     15  C   UNL A   1      39.162  28.293  31.629  1.00  0.00     0.031 C 
ATOM     16  C   UNL A   1      40.378  27.980  26.879  1.00  0.00     0.029 A 
ATOM     17  N   UNL A   1      41.878  27.453  28.408  1.00  0.00    -0.354 N 
ATOM     18  C   UNL A   1      41.128  28.675  32.695  1.00  0.00     0.074 A 
ATOM     19  C   UNL A   1      39.750  28.307  32.824  1.00  0.00     0.031 C 
ATOM     20  C   UNL A   1      41.179  27.041  26.330  1.00  0.00     0.029 A 
ATOM     21  C   UNL A   1      42.179  26.652  27.305  1.00  0.00     0.049 A 
ATOM     22  H   UNL A   1      42.461  27.510  29.199  1.00  0.00     0.167 HD
ATOM     23  C   UNL A   1      42.187  28.552  33.543  1.00  0.00     0.037 A 
ATOM     24  C   UNL A   1      43.167  25.724  27.204  1.00  0.00     0.037 A 
ATOM     25  C   UNL A   1      43.302  29.308  33.036  1.00  0.00     0.049 A 
ATOM     26  C   UNL A   1      44.153  26.042  28.261  1.00  0.00     0.074 A 
ATOM     27  C   UNL A   1      43.543  30.647  32.811  1.00  0.00     0.029 A 
ATOM     28  N   UNL A   1      44.224  28.613  32.300  1.00  0.00    -0.354 N 
ATOM     29  N   UNL A   1      44.883  27.121  28.278  1.00  0.00    -0.248 NA
ATOM     30  C   UNL A   1      44.028  25.350  29.532  1.00  0.00     0.031 C 
ATOM     31  C   UNL A   1      44.319  30.684  31.618  1.00  0.00     0.029 A 
ATOM     32  C   UNL A   1      44.590  29.372  31.223  1.00  0.00     0.049 A 
ATOM     33  H   UNL A   1      44.567  27.714  32.510  1.00  0.00     0.167 HD
ATOM     34  C   UNL A   1      44.921  27.492  29.613  1.00  0.00     0.074 A 
ATOM     35  C   UNL A   1      44.484  26.305  30.346  1.00  0.00     0.031 C 
ATOM     36  C   UNL A   1      45.021  28.808  29.962  1.00  0.00     0.037 A 
BRANCH  23  37
ATOM     37  C   UNL A   1      42.376  27.404  34.519  1.00  0.00     0.057 A 
ATOM     38  C   UNL A   1      43.153  26.258  34.274  1.00  0.00     0.134 A 
ATOM     39  C   UNL A   1      42.063  27.622  35.878  1.00  0.00     0.134 A 
ATOM     40  F   UNL A   1      43.500  25.876  33.041  1.00  0.00    -0.206 F 
ATOM     41  C   UNL A   1      43.692  25.471  35.299  1.00  0.00     0.040 A 
ATOM     42  C   UNL A   1      42.619  26.859  36.913  1.00  0.00     0.040 A 
ATOM     43  F   UNL A   1      41.285  28.649  36.252  1.00  0.00    -0.206 F 
ATOM     44  C   UNL A   1      43.463  25.798  36.626  1.00  0.00     0.006 A 
ENDBRANCH  23  37
BRANCH  24  45
ATOM     45  C   UNL A   1      43.177  24.413  26.498  1.00  0.00     0.057 A 
ATOM     46  C   UNL A   1      42.798  23.219  27.135  1.00  0.00     0.134 A 
ATOM     47  C   UNL A   1      43.858  24.256  25.278  1.00  0.00     0.134 A 
ATOM     48  F   UNL A   1      42.148  23.231  28.307  1.00  0.00    -0.206 F 
ATOM     49  C   UNL A   1      43.150  21.956  26.640  1.00  0.00     0.040 A 
ATOM     50  C   UNL A   1      44.209  22.996  24.768  1.00  0.00     0.040 A 
ATOM     51  F   UNL A   1      44.267  25.328  24.584  1.00  0.00    -0.206 F 
ATOM     52  C   UNL A   1      43.879  21.840  25.466  1.00  0.00     0.006 A 
ENDBRANCH  24  45
BRANCH  36  53
ATOM     53  C   UNL A   1      45.427  29.793  28.900  1.00  0.00     0.057 A 
ATOM     54  C   UNL A   1      44.410  30.426  28.177  1.00  0.00     0.134 A 
ATOM     55  C   UNL A   1      46.742  30.010  28.464  1.00  0.00     0.134 A 
ATOM     56  F   UNL A   1      43.123  30.224  28.503  1.00  0.00    -0.206 F 
ATOM     57  C   UNL A   1      44.680  31.228  27.066  1.00  0.00     0.040 A 
ATOM     58  C   UNL A   1      47.030  30.841  27.376  1.00  0.00     0.040 A 
ATOM     59  F   UNL A   1      47.780  29.383  29.032  1.00  0.00    -0.206 F 
ATOM     60  C   UNL A   1      45.995  31.445  26.667  1.00  0.00     0.006 A 
ENDBRANCH  36  53
ENDBRANCH  10  11
ENDBRANCH   3   5
ENDBRANCH   2   3
ENDBRANCH   1   2
BRANCH   1  61
ATOM     61  C   UNL A   1      32.121  29.850  26.110  1.00  0.00     0.275 C 
BRANCH  61  62
ATOM     62  O   UNL A   1      32.071  28.424  26.304  1.00  0.00    -0.457 OA
BRANCH  62  63
ATOM     63  C   UNL A   1      31.416  27.717  25.335  1.00  0.00     0.358 C 
ATOM     64  O   UNL A   1      30.757  28.222  24.423  1.00  0.00    -0.244 OA
BRANCH  63  65
ATOM     65  C   UNL A   1      31.494  26.274  25.542  1.00  0.00     0.170 A 
ATOM     66  C   UNL A   1      30.389  25.389  25.536  1.00  0.00     0.058 A 
ATOM     67  N   UNL A   1      32.652  25.602  25.716  1.00  0.00    -0.159 NA
ATOM     68  C   UNL A   1      30.944  24.136  25.485  1.00  0.00     0.118 A 
ATOM     69  N   UNL A   1      32.310  24.300  25.533  1.00  0.00    -0.222 N 
BRANCH  69  70
ATOM     70  C   UNL A   1      33.266  23.252  25.439  1.00  0.00     0.158 A 
ATOM     71  C   UNL A   1      32.827  21.963  25.223  1.00  0.00     0.078 A 
ATOM     72  N   UNL A   1      34.573  23.585  25.472  1.00  0.00    -0.209 NA
ATOM     73  C   UNL A   1      33.800  21.044  24.886  1.00  0.00     0.077 A 
ATOM     74  C   UNL A   1      35.441  22.575  25.318  1.00  0.00     0.165 A 
ATOM     75  N   UNL A   1      35.110  21.320  24.981  1.00  0.00    -0.228 NA
BRANCH  73  76
ATOM     76  C   UNL A   1      33.499  19.755  24.260  1.00  0.00     0.003 A 
ATOM     77  C   UNL A   1      32.452  19.649  23.335  1.00  0.00     0.030 A 
ATOM     78  C   UNL A   1      34.281  18.624  24.482  1.00  0.00     0.030 A 
ATOM     79  C   UNL A   1      32.202  18.434  22.719  1.00  0.00     0.111 A 
ATOM     80  C   UNL A   1      33.975  17.461  23.791  1.00  0.00     0.111 A 
ATOM     81  N   UNL A   1      32.949  17.332  22.921  1.00  0.00    -0.265 NA
ENDBRANCH  73  76
BRANCH  74  82
ATOM     82  C   UNL A   1      36.818  22.806  25.714  1.00  0.00     0.055 A 
ATOM     83  C   UNL A   1      37.218  24.068  26.194  1.00  0.00     0.015 A 
ATOM     84  C   UNL A   1      37.766  21.784  25.676  1.00  0.00     0.134 A 
ATOM     85  C   UNL A   1      38.529  24.288  26.624  1.00  0.00     0.001 A 
ATOM     86  C   UNL A   1      39.078  21.999  26.094  1.00  0.00     0.040 A 
ATOM     87  F   UNL A   1      37.432  20.566  25.220  1.00  0.00    -0.206 F 
ATOM     88  C   UNL A   1      39.460  23.253  26.569  1.00  0.00     0.003 A 
ENDBRANCH  74  82
ENDBRANCH  69  70
ENDBRANCH  63  65
ENDBRANCH  62  63
ENDBRANCH  61  62
ENDBRANCH   1  61
TORSDOF 14
ENDMDL
