MODEL 1
REMARK VINA RESULT:     -12.2      0.000      0.000
REMARK SMILES Cc1ccc2occ(/C=N/NC(=O)CCC(=O)Nc3ccc(C(=O)OCCOC(=O)c4ccc(-c5c6nc(c(-c7c(F)cccc7F)c7ccc([nH]7)c(-c7c(F)cccc7F)c7nc(c(-c8c(F)cccc8F)c8ccc5[nH]8)C=C7)C=C6)cc4)cc3)c(=O)c2c1
REMARK SMILES IDX 23 1 24 2 22 3 19 4 20 5 86 6 21 7 85 8 18 9 16 10 17 11
REMARK SMILES IDX 15 13 14 14 12 15 11 16 13 18 10 19 9 20 8 21 1 22 2 23 3 24
REMARK SMILES IDX 90 25 4 26 89 27 5 28 87 29 6 30 88 31 7 32 25 33 26 34
REMARK SMILES IDX 27 35 28 36 29 37 30 38 31 39 32 40 84 41 33 42 83 43 34 44
REMARK SMILES IDX 35 45 36 46 77 47 37 48 82 49 76 50 78 51 38 52 81 53 75 54
REMARK SMILES IDX 74 55 39 57 65 58 48 59 64 60 49 61 52 62 63 63 79 64 50 65
REMARK SMILES IDX 51 66 62 68 80 69 53 70 40 71 41 72 46 73 42 74 43 75 45 76
REMARK SMILES IDX 47 77 44 78 66 79 67 80 72 81 68 82 69 83 71 84 73 85 70 86
REMARK SMILES IDX 54 87 55 88 60 89 56 90 57 91 59 92 61 93 58 94
REMARK H PARENT 18 12 11 17 78 56 52 67
REMARK Flexibility Score: inf
ROOT
ATOM      1  C   UNL A   1      40.998  21.546  27.637  1.00  0.00     0.338 C 
ATOM      2  O   UNL A   1      41.697  22.250  28.345  1.00  0.00    -0.246 OA
ENDROOT
BRANCH   1   3
ATOM      3  C   UNL A   1      39.950  22.115  26.787  1.00  0.00     0.060 A 
ATOM      4  C   UNL A   1      37.632  22.886  25.439  1.00  0.00     0.041 A 
ATOM      5  C   UNL A   1      38.253  23.770  26.324  1.00  0.00     0.027 A 
ATOM      6  C   UNL A   1      38.164  21.608  25.276  1.00  0.00     0.027 A 
ATOM      7  C   UNL A   1      39.425  23.395  26.983  1.00  0.00     0.018 A 
ATOM      8  C   UNL A   1      39.332  21.228  25.923  1.00  0.00     0.018 A 
BRANCH   4   9
ATOM      9  N   UNL A   1      36.528  23.378  24.734  1.00  0.00    -0.326 N 
ATOM     10  C   UNL A   1      35.311  22.853  24.441  1.00  0.00     0.224 C 
ATOM     11  O   UNL A   1      34.540  23.565  23.784  1.00  0.00    -0.275 OA
ATOM     12  H   UNL A   1      36.662  24.286  24.379  1.00  0.00     0.169 HD
BRANCH  10  13
ATOM     13  C   UNL A   1      34.859  21.481  24.886  1.00  0.00     0.110 C 
BRANCH  13  14
ATOM     14  C   UNL A   1      33.632  20.794  24.280  1.00  0.00     0.112 C 
BRANCH  14  15
ATOM     15  C   UNL A   1      32.338  20.516  25.049  1.00  0.00     0.240 C 
ATOM     16  N   UNL A   1      31.395  21.491  25.275  1.00  0.00    -0.247 N 
ATOM     17  H   UNL A   1      30.633  21.243  25.848  1.00  0.00     0.193 HD
ATOM     18  O   UNL A   1      32.145  19.392  25.526  1.00  0.00    -0.273 OA
BRANCH  16  19
ATOM     19  N   UNL A   1      31.403  22.763  24.792  1.00  0.00    -0.180 NA
ATOM     20  C   UNL A   1      31.017  23.656  25.639  1.00  0.00     0.148 C 
BRANCH  20  21
ATOM     21  C   UNL A   1      31.251  25.095  25.488  1.00  0.00     0.078 A 
ATOM     22  C   UNL A   1      34.924  29.757  27.373  1.00  0.00     0.044 C 
ATOM     23  C   UNL A   1      33.773  29.112  26.664  1.00  0.00    -0.050 A 
ATOM     24  C   UNL A   1      32.740  29.868  26.090  1.00  0.00     0.007 A 
ATOM     25  C   UNL A   1      33.726  27.721  26.574  1.00  0.00     0.019 A 
ATOM     26  C   UNL A   1      31.671  29.242  25.438  1.00  0.00     0.048 A 
ATOM     27  C   UNL A   1      32.635  27.105  25.963  1.00  0.00     0.066 A 
ATOM     28  C   UNL A   1      31.614  27.853  25.381  1.00  0.00     0.137 A 
ATOM     29  C   UNL A   1      32.507  25.650  26.013  1.00  0.00     0.201 A 
ATOM     30  O   UNL A   1      30.524  27.277  24.768  1.00  0.00    -0.463 OA
ATOM     31  O   UNL A   1      33.373  24.936  26.506  1.00  0.00    -0.288 OA
ATOM     32  C   UNL A   1      30.379  25.912  24.889  1.00  0.00     0.209 A 
ENDBRANCH  20  21
ENDBRANCH  16  19
ENDBRANCH  14  15
ENDBRANCH  13  14
ENDBRANCH  10  13
ENDBRANCH   4   9
ENDBRANCH   1   3
BRANCH   1  33
ATOM     33  O   UNL A   1      40.973  20.197  27.587  1.00  0.00    -0.458 OA
BRANCH  33  34
ATOM     34  C   UNL A   1      42.266  19.596  27.403  1.00  0.00     0.275 C 
BRANCH  34  35
ATOM     35  C   UNL A   1      42.289  18.659  26.195  1.00  0.00     0.275 C 
BRANCH  35  36
ATOM     36  O   UNL A   1      42.746  19.334  25.006  1.00  0.00    -0.458 OA
BRANCH  36  37
ATOM     37  C   UNL A   1      44.087  19.352  24.852  1.00  0.00     0.338 C 
ATOM     38  O   UNL A   1      44.827  18.396  24.669  1.00  0.00    -0.246 OA
BRANCH  37  39
ATOM     39  C   UNL A   1      44.614  20.724  24.826  1.00  0.00     0.060 A 
ATOM     40  C   UNL A   1      45.480  21.104  25.844  1.00  0.00     0.016 A 
ATOM     41  C   UNL A   1      44.026  21.694  24.021  1.00  0.00     0.016 A 
ATOM     42  C   UNL A   1      45.610  22.439  26.191  1.00  0.00     0.010 A 
ATOM     43  C   UNL A   1      44.298  23.047  24.267  1.00  0.00     0.010 A 
ATOM     44  C   UNL A   1      45.044  23.438  25.396  1.00  0.00    -0.014 A 
BRANCH  44  45
ATOM     45  C   UNL A   1      45.198  24.869  25.787  1.00  0.00     0.031 A 
ATOM     46  C   UNL A   1      46.523  25.565  25.602  1.00  0.00     0.074 A 
ATOM     47  C   UNL A   1      44.147  25.564  26.272  1.00  0.00     0.049 A 
ATOM     48  N   UNL A   1      46.928  26.715  26.078  1.00  0.00    -0.248 NA
ATOM     49  C   UNL A   1      47.532  24.868  24.788  1.00  0.00     0.031 C 
ATOM     50  C   UNL A   1      42.785  25.048  26.437  1.00  0.00     0.029 A 
ATOM     51  N   UNL A   1      44.055  26.863  26.708  1.00  0.00    -0.354 N 
ATOM     52  C   UNL A   1      48.257  26.840  25.691  1.00  0.00     0.074 A 
ATOM     53  C   UNL A   1      48.591  25.651  24.937  1.00  0.00     0.031 C 
ATOM     54  C   UNL A   1      41.989  26.028  26.884  1.00  0.00     0.029 A 
ATOM     55  C   UNL A   1      42.803  27.199  27.167  1.00  0.00     0.049 A 
ATOM     56  H   UNL A   1      44.813  27.493  26.694  1.00  0.00     0.167 HD
ATOM     57  C   UNL A   1      49.119  27.854  25.949  1.00  0.00     0.037 A 
ATOM     58  C   UNL A   1      42.367  28.298  27.809  1.00  0.00     0.037 A 
ATOM     59  C   UNL A   1      48.752  29.061  26.645  1.00  0.00     0.049 A 
ATOM     60  C   UNL A   1      43.349  29.387  28.125  1.00  0.00     0.074 A 
ATOM     61  C   UNL A   1      49.543  30.154  26.954  1.00  0.00     0.029 A 
ATOM     62  N   UNL A   1      47.479  29.342  27.120  1.00  0.00    -0.354 N 
ATOM     63  N   UNL A   1      44.624  29.460  27.830  1.00  0.00    -0.248 NA
ATOM     64  C   UNL A   1      42.837  30.536  28.881  1.00  0.00     0.031 C 
ATOM     65  C   UNL A   1      48.760  31.077  27.656  1.00  0.00     0.029 A 
ATOM     66  C   UNL A   1      47.466  30.587  27.730  1.00  0.00     0.049 A 
ATOM     67  H   UNL A   1      46.699  28.747  27.036  1.00  0.00     0.167 HD
ATOM     68  C   UNL A   1      45.062  30.672  28.342  1.00  0.00     0.074 A 
ATOM     69  C   UNL A   1      43.911  31.308  28.950  1.00  0.00     0.031 C 
ATOM     70  C   UNL A   1      46.306  31.210  28.315  1.00  0.00     0.037 A 
BRANCH  57  71
ATOM     71  C   UNL A   1      50.550  27.685  25.522  1.00  0.00     0.057 A 
ATOM     72  C   UNL A   1      50.979  27.918  24.210  1.00  0.00     0.134 A 
ATOM     73  C   UNL A   1      51.524  27.312  26.460  1.00  0.00     0.134 A 
ATOM     74  F   UNL A   1      50.099  28.263  23.258  1.00  0.00    -0.206 F 
ATOM     75  C   UNL A   1      52.318  27.764  23.840  1.00  0.00     0.040 A 
ATOM     76  C   UNL A   1      52.869  27.184  26.109  1.00  0.00     0.040 A 
ATOM     77  F   UNL A   1      51.186  27.077  27.737  1.00  0.00    -0.206 F 
ATOM     78  C   UNL A   1      53.268  27.403  24.794  1.00  0.00     0.006 A 
ENDBRANCH  57  71
BRANCH  58  79
ATOM     79  C   UNL A   1      40.951  28.389  28.255  1.00  0.00     0.057 A 
ATOM     80  C   UNL A   1      39.956  28.900  27.414  1.00  0.00     0.134 A 
ATOM     81  C   UNL A   1      40.559  27.969  29.534  1.00  0.00     0.134 A 
ATOM     82  F   UNL A   1      40.271  29.339  26.186  1.00  0.00    -0.206 F 
ATOM     83  C   UNL A   1      38.629  29.006  27.832  1.00  0.00     0.040 A 
ATOM     84  C   UNL A   1      39.229  28.035  29.951  1.00  0.00     0.040 A 
ATOM     85  F   UNL A   1      41.460  27.465  30.389  1.00  0.00    -0.206 F 
ATOM     86  C   UNL A   1      38.261  28.564  29.102  1.00  0.00     0.006 A 
ENDBRANCH  58  79
BRANCH  70  87
ATOM     87  C   UNL A   1      46.465  32.581  28.903  1.00  0.00     0.057 A 
ATOM     88  C   UNL A   1      46.823  32.780  30.243  1.00  0.00     0.134 A 
ATOM     89  C   UNL A   1      46.267  33.716  28.110  1.00  0.00     0.134 A 
ATOM     90  F   UNL A   1      47.010  31.733  31.060  1.00  0.00    -0.206 F 
ATOM     91  C   UNL A   1      46.947  34.062  30.779  1.00  0.00     0.040 A 
ATOM     92  C   UNL A   1      46.419  35.003  28.626  1.00  0.00     0.040 A 
ATOM     93  F   UNL A   1      45.930  33.595  26.816  1.00  0.00    -0.206 F 
ATOM     94  C   UNL A   1      46.751  35.178  29.967  1.00  0.00     0.006 A 
ENDBRANCH  70  87
ENDBRANCH  44  45
ENDBRANCH  37  39
ENDBRANCH  36  37
ENDBRANCH  35  36
ENDBRANCH  34  35
ENDBRANCH  33  34
ENDBRANCH   1  33
TORSDOF 17
ENDMDL
MODEL 2
REMARK VINA RESULT:     -12.1      2.363      7.870
REMARK SMILES Cc1ccc2occ(/C=N/NC(=O)CCC(=O)Nc3ccc(C(=O)OCCOC(=O)c4ccc(-c5c6nc(c(-c7c(F)cccc7F)c7ccc([nH]7)c(-c7c(F)cccc7F)c7nc(c(-c8c(F)cccc8F)c8ccc5[nH]8)C=C7)C=C6)cc4)cc3)c(=O)c2c1
REMARK SMILES IDX 23 1 24 2 22 3 19 4 20 5 86 6 21 7 85 8 18 9 16 10 17 11
REMARK SMILES IDX 15 13 14 14 12 15 11 16 13 18 10 19 9 20 8 21 1 22 2 23 3 24
REMARK SMILES IDX 90 25 4 26 89 27 5 28 87 29 6 30 88 31 7 32 25 33 26 34
REMARK SMILES IDX 27 35 28 36 29 37 30 38 31 39 32 40 84 41 33 42 83 43 34 44
REMARK SMILES IDX 35 45 36 46 77 47 37 48 82 49 76 50 78 51 38 52 81 53 75 54
REMARK SMILES IDX 74 55 39 57 65 58 48 59 64 60 49 61 52 62 63 63 79 64 50 65
REMARK SMILES IDX 51 66 62 68 80 69 53 70 40 71 41 72 46 73 42 74 43 75 45 76
REMARK SMILES IDX 47 77 44 78 66 79 67 80 72 81 68 82 69 83 71 84 73 85 70 86
REMARK SMILES IDX 54 87 55 88 60 89 56 90 57 91 59 92 61 93 58 94
REMARK H PARENT 18 12 11 17 78 56 52 67
REMARK Flexibility Score: inf
ROOT
ATOM      1  C   UNL A   1      32.572  29.192  25.992  1.00  0.00     0.338 C 
ATOM      2  O   UNL A   1      32.527  29.692  24.881  1.00  0.00    -0.246 OA
ENDROOT
BRANCH   1   3
ATOM      3  C   UNL A   1      32.841  27.765  26.179  1.00  0.00     0.060 A 
ATOM      4  C   UNL A   1      33.023  24.980  26.131  1.00  0.00     0.041 A 
ATOM      5  C   UNL A   1      34.105  25.760  25.713  1.00  0.00     0.027 A 
ATOM      6  C   UNL A   1      31.848  25.615  26.528  1.00  0.00     0.027 A 
ATOM      7  C   UNL A   1      34.024  27.152  25.756  1.00  0.00     0.018 A 
ATOM      8  C   UNL A   1      31.760  26.999  26.581  1.00  0.00     0.018 A 
BRANCH   4   9
ATOM      9  N   UNL A   1      33.225  23.597  26.164  1.00  0.00    -0.326 N 
ATOM     10  C   UNL A   1      34.330  22.828  26.342  1.00  0.00     0.224 C 
ATOM     11  O   UNL A   1      34.167  21.601  26.317  1.00  0.00    -0.275 OA
ATOM     12  H   UNL A   1      32.400  23.076  26.029  1.00  0.00     0.169 HD
BRANCH  10  13
ATOM     13  C   UNL A   1      35.713  23.390  26.582  1.00  0.00     0.110 C 
BRANCH  13  14
ATOM     14  C   UNL A   1      36.736  23.540  25.452  1.00  0.00     0.112 C 
BRANCH  14  15
ATOM     15  C   UNL A   1      36.829  22.598  24.250  1.00  0.00     0.240 C 
ATOM     16  N   UNL A   1      35.965  22.680  23.183  1.00  0.00    -0.247 N 
ATOM     17  H   UNL A   1      36.049  21.983  22.493  1.00  0.00     0.193 HD
ATOM     18  O   UNL A   1      37.678  21.698  24.249  1.00  0.00    -0.273 OA
BRANCH  16  19
ATOM     19  N   UNL A   1      35.008  23.625  22.979  1.00  0.00    -0.180 NA
ATOM     20  C   UNL A   1      33.831  23.148  22.751  1.00  0.00     0.148 C 
BRANCH  20  21
ATOM     21  C   UNL A   1      32.593  23.927  22.834  1.00  0.00     0.078 A 
ATOM     22  C   UNL A   1      30.312  29.701  22.343  1.00  0.00     0.044 C 
ATOM     23  C   UNL A   1      30.286  28.230  22.624  1.00  0.00    -0.050 A 
ATOM     24  C   UNL A   1      29.186  27.615  23.242  1.00  0.00     0.007 A 
ATOM     25  C   UNL A   1      31.386  27.451  22.265  1.00  0.00     0.019 A 
ATOM     26  C   UNL A   1      29.189  26.238  23.501  1.00  0.00     0.048 A 
ATOM     27  C   UNL A   1      31.397  26.091  22.568  1.00  0.00     0.066 A 
ATOM     28  C   UNL A   1      30.302  25.474  23.169  1.00  0.00     0.137 A 
ATOM     29  C   UNL A   1      32.612  25.311  22.339  1.00  0.00     0.201 A 
ATOM     30  O   UNL A   1      30.279  24.133  23.480  1.00  0.00    -0.463 OA
ATOM     31  O   UNL A   1      33.607  25.795  21.810  1.00  0.00    -0.288 OA
ATOM     32  C   UNL A   1      31.455  23.429  23.329  1.00  0.00     0.209 A 
ENDBRANCH  20  21
ENDBRANCH  16  19
ENDBRANCH  14  15
ENDBRANCH  13  14
ENDBRANCH  10  13
ENDBRANCH   4   9
ENDBRANCH   1   3
BRANCH   1  33
ATOM     33  O   UNL A   1      32.290  29.783  27.172  1.00  0.00    -0.458 OA
BRANCH  33  34
ATOM     34  C   UNL A   1      32.609  31.184  27.214  1.00  0.00     0.275 C 
BRANCH  34  35
ATOM     35  C   UNL A   1      34.066  31.423  27.613  1.00  0.00     0.275 C 
BRANCH  35  36
ATOM     36  O   UNL A   1      34.596  30.322  28.377  1.00  0.00    -0.458 OA
BRANCH  36  37
ATOM     37  C   UNL A   1      35.684  30.627  29.117  1.00  0.00     0.338 C 
ATOM     38  O   UNL A   1      35.763  31.451  30.017  1.00  0.00    -0.246 OA
BRANCH  37  39
ATOM     39  C   UNL A   1      36.824  29.758  28.794  1.00  0.00     0.060 A 
ATOM     40  C   UNL A   1      37.441  29.084  29.841  1.00  0.00     0.016 A 
ATOM     41  C   UNL A   1      37.466  29.859  27.564  1.00  0.00     0.016 A 
ATOM     42  C   UNL A   1      38.763  28.683  29.735  1.00  0.00     0.010 A 
ATOM     43  C   UNL A   1      38.741  29.297  27.408  1.00  0.00     0.010 A 
ATOM     44  C   UNL A   1      39.431  28.757  28.511  1.00  0.00    -0.014 A 
BRANCH  44  45
ATOM     45  C   UNL A   1      40.854  28.319  28.418  1.00  0.00     0.031 A 
ATOM     46  C   UNL A   1      41.966  29.308  28.659  1.00  0.00     0.074 A 
ATOM     47  C   UNL A   1      41.159  27.030  28.157  1.00  0.00     0.049 A 
ATOM     48  N   UNL A   1      43.246  29.192  28.409  1.00  0.00    -0.248 NA
ATOM     49  C   UNL A   1      41.588  30.605  29.244  1.00  0.00     0.031 C 
ATOM     50  C   UNL A   1      40.191  25.944  27.975  1.00  0.00     0.029 A 
ATOM     51  N   UNL A   1      42.374  26.408  28.008  1.00  0.00    -0.354 N 
ATOM     52  C   UNL A   1      43.809  30.423  28.729  1.00  0.00     0.074 A 
ATOM     53  C   UNL A   1      42.733  31.271  29.195  1.00  0.00     0.031 C 
ATOM     54  C   UNL A   1      40.846  24.790  27.793  1.00  0.00     0.029 A 
ATOM     55  C   UNL A   1      42.271  25.070  27.710  1.00  0.00     0.049 A 
ATOM     56  H   UNL A   1      43.235  26.876  28.105  1.00  0.00     0.167 HD
ATOM     57  C   UNL A   1      45.104  30.807  28.634  1.00  0.00     0.037 A 
ATOM     58  C   UNL A   1      43.206  24.176  27.340  1.00  0.00     0.037 A 
ATOM     59  C   UNL A   1      46.174  29.930  28.230  1.00  0.00     0.049 A 
ATOM     60  C   UNL A   1      44.627  24.636  27.197  1.00  0.00     0.074 A 
ATOM     61  C   UNL A   1      47.523  30.213  28.106  1.00  0.00     0.029 A 
ATOM     62  N   UNL A   1      46.016  28.590  27.906  1.00  0.00    -0.354 N 
ATOM     63  N   UNL A   1      45.137  25.823  27.419  1.00  0.00    -0.248 NA
ATOM     64  C   UNL A   1      45.598  23.638  26.731  1.00  0.00     0.031 C 
ATOM     65  C   UNL A   1      48.175  29.058  27.664  1.00  0.00     0.029 A 
ATOM     66  C   UNL A   1      47.242  28.037  27.571  1.00  0.00     0.049 A 
ATOM     67  H   UNL A   1      45.160  28.103  27.913  1.00  0.00     0.167 HD
ATOM     68  C   UNL A   1      46.492  25.710  27.144  1.00  0.00     0.074 A 
ATOM     69  C   UNL A   1      46.725  24.334  26.757  1.00  0.00     0.031 C 
ATOM     70  C   UNL A   1      47.456  26.660  27.204  1.00  0.00     0.037 A 
BRANCH  57  71
ATOM     71  C   UNL A   1      45.433  32.245  28.924  1.00  0.00     0.057 A 
ATOM     72  C   UNL A   1      45.898  32.676  30.173  1.00  0.00     0.134 A 
ATOM     73  C   UNL A   1      45.312  33.211  27.916  1.00  0.00     0.134 A 
ATOM     74  F   UNL A   1      46.024  31.808  31.188  1.00  0.00    -0.206 F 
ATOM     75  C   UNL A   1      46.207  34.017  30.415  1.00  0.00     0.040 A 
ATOM     76  C   UNL A   1      45.646  34.549  28.136  1.00  0.00     0.040 A 
ATOM     77  F   UNL A   1      44.878  32.870  26.692  1.00  0.00    -0.206 F 
ATOM     78  C   UNL A   1      46.088  34.956  29.392  1.00  0.00     0.006 A 
ENDBRANCH  57  71
BRANCH  58  79
ATOM     79  C   UNL A   1      42.816  22.778  27.014  1.00  0.00     0.057 A 
ATOM     80  C   UNL A   1      42.752  22.332  25.690  1.00  0.00     0.134 A 
ATOM     81  C   UNL A   1      42.494  21.857  28.020  1.00  0.00     0.134 A 
ATOM     82  F   UNL A   1      43.026  23.172  24.681  1.00  0.00    -0.206 F 
ATOM     83  C   UNL A   1      42.368  21.027  25.376  1.00  0.00     0.040 A 
ATOM     84  C   UNL A   1      42.145  20.539  27.722  1.00  0.00     0.040 A 
ATOM     85  F   UNL A   1      42.539  22.217  29.311  1.00  0.00    -0.206 F 
ATOM     86  C   UNL A   1      42.071  20.124  26.395  1.00  0.00     0.006 A 
ENDBRANCH  58  79
BRANCH  70  87
ATOM     87  C   UNL A   1      48.860  26.222  26.906  1.00  0.00     0.057 A 
ATOM     88  C   UNL A   1      49.439  26.385  25.641  1.00  0.00     0.134 A 
ATOM     89  C   UNL A   1      49.644  25.637  27.908  1.00  0.00     0.134 A 
ATOM     90  F   UNL A   1      48.734  26.922  24.634  1.00  0.00    -0.206 F 
ATOM     91  C   UNL A   1      50.739  25.954  25.376  1.00  0.00     0.040 A 
ATOM     92  C   UNL A   1      50.955  25.230  27.663  1.00  0.00     0.040 A 
ATOM     93  F   UNL A   1      49.152  25.459  29.143  1.00  0.00    -0.206 F 
ATOM     94  C   UNL A   1      51.503  25.380  26.391  1.00  0.00     0.006 A 
ENDBRANCH  70  87
ENDBRANCH  44  45
ENDBRANCH  37  39
ENDBRANCH  36  37
ENDBRANCH  35  36
ENDBRANCH  34  35
ENDBRANCH  33  34
ENDBRANCH   1  33
TORSDOF 17
ENDMDL
MODEL 3
REMARK VINA RESULT:     -12.1      2.486      7.901
REMARK SMILES Cc1ccc2occ(/C=N/NC(=O)CCC(=O)Nc3ccc(C(=O)OCCOC(=O)c4ccc(-c5c6nc(c(-c7c(F)cccc7F)c7ccc([nH]7)c(-c7c(F)cccc7F)c7nc(c(-c8c(F)cccc8F)c8ccc5[nH]8)C=C7)C=C6)cc4)cc3)c(=O)c2c1
REMARK SMILES IDX 23 1 24 2 22 3 19 4 20 5 86 6 21 7 85 8 18 9 16 10 17 11
REMARK SMILES IDX 15 13 14 14 12 15 11 16 13 18 10 19 9 20 8 21 1 22 2 23 3 24
REMARK SMILES IDX 90 25 4 26 89 27 5 28 87 29 6 30 88 31 7 32 25 33 26 34
REMARK SMILES IDX 27 35 28 36 29 37 30 38 31 39 32 40 84 41 33 42 83 43 34 44
REMARK SMILES IDX 35 45 36 46 77 47 37 48 82 49 76 50 78 51 38 52 81 53 75 54
REMARK SMILES IDX 74 55 39 57 65 58 48 59 64 60 49 61 52 62 63 63 79 64 50 65
REMARK SMILES IDX 51 66 62 68 80 69 53 70 40 71 41 72 46 73 42 74 43 75 45 76
REMARK SMILES IDX 47 77 44 78 66 79 67 80 72 81 68 82 69 83 71 84 73 85 70 86
REMARK SMILES IDX 54 87 55 88 60 89 56 90 57 91 59 92 61 93 58 94
REMARK H PARENT 18 12 11 17 78 56 52 67
REMARK Flexibility Score: inf
ROOT
ATOM      1  C   UNL A   1      35.465  23.962  25.199  1.00  0.00     0.338 C 
ATOM      2  O   UNL A   1      36.419  24.504  25.728  1.00  0.00    -0.246 OA
ENDROOT
BRANCH   1   3
ATOM      3  C   UNL A   1      34.433  24.735  24.505  1.00  0.00     0.060 A 
ATOM      4  C   UNL A   1      32.846  26.568  23.123  1.00  0.00     0.041 A 
ATOM      5  C   UNL A   1      33.245  25.380  22.503  1.00  0.00     0.027 A 
ATOM      6  C   UNL A   1      33.287  26.836  24.417  1.00  0.00     0.027 A 
ATOM      7  C   UNL A   1      34.020  24.453  23.201  1.00  0.00     0.018 A 
ATOM      8  C   UNL A   1      34.054  25.916  25.120  1.00  0.00     0.018 A 
BRANCH   4   9
ATOM      9  N   UNL A   1      31.978  27.391  22.398  1.00  0.00    -0.326 N 
ATOM     10  C   UNL A   1      30.679  27.743  22.571  1.00  0.00     0.224 C 
ATOM     11  O   UNL A   1      30.191  28.510  21.730  1.00  0.00    -0.275 OA
ATOM     12  H   UNL A   1      32.392  27.794  21.600  1.00  0.00     0.169 HD
BRANCH  10  13
ATOM     13  C   UNL A   1      29.828  27.269  23.727  1.00  0.00     0.110 C 
BRANCH  13  14
ATOM     14  C   UNL A   1      29.827  25.809  24.190  1.00  0.00     0.112 C 
BRANCH  14  15
ATOM     15  C   UNL A   1      30.255  25.352  25.586  1.00  0.00     0.240 C 
ATOM     16  N   UNL A   1      30.618  24.053  25.855  1.00  0.00    -0.247 N 
ATOM     17  H   UNL A   1      30.800  23.833  26.797  1.00  0.00     0.193 HD
ATOM     18  O   UNL A   1      30.234  26.161  26.522  1.00  0.00    -0.273 OA
BRANCH  16  19
ATOM     19  N   UNL A   1      30.751  23.041  24.956  1.00  0.00    -0.180 NA
ATOM     20  C   UNL A   1      31.887  22.430  25.009  1.00  0.00     0.148 C 
BRANCH  20  21
ATOM     21  C   UNL A   1      32.152  21.122  24.402  1.00  0.00     0.078 A 
ATOM     22  C   UNL A   1      35.180  15.754  25.294  1.00  0.00     0.044 C 
ATOM     23  C   UNL A   1      34.354  16.763  24.555  1.00  0.00    -0.050 A 
ATOM     24  C   UNL A   1      34.061  16.622  23.190  1.00  0.00     0.007 A 
ATOM     25  C   UNL A   1      33.866  17.874  25.244  1.00  0.00     0.019 A 
ATOM     26  C   UNL A   1      33.294  17.583  22.520  1.00  0.00     0.048 A 
ATOM     27  C   UNL A   1      33.141  18.847  24.557  1.00  0.00     0.066 A 
ATOM     28  C   UNL A   1      32.837  18.705  23.205  1.00  0.00     0.137 A 
ATOM     29  C   UNL A   1      32.771  20.085  25.240  1.00  0.00     0.201 A 
ATOM     30  O   UNL A   1      32.122  19.645  22.498  1.00  0.00    -0.463 OA
ATOM     31  O   UNL A   1      33.005  20.269  26.430  1.00  0.00    -0.288 OA
ATOM     32  C   UNL A   1      31.846  20.837  23.133  1.00  0.00     0.209 A 
ENDBRANCH  20  21
ENDBRANCH  16  19
ENDBRANCH  14  15
ENDBRANCH  13  14
ENDBRANCH  10  13
ENDBRANCH   4   9
ENDBRANCH   1   3
BRANCH   1  33
ATOM     33  O   UNL A   1      35.132  22.654  25.244  1.00  0.00    -0.458 OA
BRANCH  33  34
ATOM     34  C   UNL A   1      35.999  21.804  24.474  1.00  0.00     0.275 C 
BRANCH  34  35
ATOM     35  C   UNL A   1      37.014  21.081  25.359  1.00  0.00     0.275 C 
BRANCH  35  36
ATOM     36  O   UNL A   1      38.369  21.421  25.003  1.00  0.00    -0.458 OA
BRANCH  36  37
ATOM     37  C   UNL A   1      39.288  21.125  25.946  1.00  0.00     0.338 C 
ATOM     38  O   UNL A   1      39.844  20.051  26.131  1.00  0.00    -0.246 OA
BRANCH  37  39
ATOM     39  C   UNL A   1      39.664  22.308  26.732  1.00  0.00     0.060 A 
ATOM     40  C   UNL A   1      39.171  23.541  26.323  1.00  0.00     0.016 A 
ATOM     41  C   UNL A   1      40.721  22.252  27.635  1.00  0.00     0.016 A 
ATOM     42  C   UNL A   1      39.842  24.708  26.648  1.00  0.00     0.010 A 
ATOM     43  C   UNL A   1      41.289  23.447  28.100  1.00  0.00     0.010 A 
ATOM     44  C   UNL A   1      40.897  24.689  27.563  1.00  0.00    -0.014 A 
BRANCH  44  45
ATOM     45  C   UNL A   1      41.606  25.957  27.901  1.00  0.00     0.031 A 
ATOM     46  C   UNL A   1      40.920  27.004  28.741  1.00  0.00     0.074 A 
ATOM     47  C   UNL A   1      42.876  26.163  27.494  1.00  0.00     0.049 A 
ATOM     48  N   UNL A   1      41.263  28.249  28.955  1.00  0.00    -0.248 NA
ATOM     49  C   UNL A   1      39.674  26.605  29.416  1.00  0.00     0.031 C 
ATOM     50  C   UNL A   1      43.696  25.210  26.739  1.00  0.00     0.029 A 
ATOM     51  N   UNL A   1      43.710  27.240  27.665  1.00  0.00    -0.354 N 
ATOM     52  C   UNL A   1      40.239  28.801  29.718  1.00  0.00     0.074 A 
ATOM     53  C   UNL A   1      39.263  27.754  29.934  1.00  0.00     0.031 C 
ATOM     54  C   UNL A   1      44.921  25.720  26.561  1.00  0.00     0.029 A 
ATOM     55  C   UNL A   1      44.937  27.084  27.066  1.00  0.00     0.049 A 
ATOM     56  H   UNL A   1      43.453  28.047  28.169  1.00  0.00     0.167 HD
ATOM     57  C   UNL A   1      40.126  30.066  30.188  1.00  0.00     0.037 A 
ATOM     58  C   UNL A   1      45.942  27.958  26.876  1.00  0.00     0.037 A 
ATOM     59  C   UNL A   1      41.138  31.078  30.020  1.00  0.00     0.049 A 
ATOM     60  C   UNL A   1      45.774  29.366  27.364  1.00  0.00     0.074 A 
ATOM     61  C   UNL A   1      41.128  32.390  30.460  1.00  0.00     0.029 A 
ATOM     62  N   UNL A   1      42.351  30.882  29.376  1.00  0.00    -0.354 N 
ATOM     63  N   UNL A   1      44.768  29.902  28.010  1.00  0.00    -0.248 NA
ATOM     64  C   UNL A   1      46.873  30.297  27.078  1.00  0.00     0.031 C 
ATOM     65  C   UNL A   1      42.316  33.001  30.045  1.00  0.00     0.029 A 
ATOM     66  C   UNL A   1      43.093  32.052  29.398  1.00  0.00     0.049 A 
ATOM     67  H   UNL A   1      42.643  30.037  28.964  1.00  0.00     0.167 HD
ATOM     68  C   UNL A   1      45.120  31.226  28.230  1.00  0.00     0.074 A 
ATOM     69  C   UNL A   1      46.442  31.404  27.663  1.00  0.00     0.031 C 
ATOM     70  C   UNL A   1      44.413  32.206  28.843  1.00  0.00     0.037 A 
BRANCH  57  71
ATOM     71  C   UNL A   1      38.849  30.445  30.885  1.00  0.00     0.057 A 
ATOM     72  C   UNL A   1      37.744  30.969  30.203  1.00  0.00     0.134 A 
ATOM     73  C   UNL A   1      38.716  30.247  32.266  1.00  0.00     0.134 A 
ATOM     74  F   UNL A   1      37.805  31.197  28.882  1.00  0.00    -0.206 F 
ATOM     75  C   UNL A   1      36.563  31.303  30.872  1.00  0.00     0.040 A 
ATOM     76  C   UNL A   1      37.532  30.549  32.941  1.00  0.00     0.040 A 
ATOM     77  F   UNL A   1      39.733  29.744  32.984  1.00  0.00    -0.206 F 
ATOM     78  C   UNL A   1      36.453  31.086  32.244  1.00  0.00     0.006 A 
ENDBRANCH  57  71
BRANCH  58  79
ATOM     79  C   UNL A   1      47.162  27.543  26.133  1.00  0.00     0.057 A 
ATOM     80  C   UNL A   1      47.215  27.596  24.736  1.00  0.00     0.134 A 
ATOM     81  C   UNL A   1      48.303  27.081  26.803  1.00  0.00     0.134 A 
ATOM     82  F   UNL A   1      46.149  28.009  24.035  1.00  0.00    -0.206 F 
ATOM     83  C   UNL A   1      48.350  27.192  24.032  1.00  0.00     0.040 A 
ATOM     84  C   UNL A   1      49.457  26.708  26.113  1.00  0.00     0.040 A 
ATOM     85  F   UNL A   1      48.322  27.009  28.142  1.00  0.00    -0.206 F 
ATOM     86  C   UNL A   1      49.479  26.753  24.722  1.00  0.00     0.006 A 
ENDBRANCH  58  79
BRANCH  70  87
ATOM     87  C   UNL A   1      45.087  33.539  28.988  1.00  0.00     0.057 A 
ATOM     88  C   UNL A   1      45.921  33.839  30.073  1.00  0.00     0.134 A 
ATOM     89  C   UNL A   1      44.904  34.531  28.018  1.00  0.00     0.134 A 
ATOM     90  F   UNL A   1      46.123  32.936  31.045  1.00  0.00    -0.206 F 
ATOM     91  C   UNL A   1      46.524  35.090  30.202  1.00  0.00     0.040 A 
ATOM     92  C   UNL A   1      45.526  35.775  28.120  1.00  0.00     0.040 A 
ATOM     93  F   UNL A   1      44.123  34.305  26.950  1.00  0.00    -0.206 F 
ATOM     94  C   UNL A   1      46.331  36.060  29.220  1.00  0.00     0.006 A 
ENDBRANCH  70  87
ENDBRANCH  44  45
ENDBRANCH  37  39
ENDBRANCH  36  37
ENDBRANCH  35  36
ENDBRANCH  34  35
ENDBRANCH  33  34
ENDBRANCH   1  33
TORSDOF 17
ENDMDL
