MODEL 1
REMARK VINA RESULT:     -11.3      0.000      0.000
REMARK SMILES O=C(Cc1c[nH]c(=O)n(Cc2ccccc2)c1=O)OCCOC(=O)c1ccc(-c2c3nc(c(-c4c(F)cccc4F)c4ccc([nH]4)c(-c4c(F)cccc4F)c4nc(c(-c5c(F)cccc5F)c5ccc2[nH]5)C=C4)C=C3)cc1
REMARK SMILES IDX 20 1 19 2 2 3 1 4 3 5 4 6 5 7 17 8 6 9 9 10 18 11 7 12 8 14
REMARK SMILES IDX 10 15 11 16 12 17 16 18 13 19 15 20 14 21 21 22 22 23 23 24
REMARK SMILES IDX 24 25 25 26 26 27 78 28 27 29 77 30 28 31 29 32 30 33 71 34
REMARK SMILES IDX 31 35 76 36 70 37 72 38 32 39 75 40 69 41 68 42 33 44 59 45
REMARK SMILES IDX 42 46 58 47 43 48 46 49 57 50 73 51 44 52 45 53 56 55 74 56
REMARK SMILES IDX 47 57 34 58 35 59 40 60 36 61 37 62 39 63 41 64 38 65 60 66
REMARK SMILES IDX 61 67 66 68 62 69 63 70 65 71 67 72 64 73 48 74 49 75 54 76
REMARK SMILES IDX 50 77 51 78 53 79 55 80 52 81
REMARK H PARENT 6 13 72 43 46 54
REMARK Flexibility Score: inf
ROOT
ATOM      1  C   UNL A   1      31.355  32.246  26.862  1.00  0.00     0.274 C 
ENDROOT
BRANCH   1   2
ATOM      2  O   UNL A   1      31.657  31.124  26.002  1.00  0.00    -0.462 OA
BRANCH   2   3
ATOM      3  C   UNL A   1      32.240  29.961  26.378  1.00  0.00     0.310 C 
ATOM      4  O   UNL A   1      31.716  29.258  27.240  1.00  0.00    -0.252 OA
BRANCH   3   5
ATOM      5  C   UNL A   1      33.537  29.544  25.722  1.00  0.00     0.165 C 
BRANCH   5   6
ATOM      6  C   UNL A   1      33.432  28.607  24.559  1.00  0.00     0.045 A 
ATOM      7  C   UNL A   1      33.287  28.947  23.274  1.00  0.00     0.097 A 
ATOM      8  C   UNL A   1      33.544  27.153  24.887  1.00  0.00     0.260 A 
ATOM      9  N   UNL A   1      33.393  28.020  22.286  1.00  0.00    -0.314 N 
ATOM     10  N   UNL A   1      33.457  26.276  23.822  1.00  0.00    -0.256 N 
ATOM     11  O   UNL A   1      33.704  26.803  26.056  1.00  0.00    -0.269 OA
ATOM     12  C   UNL A   1      33.548  26.679  22.504  1.00  0.00     0.328 A 
ATOM     13  H   UNL A   1      33.356  28.334  21.354  1.00  0.00     0.171 HD
ATOM     14  O   UNL A   1      33.733  25.929  21.548  1.00  0.00    -0.248 OA
BRANCH  10  15
ATOM     15  C   UNL A   1      33.187  24.871  24.089  1.00  0.00     0.166 C 
BRANCH  15  16
ATOM     16  C   UNL A   1      34.513  24.143  24.246  1.00  0.00    -0.028 A 
ATOM     17  C   UNL A   1      35.269  24.305  25.420  1.00  0.00     0.005 A 
ATOM     18  C   UNL A   1      35.070  23.419  23.184  1.00  0.00     0.005 A 
ATOM     19  C   UNL A   1      36.565  23.802  25.514  1.00  0.00     0.000 A 
ATOM     20  C   UNL A   1      36.360  22.894  23.289  1.00  0.00     0.000 A 
ATOM     21  C   UNL A   1      37.112  23.099  24.446  1.00  0.00     0.000 A 
ENDBRANCH  15  16
ENDBRANCH  10  15
ENDBRANCH   5   6
ENDBRANCH   3   5
ENDBRANCH   2   3
ENDBRANCH   1   2
BRANCH   1  22
ATOM     22  C   UNL A   1      32.614  33.011  27.259  1.00  0.00     0.275 C 
BRANCH  22  23
ATOM     23  O   UNL A   1      32.305  33.905  28.342  1.00  0.00    -0.458 OA
BRANCH  23  24
ATOM     24  C   UNL A   1      33.258  34.816  28.655  1.00  0.00     0.338 C 
ATOM     25  O   UNL A   1      33.124  36.026  28.682  1.00  0.00    -0.246 OA
BRANCH  24  26
ATOM     26  C   UNL A   1      34.452  34.102  29.172  1.00  0.00     0.060 A 
ATOM     27  C   UNL A   1      35.748  34.448  28.772  1.00  0.00     0.016 A 
ATOM     28  C   UNL A   1      34.250  33.009  30.026  1.00  0.00     0.016 A 
ATOM     29  C   UNL A   1      36.835  33.704  29.232  1.00  0.00     0.010 A 
ATOM     30  C   UNL A   1      35.340  32.273  30.493  1.00  0.00     0.010 A 
ATOM     31  C   UNL A   1      36.641  32.621  30.106  1.00  0.00    -0.014 A 
BRANCH  31  32
ATOM     32  C   UNL A   1      37.818  31.945  30.701  1.00  0.00     0.031 A 
ATOM     33  C   UNL A   1      38.317  32.286  32.073  1.00  0.00     0.074 A 
ATOM     34  C   UNL A   1      38.433  30.989  29.977  1.00  0.00     0.049 A 
ATOM     35  N   UNL A   1      39.260  31.702  32.770  1.00  0.00    -0.248 NA
ATOM     36  C   UNL A   1      37.681  33.424  32.749  1.00  0.00     0.031 C 
ATOM     37  C   UNL A   1      38.061  30.596  28.617  1.00  0.00     0.029 A 
ATOM     38  N   UNL A   1      39.489  30.172  30.286  1.00  0.00    -0.354 N 
ATOM     39  C   UNL A   1      39.311  32.378  33.981  1.00  0.00     0.074 A 
ATOM     40  C   UNL A   1      38.340  33.451  33.901  1.00  0.00     0.031 C 
ATOM     41  C   UNL A   1      38.864  29.599  28.215  1.00  0.00     0.029 A 
ATOM     42  C   UNL A   1      39.815  29.298  29.280  1.00  0.00     0.049 A 
ATOM     43  H   UNL A   1      39.968  30.210  31.146  1.00  0.00     0.167 HD
ATOM     44  C   UNL A   1      40.080  32.113  35.065  1.00  0.00     0.037 A 
ATOM     45  C   UNL A   1      40.772  28.354  29.224  1.00  0.00     0.037 A 
ATOM     46  C   UNL A   1      41.073  31.068  35.128  1.00  0.00     0.049 A 
ATOM     47  C   UNL A   1      41.653  28.126  30.418  1.00  0.00     0.074 A 
ATOM     48  C   UNL A   1      41.885  30.710  36.192  1.00  0.00     0.029 A 
ATOM     49  N   UNL A   1      41.405  30.226  34.078  1.00  0.00    -0.354 N 
ATOM     50  N   UNL A   1      41.628  28.712  31.589  1.00  0.00    -0.248 NA
ATOM     51  C   UNL A   1      42.690  27.094  30.282  1.00  0.00     0.031 C 
ATOM     52  C   UNL A   1      42.740  29.684  35.770  1.00  0.00     0.029 A 
ATOM     53  C   UNL A   1      42.428  29.370  34.458  1.00  0.00     0.049 A 
ATOM     54  H   UNL A   1      40.977  30.235  33.191  1.00  0.00     0.167 HD
ATOM     55  C   UNL A   1      42.628  28.105  32.338  1.00  0.00     0.074 A 
ATOM     56  C   UNL A   1      43.223  27.089  31.495  1.00  0.00     0.031 C 
ATOM     57  C   UNL A   1      43.019  28.367  33.609  1.00  0.00     0.037 A 
BRANCH  44  58
ATOM     58  C   UNL A   1      39.874  32.966  36.284  1.00  0.00     0.057 A 
ATOM     59  C   UNL A   1      38.899  32.644  37.234  1.00  0.00     0.134 A 
ATOM     60  C   UNL A   1      40.607  34.144  36.483  1.00  0.00     0.134 A 
ATOM     61  F   UNL A   1      38.156  31.535  37.100  1.00  0.00    -0.206 F 
ATOM     62  C   UNL A   1      38.656  33.465  38.338  1.00  0.00     0.040 A 
ATOM     63  C   UNL A   1      40.388  34.962  37.593  1.00  0.00     0.040 A 
ATOM     64  F   UNL A   1      41.561  34.507  35.612  1.00  0.00    -0.206 F 
ATOM     65  C   UNL A   1      39.404  34.627  38.521  1.00  0.00     0.006 A 
ENDBRANCH  44  58
BRANCH  45  66
ATOM     66  C   UNL A   1      40.944  27.541  27.995  1.00  0.00     0.057 A 
ATOM     67  C   UNL A   1      40.308  26.303  27.849  1.00  0.00     0.134 A 
ATOM     68  C   UNL A   1      41.719  28.002  26.926  1.00  0.00     0.134 A 
ATOM     69  F   UNL A   1      39.558  25.805  28.843  1.00  0.00    -0.206 F 
ATOM     70  C   UNL A   1      40.433  25.553  26.680  1.00  0.00     0.040 A 
ATOM     71  C   UNL A   1      41.831  27.275  25.740  1.00  0.00     0.040 A 
ATOM     72  F   UNL A   1      42.338  29.189  27.002  1.00  0.00    -0.206 F 
ATOM     73  C   UNL A   1      41.188  26.044  25.617  1.00  0.00     0.006 A 
ENDBRANCH  45  66
BRANCH  57  74
ATOM     74  C   UNL A   1      44.132  27.524  34.161  1.00  0.00     0.057 A 
ATOM     75  C   UNL A   1      43.857  26.333  34.845  1.00  0.00     0.134 A 
ATOM     76  C   UNL A   1      45.478  27.884  34.007  1.00  0.00     0.134 A 
ATOM     77  F   UNL A   1      42.591  25.930  35.032  1.00  0.00    -0.206 F 
ATOM     78  C   UNL A   1      44.880  25.528  35.349  1.00  0.00     0.040 A 
ATOM     79  C   UNL A   1      46.510  27.073  34.483  1.00  0.00     0.040 A 
ATOM     80  F   UNL A   1      45.811  29.003  33.346  1.00  0.00    -0.206 F 
ATOM     81  C   UNL A   1      46.211  25.892  35.160  1.00  0.00     0.006 A 
ENDBRANCH  57  74
ENDBRANCH  31  32
ENDBRANCH  24  26
ENDBRANCH  23  24
ENDBRANCH  22  23
ENDBRANCH   1  22
TORSDOF 14
ENDMDL
MODEL 2
REMARK VINA RESULT:     -11.3      0.909      1.682
REMARK SMILES O=C(Cc1c[nH]c(=O)n(Cc2ccccc2)c1=O)OCCOC(=O)c1ccc(-c2c3nc(c(-c4c(F)cccc4F)c4ccc([nH]4)c(-c4c(F)cccc4F)c4nc(c(-c5c(F)cccc5F)c5ccc2[nH]5)C=C4)C=C3)cc1
REMARK SMILES IDX 20 1 19 2 2 3 1 4 3 5 4 6 5 7 17 8 6 9 9 10 18 11 7 12 8 14
REMARK SMILES IDX 10 15 11 16 12 17 16 18 13 19 15 20 14 21 21 22 22 23 23 24
REMARK SMILES IDX 24 25 25 26 26 27 78 28 27 29 77 30 28 31 29 32 30 33 71 34
REMARK SMILES IDX 31 35 76 36 70 37 72 38 32 39 75 40 69 41 68 42 33 44 59 45
REMARK SMILES IDX 42 46 58 47 43 48 46 49 57 50 73 51 44 52 45 53 56 55 74 56
REMARK SMILES IDX 47 57 34 58 35 59 40 60 36 61 37 62 39 63 41 64 38 65 60 66
REMARK SMILES IDX 61 67 66 68 62 69 63 70 65 71 67 72 64 73 48 74 49 75 54 76
REMARK SMILES IDX 50 77 51 78 53 79 55 80 52 81
REMARK H PARENT 6 13 72 43 46 54
REMARK Flexibility Score: inf
ROOT
ATOM      1  C   UNL A   1      32.118  30.873  26.377  1.00  0.00     0.274 C 
ENDROOT
BRANCH   1   2
ATOM      2  O   UNL A   1      31.665  29.820  27.256  1.00  0.00    -0.462 OA
BRANCH   2   3
ATOM      3  C   UNL A   1      32.084  28.532  27.245  1.00  0.00     0.310 C 
ATOM      4  O   UNL A   1      31.395  27.653  27.759  1.00  0.00    -0.252 OA
BRANCH   3   5
ATOM      5  C   UNL A   1      33.405  28.196  26.591  1.00  0.00     0.165 C 
BRANCH   5   6
ATOM      6  C   UNL A   1      33.344  27.606  25.216  1.00  0.00     0.045 A 
ATOM      7  C   UNL A   1      33.290  28.281  24.062  1.00  0.00     0.097 A 
ATOM      8  C   UNL A   1      33.393  26.114  25.148  1.00  0.00     0.260 A 
ATOM      9  N   UNL A   1      33.430  27.645  22.870  1.00  0.00    -0.314 N 
ATOM     10  N   UNL A   1      33.346  25.555  23.885  1.00  0.00    -0.256 N 
ATOM     11  O   UNL A   1      33.469  25.460  26.188  1.00  0.00    -0.269 OA
ATOM     12  C   UNL A   1      33.531  26.289  22.729  1.00  0.00     0.328 A 
ATOM     13  H   UNL A   1      33.459  28.196  22.055  1.00  0.00     0.171 HD
ATOM     14  O   UNL A   1      33.752  25.812  21.618  1.00  0.00    -0.248 OA
BRANCH  10  15
ATOM     15  C   UNL A   1      33.018  24.143  23.752  1.00  0.00     0.166 C 
BRANCH  15  16
ATOM     16  C   UNL A   1      34.252  23.324  24.099  1.00  0.00    -0.028 A 
ATOM     17  C   UNL A   1      35.475  23.592  23.459  1.00  0.00     0.005 A 
ATOM     18  C   UNL A   1      34.166  22.211  24.945  1.00  0.00     0.005 A 
ATOM     19  C   UNL A   1      36.568  22.743  23.619  1.00  0.00     0.000 A 
ATOM     20  C   UNL A   1      35.271  21.375  25.123  1.00  0.00     0.000 A 
ATOM     21  C   UNL A   1      36.465  21.632  24.449  1.00  0.00     0.000 A 
ENDBRANCH  15  16
ENDBRANCH  10  15
ENDBRANCH   5   6
ENDBRANCH   3   5
ENDBRANCH   2   3
ENDBRANCH   1   2
BRANCH   1  22
ATOM     22  C   UNL A   1      31.765  32.255  26.918  1.00  0.00     0.275 C 
BRANCH  22  23
ATOM     23  O   UNL A   1      32.916  33.113  26.818  1.00  0.00    -0.458 OA
BRANCH  23  24
ATOM     24  C   UNL A   1      33.251  33.796  27.939  1.00  0.00     0.338 C 
ATOM     25  O   UNL A   1      32.588  34.656  28.490  1.00  0.00    -0.246 OA
BRANCH  24  26
ATOM     26  C   UNL A   1      34.470  33.185  28.525  1.00  0.00     0.060 A 
ATOM     27  C   UNL A   1      35.731  33.777  28.386  1.00  0.00     0.016 A 
ATOM     28  C   UNL A   1      34.345  31.948  29.170  1.00  0.00     0.016 A 
ATOM     29  C   UNL A   1      36.858  33.132  28.896  1.00  0.00     0.010 A 
ATOM     30  C   UNL A   1      35.472  31.309  29.689  1.00  0.00     0.010 A 
ATOM     31  C   UNL A   1      36.736  31.901  29.563  1.00  0.00    -0.014 A 
BRANCH  31  32
ATOM     32  C   UNL A   1      37.922  31.313  30.229  1.00  0.00     0.031 A 
ATOM     33  C   UNL A   1      38.291  31.659  31.640  1.00  0.00     0.074 A 
ATOM     34  C   UNL A   1      38.668  30.433  29.533  1.00  0.00     0.049 A 
ATOM     35  N   UNL A   1      39.229  31.140  32.392  1.00  0.00    -0.248 NA
ATOM     36  C   UNL A   1      37.511  32.721  32.291  1.00  0.00     0.031 C 
ATOM     37  C   UNL A   1      38.430  30.046  28.141  1.00  0.00     0.029 A 
ATOM     38  N   UNL A   1      39.766  29.701  29.902  1.00  0.00    -0.354 N 
ATOM     39  C   UNL A   1      39.134  31.785  33.618  1.00  0.00     0.074 A 
ATOM     40  C   UNL A   1      38.082  32.774  33.488  1.00  0.00     0.031 C 
ATOM     41  C   UNL A   1      39.343  29.131  27.780  1.00  0.00     0.029 A 
ATOM     42  C   UNL A   1      40.238  28.884  28.905  1.00  0.00     0.049 A 
ATOM     43  H   UNL A   1      40.177  29.757  30.795  1.00  0.00     0.167 HD
ATOM     44  C   UNL A   1      39.844  31.559  34.750  1.00  0.00     0.037 A 
ATOM     45  C   UNL A   1      41.275  28.028  28.900  1.00  0.00     0.037 A 
ATOM     46  C   UNL A   1      40.917  30.601  34.864  1.00  0.00     0.049 A 
ATOM     47  C   UNL A   1      42.085  27.844  30.151  1.00  0.00     0.074 A 
ATOM     48  C   UNL A   1      41.679  30.286  35.977  1.00  0.00     0.029 A 
ATOM     49  N   UNL A   1      41.395  29.818  33.824  1.00  0.00    -0.354 N 
ATOM     50  N   UNL A   1      41.926  28.395  31.329  1.00  0.00    -0.248 NA
ATOM     51  C   UNL A   1      43.215  26.909  30.071  1.00  0.00     0.031 C 
ATOM     52  C   UNL A   1      42.648  29.348  35.599  1.00  0.00     0.029 A 
ATOM     53  C   UNL A   1      42.459  29.043  34.261  1.00  0.00     0.049 A 
ATOM     54  H   UNL A   1      41.032  29.814  32.909  1.00  0.00     0.167 HD
ATOM     55  C   UNL A   1      42.919  27.856  32.137  1.00  0.00     0.074 A 
ATOM     56  C   UNL A   1      43.659  26.917  31.319  1.00  0.00     0.031 C 
ATOM     57  C   UNL A   1      43.194  28.117  33.437  1.00  0.00     0.037 A 
BRANCH  44  58
ATOM     58  C   UNL A   1      39.478  32.359  35.967  1.00  0.00     0.057 A 
ATOM     59  C   UNL A   1      40.156  33.540  36.286  1.00  0.00     0.134 A 
ATOM     60  C   UNL A   1      38.487  31.921  36.856  1.00  0.00     0.134 A 
ATOM     61  F   UNL A   1      41.122  34.010  35.483  1.00  0.00    -0.206 F 
ATOM     62  C   UNL A   1      39.867  34.256  37.450  1.00  0.00     0.040 A 
ATOM     63  C   UNL A   1      38.173  32.640  38.011  1.00  0.00     0.040 A 
ATOM     64  F   UNL A   1      37.795  30.800  36.606  1.00  0.00    -0.206 F 
ATOM     65  C   UNL A   1      38.870  33.807  38.315  1.00  0.00     0.006 A 
ENDBRANCH  44  58
BRANCH  45  66
ATOM     66  C   UNL A   1      41.604  27.265  27.672  1.00  0.00     0.057 A 
ATOM     67  C   UNL A   1      41.097  25.979  27.458  1.00  0.00     0.134 A 
ATOM     68  C   UNL A   1      42.404  27.821  26.668  1.00  0.00     0.134 A 
ATOM     69  F   UNL A   1      40.330  25.390  28.387  1.00  0.00    -0.206 F 
ATOM     70  C   UNL A   1      41.370  25.273  26.287  1.00  0.00     0.040 A 
ATOM     71  C   UNL A   1      42.663  27.137  25.479  1.00  0.00     0.040 A 
ATOM     72  F   UNL A   1      42.904  29.058  26.809  1.00  0.00    -0.206 F 
ATOM     73  C   UNL A   1      42.146  25.857  25.288  1.00  0.00     0.006 A 
ENDBRANCH  45  66
BRANCH  57  74
ATOM     74  C   UNL A   1      44.334  27.358  34.053  1.00  0.00     0.057 A 
ATOM     75  C   UNL A   1      45.628  27.895  34.066  1.00  0.00     0.134 A 
ATOM     76  C   UNL A   1      44.151  26.100  34.643  1.00  0.00     0.134 A 
ATOM     77  F   UNL A   1      45.875  29.093  33.516  1.00  0.00    -0.206 F 
ATOM     78  C   UNL A   1      46.696  27.211  34.650  1.00  0.00     0.040 A 
ATOM     79  C   UNL A   1      45.206  25.419  35.254  1.00  0.00     0.040 A 
ATOM     80  F   UNL A   1      42.933  25.538  34.680  1.00  0.00    -0.206 F 
ATOM     81  C   UNL A   1      46.484  25.974  35.255  1.00  0.00     0.006 A 
ENDBRANCH  57  74
ENDBRANCH  31  32
ENDBRANCH  24  26
ENDBRANCH  23  24
ENDBRANCH  22  23
ENDBRANCH   1  22
TORSDOF 14
ENDMDL
MODEL 3
REMARK VINA RESULT:     -11.2      4.229      8.864
REMARK SMILES O=C(Cc1c[nH]c(=O)n(Cc2ccccc2)c1=O)OCCOC(=O)c1ccc(-c2c3nc(c(-c4c(F)cccc4F)c4ccc([nH]4)c(-c4c(F)cccc4F)c4nc(c(-c5c(F)cccc5F)c5ccc2[nH]5)C=C4)C=C3)cc1
REMARK SMILES IDX 20 1 19 2 2 3 1 4 3 5 4 6 5 7 17 8 6 9 9 10 18 11 7 12 8 14
REMARK SMILES IDX 10 15 11 16 12 17 16 18 13 19 15 20 14 21 21 22 22 23 23 24
REMARK SMILES IDX 24 25 25 26 26 27 78 28 27 29 77 30 28 31 29 32 30 33 71 34
REMARK SMILES IDX 31 35 76 36 70 37 72 38 32 39 75 40 69 41 68 42 33 44 59 45
REMARK SMILES IDX 42 46 58 47 43 48 46 49 57 50 73 51 44 52 45 53 56 55 74 56
REMARK SMILES IDX 47 57 34 58 35 59 40 60 36 61 37 62 39 63 41 64 38 65 60 66
REMARK SMILES IDX 61 67 66 68 62 69 63 70 65 71 67 72 64 73 48 74 49 75 54 76
REMARK SMILES IDX 50 77 51 78 53 79 55 80 52 81
REMARK H PARENT 6 13 72 43 46 54
REMARK Flexibility Score: inf
ROOT
ATOM      1  C   UNL A   1      38.076  21.217  25.355  1.00  0.00     0.274 C 
ENDROOT
BRANCH   1   2
ATOM      2  O   UNL A   1      37.067  21.505  24.361  1.00  0.00    -0.462 OA
BRANCH   2   3
ATOM      3  C   UNL A   1      36.630  22.734  23.998  1.00  0.00     0.310 C 
ATOM      4  O   UNL A   1      36.532  23.028  22.808  1.00  0.00    -0.252 OA
BRANCH   3   5
ATOM      5  C   UNL A   1      36.263  23.730  25.074  1.00  0.00     0.165 C 
BRANCH   5   6
ATOM      6  C   UNL A   1      34.863  23.667  25.601  1.00  0.00     0.045 A 
ATOM      7  C   UNL A   1      34.359  22.730  26.412  1.00  0.00     0.097 A 
ATOM      8  C   UNL A   1      33.968  24.796  25.202  1.00  0.00     0.260 A 
ATOM      9  N   UNL A   1      33.133  22.877  26.978  1.00  0.00    -0.314 N 
ATOM     10  N   UNL A   1      32.676  24.756  25.688  1.00  0.00    -0.256 N 
ATOM     11  O   UNL A   1      34.404  25.691  24.478  1.00  0.00    -0.269 OA
ATOM     12  C   UNL A   1      32.278  23.907  26.703  1.00  0.00     0.328 A 
ATOM     13  H   UNL A   1      32.842  22.197  27.627  1.00  0.00     0.171 HD
ATOM     14  O   UNL A   1      31.230  24.007  27.337  1.00  0.00    -0.248 OA
BRANCH  10  15
ATOM     15  C   UNL A   1      31.662  25.592  25.061  1.00  0.00     0.166 C 
BRANCH  15  16
ATOM     16  C   UNL A   1      31.830  27.017  25.564  1.00  0.00    -0.028 A 
ATOM     17  C   UNL A   1      32.153  27.253  26.912  1.00  0.00     0.005 A 
ATOM     18  C   UNL A   1      31.534  28.113  24.742  1.00  0.00     0.005 A 
ATOM     19  C   UNL A   1      32.131  28.543  27.439  1.00  0.00     0.000 A 
ATOM     20  C   UNL A   1      31.537  29.408  25.267  1.00  0.00     0.000 A 
ATOM     21  C   UNL A   1      31.819  29.620  26.617  1.00  0.00     0.000 A 
ENDBRANCH  15  16
ENDBRANCH  10  15
ENDBRANCH   5   6
ENDBRANCH   3   5
ENDBRANCH   2   3
ENDBRANCH   1   2
BRANCH   1  22
ATOM     22  C   UNL A   1      38.890  19.978  24.995  1.00  0.00     0.275 C 
BRANCH  22  23
ATOM     23  O   UNL A   1      39.596  19.517  26.160  1.00  0.00    -0.458 OA
BRANCH  23  24
ATOM     24  C   UNL A   1      40.948  19.582  26.104  1.00  0.00     0.338 C 
ATOM     25  O   UNL A   1      41.693  18.762  25.597  1.00  0.00    -0.246 OA
BRANCH  24  26
ATOM     26  C   UNL A   1      41.384  20.920  26.573  1.00  0.00     0.060 A 
ATOM     27  C   UNL A   1      42.066  21.809  25.735  1.00  0.00     0.016 A 
ATOM     28  C   UNL A   1      41.159  21.255  27.915  1.00  0.00     0.016 A 
ATOM     29  C   UNL A   1      42.515  23.030  26.240  1.00  0.00     0.010 A 
ATOM     30  C   UNL A   1      41.599  22.482  28.416  1.00  0.00     0.010 A 
ATOM     31  C   UNL A   1      42.273  23.381  27.579  1.00  0.00    -0.014 A 
BRANCH  31  32
ATOM     32  C   UNL A   1      42.622  24.742  28.049  1.00  0.00     0.031 A 
ATOM     33  C   UNL A   1      41.588  25.817  28.202  1.00  0.00     0.074 A 
ATOM     34  C   UNL A   1      43.909  24.995  28.358  1.00  0.00     0.049 A 
ATOM     35  N   UNL A   1      41.722  27.017  28.710  1.00  0.00    -0.248 NA
ATOM     36  C   UNL A   1      40.233  25.510  27.724  1.00  0.00     0.031 C 
ATOM     37  C   UNL A   1      45.010  24.041  28.216  1.00  0.00     0.029 A 
ATOM     38  N   UNL A   1      44.505  26.123  28.862  1.00  0.00    -0.354 N 
ATOM     39  C   UNL A   1      40.464  27.599  28.646  1.00  0.00     0.074 A 
ATOM     40  C   UNL A   1      39.592  26.640  27.998  1.00  0.00     0.031 C 
ATOM     41  C   UNL A   1      46.145  24.617  28.643  1.00  0.00     0.029 A 
ATOM     42  C   UNL A   1      45.854  25.981  29.068  1.00  0.00     0.049 A 
ATOM     43  H   UNL A   1      44.012  26.953  29.056  1.00  0.00     0.167 HD
ATOM     44  C   UNL A   1      40.070  28.813  29.105  1.00  0.00     0.037 A 
ATOM     45  C   UNL A   1      46.756  26.854  29.551  1.00  0.00     0.037 A 
ATOM     46  C   UNL A   1      40.949  29.782  29.714  1.00  0.00     0.049 A 
ATOM     47  C   UNL A   1      46.301  28.216  29.992  1.00  0.00     0.074 A 
ATOM     48  C   UNL A   1      40.635  31.029  30.230  1.00  0.00     0.029 A 
ATOM     49  N   UNL A   1      42.317  29.621  29.872  1.00  0.00    -0.354 N 
ATOM     50  N   UNL A   1      45.092  28.719  30.010  1.00  0.00    -0.248 NA
ATOM     51  C   UNL A   1      47.341  29.126  30.491  1.00  0.00     0.031 C 
ATOM     52  C   UNL A   1      41.820  31.641  30.656  1.00  0.00     0.029 A 
ATOM     53  C   UNL A   1      42.865  30.757  30.450  1.00  0.00     0.049 A 
ATOM     54  H   UNL A   1      42.824  28.819  29.611  1.00  0.00     0.167 HD
ATOM     55  C   UNL A   1      45.220  29.995  30.543  1.00  0.00     0.074 A 
ATOM     56  C   UNL A   1      46.622  30.178  30.857  1.00  0.00     0.031 C 
ATOM     57  C   UNL A   1      44.264  30.932  30.751  1.00  0.00     0.037 A 
BRANCH  44  58
ATOM     58  C   UNL A   1      38.616  29.162  28.972  1.00  0.00     0.057 A 
ATOM     59  C   UNL A   1      38.094  29.636  27.764  1.00  0.00     0.134 A 
ATOM     60  C   UNL A   1      37.744  29.084  30.067  1.00  0.00     0.134 A 
ATOM     61  F   UNL A   1      38.875  29.744  26.679  1.00  0.00    -0.206 F 
ATOM     62  C   UNL A   1      36.757  30.024  27.649  1.00  0.00     0.040 A 
ATOM     63  C   UNL A   1      36.401  29.449  29.959  1.00  0.00     0.040 A 
ATOM     64  F   UNL A   1      38.180  28.633  31.253  1.00  0.00    -0.206 F 
ATOM     65  C   UNL A   1      35.906  29.928  28.748  1.00  0.00     0.006 A 
ENDBRANCH  44  58
BRANCH  45  66
ATOM     66  C   UNL A   1      48.183  26.467  29.656  1.00  0.00     0.057 A 
ATOM     67  C   UNL A   1      49.095  26.770  28.637  1.00  0.00     0.134 A 
ATOM     68  C   UNL A   1      48.676  25.818  30.793  1.00  0.00     0.134 A 
ATOM     69  F   UNL A   1      48.681  27.384  27.519  1.00  0.00    -0.206 F 
ATOM     70  C   UNL A   1      50.446  26.445  28.747  1.00  0.00     0.040 A 
ATOM     71  C   UNL A   1      50.030  25.511  30.929  1.00  0.00     0.040 A 
ATOM     72  F   UNL A   1      47.853  25.518  31.809  1.00  0.00    -0.206 F 
ATOM     73  C   UNL A   1      50.919  25.823  29.901  1.00  0.00     0.006 A 
ENDBRANCH  45  66
BRANCH  57  74
ATOM     74  C   UNL A   1      44.709  32.229  31.365  1.00  0.00     0.057 A 
ATOM     75  C   UNL A   1      44.749  32.386  32.756  1.00  0.00     0.134 A 
ATOM     76  C   UNL A   1      45.109  33.318  30.580  1.00  0.00     0.134 A 
ATOM     77  F   UNL A   1      44.376  31.384  33.567  1.00  0.00    -0.206 F 
ATOM     78  C   UNL A   1      45.177  33.577  33.343  1.00  0.00     0.040 A 
ATOM     79  C   UNL A   1      45.565  34.505  31.156  1.00  0.00     0.040 A 
ATOM     80  F   UNL A   1      45.112  33.227  29.241  1.00  0.00    -0.206 F 
ATOM     81  C   UNL A   1      45.597  34.638  32.543  1.00  0.00     0.006 A 
ENDBRANCH  57  74
ENDBRANCH  31  32
ENDBRANCH  24  26
ENDBRANCH  23  24
ENDBRANCH  22  23
ENDBRANCH   1  22
TORSDOF 14
ENDMDL
