MODEL 1
REMARK VINA RESULT:     -10.8      0.000      0.000
REMARK SMILES CC[C@H]1CCCC[C@@H]1C1(C(=O)OCCOC(=O)c2ccc(-c3c4nc(c(-c5c(F)cccc5F)c5ccc([nH]5)c(-c5c(F)cccc5F)c5nc(c(-c6c(F)cccc6F)c6ccc3[nH]6)C=C5)C=C4)cc2)CC1
REMARK SMILES IDX 13 1 12 2 10 3 11 4 9 5 72 6 73 7 8 8 3 9 4 10 5 11 7 12
REMARK SMILES IDX 6 13 2 14 1 15 14 16 15 17 16 18 17 19 18 20 19 21 71 22
REMARK SMILES IDX 20 23 70 24 21 25 22 26 23 27 64 28 24 29 69 30 63 31 65 32
REMARK SMILES IDX 25 33 68 34 62 35 61 36 26 38 52 39 35 40 51 41 36 42 39 43
REMARK SMILES IDX 50 44 66 45 37 46 38 47 49 49 67 50 40 51 27 52 28 53 33 54
REMARK SMILES IDX 29 55 30 56 32 57 34 58 31 59 53 60 54 61 59 62 55 63 56 64
REMARK SMILES IDX 58 65 60 66 57 67 41 68 42 69 47 70 43 71 44 72 46 73 48 74
REMARK SMILES IDX 45 75
REMARK H PARENT 65 37 39 48
REMARK Flexibility Score: inf
ROOT
ATOM      1  C   UNL A   1      31.078  28.312  24.728  1.00  0.00     0.274 C 
ENDROOT
BRANCH   1   2
ATOM      2  O   UNL A   1      31.958  27.185  24.914  1.00  0.00    -0.462 OA
BRANCH   2   3
ATOM      3  C   UNL A   1      31.616  26.297  25.883  1.00  0.00     0.312 C 
ATOM      4  O   UNL A   1      30.939  26.529  26.876  1.00  0.00    -0.252 OA
BRANCH   3   5
ATOM      5  C   UNL A   1      32.053  24.889  25.533  1.00  0.00     0.071 C 
ATOM      6  C   UNL A   1      30.957  23.822  25.607  1.00  0.00     0.020 C 
ATOM      7  C   UNL A   1      32.049  23.826  26.626  1.00  0.00     0.020 C 
BRANCH   5   8
ATOM      8  C   UNL A   1      33.250  24.839  24.554  1.00  0.00     0.009 C 
ATOM      9  C   UNL A   1      33.141  23.896  23.310  1.00  0.00    -0.007 C 
ATOM     10  C   UNL A   1      34.284  22.877  23.217  1.00  0.00     0.004 C 
ATOM     11  C   UNL A   1      35.645  23.464  23.535  1.00  0.00     0.000 C 
ATOM     12  C   UNL A   1      34.570  24.829  25.376  1.00  0.00     0.005 C 
ATOM     13  C   UNL A   1      35.679  23.870  24.990  1.00  0.00     0.000 C 
BRANCH   9  14
ATOM     14  C   UNL A   1      32.896  24.748  22.024  1.00  0.00     0.000 C 
ATOM     15  C   UNL A   1      33.287  26.220  22.042  1.00  0.00     0.004 C 
ENDBRANCH   9  14
ENDBRANCH   5   8
ENDBRANCH   3   5
ENDBRANCH   2   3
ENDBRANCH   1   2
BRANCH   1  16
ATOM     16  C   UNL A   1      31.865  29.601  24.995  1.00  0.00     0.275 C 
BRANCH  16  17
ATOM     17  O   UNL A   1      32.178  29.674  26.399  1.00  0.00    -0.458 OA
BRANCH  17  18
ATOM     18  C   UNL A   1      32.593  30.884  26.861  1.00  0.00     0.338 C 
ATOM     19  O   UNL A   1      31.947  31.918  26.844  1.00  0.00    -0.246 OA
BRANCH  18  20
ATOM     20  C   UNL A   1      33.943  30.758  27.486  1.00  0.00     0.060 A 
ATOM     21  C   UNL A   1      34.515  29.503  27.672  1.00  0.00     0.016 A 
ATOM     22  C   UNL A   1      34.609  31.877  28.002  1.00  0.00     0.016 A 
ATOM     23  C   UNL A   1      35.648  29.360  28.464  1.00  0.00     0.010 A 
ATOM     24  C   UNL A   1      35.834  31.729  28.687  1.00  0.00     0.010 A 
ATOM     25  C   UNL A   1      36.365  30.456  28.946  1.00  0.00    -0.014 A 
BRANCH  25  26
ATOM     26  C   UNL A   1      37.634  30.217  29.705  1.00  0.00     0.031 A 
ATOM     27  C   UNL A   1      38.783  29.471  29.079  1.00  0.00     0.074 A 
ATOM     28  C   UNL A   1      37.816  30.742  30.938  1.00  0.00     0.049 A 
ATOM     29  N   UNL A   1      39.857  28.976  29.646  1.00  0.00    -0.248 NA
ATOM     30  C   UNL A   1      38.724  29.263  27.626  1.00  0.00     0.031 C 
ATOM     31  C   UNL A   1      36.870  31.607  31.647  1.00  0.00     0.029 A 
ATOM     32  N   UNL A   1      38.878  30.649  31.810  1.00  0.00    -0.354 N 
ATOM     33  C   UNL A   1      40.559  28.330  28.637  1.00  0.00     0.074 A 
ATOM     34  C   UNL A   1      39.807  28.527  27.414  1.00  0.00     0.031 C 
ATOM     35  C   UNL A   1      37.418  32.025  32.795  1.00  0.00     0.029 A 
ATOM     36  C   UNL A   1      38.679  31.324  32.992  1.00  0.00     0.049 A 
ATOM     37  H   UNL A   1      39.701  30.148  31.607  1.00  0.00     0.167 HD
ATOM     38  C   UNL A   1      41.708  27.616  28.731  1.00  0.00     0.037 A 
ATOM     39  C   UNL A   1      39.371  31.321  34.147  1.00  0.00     0.037 A 
ATOM     40  C   UNL A   1      42.473  27.461  29.945  1.00  0.00     0.049 A 
ATOM     41  C   UNL A   1      40.576  30.436  34.270  1.00  0.00     0.074 A 
ATOM     42  C   UNL A   1      43.619  26.713  30.157  1.00  0.00     0.029 A 
ATOM     43  N   UNL A   1      42.175  28.078  31.152  1.00  0.00    -0.354 N 
ATOM     44  N   UNL A   1      41.155  29.698  33.355  1.00  0.00    -0.248 NA
ATOM     45  C   UNL A   1      41.198  30.345  35.598  1.00  0.00     0.031 C 
ATOM     46  C   UNL A   1      43.982  26.834  31.504  1.00  0.00     0.029 A 
ATOM     47  C   UNL A   1      43.098  27.706  32.118  1.00  0.00     0.049 A 
ATOM     48  H   UNL A   1      41.419  28.691  31.301  1.00  0.00     0.167 HD
ATOM     49  C   UNL A   1      42.210  29.060  33.992  1.00  0.00     0.074 A 
ATOM     50  C   UNL A   1      42.207  29.519  35.367  1.00  0.00     0.031 C 
ATOM     51  C   UNL A   1      43.092  28.166  33.484  1.00  0.00     0.037 A 
BRANCH  38  52
ATOM     52  C   UNL A   1      42.145  26.855  27.511  1.00  0.00     0.057 A 
ATOM     53  C   UNL A   1      42.953  27.412  26.514  1.00  0.00     0.134 A 
ATOM     54  C   UNL A   1      41.731  25.526  27.336  1.00  0.00     0.134 A 
ATOM     55  F   UNL A   1      43.374  28.683  26.609  1.00  0.00    -0.206 F 
ATOM     56  C   UNL A   1      43.300  26.690  25.368  1.00  0.00     0.040 A 
ATOM     57  C   UNL A   1      42.095  24.785  26.211  1.00  0.00     0.040 A 
ATOM     58  F   UNL A   1      40.963  24.925  28.257  1.00  0.00    -0.206 F 
ATOM     59  C   UNL A   1      42.873  25.371  25.216  1.00  0.00     0.006 A 
ENDBRANCH  38  52
BRANCH  39  60
ATOM     60  C   UNL A   1      38.874  32.096  35.315  1.00  0.00     0.057 A 
ATOM     61  C   UNL A   1      39.103  33.471  35.429  1.00  0.00     0.134 A 
ATOM     62  C   UNL A   1      38.153  31.479  36.349  1.00  0.00     0.134 A 
ATOM     63  F   UNL A   1      39.813  34.117  34.492  1.00  0.00    -0.206 F 
ATOM     64  C   UNL A   1      38.637  34.203  36.525  1.00  0.00     0.040 A 
ATOM     65  C   UNL A   1      37.650  32.203  37.430  1.00  0.00     0.040 A 
ATOM     66  F   UNL A   1      37.903  30.162  36.309  1.00  0.00    -0.206 F 
ATOM     67  C   UNL A   1      37.897  33.570  37.522  1.00  0.00     0.006 A 
ENDBRANCH  39  60
BRANCH  51  68
ATOM     68  C   UNL A   1      44.156  27.650  34.410  1.00  0.00     0.057 A 
ATOM     69  C   UNL A   1      44.005  26.451  35.119  1.00  0.00     0.134 A 
ATOM     70  C   UNL A   1      45.358  28.350  34.573  1.00  0.00     0.134 A 
ATOM     71  F   UNL A   1      42.870  25.742  35.022  1.00  0.00    -0.206 F 
ATOM     72  C   UNL A   1      45.005  25.976  35.970  1.00  0.00     0.040 A 
ATOM     73  C   UNL A   1      46.377  27.870  35.399  1.00  0.00     0.040 A 
ATOM     74  F   UNL A   1      45.570  29.503  33.921  1.00  0.00    -0.206 F 
ATOM     75  C   UNL A   1      46.198  26.683  36.104  1.00  0.00     0.006 A 
ENDBRANCH  51  68
ENDBRANCH  25  26
ENDBRANCH  18  20
ENDBRANCH  17  18
ENDBRANCH  16  17
ENDBRANCH   1  16
TORSDOF 13
ENDMDL
MODEL 2
REMARK VINA RESULT:     -10.8      4.006      8.821
REMARK SMILES CC[C@H]1CCCC[C@@H]1C1(C(=O)OCCOC(=O)c2ccc(-c3c4nc(c(-c5c(F)cccc5F)c5ccc([nH]5)c(-c5c(F)cccc5F)c5nc(c(-c6c(F)cccc6F)c6ccc3[nH]6)C=C5)C=C4)cc2)CC1
REMARK SMILES IDX 13 1 12 2 10 3 11 4 9 5 72 6 73 7 8 8 3 9 4 10 5 11 7 12
REMARK SMILES IDX 6 13 2 14 1 15 14 16 15 17 16 18 17 19 18 20 19 21 71 22
REMARK SMILES IDX 20 23 70 24 21 25 22 26 23 27 64 28 24 29 69 30 63 31 65 32
REMARK SMILES IDX 25 33 68 34 62 35 61 36 26 38 52 39 35 40 51 41 36 42 39 43
REMARK SMILES IDX 50 44 66 45 37 46 38 47 49 49 67 50 40 51 27 52 28 53 33 54
REMARK SMILES IDX 29 55 30 56 32 57 34 58 31 59 53 60 54 61 59 62 55 63 56 64
REMARK SMILES IDX 58 65 60 66 57 67 41 68 42 69 47 70 43 71 44 72 46 73 48 74
REMARK SMILES IDX 45 75
REMARK H PARENT 65 37 39 48
REMARK Flexibility Score: inf
ROOT
ATOM      1  C   UNL A   1      34.433  21.570  24.581  1.00  0.00     0.274 C 
ENDROOT
BRANCH   1   2
ATOM      2  O   UNL A   1      34.312  22.993  24.780  1.00  0.00    -0.462 OA
BRANCH   2   3
ATOM      3  C   UNL A   1      34.453  23.778  23.680  1.00  0.00     0.312 C 
ATOM      4  O   UNL A   1      35.228  23.594  22.750  1.00  0.00    -0.252 OA
BRANCH   3   5
ATOM      5  C   UNL A   1      33.414  24.880  23.640  1.00  0.00     0.071 C 
ATOM      6  C   UNL A   1      32.574  24.946  22.362  1.00  0.00     0.020 C 
ATOM      7  C   UNL A   1      33.584  26.012  22.633  1.00  0.00     0.020 C 
BRANCH   5   8
ATOM      8  C   UNL A   1      32.904  25.299  25.039  1.00  0.00     0.009 C 
ATOM      9  C   UNL A   1      31.368  25.538  25.218  1.00  0.00    -0.007 C 
ATOM     10  C   UNL A   1      31.027  26.934  25.755  1.00  0.00     0.004 C 
ATOM     11  C   UNL A   1      31.943  27.391  26.874  1.00  0.00     0.000 C 
ATOM     12  C   UNL A   1      33.889  26.341  25.642  1.00  0.00     0.005 C 
ATOM     13  C   UNL A   1      33.337  27.578  26.323  1.00  0.00     0.000 C 
BRANCH   9  14
ATOM     14  C   UNL A   1      30.738  24.344  26.006  1.00  0.00     0.000 C 
ATOM     15  C   UNL A   1      31.649  23.488  26.876  1.00  0.00     0.004 C 
ENDBRANCH   9  14
ENDBRANCH   5   8
ENDBRANCH   3   5
ENDBRANCH   2   3
ENDBRANCH   1   2
BRANCH   1  16
ATOM     16  C   UNL A   1      35.612  21.055  25.414  1.00  0.00     0.275 C 
BRANCH  16  17
ATOM     17  O   UNL A   1      36.816  21.713  24.977  1.00  0.00    -0.458 OA
BRANCH  17  18
ATOM     18  C   UNL A   1      37.981  21.245  25.500  1.00  0.00     0.338 C 
ATOM     19  O   UNL A   1      38.394  20.100  25.422  1.00  0.00    -0.246 OA
BRANCH  18  20
ATOM     20  C   UNL A   1      38.750  22.365  26.121  1.00  0.00     0.060 A 
ATOM     21  C   UNL A   1      38.315  23.679  25.976  1.00  0.00     0.016 A 
ATOM     22  C   UNL A   1      39.976  22.134  26.757  1.00  0.00     0.016 A 
ATOM     23  C   UNL A   1      39.144  24.734  26.337  1.00  0.00     0.010 A 
ATOM     24  C   UNL A   1      40.745  23.213  27.243  1.00  0.00     0.010 A 
ATOM     25  C   UNL A   1      40.345  24.540  27.022  1.00  0.00    -0.014 A 
BRANCH  25  26
ATOM     26  C   UNL A   1      41.129  25.736  27.467  1.00  0.00     0.031 A 
ATOM     27  C   UNL A   1      40.525  26.759  28.394  1.00  0.00     0.074 A 
ATOM     28  C   UNL A   1      42.428  25.885  27.121  1.00  0.00     0.049 A 
ATOM     29  N   UNL A   1      40.960  27.956  28.703  1.00  0.00    -0.248 NA
ATOM     30  C   UNL A   1      39.277  26.381  29.070  1.00  0.00     0.031 C 
ATOM     31  C   UNL A   1      43.220  24.928  26.343  1.00  0.00     0.029 A 
ATOM     32  N   UNL A   1      43.328  26.888  27.402  1.00  0.00    -0.354 N 
ATOM     33  C   UNL A   1      40.000  28.506  29.544  1.00  0.00     0.074 A 
ATOM     34  C   UNL A   1      38.977  27.496  29.725  1.00  0.00     0.031 C 
ATOM     35  C   UNL A   1      44.490  25.346  26.279  1.00  0.00     0.029 A 
ATOM     36  C   UNL A   1      44.572  26.680  26.855  1.00  0.00     0.049 A 
ATOM     37  H   UNL A   1      43.102  27.679  27.944  1.00  0.00     0.167 HD
ATOM     38  C   UNL A   1      39.966  29.748  30.087  1.00  0.00     0.037 A 
ATOM     39  C   UNL A   1      45.641  27.491  26.738  1.00  0.00     0.037 A 
ATOM     40  C   UNL A   1      41.010  30.732  29.935  1.00  0.00     0.049 A 
ATOM     41  C   UNL A   1      45.543  28.900  27.244  1.00  0.00     0.074 A 
ATOM     42  C   UNL A   1      41.045  32.036  30.401  1.00  0.00     0.029 A 
ATOM     43  N   UNL A   1      42.213  30.514  29.279  1.00  0.00    -0.354 N 
ATOM     44  N   UNL A   1      44.568  29.473  27.906  1.00  0.00    -0.248 NA
ATOM     45  C   UNL A   1      46.674  29.790  26.946  1.00  0.00     0.031 C 
ATOM     46  C   UNL A   1      42.243  32.624  29.977  1.00  0.00     0.029 A 
ATOM     47  C   UNL A   1      42.984  31.667  29.302  1.00  0.00     0.049 A 
ATOM     48  H   UNL A   1      42.481  29.666  28.858  1.00  0.00     0.167 HD
ATOM     49  C   UNL A   1      44.968  30.787  28.109  1.00  0.00     0.074 A 
ATOM     50  C   UNL A   1      46.287  30.918  27.523  1.00  0.00     0.031 C 
ATOM     51  C   UNL A   1      44.296  31.794  28.718  1.00  0.00     0.037 A 
BRANCH  38  52
ATOM     52  C   UNL A   1      38.706  30.149  30.802  1.00  0.00     0.057 A 
ATOM     53  C   UNL A   1      37.651  30.819  30.170  1.00  0.00     0.134 A 
ATOM     54  C   UNL A   1      38.559  29.860  32.166  1.00  0.00     0.134 A 
ATOM     55  F   UNL A   1      37.730  31.140  28.870  1.00  0.00    -0.206 F 
ATOM     56  C   UNL A   1      36.514  31.221  30.879  1.00  0.00     0.040 A 
ATOM     57  C   UNL A   1      37.417  30.230  32.877  1.00  0.00     0.040 A 
ATOM     58  F   UNL A   1      39.526  29.212  32.833  1.00  0.00    -0.206 F 
ATOM     59  C   UNL A   1      36.395  30.923  32.235  1.00  0.00     0.006 A 
ENDBRANCH  38  52
BRANCH  39  60
ATOM     60  C   UNL A   1      46.853  27.026  26.011  1.00  0.00     0.057 A 
ATOM     61  C   UNL A   1      47.902  26.384  26.678  1.00  0.00     0.134 A 
ATOM     62  C   UNL A   1      46.992  27.210  24.627  1.00  0.00     0.134 A 
ATOM     63  F   UNL A   1      47.847  26.206  28.007  1.00  0.00    -0.206 F 
ATOM     64  C   UNL A   1      49.041  25.946  25.999  1.00  0.00     0.040 A 
ATOM     65  C   UNL A   1      48.106  26.744  23.930  1.00  0.00     0.040 A 
ATOM     66  F   UNL A   1      46.027  27.825  23.925  1.00  0.00    -0.206 F 
ATOM     67  C   UNL A   1      49.139  26.114  24.619  1.00  0.00     0.006 A 
ENDBRANCH  39  60
BRANCH  51  68
ATOM     68  C   UNL A   1      44.990  33.122  28.814  1.00  0.00     0.057 A 
ATOM     69  C   UNL A   1      44.810  34.125  27.853  1.00  0.00     0.134 A 
ATOM     70  C   UNL A   1      45.828  33.410  29.898  1.00  0.00     0.134 A 
ATOM     71  F   UNL A   1      44.035  33.907  26.780  1.00  0.00    -0.206 F 
ATOM     72  C   UNL A   1      45.452  35.360  27.958  1.00  0.00     0.040 A 
ATOM     73  C   UNL A   1      46.454  34.651  30.029  1.00  0.00     0.040 A 
ATOM     74  F   UNL A   1      46.042  32.495  30.856  1.00  0.00    -0.206 F 
ATOM     75  C   UNL A   1      46.271  35.627  29.054  1.00  0.00     0.006 A 
ENDBRANCH  51  68
ENDBRANCH  25  26
ENDBRANCH  18  20
ENDBRANCH  17  18
ENDBRANCH  16  17
ENDBRANCH   1  16
TORSDOF 13
ENDMDL
MODEL 3
REMARK VINA RESULT:     -10.8      4.044      8.783
REMARK SMILES CC[C@H]1CCCC[C@@H]1C1(C(=O)OCCOC(=O)c2ccc(-c3c4nc(c(-c5c(F)cccc5F)c5ccc([nH]5)c(-c5c(F)cccc5F)c5nc(c(-c6c(F)cccc6F)c6ccc3[nH]6)C=C5)C=C4)cc2)CC1
REMARK SMILES IDX 13 1 12 2 10 3 11 4 9 5 72 6 73 7 8 8 3 9 4 10 5 11 7 12
REMARK SMILES IDX 6 13 2 14 1 15 14 16 15 17 16 18 17 19 18 20 19 21 71 22
REMARK SMILES IDX 20 23 70 24 21 25 22 26 23 27 64 28 24 29 69 30 63 31 65 32
REMARK SMILES IDX 25 33 68 34 62 35 61 36 26 38 52 39 35 40 51 41 36 42 39 43
REMARK SMILES IDX 50 44 66 45 37 46 38 47 49 49 67 50 40 51 27 52 28 53 33 54
REMARK SMILES IDX 29 55 30 56 32 57 34 58 31 59 53 60 54 61 59 62 55 63 56 64
REMARK SMILES IDX 58 65 60 66 57 67 41 68 42 69 47 70 43 71 44 72 46 73 48 74
REMARK SMILES IDX 45 75
REMARK H PARENT 65 37 39 48
REMARK Flexibility Score: inf
ROOT
ATOM      1  C   UNL A   1      34.447  20.812  24.913  1.00  0.00     0.274 C 
ENDROOT
BRANCH   1   2
ATOM      2  O   UNL A   1      33.450  21.847  24.796  1.00  0.00    -0.462 OA
BRANCH   2   3
ATOM      3  C   UNL A   1      33.772  22.921  24.029  1.00  0.00     0.312 C 
ATOM      4  O   UNL A   1      34.208  22.893  22.885  1.00  0.00    -0.252 OA
BRANCH   3   5
ATOM      5  C   UNL A   1      33.393  24.225  24.701  1.00  0.00     0.071 C 
ATOM      6  C   UNL A   1      34.448  24.810  25.644  1.00  0.00     0.020 C 
ATOM      7  C   UNL A   1      33.190  24.238  26.212  1.00  0.00     0.020 C 
BRANCH   5   8
ATOM      8  C   UNL A   1      32.391  25.074  23.883  1.00  0.00     0.009 C 
ATOM      9  C   UNL A   1      32.801  26.539  23.516  1.00  0.00    -0.007 C 
ATOM     10  C   UNL A   1      31.792  27.591  23.995  1.00  0.00     0.004 C 
ATOM     11  C   UNL A   1      30.347  27.189  23.772  1.00  0.00     0.000 C 
ATOM     12  C   UNL A   1      30.957  24.821  24.427  1.00  0.00     0.005 C 
ATOM     13  C   UNL A   1      30.027  25.998  24.645  1.00  0.00     0.000 C 
BRANCH   9  14
ATOM     14  C   UNL A   1      33.181  26.615  22.002  1.00  0.00     0.000 C 
ATOM     15  C   UNL A   1      32.528  25.633  21.039  1.00  0.00     0.004 C 
ENDBRANCH   9  14
ENDBRANCH   5   8
ENDBRANCH   3   5
ENDBRANCH   2   3
ENDBRANCH   1   2
BRANCH   1  16
ATOM     16  C   UNL A   1      35.531  21.281  25.890  1.00  0.00     0.275 C 
BRANCH  16  17
ATOM     17  O   UNL A   1      36.646  21.796  25.138  1.00  0.00    -0.458 OA
BRANCH  17  18
ATOM     18  C   UNL A   1      37.877  21.345  25.501  1.00  0.00     0.338 C 
ATOM     19  O   UNL A   1      38.323  20.229  25.293  1.00  0.00    -0.246 OA
BRANCH  18  20
ATOM     20  C   UNL A   1      38.664  22.449  26.126  1.00  0.00     0.060 A 
ATOM     21  C   UNL A   1      38.255  23.771  25.979  1.00  0.00     0.016 A 
ATOM     22  C   UNL A   1      39.883  22.196  26.767  1.00  0.00     0.016 A 
ATOM     23  C   UNL A   1      39.102  24.811  26.343  1.00  0.00     0.010 A 
ATOM     24  C   UNL A   1      40.670  23.260  27.257  1.00  0.00     0.010 A 
ATOM     25  C   UNL A   1      40.295  24.595  27.033  1.00  0.00    -0.014 A 
BRANCH  25  26
ATOM     26  C   UNL A   1      41.100  25.776  27.482  1.00  0.00     0.031 A 
ATOM     27  C   UNL A   1      40.516  26.802  28.418  1.00  0.00     0.074 A 
ATOM     28  C   UNL A   1      42.399  25.906  27.131  1.00  0.00     0.049 A 
ATOM     29  N   UNL A   1      40.970  27.991  28.731  1.00  0.00    -0.248 NA
ATOM     30  C   UNL A   1      39.264  26.440  29.097  1.00  0.00     0.031 C 
ATOM     31  C   UNL A   1      43.173  24.942  26.345  1.00  0.00     0.029 A 
ATOM     32  N   UNL A   1      43.316  26.894  27.415  1.00  0.00    -0.354 N 
ATOM     33  C   UNL A   1      40.023  28.551  29.580  1.00  0.00     0.074 A 
ATOM     34  C   UNL A   1      38.985  27.556  29.760  1.00  0.00     0.031 C 
ATOM     35  C   UNL A   1      44.450  25.340  26.278  1.00  0.00     0.029 A 
ATOM     36  C   UNL A   1      44.555  26.670  26.861  1.00  0.00     0.049 A 
ATOM     37  H   UNL A   1      43.105  27.685  27.962  1.00  0.00     0.167 HD
ATOM     38  C   UNL A   1      40.010  29.790  30.130  1.00  0.00     0.037 A 
ATOM     39  C   UNL A   1      45.636  27.465  26.744  1.00  0.00     0.037 A 
ATOM     40  C   UNL A   1      41.069  30.759  29.980  1.00  0.00     0.049 A 
ATOM     41  C   UNL A   1      45.561  28.872  27.258  1.00  0.00     0.074 A 
ATOM     42  C   UNL A   1      41.126  32.059  30.452  1.00  0.00     0.029 A 
ATOM     43  N   UNL A   1      42.266  30.526  29.317  1.00  0.00    -0.354 N 
ATOM     44  N   UNL A   1      44.599  29.457  27.928  1.00  0.00    -0.248 NA
ATOM     45  C   UNL A   1      46.705  29.746  26.961  1.00  0.00     0.031 C 
ATOM     46  C   UNL A   1      42.332  32.631  30.027  1.00  0.00     0.029 A 
ATOM     47  C   UNL A   1      43.054  31.667  29.343  1.00  0.00     0.049 A 
ATOM     48  H   UNL A   1      42.518  29.676  28.890  1.00  0.00     0.167 HD
ATOM     49  C   UNL A   1      45.020  30.762  28.137  1.00  0.00     0.074 A 
ATOM     50  C   UNL A   1      46.338  30.877  27.546  1.00  0.00     0.031 C 
ATOM     51  C   UNL A   1      44.366  31.776  28.754  1.00  0.00     0.037 A 
BRANCH  38  52
ATOM     52  C   UNL A   1      38.760  30.206  30.853  1.00  0.00     0.057 A 
ATOM     53  C   UNL A   1      38.568  30.003  32.224  1.00  0.00     0.134 A 
ATOM     54  C   UNL A   1      37.719  30.822  30.142  1.00  0.00     0.134 A 
ATOM     55  F   UNL A   1      39.516  29.407  32.963  1.00  0.00    -0.206 F 
ATOM     56  C   UNL A   1      37.371  30.359  32.854  1.00  0.00     0.040 A 
ATOM     57  C   UNL A   1      36.532  31.209  30.765  1.00  0.00     0.040 A 
ATOM     58  F   UNL A   1      37.839  31.058  28.827  1.00  0.00    -0.206 F 
ATOM     59  C   UNL A   1      36.351  30.967  32.124  1.00  0.00     0.006 A 
ENDBRANCH  38  52
BRANCH  39  60
ATOM     60  C   UNL A   1      46.837  26.985  26.009  1.00  0.00     0.057 A 
ATOM     61  C   UNL A   1      47.872  26.312  26.666  1.00  0.00     0.134 A 
ATOM     62  C   UNL A   1      46.979  27.188  24.628  1.00  0.00     0.134 A 
ATOM     63  F   UNL A   1      47.814  26.114  27.991  1.00  0.00    -0.206 F 
ATOM     64  C   UNL A   1      49.002  25.859  25.979  1.00  0.00     0.040 A 
ATOM     65  C   UNL A   1      48.083  26.709  23.924  1.00  0.00     0.040 A 
ATOM     66  F   UNL A   1      46.028  27.833  23.936  1.00  0.00    -0.206 F 
ATOM     67  C   UNL A   1      49.102  26.046  24.602  1.00  0.00     0.006 A 
ENDBRANCH  39  60
BRANCH  51  68
ATOM     68  C   UNL A   1      45.081  33.093  28.855  1.00  0.00     0.057 A 
ATOM     69  C   UNL A   1      45.952  33.386  29.912  1.00  0.00     0.134 A 
ATOM     70  C   UNL A   1      44.916  34.069  27.864  1.00  0.00     0.134 A 
ATOM     71  F   UNL A   1      46.139  32.501  30.903  1.00  0.00    -0.206 F 
ATOM     72  C   UNL A   1      46.618  34.610  29.990  1.00  0.00     0.040 A 
ATOM     73  C   UNL A   1      45.599  35.285  27.917  1.00  0.00     0.040 A 
ATOM     74  F   UNL A   1      44.100  33.852  26.822  1.00  0.00    -0.206 F 
ATOM     75  C   UNL A   1      46.448  35.560  28.985  1.00  0.00     0.006 A 
ENDBRANCH  51  68
ENDBRANCH  25  26
ENDBRANCH  18  20
ENDBRANCH  17  18
ENDBRANCH  16  17
ENDBRANCH   1  16
TORSDOF 13
ENDMDL
