MODEL 1
REMARK VINA RESULT:     -11.4      0.000      0.000
REMARK SMILES Cc1cc(C(=O)N[C@@H](Cc2ccccc2)C(=O)OCCOC(=O)c2ccc(-c3c4nc(c(-c5c(F)cccc5F)c5ccc([nH]5)c(-c5c(F)cccc5F)c5nc(c(-c6c(F)cccc6F)c6ccc3[nH]6)C=C5)C=C4)cc2)c(C)o1
REMARK SMILES IDX 19 1 18 2 16 3 17 4 8 5 7 6 5 7 6 8 4 10 1 11 2 12 3 13
REMARK SMILES IDX 80 14 78 15 79 16 9 17 10 18 11 19 15 20 12 21 14 22 13 23
REMARK SMILES IDX 20 24 21 25 22 26 23 27 24 28 25 29 77 30 26 31 76 32 27 33
REMARK SMILES IDX 28 34 29 35 70 36 30 37 75 38 69 39 71 40 31 41 74 42 68 43
REMARK SMILES IDX 67 44 32 46 58 47 41 48 57 49 42 50 45 51 56 52 72 53 43 54
REMARK SMILES IDX 44 55 55 57 73 58 46 59 33 60 34 61 39 62 35 63 36 64 38 65
REMARK SMILES IDX 40 66 37 67 59 68 60 69 65 70 61 71 62 72 64 73 66 74 63 75
REMARK SMILES IDX 47 76 48 77 53 78 49 79 50 80 52 81 54 82 51 83
REMARK H PARENT 7 9 71 45 45 56
REMARK Flexibility Score: inf
ROOT
ATOM      1  C   UNL A   1      35.198  20.688  24.733  1.00  0.00     0.274 C 
ENDROOT
BRANCH   1   2
ATOM      2  O   UNL A   1      35.161  22.086  25.077  1.00  0.00    -0.461 OA
BRANCH   2   3
ATOM      3  C   UNL A   1      34.392  22.427  26.148  1.00  0.00     0.329 C 
ATOM      4  O   UNL A   1      34.439  21.898  27.254  1.00  0.00    -0.250 OA
BRANCH   3   5
ATOM      5  C   UNL A   1      33.386  23.538  25.805  1.00  0.00     0.197 C 
BRANCH   5   6
ATOM      6  N   UNL A   1      32.101  23.391  26.492  1.00  0.00    -0.338 N 
ATOM      7  C   UNL A   1      30.889  24.020  26.421  1.00  0.00     0.255 C 
ATOM      8  O   UNL A   1      30.080  23.684  27.287  1.00  0.00    -0.269 OA
ATOM      9  H   UNL A   1      32.112  22.670  27.161  1.00  0.00     0.164 HD
BRANCH   7  10
ATOM     10  C   UNL A   1      30.533  24.989  25.380  1.00  0.00     0.081 A 
ATOM     11  C   UNL A   1      29.865  28.123  23.463  1.00  0.00     0.087 C 
ATOM     12  C   UNL A   1      30.084  26.807  24.097  1.00  0.00     0.101 A 
ATOM     13  C   UNL A   1      30.163  26.371  25.402  1.00  0.00     0.059 A 
ATOM     14  O   UNL A   1      30.273  25.765  23.257  1.00  0.00    -0.466 OA
ATOM     15  C   UNL A   1      30.514  24.665  24.021  1.00  0.00     0.113 A 
ATOM     16  C   UNL A   1      30.727  23.428  23.233  1.00  0.00     0.088 C 
ENDBRANCH   7  10
ENDBRANCH   5   6
BRANCH   5  17
ATOM     17  C   UNL A   1      34.016  24.915  26.093  1.00  0.00     0.072 C 
BRANCH  17  18
ATOM     18  C   UNL A   1      33.925  25.875  24.926  1.00  0.00    -0.045 A 
ATOM     19  C   UNL A   1      33.786  27.252  25.164  1.00  0.00     0.004 A 
ATOM     20  C   UNL A   1      33.889  25.408  23.606  1.00  0.00     0.004 A 
ATOM     21  C   UNL A   1      33.587  28.138  24.105  1.00  0.00     0.000 A 
ATOM     22  C   UNL A   1      33.680  26.297  22.550  1.00  0.00     0.000 A 
ATOM     23  C   UNL A   1      33.526  27.660  22.800  1.00  0.00     0.000 A 
ENDBRANCH  17  18
ENDBRANCH   5  17
ENDBRANCH   3   5
ENDBRANCH   2   3
ENDBRANCH   1   2
BRANCH   1  24
ATOM     24  C   UNL A   1      36.607  20.147  24.957  1.00  0.00     0.275 C 
BRANCH  24  25
ATOM     25  O   UNL A   1      37.504  21.242  25.199  1.00  0.00    -0.458 OA
BRANCH  25  26
ATOM     26  C   UNL A   1      38.692  20.903  25.753  1.00  0.00     0.338 C 
ATOM     27  O   UNL A   1      39.243  19.815  25.737  1.00  0.00    -0.246 OA
BRANCH  26  28
ATOM     28  C   UNL A   1      39.291  22.093  26.366  1.00  0.00     0.060 A 
ATOM     29  C   UNL A   1      38.746  23.342  26.082  1.00  0.00     0.016 A 
ATOM     30  C   UNL A   1      40.458  21.983  27.116  1.00  0.00     0.016 A 
ATOM     31  C   UNL A   1      39.402  24.498  26.500  1.00  0.00     0.010 A 
ATOM     32  C   UNL A   1      41.087  23.143  27.581  1.00  0.00     0.010 A 
ATOM     33  C   UNL A   1      40.585  24.414  27.248  1.00  0.00    -0.014 A 
BRANCH  33  34
ATOM     34  C   UNL A   1      41.332  25.647  27.610  1.00  0.00     0.031 A 
ATOM     35  C   UNL A   1      40.682  26.686  28.486  1.00  0.00     0.074 A 
ATOM     36  C   UNL A   1      42.596  25.841  27.188  1.00  0.00     0.049 A 
ATOM     37  N   UNL A   1      41.073  27.909  28.748  1.00  0.00    -0.248 NA
ATOM     38  C   UNL A   1      39.423  26.303  29.142  1.00  0.00     0.031 C 
ATOM     39  C   UNL A   1      43.378  24.899  26.388  1.00  0.00     0.029 A 
ATOM     40  N   UNL A   1      43.448  26.900  27.383  1.00  0.00    -0.354 N 
ATOM     41  C   UNL A   1      40.072  28.462  29.536  1.00  0.00     0.074 A 
ATOM     42  C   UNL A   1      39.066  27.439  29.724  1.00  0.00     0.031 C 
ATOM     43  C   UNL A   1      44.605  25.407  26.187  1.00  0.00     0.029 A 
ATOM     44  C   UNL A   1      44.670  26.742  26.775  1.00  0.00     0.049 A 
ATOM     45  H   UNL A   1      43.206  27.698  27.907  1.00  0.00     0.167 HD
ATOM     46  C   UNL A   1      39.998  29.712  30.052  1.00  0.00     0.037 A 
ATOM     47  C   UNL A   1      45.710  27.589  26.667  1.00  0.00     0.037 A 
ATOM     48  C   UNL A   1      41.033  30.707  29.936  1.00  0.00     0.049 A 
ATOM     49  C   UNL A   1      45.608  28.970  27.248  1.00  0.00     0.074 A 
ATOM     50  C   UNL A   1      41.052  31.997  30.437  1.00  0.00     0.029 A 
ATOM     51  N   UNL A   1      42.246  30.507  29.296  1.00  0.00    -0.354 N 
ATOM     52  N   UNL A   1      44.619  29.514  27.913  1.00  0.00    -0.248 NA
ATOM     53  C   UNL A   1      46.757  29.863  27.039  1.00  0.00     0.031 C 
ATOM     54  C   UNL A   1      42.272  32.585  30.086  1.00  0.00     0.029 A 
ATOM     55  C   UNL A   1      43.021  31.652  29.390  1.00  0.00     0.049 A 
ATOM     56  H   UNL A   1      42.517  29.677  28.843  1.00  0.00     0.167 HD
ATOM     57  C   UNL A   1      45.025  30.810  28.201  1.00  0.00     0.074 A 
ATOM     58  C   UNL A   1      46.359  30.964  27.661  1.00  0.00     0.031 C 
ATOM     59  C   UNL A   1      44.347  31.789  28.847  1.00  0.00     0.037 A 
BRANCH  46  60
ATOM     60  C   UNL A   1      38.735  30.092  30.765  1.00  0.00     0.057 A 
ATOM     61  C   UNL A   1      38.563  29.885  32.138  1.00  0.00     0.134 A 
ATOM     62  C   UNL A   1      37.692  30.713  30.065  1.00  0.00     0.134 A 
ATOM     63  F   UNL A   1      39.521  29.285  32.860  1.00  0.00    -0.206 F 
ATOM     64  C   UNL A   1      37.388  30.267  32.788  1.00  0.00     0.040 A 
ATOM     65  C   UNL A   1      36.521  31.117  30.708  1.00  0.00     0.040 A 
ATOM     66  F   UNL A   1      37.798  30.944  28.748  1.00  0.00    -0.206 F 
ATOM     67  C   UNL A   1      36.366  30.890  32.074  1.00  0.00     0.006 A 
ENDBRANCH  46  60
BRANCH  47  68
ATOM     68  C   UNL A   1      46.932  27.166  25.939  1.00  0.00     0.057 A 
ATOM     69  C   UNL A   1      47.949  26.462  26.591  1.00  0.00     0.134 A 
ATOM     70  C   UNL A   1      47.107  27.451  24.580  1.00  0.00     0.134 A 
ATOM     71  F   UNL A   1      47.847  26.183  27.899  1.00  0.00    -0.206 F 
ATOM     72  C   UNL A   1      49.105  26.061  25.919  1.00  0.00     0.040 A 
ATOM     73  C   UNL A   1      48.246  27.035  23.889  1.00  0.00     0.040 A 
ATOM     74  F   UNL A   1      46.165  28.122  23.902  1.00  0.00    -0.206 F 
ATOM     75  C   UNL A   1      49.251  26.341  24.561  1.00  0.00     0.006 A 
ENDBRANCH  47  68
BRANCH  59  76
ATOM     76  C   UNL A   1      45.043  33.104  29.017  1.00  0.00     0.057 A 
ATOM     77  C   UNL A   1      45.887  33.349  30.107  1.00  0.00     0.134 A 
ATOM     78  C   UNL A   1      44.895  34.121  28.066  1.00  0.00     0.134 A 
ATOM     79  F   UNL A   1      46.059  32.418  31.056  1.00  0.00    -0.206 F 
ATOM     80  C   UNL A   1      46.550  34.569  30.252  1.00  0.00     0.040 A 
ATOM     81  C   UNL A   1      45.565  35.338  28.193  1.00  0.00     0.040 A 
ATOM     82  F   UNL A   1      44.103  33.944  26.998  1.00  0.00    -0.206 F 
ATOM     83  C   UNL A   1      46.393  35.566  29.290  1.00  0.00     0.006 A 
ENDBRANCH  59  76
ENDBRANCH  33  34
ENDBRANCH  26  28
ENDBRANCH  25  26
ENDBRANCH  24  25
ENDBRANCH   1  24
TORSDOF 15
ENDMDL
MODEL 2
REMARK VINA RESULT:     -11.2      0.975      1.387
REMARK SMILES Cc1cc(C(=O)N[C@@H](Cc2ccccc2)C(=O)OCCOC(=O)c2ccc(-c3c4nc(c(-c5c(F)cccc5F)c5ccc([nH]5)c(-c5c(F)cccc5F)c5nc(c(-c6c(F)cccc6F)c6ccc3[nH]6)C=C5)C=C4)cc2)c(C)o1
REMARK SMILES IDX 19 1 18 2 16 3 17 4 8 5 7 6 5 7 6 8 4 10 1 11 2 12 3 13
REMARK SMILES IDX 80 14 78 15 79 16 9 17 10 18 11 19 15 20 12 21 14 22 13 23
REMARK SMILES IDX 20 24 21 25 22 26 23 27 24 28 25 29 77 30 26 31 76 32 27 33
REMARK SMILES IDX 28 34 29 35 70 36 30 37 75 38 69 39 71 40 31 41 74 42 68 43
REMARK SMILES IDX 67 44 32 46 58 47 41 48 57 49 42 50 45 51 56 52 72 53 43 54
REMARK SMILES IDX 44 55 55 57 73 58 46 59 33 60 34 61 39 62 35 63 36 64 38 65
REMARK SMILES IDX 40 66 37 67 59 68 60 69 65 70 61 71 62 72 64 73 66 74 63 75
REMARK SMILES IDX 47 76 48 77 53 78 49 79 50 80 52 81 54 82 51 83
REMARK H PARENT 7 9 71 45 45 56
REMARK Flexibility Score: inf
ROOT
ATOM      1  C   UNL A   1      34.936  21.471  24.849  1.00  0.00     0.274 C 
ENDROOT
BRANCH   1   2
ATOM      2  O   UNL A   1      35.207  22.879  24.983  1.00  0.00    -0.461 OA
BRANCH   2   3
ATOM      3  C   UNL A   1      34.964  23.651  23.887  1.00  0.00     0.329 C 
ATOM      4  O   UNL A   1      35.645  23.671  22.867  1.00  0.00    -0.250 OA
BRANCH   3   5
ATOM      5  C   UNL A   1      33.743  24.564  24.085  1.00  0.00     0.197 C 
BRANCH   5   6
ATOM      6  N   UNL A   1      32.467  23.892  23.826  1.00  0.00    -0.338 N 
ATOM      7  C   UNL A   1      31.213  24.303  23.469  1.00  0.00     0.255 C 
ATOM      8  O   UNL A   1      30.354  23.419  23.485  1.00  0.00    -0.269 OA
ATOM      9  H   UNL A   1      32.527  22.916  23.936  1.00  0.00     0.164 HD
BRANCH   7  10
ATOM     10  C   UNL A   1      30.892  25.670  23.047  1.00  0.00     0.081 A 
ATOM     11  C   UNL A   1      29.753  29.224  22.941  1.00  0.00     0.087 C 
ATOM     12  C   UNL A   1      30.240  27.834  22.835  1.00  0.00     0.101 A 
ATOM     13  C   UNL A   1      30.021  26.683  23.561  1.00  0.00     0.059 A 
ATOM     14  O   UNL A   1      31.110  27.581  21.832  1.00  0.00    -0.466 OA
ATOM     15  C   UNL A   1      31.482  26.277  21.936  1.00  0.00     0.113 A 
ATOM     16  C   UNL A   1      32.432  25.843  20.884  1.00  0.00     0.088 C 
ENDBRANCH   7  10
ENDBRANCH   5   6
BRANCH   5  17
ATOM     17  C   UNL A   1      33.773  25.173  25.499  1.00  0.00     0.072 C 
BRANCH  17  18
ATOM     18  C   UNL A   1      33.346  26.626  25.539  1.00  0.00    -0.045 A 
ATOM     19  C   UNL A   1      32.395  27.047  26.482  1.00  0.00     0.004 A 
ATOM     20  C   UNL A   1      33.817  27.545  24.594  1.00  0.00     0.004 A 
ATOM     21  C   UNL A   1      31.905  28.353  26.461  1.00  0.00     0.000 A 
ATOM     22  C   UNL A   1      33.318  28.848  24.569  1.00  0.00     0.000 A 
ATOM     23  C   UNL A   1      32.360  29.251  25.499  1.00  0.00     0.000 A 
ENDBRANCH  17  18
ENDBRANCH   5  17
ENDBRANCH   3   5
ENDBRANCH   2   3
ENDBRANCH   1   2
BRANCH   1  24
ATOM     24  C   UNL A   1      36.217  20.681  25.099  1.00  0.00     0.275 C 
BRANCH  24  25
ATOM     25  O   UNL A   1      37.348  21.558  24.979  1.00  0.00    -0.458 OA
BRANCH  25  26
ATOM     26  C   UNL A   1      38.467  21.147  25.619  1.00  0.00     0.338 C 
ATOM     27  O   UNL A   1      38.946  20.025  25.647  1.00  0.00    -0.246 OA
BRANCH  26  28
ATOM     28  C   UNL A   1      39.098  22.301  26.270  1.00  0.00     0.060 A 
ATOM     29  C   UNL A   1      38.598  23.574  26.011  1.00  0.00     0.016 A 
ATOM     30  C   UNL A   1      40.250  22.132  27.032  1.00  0.00     0.016 A 
ATOM     31  C   UNL A   1      39.287  24.696  26.467  1.00  0.00     0.010 A 
ATOM     32  C   UNL A   1      40.910  23.258  27.535  1.00  0.00     0.010 A 
ATOM     33  C   UNL A   1      40.455  24.554  27.228  1.00  0.00    -0.014 A 
BRANCH  33  34
ATOM     34  C   UNL A   1      41.239  25.751  27.631  1.00  0.00     0.031 A 
ATOM     35  C   UNL A   1      40.611  26.791  28.522  1.00  0.00     0.074 A 
ATOM     36  C   UNL A   1      42.515  25.911  27.234  1.00  0.00     0.049 A 
ATOM     37  N   UNL A   1      41.038  27.993  28.819  1.00  0.00    -0.248 NA
ATOM     38  C   UNL A   1      39.328  26.437  29.148  1.00  0.00     0.031 C 
ATOM     39  C   UNL A   1      43.278  24.962  26.423  1.00  0.00     0.029 A 
ATOM     40  N   UNL A   1      43.400  26.936  27.467  1.00  0.00    -0.354 N 
ATOM     41  C   UNL A   1      40.044  28.562  29.604  1.00  0.00     0.074 A 
ATOM     42  C   UNL A   1      39.001  27.571  29.752  1.00  0.00     0.031 C 
ATOM     43  C   UNL A   1      44.525  25.432  26.254  1.00  0.00     0.029 A 
ATOM     44  C   UNL A   1      44.625  26.750  26.875  1.00  0.00     0.049 A 
ATOM     45  H   UNL A   1      43.177  27.728  28.006  1.00  0.00     0.167 HD
ATOM     46  C   UNL A   1      40.005  29.802  30.149  1.00  0.00     0.037 A 
ATOM     47  C   UNL A   1      45.696  27.562  26.803  1.00  0.00     0.037 A 
ATOM     48  C   UNL A   1      41.074  30.762  30.073  1.00  0.00     0.049 A 
ATOM     49  C   UNL A   1      45.631  28.932  27.415  1.00  0.00     0.074 A 
ATOM     50  C   UNL A   1      41.130  32.039  30.605  1.00  0.00     0.029 A 
ATOM     51  N   UNL A   1      42.291  30.536  29.448  1.00  0.00    -0.354 N 
ATOM     52  N   UNL A   1      44.651  29.494  28.078  1.00  0.00    -0.248 NA
ATOM     53  C   UNL A   1      46.813  29.789  27.246  1.00  0.00     0.031 C 
ATOM     54  C   UNL A   1      42.374  32.593  30.287  1.00  0.00     0.029 A 
ATOM     55  C   UNL A   1      43.103  31.651  29.581  1.00  0.00     0.049 A 
ATOM     56  H   UNL A   1      42.541  29.708  28.978  1.00  0.00     0.167 HD
ATOM     57  C   UNL A   1      45.096  30.768  28.404  1.00  0.00     0.074 A 
ATOM     58  C   UNL A   1      46.444  30.889  27.888  1.00  0.00     0.031 C 
ATOM     59  C   UNL A   1      44.441  31.755  29.062  1.00  0.00     0.037 A 
BRANCH  46  60
ATOM     60  C   UNL A   1      38.744  30.209  30.851  1.00  0.00     0.057 A 
ATOM     61  C   UNL A   1      38.547  29.986  32.218  1.00  0.00     0.134 A 
ATOM     62  C   UNL A   1      37.729  30.870  30.146  1.00  0.00     0.134 A 
ATOM     63  F   UNL A   1      39.478  29.347  32.943  1.00  0.00    -0.206 F 
ATOM     64  C   UNL A   1      37.375  30.393  32.858  1.00  0.00     0.040 A 
ATOM     65  C   UNL A   1      36.562  31.299  30.781  1.00  0.00     0.040 A 
ATOM     66  F   UNL A   1      37.860  31.117  28.835  1.00  0.00    -0.206 F 
ATOM     67  C   UNL A   1      36.382  31.057  32.141  1.00  0.00     0.006 A 
ENDBRANCH  46  60
BRANCH  47  68
ATOM     68  C   UNL A   1      46.914  27.114  26.085  1.00  0.00     0.057 A 
ATOM     69  C   UNL A   1      47.942  26.449  26.759  1.00  0.00     0.134 A 
ATOM     70  C   UNL A   1      47.075  27.337  24.712  1.00  0.00     0.134 A 
ATOM     71  F   UNL A   1      47.854  26.230  28.080  1.00  0.00    -0.206 F 
ATOM     72  C   UNL A   1      49.094  26.024  26.096  1.00  0.00     0.040 A 
ATOM     73  C   UNL A   1      48.211  26.897  24.031  1.00  0.00     0.040 A 
ATOM     74  F   UNL A   1      46.122  27.969  24.012  1.00  0.00    -0.206 F 
ATOM     75  C   UNL A   1      49.227  26.242  24.725  1.00  0.00     0.006 A 
ENDBRANCH  47  68
BRANCH  59  76
ATOM     76  C   UNL A   1      45.179  33.041  29.274  1.00  0.00     0.057 A 
ATOM     77  C   UNL A   1      46.002  33.236  30.390  1.00  0.00     0.134 A 
ATOM     78  C   UNL A   1      45.092  34.079  28.339  1.00  0.00     0.134 A 
ATOM     79  F   UNL A   1      46.115  32.282  31.326  1.00  0.00    -0.206 F 
ATOM     80  C   UNL A   1      46.704  34.427  30.574  1.00  0.00     0.040 A 
ATOM     81  C   UNL A   1      45.802  35.268  28.505  1.00  0.00     0.040 A 
ATOM     82  F   UNL A   1      44.323  33.950  27.247  1.00  0.00    -0.206 F 
ATOM     83  C   UNL A   1      46.608  35.447  29.628  1.00  0.00     0.006 A 
ENDBRANCH  59  76
ENDBRANCH  33  34
ENDBRANCH  26  28
ENDBRANCH  25  26
ENDBRANCH  24  25
ENDBRANCH   1  24
TORSDOF 15
ENDMDL
MODEL 3
REMARK VINA RESULT:     -11.2      1.208      2.354
REMARK SMILES Cc1cc(C(=O)N[C@@H](Cc2ccccc2)C(=O)OCCOC(=O)c2ccc(-c3c4nc(c(-c5c(F)cccc5F)c5ccc([nH]5)c(-c5c(F)cccc5F)c5nc(c(-c6c(F)cccc6F)c6ccc3[nH]6)C=C5)C=C4)cc2)c(C)o1
REMARK SMILES IDX 19 1 18 2 16 3 17 4 8 5 7 6 5 7 6 8 4 10 1 11 2 12 3 13
REMARK SMILES IDX 80 14 78 15 79 16 9 17 10 18 11 19 15 20 12 21 14 22 13 23
REMARK SMILES IDX 20 24 21 25 22 26 23 27 24 28 25 29 77 30 26 31 76 32 27 33
REMARK SMILES IDX 28 34 29 35 70 36 30 37 75 38 69 39 71 40 31 41 74 42 68 43
REMARK SMILES IDX 67 44 32 46 58 47 41 48 57 49 42 50 45 51 56 52 72 53 43 54
REMARK SMILES IDX 44 55 55 57 73 58 46 59 33 60 34 61 39 62 35 63 36 64 38 65
REMARK SMILES IDX 40 66 37 67 59 68 60 69 65 70 61 71 62 72 64 73 66 74 63 75
REMARK SMILES IDX 47 76 48 77 53 78 49 79 50 80 52 81 54 82 51 83
REMARK H PARENT 7 9 71 45 45 56
REMARK Flexibility Score: inf
ROOT
ATOM      1  C   UNL A   1      34.786  21.560  24.559  1.00  0.00     0.274 C 
ENDROOT
BRANCH   1   2
ATOM      2  O   UNL A   1      35.166  22.935  24.363  1.00  0.00    -0.461 OA
BRANCH   2   3
ATOM      3  C   UNL A   1      34.694  23.830  25.275  1.00  0.00     0.329 C 
ATOM      4  O   UNL A   1      34.706  23.679  26.492  1.00  0.00    -0.250 OA
BRANCH   3   5
ATOM      5  C   UNL A   1      34.073  25.065  24.601  1.00  0.00     0.197 C 
BRANCH   5   6
ATOM      6  N   UNL A   1      33.964  24.939  23.146  1.00  0.00    -0.338 N 
ATOM      7  C   UNL A   1      33.238  25.569  22.173  1.00  0.00     0.255 C 
ATOM      8  O   UNL A   1      33.329  25.066  21.052  1.00  0.00    -0.269 OA
ATOM      9  H   UNL A   1      34.550  24.237  22.784  1.00  0.00     0.164 HD
BRANCH   7  10
ATOM     10  C   UNL A   1      32.442  26.778  22.403  1.00  0.00     0.081 A 
ATOM     11  C   UNL A   1      29.700  29.172  23.238  1.00  0.00     0.087 C 
ATOM     12  C   UNL A   1      30.870  28.347  22.873  1.00  0.00     0.101 A 
ATOM     13  C   UNL A   1      31.036  27.033  22.491  1.00  0.00     0.059 A 
ATOM     14  O   UNL A   1      32.073  28.962  22.926  1.00  0.00    -0.466 OA
ATOM     15  C   UNL A   1      33.017  28.034  22.617  1.00  0.00     0.113 A 
ATOM     16  C   UNL A   1      34.400  28.567  22.618  1.00  0.00     0.088 C 
ENDBRANCH   7  10
ENDBRANCH   5   6
BRANCH   5  17
ATOM     17  C   UNL A   1      32.703  25.370  25.237  1.00  0.00     0.072 C 
BRANCH  17  18
ATOM     18  C   UNL A   1      32.656  26.702  25.957  1.00  0.00    -0.045 A 
ATOM     19  C   UNL A   1      33.837  27.437  26.141  1.00  0.00     0.004 A 
ATOM     20  C   UNL A   1      31.465  27.177  26.522  1.00  0.00     0.004 A 
ATOM     21  C   UNL A   1      33.832  28.609  26.899  1.00  0.00     0.000 A 
ATOM     22  C   UNL A   1      31.466  28.344  27.287  1.00  0.00     0.000 A 
ATOM     23  C   UNL A   1      32.648  29.057  27.479  1.00  0.00     0.000 A 
ENDBRANCH  17  18
ENDBRANCH   5  17
ENDBRANCH   3   5
ENDBRANCH   2   3
ENDBRANCH   1   2
BRANCH   1  24
ATOM     24  C   UNL A   1      35.984  20.769  25.075  1.00  0.00     0.275 C 
BRANCH  24  25
ATOM     25  O   UNL A   1      37.187  21.513  24.824  1.00  0.00    -0.458 OA
BRANCH  25  26
ATOM     26  C   UNL A   1      38.287  21.066  25.475  1.00  0.00     0.338 C 
ATOM     27  O   UNL A   1      38.735  19.931  25.498  1.00  0.00    -0.246 OA
BRANCH  26  28
ATOM     28  C   UNL A   1      38.940  22.196  26.144  1.00  0.00     0.060 A 
ATOM     29  C   UNL A   1      38.422  23.475  25.962  1.00  0.00     0.016 A 
ATOM     30  C   UNL A   1      40.127  22.005  26.844  1.00  0.00     0.016 A 
ATOM     31  C   UNL A   1      39.124  24.583  26.432  1.00  0.00     0.010 A 
ATOM     32  C   UNL A   1      40.804  23.115  27.363  1.00  0.00     0.010 A 
ATOM     33  C   UNL A   1      40.327  24.418  27.131  1.00  0.00    -0.014 A 
BRANCH  33  34
ATOM     34  C   UNL A   1      41.121  25.604  27.548  1.00  0.00     0.031 A 
ATOM     35  C   UNL A   1      40.503  26.640  28.450  1.00  0.00     0.074 A 
ATOM     36  C   UNL A   1      42.399  25.757  27.152  1.00  0.00     0.049 A 
ATOM     37  N   UNL A   1      40.941  27.835  28.760  1.00  0.00    -0.248 NA
ATOM     38  C   UNL A   1      39.217  26.290  29.073  1.00  0.00     0.031 C 
ATOM     39  C   UNL A   1      43.153  24.810  26.331  1.00  0.00     0.029 A 
ATOM     40  N   UNL A   1      43.293  26.771  27.397  1.00  0.00    -0.354 N 
ATOM     41  C   UNL A   1      39.952  28.404  29.553  1.00  0.00     0.074 A 
ATOM     42  C   UNL A   1      38.900  27.420  29.690  1.00  0.00     0.031 C 
ATOM     43  C   UNL A   1      44.404  25.271  26.166  1.00  0.00     0.029 A 
ATOM     44  C   UNL A   1      44.516  26.581  26.802  1.00  0.00     0.049 A 
ATOM     45  H   UNL A   1      43.077  27.560  27.945  1.00  0.00     0.167 HD
ATOM     46  C   UNL A   1      39.923  29.637  30.111  1.00  0.00     0.037 A 
ATOM     47  C   UNL A   1      45.594  27.384  26.739  1.00  0.00     0.037 A 
ATOM     48  C   UNL A   1      41.002  30.589  30.045  1.00  0.00     0.049 A 
ATOM     49  C   UNL A   1      45.542  28.748  27.367  1.00  0.00     0.074 A 
ATOM     50  C   UNL A   1      41.068  31.859  30.592  1.00  0.00     0.029 A 
ATOM     51  N   UNL A   1      42.216  30.359  29.418  1.00  0.00    -0.354 N 
ATOM     52  N   UNL A   1      44.567  29.312  28.036  1.00  0.00    -0.248 NA
ATOM     53  C   UNL A   1      46.732  29.597  27.207  1.00  0.00     0.031 C 
ATOM     54  C   UNL A   1      42.318  32.406  30.280  1.00  0.00     0.029 A 
ATOM     55  C   UNL A   1      43.038  31.465  29.563  1.00  0.00     0.049 A 
ATOM     56  H   UNL A   1      42.458  29.534  28.939  1.00  0.00     0.167 HD
ATOM     57  C   UNL A   1      45.023  30.578  28.376  1.00  0.00     0.074 A 
ATOM     58  C   UNL A   1      46.372  30.692  27.861  1.00  0.00     0.031 C 
ATOM     59  C   UNL A   1      44.377  31.563  29.046  1.00  0.00     0.037 A 
BRANCH  46  60
ATOM     60  C   UNL A   1      38.667  30.047  30.818  1.00  0.00     0.057 A 
ATOM     61  C   UNL A   1      38.476  29.829  32.186  1.00  0.00     0.134 A 
ATOM     62  C   UNL A   1      37.649  30.707  30.116  1.00  0.00     0.134 A 
ATOM     63  F   UNL A   1      39.409  29.191  32.909  1.00  0.00    -0.206 F 
ATOM     64  C   UNL A   1      37.308  30.239  32.831  1.00  0.00     0.040 A 
ATOM     65  C   UNL A   1      36.485  31.139  30.755  1.00  0.00     0.040 A 
ATOM     66  F   UNL A   1      37.774  30.951  28.804  1.00  0.00    -0.206 F 
ATOM     67  C   UNL A   1      36.311  30.901  32.117  1.00  0.00     0.006 A 
ENDBRANCH  46  60
BRANCH  47  68
ATOM     68  C   UNL A   1      46.808  26.934  26.016  1.00  0.00     0.057 A 
ATOM     69  C   UNL A   1      46.992  27.235  24.663  1.00  0.00     0.134 A 
ATOM     70  C   UNL A   1      47.810  26.198  26.659  1.00  0.00     0.134 A 
ATOM     71  F   UNL A   1      46.054  27.916  23.989  1.00  0.00    -0.206 F 
ATOM     72  C   UNL A   1      48.129  26.816  23.970  1.00  0.00     0.040 A 
ATOM     73  C   UNL A   1      48.963  25.792  25.986  1.00  0.00     0.040 A 
ATOM     74  F   UNL A   1      47.689  25.880  27.957  1.00  0.00    -0.206 F 
ATOM     75  C   UNL A   1      49.122  26.098  24.636  1.00  0.00     0.006 A 
ENDBRANCH  47  68
BRANCH  59  76
ATOM     76  C   UNL A   1      45.127  32.840  29.271  1.00  0.00     0.057 A 
ATOM     77  C   UNL A   1      45.030  33.912  28.377  1.00  0.00     0.134 A 
ATOM     78  C   UNL A   1      45.925  33.010  30.408  1.00  0.00     0.134 A 
ATOM     79  F   UNL A   1      44.290  33.803  27.263  1.00  0.00    -0.206 F 
ATOM     80  C   UNL A   1      45.714  35.107  28.599  1.00  0.00     0.040 A 
ATOM     81  C   UNL A   1      46.601  34.206  30.649  1.00  0.00     0.040 A 
ATOM     82  F   UNL A   1      46.055  32.020  31.304  1.00  0.00    -0.206 F 
ATOM     83  C   UNL A   1      46.500  35.258  29.741  1.00  0.00     0.006 A 
ENDBRANCH  59  76
ENDBRANCH  33  34
ENDBRANCH  26  28
ENDBRANCH  25  26
ENDBRANCH  24  25
ENDBRANCH   1  24
TORSDOF 15
ENDMDL
