MODEL 1
REMARK VINA RESULT:     -11.8      0.000      0.000
REMARK SMILES COc1ccc([C@@H]2CC(c3ccc(Cl)cc3)=NN2C2=[NH+]C(=O)[C@@H](CC(=O)OCCOC(=O)c3ccc(-c4c5nc(c(-c6c(F)cccc6F)c6ccc([nH]6)c(-c6c(F)cccc6F)c6nc(c(-c7c(F)cccc7F)c7ccc4[nH]7)C=C6)C=C5)cc3)S2)cc1OC
REMARK SMILES IDX 28 1 27 2 25 3 26 4 24 5 23 6 19 7 20 8 87 9 21 10 22 12
REMARK SMILES IDX 18 13 7 14 8 15 9 16 17 17 6 18 3 19 4 20 89 21 5 22 88 23
REMARK SMILES IDX 2 24 1 25 90 26 91 27 10 28 11 29 16 30 12 31 15 32 13 33
REMARK SMILES IDX 14 34 29 35 30 36 31 37 32 38 33 39 34 40 86 41 35 42 85 43
REMARK SMILES IDX 36 44 37 45 38 46 79 47 39 48 84 49 78 50 80 51 40 52 83 53
REMARK SMILES IDX 77 54 76 55 41 57 67 58 50 59 66 60 51 61 54 62 65 63 81 64
REMARK SMILES IDX 52 65 53 66 64 68 82 69 55 70 42 71 43 72 48 73 44 74 45 75
REMARK SMILES IDX 47 76 49 77 46 78 68 79 69 80 74 81 70 82 71 83 73 84 75 85
REMARK SMILES IDX 72 86 56 87 57 88 62 89 58 90 59 91 61 92 63 93 60 94
REMARK H PARENT 20 11 80 56 54 67
REMARK Flexibility Score: inf
ROOT
ATOM      1  C   UNL A   1      33.752  33.917  29.142  1.00  0.00     0.274 C 
ENDROOT
BRANCH   1   2
ATOM      2  O   UNL A   1      33.656  32.664  28.442  1.00  0.00    -0.462 OA
BRANCH   2   3
ATOM      3  C   UNL A   1      32.715  32.567  27.473  1.00  0.00     0.307 C 
ATOM      4  O   UNL A   1      31.842  33.396  27.252  1.00  0.00    -0.252 OA
BRANCH   3   5
ATOM      5  C   UNL A   1      32.817  31.268  26.721  1.00  0.00     0.150 C 
BRANCH   5   6
ATOM      6  C   UNL A   1      33.079  30.050  27.598  1.00  0.00     0.184 C 
ATOM      7  C   UNL A   1      33.216  27.930  26.252  1.00  0.00     0.340 C 
ATOM      8  N   UNL A   1      34.399  28.444  26.341  1.00  0.00    -0.202 N 
ATOM      9  S   UNL A   1      31.974  28.654  27.246  1.00  0.00    -0.020 SA
ATOM     10  C   UNL A   1      34.443  29.495  27.229  1.00  0.00     0.322 C 
ATOM     11  H   UNL A   1      35.178  28.122  25.832  1.00  0.00     0.316 HD
ATOM     12  O   UNL A   1      35.483  30.020  27.612  1.00  0.00    -0.246 OA
BRANCH   7  13
ATOM     13  N   UNL A   1      32.826  26.909  25.423  1.00  0.00    -0.120 N 
ATOM     14  C   UNL A   1      32.934  27.052  23.969  1.00  0.00     0.243 C 
ATOM     15  C   UNL A   1      33.007  25.614  23.456  1.00  0.00     0.118 C 
ATOM     16  C   UNL A   1      32.910  24.870  24.754  1.00  0.00     0.096 C 
ATOM     17  N   UNL A   1      32.812  25.598  25.820  1.00  0.00    -0.086 NA
BRANCH  14  18
ATOM     18  C   UNL A   1      31.771  27.862  23.420  1.00  0.00     0.003 A 
ATOM     19  C   UNL A   1      29.564  29.195  22.267  1.00  0.00     0.160 A 
ATOM     20  C   UNL A   1      30.872  29.604  21.980  1.00  0.00     0.051 A 
ATOM     21  C   UNL A   1      29.345  28.115  23.130  1.00  0.00     0.161 A 
ATOM     22  C   UNL A   1      31.966  28.950  22.558  1.00  0.00     0.012 A 
ATOM     23  C   UNL A   1      30.452  27.464  23.697  1.00  0.00     0.058 A 
BRANCH  19  24
ATOM     24  O   UNL A   1      28.522  29.788  21.604  1.00  0.00    -0.493 OA
ATOM     25  C   UNL A   1      28.012  30.925  22.299  1.00  0.00     0.278 C 
ENDBRANCH  19  24
BRANCH  21  26
ATOM     26  O   UNL A   1      28.153  27.554  23.501  1.00  0.00    -0.493 OA
ATOM     27  C   UNL A   1      28.182  26.322  24.208  1.00  0.00     0.278 C 
ENDBRANCH  21  26
ENDBRANCH  14  18
BRANCH  16  28
ATOM     28  C   UNL A   1      32.921  23.400  24.809  1.00  0.00     0.000 A 
ATOM     29  C   UNL A   1      31.782  22.743  25.289  1.00  0.00     0.011 A 
ATOM     30  C   UNL A   1      34.058  22.675  24.446  1.00  0.00     0.011 A 
ATOM     31  C   UNL A   1      31.774  21.351  25.388  1.00  0.00     0.021 A 
ATOM     32  C   UNL A   1      34.052  21.282  24.564  1.00  0.00     0.021 A 
ATOM     33  C   UNL A   1      32.911  20.627  25.031  1.00  0.00     0.041 A 
ATOM     34  Cl  UNL A   1      32.910  18.913  25.175  1.00  0.00    -0.084 Cl
ENDBRANCH  16  28
ENDBRANCH   7  13
ENDBRANCH   5   6
ENDBRANCH   3   5
ENDBRANCH   2   3
ENDBRANCH   1   2
BRANCH   1  35
ATOM     35  C   UNL A   1      34.411  33.745  30.512  1.00  0.00     0.275 C 
BRANCH  35  36
ATOM     36  O   UNL A   1      34.858  32.391  30.717  1.00  0.00    -0.458 OA
BRANCH  36  37
ATOM     37  C   UNL A   1      35.703  32.210  31.755  1.00  0.00     0.338 C 
ATOM     38  O   UNL A   1      35.440  32.276  32.947  1.00  0.00    -0.246 OA
BRANCH  37  39
ATOM     39  C   UNL A   1      37.024  31.809  31.258  1.00  0.00     0.060 A 
ATOM     40  C   UNL A   1      37.286  31.897  29.887  1.00  0.00     0.016 A 
ATOM     41  C   UNL A   1      37.964  31.265  32.133  1.00  0.00     0.016 A 
ATOM     42  C   UNL A   1      38.498  31.432  29.379  1.00  0.00     0.010 A 
ATOM     43  C   UNL A   1      39.176  30.800  31.622  1.00  0.00     0.010 A 
ATOM     44  C   UNL A   1      39.444  30.870  30.243  1.00  0.00    -0.014 A 
BRANCH  44  45
ATOM     45  C   UNL A   1      40.700  30.288  29.718  1.00  0.00     0.031 A 
ATOM     46  C   UNL A   1      41.891  31.177  29.513  1.00  0.00     0.074 A 
ATOM     47  C   UNL A   1      40.755  28.987  29.387  1.00  0.00     0.049 A 
ATOM     48  N   UNL A   1      43.015  30.925  28.892  1.00  0.00    -0.248 NA
ATOM     49  C   UNL A   1      41.800  32.533  30.073  1.00  0.00     0.031 C 
ATOM     50  C   UNL A   1      39.679  28.017  29.586  1.00  0.00     0.029 A 
ATOM     51  N   UNL A   1      41.756  28.264  28.788  1.00  0.00    -0.354 N 
ATOM     52  C   UNL A   1      43.754  32.099  28.962  1.00  0.00     0.074 A 
ATOM     53  C   UNL A   1      42.948  33.064  29.679  1.00  0.00     0.031 C 
ATOM     54  C   UNL A   1      40.068  26.829  29.096  1.00  0.00     0.029 A 
ATOM     55  C   UNL A   1      41.398  26.968  28.509  1.00  0.00     0.049 A 
ATOM     56  H   UNL A   1      42.641  28.638  28.578  1.00  0.00     0.167 HD
ATOM     57  C   UNL A   1      44.991  32.344  28.471  1.00  0.00     0.037 A 
ATOM     58  C   UNL A   1      42.056  26.017  27.821  1.00  0.00     0.037 A 
ATOM     59  C   UNL A   1      45.790  31.373  27.771  1.00  0.00     0.049 A 
ATOM     60  C   UNL A   1      43.406  26.328  27.237  1.00  0.00     0.074 A 
ATOM     61  C   UNL A   1      47.058  31.521  27.237  1.00  0.00     0.029 A 
ATOM     62  N   UNL A   1      45.396  30.069  27.513  1.00  0.00    -0.354 N 
ATOM     63  N   UNL A   1      44.091  27.444  27.290  1.00  0.00    -0.248 NA
ATOM     64  C   UNL A   1      44.071  25.251  26.489  1.00  0.00     0.031 C 
ATOM     65  C   UNL A   1      47.418  30.315  26.626  1.00  0.00     0.029 A 
ATOM     66  C   UNL A   1      46.392  29.404  26.816  1.00  0.00     0.049 A 
ATOM     67  H   UNL A   1      44.536  29.674  27.784  1.00  0.00     0.167 HD
ATOM     68  C   UNL A   1      45.278  27.196  26.612  1.00  0.00     0.074 A 
ATOM     69  C   UNL A   1      45.220  25.822  26.157  1.00  0.00     0.031 C 
ATOM     70  C   UNL A   1      46.322  28.030  26.390  1.00  0.00     0.037 A 
BRANCH  57  71
ATOM     71  C   UNL A   1      45.540  33.727  28.646  1.00  0.00     0.057 A 
ATOM     72  C   UNL A   1      46.251  34.101  29.794  1.00  0.00     0.134 A 
ATOM     73  C   UNL A   1      45.380  34.690  27.642  1.00  0.00     0.134 A 
ATOM     74  F   UNL A   1      46.427  33.229  30.798  1.00  0.00    -0.206 F 
ATOM     75  C   UNL A   1      46.764  35.391  29.945  1.00  0.00     0.040 A 
ATOM     76  C   UNL A   1      45.907  35.975  27.771  1.00  0.00     0.040 A 
ATOM     77  F   UNL A   1      44.712  34.394  26.516  1.00  0.00    -0.206 F 
ATOM     78  C   UNL A   1      46.599  36.330  28.928  1.00  0.00     0.006 A 
ENDBRANCH  57  71
BRANCH  58  79
ATOM     79  C   UNL A   1      41.435  24.684  27.626  1.00  0.00     0.057 A 
ATOM     80  C   UNL A   1      41.844  23.579  28.379  1.00  0.00     0.134 A 
ATOM     81  C   UNL A   1      40.422  24.482  26.680  1.00  0.00     0.134 A 
ATOM     82  F   UNL A   1      42.827  23.705  29.283  1.00  0.00    -0.206 F 
ATOM     83  C   UNL A   1      41.278  22.317  28.193  1.00  0.00     0.040 A 
ATOM     84  C   UNL A   1      39.831  23.232  26.499  1.00  0.00     0.040 A 
ATOM     85  F   UNL A   1      39.986  25.502  25.926  1.00  0.00    -0.206 F 
ATOM     86  C   UNL A   1      40.262  22.142  27.253  1.00  0.00     0.006 A 
ENDBRANCH  58  79
BRANCH  70  87
ATOM     87  C   UNL A   1      47.508  27.467  25.666  1.00  0.00     0.057 A 
ATOM     88  C   UNL A   1      48.562  26.846  26.345  1.00  0.00     0.134 A 
ATOM     89  C   UNL A   1      47.566  27.503  24.267  1.00  0.00     0.134 A 
ATOM     90  F   UNL A   1      48.571  26.792  27.685  1.00  0.00    -0.206 F 
ATOM     91  C   UNL A   1      49.643  26.292  25.657  1.00  0.00     0.040 A 
ATOM     92  C   UNL A   1      48.631  26.934  23.568  1.00  0.00     0.040 A 
ATOM     93  F   UNL A   1      46.582  28.078  23.559  1.00  0.00    -0.206 F 
ATOM     94  C   UNL A   1      49.675  26.328  24.264  1.00  0.00     0.006 A 
ENDBRANCH  70  87
ENDBRANCH  44  45
ENDBRANCH  37  39
ENDBRANCH  36  37
ENDBRANCH  35  36
ENDBRANCH   1  35
TORSDOF 17
ENDMDL
MODEL 2
REMARK VINA RESULT:     -11.3      2.286      6.999
REMARK SMILES COc1ccc([C@@H]2CC(c3ccc(Cl)cc3)=NN2C2=[NH+]C(=O)[C@@H](CC(=O)OCCOC(=O)c3ccc(-c4c5nc(c(-c6c(F)cccc6F)c6ccc([nH]6)c(-c6c(F)cccc6F)c6nc(c(-c7c(F)cccc7F)c7ccc4[nH]7)C=C6)C=C5)cc3)S2)cc1OC
REMARK SMILES IDX 28 1 27 2 25 3 26 4 24 5 23 6 19 7 20 8 87 9 21 10 22 12
REMARK SMILES IDX 18 13 7 14 8 15 9 16 17 17 6 18 3 19 4 20 89 21 5 22 88 23
REMARK SMILES IDX 2 24 1 25 90 26 91 27 10 28 11 29 16 30 12 31 15 32 13 33
REMARK SMILES IDX 14 34 29 35 30 36 31 37 32 38 33 39 34 40 86 41 35 42 85 43
REMARK SMILES IDX 36 44 37 45 38 46 79 47 39 48 84 49 78 50 80 51 40 52 83 53
REMARK SMILES IDX 77 54 76 55 41 57 67 58 50 59 66 60 51 61 54 62 65 63 81 64
REMARK SMILES IDX 52 65 53 66 64 68 82 69 55 70 42 71 43 72 48 73 44 74 45 75
REMARK SMILES IDX 47 76 49 77 46 78 68 79 69 80 74 81 70 82 71 83 73 84 75 85
REMARK SMILES IDX 72 86 56 87 57 88 62 89 58 90 59 91 61 92 63 93 60 94
REMARK H PARENT 20 11 80 56 54 67
REMARK Flexibility Score: inf
ROOT
ATOM      1  C   UNL A   1      34.518  33.448  30.753  1.00  0.00     0.274 C 
ENDROOT
BRANCH   1   2
ATOM      2  O   UNL A   1      35.515  33.048  29.796  1.00  0.00    -0.462 OA
BRANCH   2   3
ATOM      3  C   UNL A   1      35.242  33.268  28.488  1.00  0.00     0.307 C 
ATOM      4  O   UNL A   1      34.778  34.304  28.030  1.00  0.00    -0.252 OA
BRANCH   3   5
ATOM      5  C   UNL A   1      35.514  32.052  27.646  1.00  0.00     0.150 C 
BRANCH   5   6
ATOM      6  C   UNL A   1      34.976  30.750  28.226  1.00  0.00     0.184 C 
ATOM      7  C   UNL A   1      33.806  29.356  26.489  1.00  0.00     0.340 C 
ATOM      8  N   UNL A   1      35.057  29.031  26.511  1.00  0.00    -0.202 N 
ATOM      9  S   UNL A   1      33.252  30.413  27.767  1.00  0.00    -0.020 SA
ATOM     10  C   UNL A   1      35.724  29.603  27.570  1.00  0.00     0.322 C 
ATOM     11  H   UNL A   1      35.483  28.443  25.846  1.00  0.00     0.316 HD
ATOM     12  O   UNL A   1      36.866  29.300  27.899  1.00  0.00    -0.246 OA
BRANCH   7  13
ATOM     13  N   UNL A   1      32.882  28.999  25.541  1.00  0.00    -0.120 N 
ATOM     14  C   UNL A   1      32.125  27.751  25.676  1.00  0.00     0.243 C 
ATOM     15  C   UNL A   1      30.860  27.991  24.853  1.00  0.00     0.118 C 
ATOM     16  C   UNL A   1      31.129  29.381  24.359  1.00  0.00     0.096 C 
ATOM     17  N   UNL A   1      32.242  29.915  24.748  1.00  0.00    -0.086 NA
BRANCH  14  18
ATOM     18  C   UNL A   1      32.959  26.563  25.225  1.00  0.00     0.003 A 
ATOM     19  C   UNL A   1      34.324  24.271  24.299  1.00  0.00     0.160 A 
ATOM     20  C   UNL A   1      34.085  24.454  25.666  1.00  0.00     0.051 A 
ATOM     21  C   UNL A   1      33.881  25.230  23.380  1.00  0.00     0.161 A 
ATOM     22  C   UNL A   1      33.418  25.594  26.127  1.00  0.00     0.012 A 
ATOM     23  C   UNL A   1      33.205  26.365  23.856  1.00  0.00     0.058 A 
BRANCH  19  24
ATOM     24  O   UNL A   1      34.887  23.097  23.873  1.00  0.00    -0.493 OA
ATOM     25  C   UNL A   1      33.920  22.060  23.707  1.00  0.00     0.278 C 
ENDBRANCH  19  24
BRANCH  21  26
ATOM     26  O   UNL A   1      33.989  25.211  22.015  1.00  0.00    -0.493 OA
ATOM     27  C   UNL A   1      32.795  25.258  21.247  1.00  0.00     0.278 C 
ENDBRANCH  21  26
ENDBRANCH  14  18
BRANCH  16  28
ATOM     28  C   UNL A   1      30.186  30.089  23.482  1.00  0.00     0.000 A 
ATOM     29  C   UNL A   1      30.068  29.668  22.152  1.00  0.00     0.011 A 
ATOM     30  C   UNL A   1      29.464  31.193  23.943  1.00  0.00     0.011 A 
ATOM     31  C   UNL A   1      29.209  30.343  21.283  1.00  0.00     0.021 A 
ATOM     32  C   UNL A   1      28.619  31.877  23.064  1.00  0.00     0.021 A 
ATOM     33  C   UNL A   1      28.492  31.448  21.742  1.00  0.00     0.041 A 
ATOM     34  Cl  UNL A   1      27.451  32.295  20.665  1.00  0.00    -0.084 Cl
ENDBRANCH  16  28
ENDBRANCH   7  13
ENDBRANCH   5   6
ENDBRANCH   3   5
ENDBRANCH   2   3
ENDBRANCH   1   2
BRANCH   1  35
ATOM     35  C   UNL A   1      34.721  32.751  32.099  1.00  0.00     0.275 C 
BRANCH  35  36
ATOM     36  O   UNL A   1      35.644  31.650  31.990  1.00  0.00    -0.458 OA
BRANCH  36  37
ATOM     37  C   UNL A   1      36.708  31.701  32.820  1.00  0.00     0.338 C 
ATOM     38  O   UNL A   1      36.699  31.858  34.032  1.00  0.00    -0.246 OA
BRANCH  37  39
ATOM     39  C   UNL A   1      37.939  31.436  32.066  1.00  0.00     0.060 A 
ATOM     40  C   UNL A   1      37.986  31.769  30.708  1.00  0.00     0.016 A 
ATOM     41  C   UNL A   1      39.006  30.780  32.680  1.00  0.00     0.016 A 
ATOM     42  C   UNL A   1      39.108  31.440  29.950  1.00  0.00     0.010 A 
ATOM     43  C   UNL A   1      40.128  30.451  31.918  1.00  0.00     0.010 A 
ATOM     44  C   UNL A   1      40.180  30.767  30.549  1.00  0.00    -0.014 A 
BRANCH  44  45
ATOM     45  C   UNL A   1      41.343  30.327  29.747  1.00  0.00     0.031 A 
ATOM     46  C   UNL A   1      41.379  28.927  29.210  1.00  0.00     0.074 A 
ATOM     47  C   UNL A   1      42.376  31.162  29.542  1.00  0.00     0.049 A 
ATOM     48  N   UNL A   1      42.369  28.277  28.656  1.00  0.00    -0.248 NA
ATOM     49  C   UNL A   1      40.134  28.152  29.322  1.00  0.00     0.031 C 
ATOM     50  C   UNL A   1      42.435  32.558  29.973  1.00  0.00     0.029 A 
ATOM     51  N   UNL A   1      43.589  30.943  28.939  1.00  0.00    -0.354 N 
ATOM     52  C   UNL A   1      41.877  27.008  28.378  1.00  0.00     0.074 A 
ATOM     53  C   UNL A   1      40.503  26.978  28.832  1.00  0.00     0.031 C 
ATOM     54  C   UNL A   1      43.633  33.066  29.640  1.00  0.00     0.029 A 
ATOM     55  C   UNL A   1      44.438  32.019  29.017  1.00  0.00     0.049 A 
ATOM     56  H   UNL A   1      43.827  30.098  28.494  1.00  0.00     0.167 HD
ATOM     57  C   UNL A   1      42.518  25.966  27.798  1.00  0.00     0.037 A 
ATOM     58  C   UNL A   1      45.732  32.131  28.663  1.00  0.00     0.037 A 
ATOM     59  C   UNL A   1      43.881  26.011  27.339  1.00  0.00     0.049 A 
ATOM     60  C   UNL A   1      46.439  30.944  28.071  1.00  0.00     0.074 A 
ATOM     61  C   UNL A   1      44.622  25.010  26.734  1.00  0.00     0.029 A 
ATOM     62  N   UNL A   1      44.707  27.121  27.430  1.00  0.00    -0.354 N 
ATOM     63  N   UNL A   1      45.976  29.742  27.827  1.00  0.00    -0.248 NA
ATOM     64  C   UNL A   1      47.854  31.125  27.712  1.00  0.00     0.031 C 
ATOM     65  C   UNL A   1      45.907  25.505  26.489  1.00  0.00     0.029 A 
ATOM     66  C   UNL A   1      45.954  26.826  26.904  1.00  0.00     0.049 A 
ATOM     67  H   UNL A   1      44.446  27.989  27.813  1.00  0.00     0.167 HD
ATOM     68  C   UNL A   1      47.028  29.034  27.260  1.00  0.00     0.074 A 
ATOM     69  C   UNL A   1      48.155  29.942  27.194  1.00  0.00     0.031 C 
ATOM     70  C   UNL A   1      47.056  27.750  26.830  1.00  0.00     0.037 A 
BRANCH  57  71
ATOM     71  C   UNL A   1      41.760  24.682  27.659  1.00  0.00     0.057 A 
ATOM     72  C   UNL A   1      41.954  23.609  28.538  1.00  0.00     0.134 A 
ATOM     73  C   UNL A   1      40.804  24.524  26.648  1.00  0.00     0.134 A 
ATOM     74  F   UNL A   1      42.865  23.691  29.520  1.00  0.00    -0.206 F 
ATOM     75  C   UNL A   1      41.238  22.418  28.404  1.00  0.00     0.040 A 
ATOM     76  C   UNL A   1      40.066  23.348  26.516  1.00  0.00     0.040 A 
ATOM     77  F   UNL A   1      40.568  25.516  25.775  1.00  0.00    -0.206 F 
ATOM     78  C   UNL A   1      40.286  22.287  27.394  1.00  0.00     0.006 A 
ENDBRANCH  57  71
BRANCH  58  79
ATOM     79  C   UNL A   1      46.450  33.410  28.881  1.00  0.00     0.057 A 
ATOM     80  C   UNL A   1      47.111  33.672  30.085  1.00  0.00     0.134 A 
ATOM     81  C   UNL A   1      46.489  34.402  27.893  1.00  0.00     0.134 A 
ATOM     82  F   UNL A   1      47.089  32.769  31.077  1.00  0.00    -0.206 F 
ATOM     83  C   UNL A   1      47.777  34.878  30.306  1.00  0.00     0.040 A 
ATOM     84  C   UNL A   1      47.170  35.603  28.092  1.00  0.00     0.040 A 
ATOM     85  F   UNL A   1      45.874  34.211  26.717  1.00  0.00    -0.206 F 
ATOM     86  C   UNL A   1      47.813  35.847  29.304  1.00  0.00     0.006 A 
ENDBRANCH  58  79
BRANCH  70  87
ATOM     87  C   UNL A   1      48.328  27.264  26.203  1.00  0.00     0.057 A 
ATOM     88  C   UNL A   1      49.358  26.699  26.962  1.00  0.00     0.134 A 
ATOM     89  C   UNL A   1      48.498  27.318  24.814  1.00  0.00     0.134 A 
ATOM     90  F   UNL A   1      49.260  26.630  28.298  1.00  0.00    -0.206 F 
ATOM     91  C   UNL A   1      50.523  26.215  26.362  1.00  0.00     0.040 A 
ATOM     92  C   UNL A   1      49.648  26.821  24.201  1.00  0.00     0.040 A 
ATOM     93  F   UNL A   1      47.544  27.843  24.031  1.00  0.00    -0.206 F 
ATOM     94  C   UNL A   1      50.666  26.269  24.977  1.00  0.00     0.006 A 
ENDBRANCH  70  87
ENDBRANCH  44  45
ENDBRANCH  37  39
ENDBRANCH  36  37
ENDBRANCH  35  36
ENDBRANCH   1  35
TORSDOF 17
ENDMDL
MODEL 3
REMARK VINA RESULT:     -11.2      1.425      6.110
REMARK SMILES COc1ccc([C@@H]2CC(c3ccc(Cl)cc3)=NN2C2=[NH+]C(=O)[C@@H](CC(=O)OCCOC(=O)c3ccc(-c4c5nc(c(-c6c(F)cccc6F)c6ccc([nH]6)c(-c6c(F)cccc6F)c6nc(c(-c7c(F)cccc7F)c7ccc4[nH]7)C=C6)C=C5)cc3)S2)cc1OC
REMARK SMILES IDX 28 1 27 2 25 3 26 4 24 5 23 6 19 7 20 8 87 9 21 10 22 12
REMARK SMILES IDX 18 13 7 14 8 15 9 16 17 17 6 18 3 19 4 20 89 21 5 22 88 23
REMARK SMILES IDX 2 24 1 25 90 26 91 27 10 28 11 29 16 30 12 31 15 32 13 33
REMARK SMILES IDX 14 34 29 35 30 36 31 37 32 38 33 39 34 40 86 41 35 42 85 43
REMARK SMILES IDX 36 44 37 45 38 46 79 47 39 48 84 49 78 50 80 51 40 52 83 53
REMARK SMILES IDX 77 54 76 55 41 57 67 58 50 59 66 60 51 61 54 62 65 63 81 64
REMARK SMILES IDX 52 65 53 66 64 68 82 69 55 70 42 71 43 72 48 73 44 74 45 75
REMARK SMILES IDX 47 76 49 77 46 78 68 79 69 80 74 81 70 82 71 83 73 84 75 85
REMARK SMILES IDX 72 86 56 87 57 88 62 89 58 90 59 91 61 92 63 93 60 94
REMARK H PARENT 20 11 80 56 54 67
REMARK Flexibility Score: inf
ROOT
ATOM      1  C   UNL A   1      34.382  32.971  29.308  1.00  0.00     0.274 C 
ENDROOT
BRANCH   1   2
ATOM      2  O   UNL A   1      34.258  32.233  28.081  1.00  0.00    -0.462 OA
BRANCH   2   3
ATOM      3  C   UNL A   1      33.037  32.206  27.494  1.00  0.00     0.307 C 
ATOM      4  O   UNL A   1      32.173  33.063  27.627  1.00  0.00    -0.252 OA
BRANCH   3   5
ATOM      5  C   UNL A   1      32.826  30.949  26.695  1.00  0.00     0.150 C 
BRANCH   5   6
ATOM      6  C   UNL A   1      33.073  29.661  27.470  1.00  0.00     0.184 C 
ATOM      7  C   UNL A   1      32.997  27.635  25.981  1.00  0.00     0.340 C 
ATOM      8  N   UNL A   1      34.211  28.077  26.022  1.00  0.00    -0.202 N 
ATOM      9  S   UNL A   1      31.867  28.354  27.105  1.00  0.00    -0.020 SA
ATOM     10  C   UNL A   1      34.375  29.059  26.972  1.00  0.00     0.322 C 
ATOM     11  H   UNL A   1      34.935  27.749  25.440  1.00  0.00     0.316 HD
ATOM     12  O   UNL A   1      35.467  29.499  27.315  1.00  0.00    -0.246 OA
BRANCH   7  13
ATOM     13  N   UNL A   1      32.494  26.697  25.116  1.00  0.00    -0.120 N 
ATOM     14  C   UNL A   1      32.489  26.946  23.672  1.00  0.00     0.243 C 
ATOM     15  C   UNL A   1      32.454  25.551  23.051  1.00  0.00     0.118 C 
ATOM     16  C   UNL A   1      32.429  24.713  24.295  1.00  0.00     0.096 C 
ATOM     17  N   UNL A   1      32.451  25.361  25.416  1.00  0.00    -0.086 NA
BRANCH  14  18
ATOM     18  C   UNL A   1      31.323  27.842  23.284  1.00  0.00     0.003 A 
ATOM     19  C   UNL A   1      29.101  29.352  22.415  1.00  0.00     0.160 A 
ATOM     20  C   UNL A   1      30.404  29.761  22.107  1.00  0.00     0.051 A 
ATOM     21  C   UNL A   1      28.894  28.183  23.157  1.00  0.00     0.161 A 
ATOM     22  C   UNL A   1      31.506  29.019  22.545  1.00  0.00     0.012 A 
ATOM     23  C   UNL A   1      30.009  27.445  23.584  1.00  0.00     0.058 A 
BRANCH  19  24
ATOM     24  O   UNL A   1      28.044  30.043  21.882  1.00  0.00    -0.493 OA
ATOM     25  C   UNL A   1      28.454  31.238  21.221  1.00  0.00     0.278 C 
ENDBRANCH  19  24
BRANCH  21  26
ATOM     26  O   UNL A   1      27.707  27.610  23.525  1.00  0.00    -0.493 OA
ATOM     27  C   UNL A   1      27.741  26.328  24.136  1.00  0.00     0.278 C 
ENDBRANCH  21  26
ENDBRANCH  14  18
BRANCH  16  28
ATOM     28  C   UNL A   1      32.376  23.245  24.241  1.00  0.00     0.000 A 
ATOM     29  C   UNL A   1      31.955  22.550  25.381  1.00  0.00     0.011 A 
ATOM     30  C   UNL A   1      32.790  22.551  23.101  1.00  0.00     0.011 A 
ATOM     31  C   UNL A   1      31.929  21.155  25.375  1.00  0.00     0.021 A 
ATOM     32  C   UNL A   1      32.780  21.154  23.106  1.00  0.00     0.021 A 
ATOM     33  C   UNL A   1      32.347  20.462  24.239  1.00  0.00     0.041 A 
ATOM     34  Cl  UNL A   1      32.338  18.742  24.239  1.00  0.00    -0.084 Cl
ENDBRANCH  16  28
ENDBRANCH   7  13
ENDBRANCH   5   6
ENDBRANCH   3   5
ENDBRANCH   2   3
ENDBRANCH   1   2
BRANCH   1  35
ATOM     35  C   UNL A   1      35.557  32.467  30.149  1.00  0.00     0.275 C 
BRANCH  35  36
ATOM     36  O   UNL A   1      35.790  31.061  29.942  1.00  0.00    -0.458 OA
BRANCH  36  37
ATOM     37  C   UNL A   1      36.563  30.459  30.871  1.00  0.00     0.338 C 
ATOM     38  O   UNL A   1      36.228  30.072  31.981  1.00  0.00    -0.246 OA
BRANCH  37  39
ATOM     39  C   UNL A   1      37.905  30.224  30.325  1.00  0.00     0.060 A 
ATOM     40  C   UNL A   1      38.082  30.232  28.938  1.00  0.00     0.016 A 
ATOM     41  C   UNL A   1      38.961  29.908  31.179  1.00  0.00     0.016 A 
ATOM     42  C   UNL A   1      39.325  29.918  28.392  1.00  0.00     0.010 A 
ATOM     43  C   UNL A   1      40.205  29.592  30.631  1.00  0.00     0.010 A 
ATOM     44  C   UNL A   1      40.390  29.584  29.237  1.00  0.00    -0.014 A 
BRANCH  44  45
ATOM     45  C   UNL A   1      41.695  29.159  28.681  1.00  0.00     0.031 A 
ATOM     46  C   UNL A   1      41.891  27.726  28.281  1.00  0.00     0.074 A 
ATOM     47  C   UNL A   1      42.704  30.040  28.581  1.00  0.00     0.049 A 
ATOM     48  N   UNL A   1      42.994  27.101  27.958  1.00  0.00    -0.248 NA
ATOM     49  C   UNL A   1      40.686  26.884  28.250  1.00  0.00     0.031 C 
ATOM     50  C   UNL A   1      42.618  31.465  28.894  1.00  0.00     0.029 A 
ATOM     51  N   UNL A   1      44.012  29.853  28.210  1.00  0.00    -0.354 N 
ATOM     52  C   UNL A   1      42.621  25.786  27.712  1.00  0.00     0.074 A 
ATOM     53  C   UNL A   1      41.192  25.703  27.930  1.00  0.00     0.031 C 
ATOM     54  C   UNL A   1      43.828  32.022  28.723  1.00  0.00     0.029 A 
ATOM     55  C   UNL A   1      44.780  30.984  28.335  1.00  0.00     0.049 A 
ATOM     56  H   UNL A   1      44.365  28.994  27.885  1.00  0.00     0.167 HD
ATOM     57  C   UNL A   1      43.403  24.746  27.339  1.00  0.00     0.037 A 
ATOM     58  C   UNL A   1      46.108  31.151  28.194  1.00  0.00     0.037 A 
ATOM     59  C   UNL A   1      44.821  24.842  27.111  1.00  0.00     0.049 A 
ATOM     60  C   UNL A   1      46.965  29.970  27.833  1.00  0.00     0.074 A 
ATOM     61  C   UNL A   1      45.703  23.847  26.727  1.00  0.00     0.029 A 
ATOM     62  N   UNL A   1      45.562  26.006  27.243  1.00  0.00    -0.354 N 
ATOM     63  N   UNL A   1      46.611  28.726  27.620  1.00  0.00    -0.248 NA
ATOM     64  C   UNL A   1      48.410  30.213  27.701  1.00  0.00     0.031 C 
ATOM     65  C   UNL A   1      46.985  24.404  26.659  1.00  0.00     0.029 A 
ATOM     66  C   UNL A   1      46.894  25.752  26.961  1.00  0.00     0.049 A 
ATOM     67  H   UNL A   1      45.196  26.883  27.501  1.00  0.00     0.167 HD
ATOM     68  C   UNL A   1      47.779  28.046  27.300  1.00  0.00     0.074 A 
ATOM     69  C   UNL A   1      48.854  29.016  27.345  1.00  0.00     0.031 C 
ATOM     70  C   UNL A   1      47.945  26.736  26.992  1.00  0.00     0.037 A 
BRANCH  57  71
ATOM     71  C   UNL A   1      42.745  23.409  27.187  1.00  0.00     0.057 A 
ATOM     72  C   UNL A   1      42.396  22.624  28.294  1.00  0.00     0.134 A 
ATOM     73  C   UNL A   1      42.433  22.909  25.916  1.00  0.00     0.134 A 
ATOM     74  F   UNL A   1      42.680  23.040  29.537  1.00  0.00    -0.206 F 
ATOM     75  C   UNL A   1      41.778  21.382  28.141  1.00  0.00     0.040 A 
ATOM     76  C   UNL A   1      41.795  21.679  25.751  1.00  0.00     0.040 A 
ATOM     77  F   UNL A   1      42.738  23.612  24.814  1.00  0.00    -0.206 F 
ATOM     78  C   UNL A   1      41.470  20.909  26.867  1.00  0.00     0.006 A 
ENDBRANCH  57  71
BRANCH  58  79
ATOM     79  C   UNL A   1      46.713  32.486  28.418  1.00  0.00     0.057 A 
ATOM     80  C   UNL A   1      46.870  33.395  27.367  1.00  0.00     0.134 A 
ATOM     81  C   UNL A   1      47.152  32.884  29.687  1.00  0.00     0.134 A 
ATOM     82  F   UNL A   1      46.490  33.060  26.125  1.00  0.00    -0.206 F 
ATOM     83  C   UNL A   1      47.452  34.648  27.564  1.00  0.00     0.040 A 
ATOM     84  C   UNL A   1      47.715  34.142  29.904  1.00  0.00     0.040 A 
ATOM     85  F   UNL A   1      47.030  32.059  30.737  1.00  0.00    -0.206 F 
ATOM     86  C   UNL A   1      47.872  35.027  28.838  1.00  0.00     0.006 A 
ENDBRANCH  58  79
BRANCH  70  87
ATOM     87  C   UNL A   1      49.329  26.287  26.631  1.00  0.00     0.057 A 
ATOM     88  C   UNL A   1      49.804  26.340  25.317  1.00  0.00     0.134 A 
ATOM     89  C   UNL A   1      50.211  25.844  27.624  1.00  0.00     0.134 A 
ATOM     90  F   UNL A   1      49.003  26.744  24.319  1.00  0.00    -0.206 F 
ATOM     91  C   UNL A   1      51.108  25.954  24.998  1.00  0.00     0.040 A 
ATOM     92  C   UNL A   1      51.521  25.475  27.323  1.00  0.00     0.040 A 
ATOM     93  F   UNL A   1      49.816  25.777  28.905  1.00  0.00    -0.206 F 
ATOM     94  C   UNL A   1      51.972  25.528  26.005  1.00  0.00     0.006 A 
ENDBRANCH  70  87
ENDBRANCH  44  45
ENDBRANCH  37  39
ENDBRANCH  36  37
ENDBRANCH  35  36
ENDBRANCH   1  35
TORSDOF 17
ENDMDL
