MODEL 1
REMARK VINA RESULT:     -12.9      0.000      0.000
REMARK SMILES C=C1C[C@]23CC[C@@H]4[C@](C)(CCC[C@@]4(C)C(=O)OCCOC(=O)c4ccc(-c5c6nc(c(-c7c(F)cccc7F)c7ccc([nH]7)c(-c7c(F)cccc7F)c7nc(c(-c8c(F)cccc8F)c8ccc5[nH]8)C=C7)C=C6)cc4)[C@@H]2CC[C@@]1(O)C3
REMARK SMILES IDX 19 1 18 2 17 3 15 4 16 5 13 6 1 7 2 8 3 9 80 10 4 11 79 12
REMARK SMILES IDX 82 13 5 14 77 15 78 16 6 17 8 18 7 19 10 20 9 21 11 22 12 23
REMARK SMILES IDX 14 24 81 25 20 27 21 28 22 29 23 30 24 31 76 32 25 33 75 34
REMARK SMILES IDX 26 35 27 36 28 37 69 38 29 39 74 40 68 41 70 42 30 43 73 44
REMARK SMILES IDX 67 45 66 46 31 48 57 49 40 50 56 51 41 52 44 53 55 54 71 55
REMARK SMILES IDX 42 56 43 57 54 59 72 60 45 61 32 62 33 63 38 64 34 65 35 66
REMARK SMILES IDX 37 67 39 68 36 69 58 70 59 71 64 72 60 73 61 74 63 75 65 76
REMARK SMILES IDX 62 77 46 78 47 79 52 80 48 81 49 82 51 83 53 84 50 85
REMARK H PARENT 81 26 70 47 44 58
REMARK Flexibility Score: inf
ROOT
ATOM      1  C   UNL A   1      36.335  21.698  24.285  1.00  0.00     0.275 C 
ENDROOT
BRANCH   1   2
ATOM      2  C   UNL A   1      36.037  22.975  23.501  1.00  0.00     0.274 C 
BRANCH   2   3
ATOM      3  O   UNL A   1      34.623  23.221  23.413  1.00  0.00    -0.462 OA
BRANCH   3   4
ATOM      4  C   UNL A   1      33.945  24.148  24.173  1.00  0.00     0.312 C 
ATOM      5  O   UNL A   1      34.296  25.309  24.293  1.00  0.00    -0.252 OA
BRANCH   4   6
ATOM      6  C   UNL A   1      32.894  23.375  25.017  1.00  0.00     0.069 C 
ATOM      7  C   UNL A   1      28.918  29.835  22.315  1.00  0.00     0.011 C 
ATOM      8  C   UNL A   1      29.614  28.861  22.917  1.00  0.00    -0.045 C 
ATOM      9  C   UNL A   1      29.030  27.547  23.427  1.00  0.00     0.040 C 
ATOM     10  C   UNL A   1      31.113  28.751  22.955  1.00  0.00     0.086 C 
ATOM     11  C   UNL A   1      30.265  26.601  23.516  1.00  0.00    -0.020 C 
ATOM     12  C   UNL A   1      31.670  28.971  24.380  1.00  0.00     0.040 C 
ATOM     13  C   UNL A   1      31.227  27.308  22.516  1.00  0.00     0.047 C 
ATOM     14  C   UNL A   1      29.990  25.203  23.020  1.00  0.00     0.008 C 
ATOM     15  C   UNL A   1      31.020  26.585  24.907  1.00  0.00     0.002 C 
ATOM     16  C   UNL A   1      31.079  28.025  25.476  1.00  0.00     0.008 C 
ATOM     17  C   UNL A   1      31.321  24.456  23.107  1.00  0.00     0.006 C 
ATOM     18  C   UNL A   1      31.262  25.226  25.754  1.00  0.00    -0.025 C 
ATOM     19  C   UNL A   1      31.718  24.304  24.625  1.00  0.00     0.012 C 
ATOM     20  C   UNL A   1      30.374  24.087  26.501  1.00  0.00     0.007 C 
ATOM     21  C   UNL A   1      32.217  25.688  26.892  1.00  0.00     0.012 C 
ATOM     22  C   UNL A   1      30.791  22.438  26.144  1.00  0.00     0.002 C 
ATOM     23  C   UNL A   1      32.026  22.108  25.056  1.00  0.00     0.019 C 
ATOM     24  C   UNL A   1      33.667  23.120  26.358  1.00  0.00     0.024 C 
BRANCH  10  25
ATOM     25  O   UNL A   1      31.778  29.556  22.001  1.00  0.00    -0.386 OA
ATOM     26  H   UNL A   1      31.123  29.997  21.438  1.00  0.00     0.211 HD
ENDBRANCH  10  25
ENDBRANCH   4   6
ENDBRANCH   3   4
ENDBRANCH   2   3
ENDBRANCH   1   2
BRANCH   1  27
ATOM     27  O   UNL A   1      36.936  22.025  25.542  1.00  0.00    -0.458 OA
BRANCH  27  28
ATOM     28  C   UNL A   1      38.175  21.499  25.738  1.00  0.00     0.338 C 
ATOM     29  O   UNL A   1      38.587  20.417  25.381  1.00  0.00    -0.246 OA
BRANCH  28  30
ATOM     30  C   UNL A   1      39.035  22.589  26.233  1.00  0.00     0.060 A 
ATOM     31  C   UNL A   1      38.668  23.907  25.920  1.00  0.00     0.016 A 
ATOM     32  C   UNL A   1      40.107  22.325  27.081  1.00  0.00     0.016 A 
ATOM     33  C   UNL A   1      39.296  24.971  26.544  1.00  0.00     0.010 A 
ATOM     34  C   UNL A   1      40.801  23.394  27.633  1.00  0.00     0.010 A 
ATOM     35  C   UNL A   1      40.385  24.712  27.374  1.00  0.00    -0.014 A 
BRANCH  35  36
ATOM     36  C   UNL A   1      41.239  25.826  27.802  1.00  0.00     0.031 A 
ATOM     37  C   UNL A   1      40.584  26.901  28.610  1.00  0.00     0.074 A 
ATOM     38  C   UNL A   1      42.531  25.874  27.445  1.00  0.00     0.049 A 
ATOM     39  N   UNL A   1      41.024  28.087  28.919  1.00  0.00    -0.248 NA
ATOM     40  C   UNL A   1      39.234  26.599  29.123  1.00  0.00     0.031 C 
ATOM     41  C   UNL A   1      43.254  24.822  26.730  1.00  0.00     0.029 A 
ATOM     42  N   UNL A   1      43.454  26.869  27.612  1.00  0.00    -0.354 N 
ATOM     43  C   UNL A   1      39.989  28.690  29.620  1.00  0.00     0.074 A 
ATOM     44  C   UNL A   1      38.903  27.743  29.701  1.00  0.00     0.031 C 
ATOM     45  C   UNL A   1      44.506  25.247  26.484  1.00  0.00     0.029 A 
ATOM     46  C   UNL A   1      44.644  26.615  26.974  1.00  0.00     0.049 A 
ATOM     47  H   UNL A   1      43.284  27.685  28.136  1.00  0.00     0.167 HD
ATOM     48  C   UNL A   1      39.959  29.939  30.131  1.00  0.00     0.037 A 
ATOM     49  C   UNL A   1      45.693  27.434  26.770  1.00  0.00     0.037 A 
ATOM     50  C   UNL A   1      41.068  30.847  30.039  1.00  0.00     0.049 A 
ATOM     51  C   UNL A   1      45.603  28.845  27.294  1.00  0.00     0.074 A 
ATOM     52  C   UNL A   1      41.180  32.127  30.545  1.00  0.00     0.029 A 
ATOM     53  N   UNL A   1      42.260  30.562  29.385  1.00  0.00    -0.354 N 
ATOM     54  N   UNL A   1      44.633  29.420  27.967  1.00  0.00    -0.248 NA
ATOM     55  C   UNL A   1      46.744  29.728  27.017  1.00  0.00     0.031 C 
ATOM     56  C   UNL A   1      42.419  32.639  30.149  1.00  0.00     0.029 A 
ATOM     57  C   UNL A   1      43.102  31.656  29.447  1.00  0.00     0.049 A 
ATOM     58  H   UNL A   1      42.473  29.708  28.944  1.00  0.00     0.167 HD
ATOM     59  C   UNL A   1      45.058  30.717  28.220  1.00  0.00     0.074 A 
ATOM     60  C   UNL A   1      46.381  30.838  27.641  1.00  0.00     0.031 C 
ATOM     61  C   UNL A   1      44.420  31.724  28.868  1.00  0.00     0.037 A 
BRANCH  48  62
ATOM     62  C   UNL A   1      38.689  30.404  30.772  1.00  0.00     0.057 A 
ATOM     63  C   UNL A   1      37.679  31.053  30.052  1.00  0.00     0.134 A 
ATOM     64  C   UNL A   1      38.462  30.168  32.135  1.00  0.00     0.134 A 
ATOM     65  F   UNL A   1      37.844  31.334  28.751  1.00  0.00    -0.206 F 
ATOM     66  C   UNL A   1      36.490  31.455  30.664  1.00  0.00     0.040 A 
ATOM     67  C   UNL A   1      37.267  30.543  32.753  1.00  0.00     0.040 A 
ATOM     68  F   UNL A   1      39.393  29.562  32.886  1.00  0.00    -0.206 F 
ATOM     69  C   UNL A   1      36.278  31.190  32.016  1.00  0.00     0.006 A 
ENDBRANCH  48  62
BRANCH  49  70
ATOM     70  C   UNL A   1      46.880  26.976  26.003  1.00  0.00     0.057 A 
ATOM     71  C   UNL A   1      47.945  26.327  26.638  1.00  0.00     0.134 A 
ATOM     72  C   UNL A   1      47.001  27.210  24.626  1.00  0.00     0.134 A 
ATOM     73  F   UNL A   1      47.900  26.092  27.957  1.00  0.00    -0.206 F 
ATOM     74  C   UNL A   1      49.096  25.953  25.942  1.00  0.00     0.040 A 
ATOM     75  C   UNL A   1      48.134  26.814  23.912  1.00  0.00     0.040 A 
ATOM     76  F   UNL A   1      46.020  27.828  23.953  1.00  0.00    -0.206 F 
ATOM     77  C   UNL A   1      49.192  26.193  24.574  1.00  0.00     0.006 A 
ENDBRANCH  49  70
BRANCH  61  78
ATOM     78  C   UNL A   1      45.164  33.015  29.019  1.00  0.00     0.057 A 
ATOM     79  C   UNL A   1      46.038  33.244  30.088  1.00  0.00     0.134 A 
ATOM     80  C   UNL A   1      45.043  34.019  28.049  1.00  0.00     0.134 A 
ATOM     81  F   UNL A   1      46.188  32.326  31.054  1.00  0.00    -0.206 F 
ATOM     82  C   UNL A   1      46.751  34.438  30.198  1.00  0.00     0.040 A 
ATOM     83  C   UNL A   1      45.774  35.202  28.133  1.00  0.00     0.040 A 
ATOM     84  F   UNL A   1      44.231  33.853  26.994  1.00  0.00    -0.206 F 
ATOM     85  C   UNL A   1      46.627  35.416  29.213  1.00  0.00     0.006 A 
ENDBRANCH  61  78
ENDBRANCH  35  36
ENDBRANCH  28  30
ENDBRANCH  27  28
ENDBRANCH   1  27
TORSDOF 12
ENDMDL
MODEL 2
REMARK VINA RESULT:     -12.8      3.668      8.689
REMARK SMILES C=C1C[C@]23CC[C@@H]4[C@](C)(CCC[C@@]4(C)C(=O)OCCOC(=O)c4ccc(-c5c6nc(c(-c7c(F)cccc7F)c7ccc([nH]7)c(-c7c(F)cccc7F)c7nc(c(-c8c(F)cccc8F)c8ccc5[nH]8)C=C7)C=C6)cc4)[C@@H]2CC[C@@]1(O)C3
REMARK SMILES IDX 19 1 18 2 17 3 15 4 16 5 13 6 1 7 2 8 3 9 80 10 4 11 79 12
REMARK SMILES IDX 82 13 5 14 77 15 78 16 6 17 8 18 7 19 10 20 9 21 11 22 12 23
REMARK SMILES IDX 14 24 81 25 20 27 21 28 22 29 23 30 24 31 76 32 25 33 75 34
REMARK SMILES IDX 26 35 27 36 28 37 69 38 29 39 74 40 68 41 70 42 30 43 73 44
REMARK SMILES IDX 67 45 66 46 31 48 57 49 40 50 56 51 41 52 44 53 55 54 71 55
REMARK SMILES IDX 42 56 43 57 54 59 72 60 45 61 32 62 33 63 38 64 34 65 35 66
REMARK SMILES IDX 37 67 39 68 36 69 58 70 59 71 64 72 60 73 61 74 63 75 65 76
REMARK SMILES IDX 62 77 46 78 47 79 52 80 48 81 49 82 51 83 53 84 50 85
REMARK H PARENT 81 26 70 47 44 58
REMARK Flexibility Score: inf
ROOT
ATOM      1  C   UNL A   1      31.779  29.528  26.289  1.00  0.00     0.275 C 
ENDROOT
BRANCH   1   2
ATOM      2  C   UNL A   1      31.776  28.206  27.054  1.00  0.00     0.274 C 
BRANCH   2   3
ATOM      3  O   UNL A   1      31.479  27.097  26.187  1.00  0.00    -0.462 OA
BRANCH   3   4
ATOM      4  C   UNL A   1      32.428  26.331  25.551  1.00  0.00     0.312 C 
ATOM      5  O   UNL A   1      33.358  25.792  26.125  1.00  0.00    -0.252 OA
BRANCH   4   6
ATOM      6  C   UNL A   1      32.242  26.539  24.022  1.00  0.00     0.069 C 
ATOM      7  C   UNL A   1      32.711  18.548  24.903  1.00  0.00     0.011 C 
ATOM      8  C   UNL A   1      32.815  19.872  24.723  1.00  0.00    -0.045 C 
ATOM      9  C   UNL A   1      32.222  20.653  23.554  1.00  0.00     0.040 C 
ATOM     10  C   UNL A   1      33.283  20.861  25.756  1.00  0.00     0.086 C 
ATOM     11  C   UNL A   1      32.147  22.116  24.085  1.00  0.00    -0.020 C 
ATOM     12  C   UNL A   1      34.649  21.480  25.380  1.00  0.00     0.040 C 
ATOM     13  C   UNL A   1      32.151  21.855  25.620  1.00  0.00     0.047 C 
ATOM     14  C   UNL A   1      30.868  22.826  23.715  1.00  0.00     0.008 C 
ATOM     15  C   UNL A   1      33.416  23.018  23.795  1.00  0.00     0.002 C 
ATOM     16  C   UNL A   1      34.701  22.171  23.977  1.00  0.00     0.008 C 
ATOM     17  C   UNL A   1      30.941  24.200  24.383  1.00  0.00     0.006 C 
ATOM     18  C   UNL A   1      33.322  24.430  23.010  1.00  0.00    -0.025 C 
ATOM     19  C   UNL A   1      32.102  25.028  23.711  1.00  0.00     0.012 C 
ATOM     20  C   UNL A   1      32.903  24.975  21.536  1.00  0.00     0.007 C 
ATOM     21  C   UNL A   1      34.752  25.020  23.177  1.00  0.00     0.012 C 
ATOM     22  C   UNL A   1      31.812  26.327  21.504  1.00  0.00     0.002 C 
ATOM     23  C   UNL A   1      31.233  26.966  22.944  1.00  0.00     0.019 C 
ATOM     24  C   UNL A   1      33.339  27.612  23.695  1.00  0.00     0.024 C 
BRANCH  10  25
ATOM     25  O   UNL A   1      33.278  20.364  27.079  1.00  0.00    -0.386 OA
ATOM     26  H   UNL A   1      32.694  19.591  27.132  1.00  0.00     0.211 HD
ENDBRANCH  10  25
ENDBRANCH   4   6
ENDBRANCH   3   4
ENDBRANCH   2   3
ENDBRANCH   1   2
BRANCH   1  27
ATOM     27  O   UNL A   1      33.101  30.074  26.260  1.00  0.00    -0.458 OA
BRANCH  27  28
ATOM     28  C   UNL A   1      33.278  31.187  27.020  1.00  0.00     0.338 C 
ATOM     29  O   UNL A   1      32.479  32.071  27.239  1.00  0.00    -0.246 OA
BRANCH  28  30
ATOM     30  C   UNL A   1      34.538  31.008  27.765  1.00  0.00     0.060 A 
ATOM     31  C   UNL A   1      34.880  29.709  28.169  1.00  0.00     0.016 A 
ATOM     32  C   UNL A   1      35.413  32.073  27.956  1.00  0.00     0.016 A 
ATOM     33  C   UNL A   1      36.147  29.444  28.662  1.00  0.00     0.010 A 
ATOM     34  C   UNL A   1      36.649  31.826  28.540  1.00  0.00     0.010 A 
ATOM     35  C   UNL A   1      37.016  30.511  28.878  1.00  0.00    -0.014 A 
BRANCH  35  36
ATOM     36  C   UNL A   1      38.235  30.292  29.666  1.00  0.00     0.031 A 
ATOM     37  C   UNL A   1      39.269  29.395  29.066  1.00  0.00     0.074 A 
ATOM     38  C   UNL A   1      38.375  30.851  30.877  1.00  0.00     0.049 A 
ATOM     39  N   UNL A   1      40.314  28.850  29.621  1.00  0.00    -0.248 NA
ATOM     40  C   UNL A   1      39.086  29.049  27.643  1.00  0.00     0.031 C 
ATOM     41  C   UNL A   1      37.445  31.802  31.487  1.00  0.00     0.029 A 
ATOM     42  N   UNL A   1      39.347  30.671  31.823  1.00  0.00    -0.354 N 
ATOM     43  C   UNL A   1      40.884  28.061  28.632  1.00  0.00     0.074 A 
ATOM     44  C   UNL A   1      40.081  28.200  27.441  1.00  0.00     0.031 C 
ATOM     45  C   UNL A   1      37.874  32.092  32.728  1.00  0.00     0.029 A 
ATOM     46  C   UNL A   1      39.070  31.304  33.010  1.00  0.00     0.049 A 
ATOM     47  H   UNL A   1      40.162  30.140  31.669  1.00  0.00     0.167 HD
ATOM     48  C   UNL A   1      41.979  27.277  28.734  1.00  0.00     0.037 A 
ATOM     49  C   UNL A   1      39.695  31.198  34.198  1.00  0.00     0.037 A 
ATOM     50  C   UNL A   1      42.758  27.175  29.936  1.00  0.00     0.049 A 
ATOM     51  C   UNL A   1      40.873  30.263  34.298  1.00  0.00     0.074 A 
ATOM     52  C   UNL A   1      43.908  26.445  30.160  1.00  0.00     0.029 A 
ATOM     53  N   UNL A   1      42.451  27.828  31.123  1.00  0.00    -0.354 N 
ATOM     54  N   UNL A   1      41.426  29.522  33.366  1.00  0.00    -0.248 NA
ATOM     55  C   UNL A   1      41.506  30.135  35.618  1.00  0.00     0.031 C 
ATOM     56  C   UNL A   1      44.267  26.611  31.501  1.00  0.00     0.029 A 
ATOM     57  C   UNL A   1      43.375  27.491  32.095  1.00  0.00     0.049 A 
ATOM     58  H   UNL A   1      41.691  28.439  31.253  1.00  0.00     0.167 HD
ATOM     59  C   UNL A   1      42.486  28.865  33.976  1.00  0.00     0.074 A 
ATOM     60  C   UNL A   1      42.508  29.309  35.355  1.00  0.00     0.031 C 
ATOM     61  C   UNL A   1      43.365  27.973  33.453  1.00  0.00     0.037 A 
BRANCH  48  62
ATOM     62  C   UNL A   1      42.354  26.440  27.550  1.00  0.00     0.057 A 
ATOM     63  C   UNL A   1      43.190  26.914  26.532  1.00  0.00     0.134 A 
ATOM     64  C   UNL A   1      41.891  25.122  27.446  1.00  0.00     0.134 A 
ATOM     65  F   UNL A   1      43.645  28.175  26.557  1.00  0.00    -0.206 F 
ATOM     66  C   UNL A   1      43.548  26.109  25.449  1.00  0.00     0.040 A 
ATOM     67  C   UNL A   1      42.262  24.299  26.381  1.00  0.00     0.040 A 
ATOM     68  F   UNL A   1      41.077  24.609  28.381  1.00  0.00    -0.206 F 
ATOM     69  C   UNL A   1      43.092  24.793  25.378  1.00  0.00     0.006 A 
ENDBRANCH  48  62
BRANCH  49  70
ATOM     70  C   UNL A   1      39.202  31.940  35.387  1.00  0.00     0.057 A 
ATOM     71  C   UNL A   1      38.306  31.350  36.287  1.00  0.00     0.134 A 
ATOM     72  C   UNL A   1      39.576  33.268  35.634  1.00  0.00     0.134 A 
ATOM     73  F   UNL A   1      37.892  30.089  36.095  1.00  0.00    -0.206 F 
ATOM     74  C   UNL A   1      37.780  32.058  37.369  1.00  0.00     0.040 A 
ATOM     75  C   UNL A   1      39.081  33.978  36.730  1.00  0.00     0.040 A 
ATOM     76  F   UNL A   1      40.430  33.896  34.812  1.00  0.00    -0.206 F 
ATOM     77  C   UNL A   1      38.171  33.375  37.595  1.00  0.00     0.006 A 
ENDBRANCH  49  70
BRANCH  61  78
ATOM     78  C   UNL A   1      44.439  27.463  34.365  1.00  0.00     0.057 A 
ATOM     79  C   UNL A   1      45.645  28.151  34.543  1.00  0.00     0.134 A 
ATOM     80  C   UNL A   1      44.237  26.297  35.113  1.00  0.00     0.134 A 
ATOM     81  F   UNL A   1      45.901  29.268  33.846  1.00  0.00    -0.206 F 
ATOM     82  C   UNL A   1      46.623  27.684  35.421  1.00  0.00     0.040 A 
ATOM     83  C   UNL A   1      45.194  25.837  36.015  1.00  0.00     0.040 A 
ATOM     84  F   UNL A   1      43.097  25.600  34.995  1.00  0.00    -0.206 F 
ATOM     85  C   UNL A   1      46.394  26.529  36.166  1.00  0.00     0.006 A 
ENDBRANCH  61  78
ENDBRANCH  35  36
ENDBRANCH  28  30
ENDBRANCH  27  28
ENDBRANCH   1  27
TORSDOF 12
ENDMDL
MODEL 3
REMARK VINA RESULT:     -12.7      2.477      6.349
REMARK SMILES C=C1C[C@]23CC[C@@H]4[C@](C)(CCC[C@@]4(C)C(=O)OCCOC(=O)c4ccc(-c5c6nc(c(-c7c(F)cccc7F)c7ccc([nH]7)c(-c7c(F)cccc7F)c7nc(c(-c8c(F)cccc8F)c8ccc5[nH]8)C=C7)C=C6)cc4)[C@@H]2CC[C@@]1(O)C3
REMARK SMILES IDX 19 1 18 2 17 3 15 4 16 5 13 6 1 7 2 8 3 9 80 10 4 11 79 12
REMARK SMILES IDX 82 13 5 14 77 15 78 16 6 17 8 18 7 19 10 20 9 21 11 22 12 23
REMARK SMILES IDX 14 24 81 25 20 27 21 28 22 29 23 30 24 31 76 32 25 33 75 34
REMARK SMILES IDX 26 35 27 36 28 37 69 38 29 39 74 40 68 41 70 42 30 43 73 44
REMARK SMILES IDX 67 45 66 46 31 48 57 49 40 50 56 51 41 52 44 53 55 54 71 55
REMARK SMILES IDX 42 56 43 57 54 59 72 60 45 61 32 62 33 63 38 64 34 65 35 66
REMARK SMILES IDX 37 67 39 68 36 69 58 70 59 71 64 72 60 73 61 74 63 75 65 76
REMARK SMILES IDX 62 77 46 78 47 79 52 80 48 81 49 82 51 83 53 84 50 85
REMARK H PARENT 81 26 70 47 44 58
REMARK Flexibility Score: inf
ROOT
ATOM      1  C   UNL A   1      32.671  29.895  26.987  1.00  0.00     0.275 C 
ENDROOT
BRANCH   1   2
ATOM      2  C   UNL A   1      32.899  29.700  25.489  1.00  0.00     0.274 C 
BRANCH   2   3
ATOM      3  O   UNL A   1      33.552  28.448  25.216  1.00  0.00    -0.462 OA
BRANCH   3   4
ATOM      4  C   UNL A   1      33.407  27.733  24.049  1.00  0.00     0.312 C 
ATOM      5  O   UNL A   1      34.200  27.780  23.125  1.00  0.00    -0.252 OA
BRANCH   4   6
ATOM      6  C   UNL A   1      31.972  27.136  24.047  1.00  0.00     0.069 C 
ATOM      7  C   UNL A   1      36.750  20.819  25.498  1.00  0.00     0.011 C 
ATOM      8  C   UNL A   1      35.965  21.821  25.079  1.00  0.00    -0.045 C 
ATOM      9  C   UNL A   1      34.474  21.955  25.372  1.00  0.00     0.040 C 
ATOM     10  C   UNL A   1      36.444  23.120  24.490  1.00  0.00     0.086 C 
ATOM     11  C   UNL A   1      34.188  23.471  25.156  1.00  0.00    -0.020 C 
ATOM     12  C   UNL A   1      36.085  23.238  22.991  1.00  0.00     0.040 C 
ATOM     13  C   UNL A   1      35.619  24.053  25.348  1.00  0.00     0.047 C 
ATOM     14  C   UNL A   1      33.277  24.066  26.201  1.00  0.00     0.008 C 
ATOM     15  C   UNL A   1      33.743  23.886  23.694  1.00  0.00     0.002 C 
ATOM     16  C   UNL A   1      34.564  23.077  22.658  1.00  0.00     0.008 C 
ATOM     17  C   UNL A   1      33.179  25.557  25.875  1.00  0.00     0.006 C 
ATOM     18  C   UNL A   1      32.362  24.676  23.393  1.00  0.00    -0.025 C 
ATOM     19  C   UNL A   1      32.426  25.726  24.500  1.00  0.00     0.012 C 
ATOM     20  C   UNL A   1      30.763  24.426  23.543  1.00  0.00     0.007 C 
ATOM     21  C   UNL A   1      32.491  25.043  21.886  1.00  0.00     0.012 C 
ATOM     22  C   UNL A   1      29.857  25.708  24.289  1.00  0.00     0.002 C 
ATOM     23  C   UNL A   1      30.651  27.084  24.831  1.00  0.00     0.019 C 
ATOM     24  C   UNL A   1      31.379  27.701  22.709  1.00  0.00     0.024 C 
BRANCH  10  25
ATOM     25  O   UNL A   1      37.810  23.395  24.725  1.00  0.00    -0.386 OA
ATOM     26  H   UNL A   1      37.913  23.792  25.605  1.00  0.00     0.211 HD
ENDBRANCH  10  25
ENDBRANCH   4   6
ENDBRANCH   3   4
ENDBRANCH   2   3
ENDBRANCH   1   2
BRANCH   1  27
ATOM     27  O   UNL A   1      33.873  29.607  27.707  1.00  0.00    -0.458 OA
BRANCH  27  28
ATOM     28  C   UNL A   1      34.550  30.699  28.153  1.00  0.00     0.338 C 
ATOM     29  O   UNL A   1      34.090  31.756  28.524  1.00  0.00    -0.246 OA
BRANCH  28  30
ATOM     30  C   UNL A   1      35.948  30.284  28.366  1.00  0.00     0.060 A 
ATOM     31  C   UNL A   1      36.300  29.790  29.631  1.00  0.00     0.016 A 
ATOM     32  C   UNL A   1      36.860  30.272  27.313  1.00  0.00     0.016 A 
ATOM     33  C   UNL A   1      37.525  29.174  29.823  1.00  0.00     0.010 A 
ATOM     34  C   UNL A   1      38.125  29.742  27.530  1.00  0.00     0.010 A 
ATOM     35  C   UNL A   1      38.448  29.183  28.779  1.00  0.00    -0.014 A 
BRANCH  35  36
ATOM     36  C   UNL A   1      39.840  28.807  29.053  1.00  0.00     0.031 A 
ATOM     37  C   UNL A   1      40.728  29.876  29.604  1.00  0.00     0.074 A 
ATOM     38  C   UNL A   1      40.279  27.569  28.782  1.00  0.00     0.049 A 
ATOM     39  N   UNL A   1      42.025  29.896  29.719  1.00  0.00    -0.248 NA
ATOM     40  C   UNL A   1      40.056  31.104  30.071  1.00  0.00     0.031 C 
ATOM     41  C   UNL A   1      39.450  26.454  28.323  1.00  0.00     0.029 A 
ATOM     42  N   UNL A   1      41.546  27.055  28.826  1.00  0.00    -0.354 N 
ATOM     43  C   UNL A   1      42.328  31.152  30.225  1.00  0.00     0.074 A 
ATOM     44  C   UNL A   1      41.086  31.865  30.405  1.00  0.00     0.031 C 
ATOM     45  C   UNL A   1      40.242  25.393  28.089  1.00  0.00     0.029 A 
ATOM     46  C   UNL A   1      41.629  25.778  28.328  1.00  0.00     0.049 A 
ATOM     47  H   UNL A   1      42.321  27.551  29.178  1.00  0.00     0.167 HD
ATOM     48  C   UNL A   1      43.551  31.657  30.495  1.00  0.00     0.037 A 
ATOM     49  C   UNL A   1      42.722  25.041  28.049  1.00  0.00     0.037 A 
ATOM     50  C   UNL A   1      44.763  30.909  30.313  1.00  0.00     0.049 A 
ATOM     51  C   UNL A   1      44.074  25.658  28.297  1.00  0.00     0.074 A 
ATOM     52  C   UNL A   1      46.061  31.291  30.583  1.00  0.00     0.029 A 
ATOM     53  N   UNL A   1      44.815  29.617  29.806  1.00  0.00    -0.354 N 
ATOM     54  N   UNL A   1      44.370  26.840  28.786  1.00  0.00    -0.248 NA
ATOM     55  C   UNL A   1      45.247  24.847  27.942  1.00  0.00     0.031 C 
ATOM     56  C   UNL A   1      46.907  30.251  30.185  1.00  0.00     0.029 A 
ATOM     57  C   UNL A   1      46.130  29.199  29.723  1.00  0.00     0.049 A 
ATOM     58  H   UNL A   1      44.033  29.080  29.544  1.00  0.00     0.167 HD
ATOM     59  C   UNL A   1      45.757  26.903  28.825  1.00  0.00     0.074 A 
ATOM     60  C   UNL A   1      46.242  25.633  28.325  1.00  0.00     0.031 C 
ATOM     61  C   UNL A   1      46.564  27.915  29.233  1.00  0.00     0.037 A 
BRANCH  48  62
ATOM     62  C   UNL A   1      43.635  33.081  30.952  1.00  0.00     0.057 A 
ATOM     63  C   UNL A   1      43.713  34.153  30.055  1.00  0.00     0.134 A 
ATOM     64  C   UNL A   1      43.607  33.383  32.320  1.00  0.00     0.134 A 
ATOM     65  F   UNL A   1      43.772  33.932  28.734  1.00  0.00    -0.206 F 
ATOM     66  C   UNL A   1      43.765  35.475  30.503  1.00  0.00     0.040 A 
ATOM     67  C   UNL A   1      43.633  34.701  32.779  1.00  0.00     0.040 A 
ATOM     68  F   UNL A   1      43.545  32.402  33.233  1.00  0.00    -0.206 F 
ATOM     69  C   UNL A   1      43.715  35.751  31.868  1.00  0.00     0.006 A 
ENDBRANCH  48  62
BRANCH  49  70
ATOM     70  C   UNL A   1      42.595  23.682  27.461  1.00  0.00     0.057 A 
ATOM     71  C   UNL A   1      42.633  23.488  26.076  1.00  0.00     0.134 A 
ATOM     72  C   UNL A   1      42.390  22.550  28.262  1.00  0.00     0.134 A 
ATOM     73  F   UNL A   1      42.804  24.533  25.253  1.00  0.00    -0.206 F 
ATOM     74  C   UNL A   1      42.445  22.227  25.506  1.00  0.00     0.040 A 
ATOM     75  C   UNL A   1      42.231  21.279  27.707  1.00  0.00     0.040 A 
ATOM     76  F   UNL A   1      42.341  22.663  29.598  1.00  0.00    -0.206 F 
ATOM     77  C   UNL A   1      42.247  21.117  26.323  1.00  0.00     0.006 A 
ENDBRANCH  49  70
BRANCH  61  78
ATOM     78  C   UNL A   1      48.040  27.665  29.194  1.00  0.00     0.057 A 
ATOM     79  C   UNL A   1      48.704  26.998  30.230  1.00  0.00     0.134 A 
ATOM     80  C   UNL A   1      48.794  28.049  28.078  1.00  0.00     0.134 A 
ATOM     81  F   UNL A   1      48.039  26.616  31.331  1.00  0.00    -0.206 F 
ATOM     82  C   UNL A   1      50.074  26.741  30.166  1.00  0.00     0.040 A 
ATOM     83  C   UNL A   1      50.156  27.770  27.990  1.00  0.00     0.040 A 
ATOM     84  F   UNL A   1      48.212  28.680  27.047  1.00  0.00    -0.206 F 
ATOM     85  C   UNL A   1      50.801  27.119  29.039  1.00  0.00     0.006 A 
ENDBRANCH  61  78
ENDBRANCH  35  36
ENDBRANCH  28  30
ENDBRANCH  27  28
ENDBRANCH   1  27
TORSDOF 12
ENDMDL
