MODEL 1
REMARK VINA RESULT:     -14.4      0.000      0.000
REMARK SMILES Cc1ccc(S(=O)(=O)n2cc(C(=O)C(=O)N[C@@H](Cc3cnc[nH]3)C(=O)OCCOC(=O)c3ccc(-c4c5nc(c(-c6c(F)cccc6F)c6ccc([nH]6)c(-c6c(F)cccc6F)c6nc(c(-c7c(F)cccc7F)c7ccc4[nH]7)C=C6)C=C5)cc3)c3ccccc32)cc1
REMARK SMILES IDX 26 1 24 2 25 3 17 4 16 5 14 6 15 7 12 9 13 10 11 11 9 12
REMARK SMILES IDX 10 13 91 14 86 15 90 16 87 17 89 18 88 19 6 20 7 21 8 22
REMARK SMILES IDX 5 23 1 24 2 25 3 26 93 27 4 28 92 29 18 30 19 31 20 32 23 33
REMARK SMILES IDX 21 34 22 35 27 37 28 38 29 39 30 40 31 41 32 42 33 43 85 44
REMARK SMILES IDX 34 45 84 46 35 47 36 48 37 49 78 50 38 51 83 52 77 53 79 54
REMARK SMILES IDX 39 55 82 56 76 57 75 58 40 60 66 61 49 62 65 63 50 64 53 65
REMARK SMILES IDX 64 66 80 67 51 68 52 69 63 71 81 72 54 73 41 74 42 75 47 76
REMARK SMILES IDX 43 77 44 78 46 79 48 80 45 81 67 82 68 83 73 84 69 85 70 86
REMARK SMILES IDX 72 87 74 88 71 89 55 90 56 91 61 92 57 93 58 94 60 95 62 96
REMARK SMILES IDX 59 97
REMARK H PARENT 16 8 23 36 79 59 53 70
REMARK Flexibility Score: inf
ROOT
ATOM      1  O   UNL A   1      35.901  22.205  25.968  1.00  0.00    -0.461 OA
ENDROOT
BRANCH   1   2
ATOM      2  C   UNL A   1      35.143  21.684  24.835  1.00  0.00     0.329 C 
ATOM      3  O   UNL A   1      35.884  21.936  23.846  1.00  0.00    -0.250 OA
BRANCH   2   4
ATOM      4  C   UNL A   1      33.274  20.538  25.043  1.00  0.00     0.198 C 
BRANCH   4   5
ATOM      5  N   UNL A   1      31.721  21.096  25.409  1.00  0.00    -0.335 N 
ATOM      6  C   UNL A   1      31.159  22.147  26.107  1.00  0.00     0.293 C 
ATOM      7  O   UNL A   1      29.944  22.096  26.291  1.00  0.00    -0.265 OA
ATOM      8  H   UNL A   1      31.029  20.514  25.019  1.00  0.00     0.164 HD
BRANCH   6   9
ATOM      9  C   UNL A   1      31.965  23.355  26.652  1.00  0.00     0.252 C 
ATOM     10  O   UNL A   1      32.466  23.259  27.771  1.00  0.00    -0.283 OA
BRANCH   9  11
ATOM     11  C   UNL A   1      32.081  24.619  25.879  1.00  0.00     0.054 A 
ATOM     12  N   UNL A   1      32.187  26.799  25.349  1.00  0.00    -0.240 N 
ATOM     13  C   UNL A   1      31.862  25.908  26.343  1.00  0.00     0.117 A 
ATOM     14  C   UNL A   1      32.603  26.141  24.213  1.00  0.00     0.065 A 
ATOM     15  C   UNL A   1      32.485  24.770  24.497  1.00  0.00     0.012 A 
ATOM     16  C   UNL A   1      33.056  26.613  22.965  1.00  0.00     0.028 A 
ATOM     17  C   UNL A   1      32.783  23.856  23.461  1.00  0.00     0.011 A 
ATOM     18  C   UNL A   1      33.330  25.681  21.964  1.00  0.00     0.002 A 
ATOM     19  C   UNL A   1      33.184  24.321  22.203  1.00  0.00     0.001 A 
BRANCH  12  20
ATOM     20  S   UNL A   1      32.181  28.494  25.556  1.00  0.00     0.268 S 
ATOM     21  O   UNL A   1      33.452  28.941  25.017  1.00  0.00    -0.201 OA
ATOM     22  O   UNL A   1      31.812  28.722  26.940  1.00  0.00    -0.201 OA
BRANCH  20  23
ATOM     23  C   UNL A   1      30.898  29.206  24.556  1.00  0.00     0.088 A 
ATOM     24  C   UNL A   1      27.592  30.628  22.191  1.00  0.00     0.044 C 
ATOM     25  C   UNL A   1      28.754  30.141  23.005  1.00  0.00    -0.051 A 
ATOM     26  C   UNL A   1      29.148  28.800  22.927  1.00  0.00     0.005 A 
ATOM     27  C   UNL A   1      29.461  31.011  23.846  1.00  0.00     0.005 A 
ATOM     28  C   UNL A   1      30.210  28.331  23.703  1.00  0.00     0.022 A 
ATOM     29  C   UNL A   1      30.541  30.552  24.609  1.00  0.00     0.022 A 
ENDBRANCH  20  23
ENDBRANCH  12  20
ENDBRANCH   9  11
ENDBRANCH   6   9
ENDBRANCH   4   5
BRANCH   4  30
ATOM     30  C   UNL A   1      32.600  19.133  24.156  1.00  0.00     0.092 C 
BRANCH  30  31
ATOM     31  C   UNL A   1      33.239  17.777  24.363  1.00  0.00     0.037 A 
ATOM     32  C   UNL A   1      34.005  16.959  23.559  1.00  0.00     0.134 A 
ATOM     33  N   UNL A   1      33.129  17.055  25.537  1.00  0.00    -0.348 N 
ATOM     34  N   UNL A   1      34.537  15.918  24.279  1.00  0.00    -0.245 NA
ATOM     35  C   UNL A   1      34.034  16.036  25.484  1.00  0.00     0.196 A 
ATOM     36  H   UNL A   1      32.510  17.243  26.277  1.00  0.00     0.167 HD
ENDBRANCH  30  31
ENDBRANCH   4  30
ENDBRANCH   2   4
ENDBRANCH   1   2
BRANCH   1  37
ATOM     37  C   UNL A   1      37.207  22.753  25.720  1.00  0.00     0.274 C 
BRANCH  37  38
ATOM     38  C   UNL A   1      38.257  21.632  25.651  1.00  0.00     0.275 C 
BRANCH  38  39
ATOM     39  O   UNL A   1      39.589  21.977  26.125  1.00  0.00    -0.458 OA
BRANCH  39  40
ATOM     40  C   UNL A   1      40.670  21.143  26.109  1.00  0.00     0.338 C 
ATOM     41  O   UNL A   1      40.595  19.929  26.000  1.00  0.00    -0.246 OA
BRANCH  40  42
ATOM     42  C   UNL A   1      41.903  21.745  26.638  1.00  0.00     0.060 A 
ATOM     43  C   UNL A   1      42.072  21.681  28.436  1.00  0.00     0.016 A 
ATOM     44  C   UNL A   1      42.687  23.070  25.709  1.00  0.00     0.016 A 
ATOM     45  C   UNL A   1      42.810  23.086  29.327  1.00  0.00     0.010 A 
ATOM     46  C   UNL A   1      43.426  24.449  26.608  1.00  0.00     0.010 A 
ATOM     47  C   UNL A   1      43.420  24.483  28.411  1.00  0.00    -0.014 A 
BRANCH  47  48
ATOM     48  C   UNL A   1      43.441  25.876  28.879  1.00  0.00     0.031 A 
ATOM     49  C   UNL A   1      42.256  26.686  28.579  1.00  0.00     0.074 A 
ATOM     50  C   UNL A   1      44.209  26.149  29.956  1.00  0.00     0.049 A 
ATOM     51  N   UNL A   1      41.399  27.083  29.461  1.00  0.00    -0.248 NA
ATOM     52  C   UNL A   1      41.863  26.943  27.189  1.00  0.00     0.031 C 
ATOM     53  C   UNL A   1      44.030  27.176  30.974  1.00  0.00     0.029 A 
ATOM     54  N   UNL A   1      45.473  25.638  30.225  1.00  0.00    -0.354 N 
ATOM     55  C   UNL A   1      40.445  27.806  28.785  1.00  0.00     0.074 A 
ATOM     56  C   UNL A   1      40.681  27.540  27.367  1.00  0.00     0.031 C 
ATOM     57  C   UNL A   1      45.217  27.437  31.549  1.00  0.00     0.029 A 
ATOM     58  C   UNL A   1      46.222  26.657  30.849  1.00  0.00     0.049 A 
ATOM     59  H   UNL A   1      45.789  24.728  30.018  1.00  0.00     0.167 HD
ATOM     60  C   UNL A   1      40.126  29.069  29.166  1.00  0.00     0.037 A 
ATOM     61  C   UNL A   1      47.266  27.181  30.134  1.00  0.00     0.037 A 
ATOM     62  C   UNL A   1      41.239  29.777  29.752  1.00  0.00     0.049 A 
ATOM     63  C   UNL A   1      46.888  28.496  29.473  1.00  0.00     0.074 A 
ATOM     64  C   UNL A   1      41.729  29.971  31.026  1.00  0.00     0.029 A 
ATOM     65  N   UNL A   1      42.220  30.219  28.887  1.00  0.00    -0.354 N 
ATOM     66  N   UNL A   1      45.689  29.016  29.519  1.00  0.00    -0.248 NA
ATOM     67  C   UNL A   1      47.807  29.315  28.687  1.00  0.00     0.031 C 
ATOM     68  C   UNL A   1      43.076  30.442  30.897  1.00  0.00     0.029 A 
ATOM     69  C   UNL A   1      43.372  30.582  29.550  1.00  0.00     0.049 A 
ATOM     70  H   UNL A   1      42.109  30.269  27.910  1.00  0.00     0.167 HD
ATOM     71  C   UNL A   1      45.658  30.193  28.833  1.00  0.00     0.074 A 
ATOM     72  C   UNL A   1      46.996  30.308  28.276  1.00  0.00     0.031 C 
ATOM     73  C   UNL A   1      44.545  30.987  28.779  1.00  0.00     0.037 A 
BRANCH  60  74
ATOM     74  C   UNL A   1      38.676  29.443  29.181  1.00  0.00     0.057 A 
ATOM     75  C   UNL A   1      37.931  29.386  30.367  1.00  0.00     0.134 A 
ATOM     76  C   UNL A   1      37.946  29.765  28.015  1.00  0.00     0.134 A 
ATOM     77  F   UNL A   1      38.521  29.121  31.542  1.00  0.00    -0.206 F 
ATOM     78  C   UNL A   1      36.545  29.578  30.386  1.00  0.00     0.040 A 
ATOM     79  C   UNL A   1      36.563  29.973  28.024  1.00  0.00     0.040 A 
ATOM     80  F   UNL A   1      38.546  29.862  26.818  1.00  0.00    -0.206 F 
ATOM     81  C   UNL A   1      35.854  29.861  29.211  1.00  0.00     0.006 A 
ENDBRANCH  60  74
BRANCH  61  82
ATOM     82  C   UNL A   1      48.082  26.064  29.555  1.00  0.00     0.057 A 
ATOM     83  C   UNL A   1      47.950  25.852  28.163  1.00  0.00     0.134 A 
ATOM     84  C   UNL A   1      49.265  25.618  30.149  1.00  0.00     0.134 A 
ATOM     85  F   UNL A   1      46.828  26.233  27.530  1.00  0.00    -0.206 F 
ATOM     86  C   UNL A   1      49.024  25.435  27.375  1.00  0.00     0.040 A 
ATOM     87  C   UNL A   1      50.324  25.128  29.370  1.00  0.00     0.040 A 
ATOM     88  F   UNL A   1      49.484  25.799  31.460  1.00  0.00    -0.206 F 
ATOM     89  C   UNL A   1      50.231  25.111  27.978  1.00  0.00     0.006 A 
ENDBRANCH  61  82
BRANCH  73  90
ATOM     90  C   UNL A   1      44.519  32.251  27.972  1.00  0.00     0.057 A 
ATOM     91  C   UNL A   1      44.700  33.511  28.555  1.00  0.00     0.134 A 
ATOM     92  C   UNL A   1      44.261  32.250  26.587  1.00  0.00     0.134 A 
ATOM     93  F   UNL A   1      44.838  33.642  29.884  1.00  0.00    -0.206 F 
ATOM     94  C   UNL A   1      44.742  34.682  27.796  1.00  0.00     0.040 A 
ATOM     95  C   UNL A   1      44.220  33.422  25.830  1.00  0.00     0.040 A 
ATOM     96  F   UNL A   1      44.076  31.112  25.903  1.00  0.00    -0.206 F 
ATOM     97  C   UNL A   1      44.499  34.641  26.427  1.00  0.00     0.006 A 
ENDBRANCH  73  90
ENDBRANCH  47  48
ENDBRANCH  40  42
ENDBRANCH  39  40
ENDBRANCH  38  39
ENDBRANCH  37  38
ENDBRANCH   1  37
TORSDOF 18
ENDMDL
MODEL 2
REMARK VINA RESULT:     -14.3      2.316      6.627
REMARK SMILES Cc1ccc(S(=O)(=O)n2cc(C(=O)C(=O)N[C@@H](Cc3cnc[nH]3)C(=O)OCCOC(=O)c3ccc(-c4c5nc(c(-c6c(F)cccc6F)c6ccc([nH]6)c(-c6c(F)cccc6F)c6nc(c(-c7c(F)cccc7F)c7ccc4[nH]7)C=C6)C=C5)cc3)c3ccccc32)cc1
REMARK SMILES IDX 26 1 24 2 25 3 17 4 16 5 14 6 15 7 12 9 13 10 11 11 9 12
REMARK SMILES IDX 10 13 91 14 86 15 90 16 87 17 89 18 88 19 6 20 7 21 8 22
REMARK SMILES IDX 5 23 1 24 2 25 3 26 93 27 4 28 92 29 18 30 19 31 20 32 23 33
REMARK SMILES IDX 21 34 22 35 27 37 28 38 29 39 30 40 31 41 32 42 33 43 85 44
REMARK SMILES IDX 34 45 84 46 35 47 36 48 37 49 78 50 38 51 83 52 77 53 79 54
REMARK SMILES IDX 39 55 82 56 76 57 75 58 40 60 66 61 49 62 65 63 50 64 53 65
REMARK SMILES IDX 64 66 80 67 51 68 52 69 63 71 81 72 54 73 41 74 42 75 47 76
REMARK SMILES IDX 43 77 44 78 46 79 48 80 45 81 67 82 68 83 73 84 69 85 70 86
REMARK SMILES IDX 72 87 74 88 71 89 55 90 56 91 61 92 57 93 58 94 60 95 62 96
REMARK SMILES IDX 59 97
REMARK H PARENT 16 8 23 36 79 59 53 70
REMARK Flexibility Score: inf
ROOT
ATOM      1  O   UNL A   1      36.509  21.877  25.802  1.00  0.00    -0.461 OA
ENDROOT
BRANCH   1   2
ATOM      2  C   UNL A   1      35.815  20.734  25.220  1.00  0.00     0.329 C 
ATOM      3  O   UNL A   1      36.749  19.930  24.952  1.00  0.00    -0.250 OA
BRANCH   2   4
ATOM      4  C   UNL A   1      33.621  20.549  25.144  1.00  0.00     0.198 C 
BRANCH   4   5
ATOM      5  N   UNL A   1      32.488  21.617  24.487  1.00  0.00    -0.335 N 
ATOM      6  C   UNL A   1      32.115  22.935  24.661  1.00  0.00     0.293 C 
ATOM      7  O   UNL A   1      31.089  23.296  24.088  1.00  0.00    -0.265 OA
ATOM      8  H   UNL A   1      31.946  21.181  23.790  1.00  0.00     0.164 HD
BRANCH   6   9
ATOM      9  C   UNL A   1      32.910  23.953  25.521  1.00  0.00     0.252 C 
ATOM     10  O   UNL A   1      33.667  23.515  26.384  1.00  0.00    -0.283 OA
BRANCH   9  11
ATOM     11  C   UNL A   1      32.718  25.418  25.357  1.00  0.00     0.054 A 
ATOM     12  N   UNL A   1      32.302  27.582  25.792  1.00  0.00    -0.240 N 
ATOM     13  C   UNL A   1      32.203  26.306  26.291  1.00  0.00     0.117 A 
ATOM     14  C   UNL A   1      32.855  27.578  24.531  1.00  0.00     0.065 A 
ATOM     15  C   UNL A   1      33.067  26.227  24.207  1.00  0.00     0.012 A 
ATOM     16  C   UNL A   1      33.176  28.622  23.640  1.00  0.00     0.028 A 
ATOM     17  C   UNL A   1      33.567  25.929  22.919  1.00  0.00     0.011 A 
ATOM     18  C   UNL A   1      33.656  28.288  22.374  1.00  0.00     0.002 A 
ATOM     19  C   UNL A   1      33.839  26.960  22.011  1.00  0.00     0.001 A 
BRANCH  12  20
ATOM     20  S   UNL A   1      31.896  28.982  26.681  1.00  0.00     0.268 S 
ATOM     21  O   UNL A   1      31.208  28.489  27.860  1.00  0.00    -0.201 OA
ATOM     22  O   UNL A   1      31.253  29.877  25.737  1.00  0.00    -0.201 OA
BRANCH  20  23
ATOM     23  C   UNL A   1      33.380  29.787  27.226  1.00  0.00     0.088 A 
ATOM     24  C   UNL A   1      37.164  31.537  28.306  1.00  0.00     0.044 C 
ATOM     25  C   UNL A   1      35.841  30.929  27.945  1.00  0.00    -0.051 A 
ATOM     26  C   UNL A   1      35.751  29.557  27.685  1.00  0.00     0.005 A 
ATOM     27  C   UNL A   1      34.684  31.715  27.867  1.00  0.00     0.005 A 
ATOM     28  C   UNL A   1      34.528  28.987  27.321  1.00  0.00     0.022 A 
ATOM     29  C   UNL A   1      33.452  31.147  27.524  1.00  0.00     0.022 A 
ENDBRANCH  20  23
ENDBRANCH  12  20
ENDBRANCH   9  11
ENDBRANCH   6   9
ENDBRANCH   4   5
BRANCH   4  30
ATOM     30  C   UNL A   1      32.524  19.158  24.873  1.00  0.00     0.092 C 
BRANCH  30  31
ATOM     31  C   UNL A   1      33.122  17.769  24.814  1.00  0.00     0.037 A 
ATOM     32  C   UNL A   1      33.699  17.029  23.802  1.00  0.00     0.134 A 
ATOM     33  N   UNL A   1      33.181  16.918  25.902  1.00  0.00    -0.348 N 
ATOM     34  N   UNL A   1      34.295  15.896  24.300  1.00  0.00    -0.245 NA
ATOM     35  C   UNL A   1      34.012  15.887  25.580  1.00  0.00     0.196 A 
ATOM     36  H   UNL A   1      32.707  17.036  26.756  1.00  0.00     0.167 HD
ENDBRANCH  30  31
ENDBRANCH   4  30
ENDBRANCH   2   4
ENDBRANCH   1   2
BRANCH   1  37
ATOM     37  C   UNL A   1      37.357  22.666  24.950  1.00  0.00     0.274 C 
BRANCH  37  38
ATOM     38  C   UNL A   1      38.258  23.587  25.788  1.00  0.00     0.275 C 
BRANCH  38  39
ATOM     39  O   UNL A   1      39.176  22.922  26.701  1.00  0.00    -0.458 OA
BRANCH  39  40
ATOM     40  C   UNL A   1      40.011  21.895  26.367  1.00  0.00     0.338 C 
ATOM     41  O   UNL A   1      39.629  20.783  26.037  1.00  0.00    -0.246 OA
BRANCH  40  42
ATOM     42  C   UNL A   1      41.398  22.076  26.820  1.00  0.00     0.060 A 
ATOM     43  C   UNL A   1      41.576  22.669  28.517  1.00  0.00     0.016 A 
ATOM     44  C   UNL A   1      42.665  22.451  25.600  1.00  0.00     0.016 A 
ATOM     45  C   UNL A   1      42.892  23.858  28.928  1.00  0.00     0.010 A 
ATOM     46  C   UNL A   1      43.972  23.621  26.028  1.00  0.00     0.010 A 
ATOM     47  C   UNL A   1      44.036  24.371  27.667  1.00  0.00    -0.014 A 
BRANCH  47  48
ATOM     48  C   UNL A   1      44.694  25.682  27.584  1.00  0.00     0.031 A 
ATOM     49  C   UNL A   1      46.157  25.691  27.689  1.00  0.00     0.074 A 
ATOM     50  C   UNL A   1      44.045  26.650  26.901  1.00  0.00     0.049 A 
ATOM     51  N   UNL A   1      46.958  25.950  26.709  1.00  0.00    -0.248 NA
ATOM     52  C   UNL A   1      46.818  25.207  28.906  1.00  0.00     0.031 C 
ATOM     53  C   UNL A   1      44.596  27.778  26.162  1.00  0.00     0.029 A 
ATOM     54  N   UNL A   1      42.680  26.909  26.924  1.00  0.00    -0.354 N 
ATOM     55  C   UNL A   1      48.235  25.854  27.209  1.00  0.00     0.074 A 
ATOM     56  C   UNL A   1      48.097  25.221  28.520  1.00  0.00     0.031 C 
ATOM     57  C   UNL A   1      43.663  28.741  26.067  1.00  0.00     0.029 A 
ATOM     58  C   UNL A   1      42.508  28.306  26.833  1.00  0.00     0.049 A 
ATOM     59  H   UNL A   1      41.962  26.238  26.989  1.00  0.00     0.167 HD
ATOM     60  C   UNL A   1      49.119  26.874  27.069  1.00  0.00     0.037 A 
ATOM     61  C   UNL A   1      42.016  28.940  27.942  1.00  0.00     0.037 A 
ATOM     62  C   UNL A   1      48.483  28.170  27.051  1.00  0.00     0.049 A 
ATOM     63  C   UNL A   1      43.124  29.591  28.753  1.00  0.00     0.074 A 
ATOM     64  C   UNL A   1      47.996  29.020  26.080  1.00  0.00     0.029 A 
ATOM     65  N   UNL A   1      48.022  28.653  28.258  1.00  0.00    -0.354 N 
ATOM     66  N   UNL A   1      44.396  29.485  28.464  1.00  0.00    -0.248 NA
ATOM     67  C   UNL A   1      42.905  30.381  29.961  1.00  0.00     0.031 C 
ATOM     68  C   UNL A   1      47.140  29.966  26.733  1.00  0.00     0.029 A 
ATOM     69  C   UNL A   1      47.159  29.715  28.097  1.00  0.00     0.049 A 
ATOM     70  H   UNL A   1      48.279  28.282  29.133  1.00  0.00     0.167 HD
ATOM     71  C   UNL A   1      45.145  30.172  29.372  1.00  0.00     0.074 A 
ATOM     72  C   UNL A   1      44.168  30.666  30.328  1.00  0.00     0.031 C 
ATOM     73  C   UNL A   1      46.504  30.291  29.269  1.00  0.00     0.037 A 
BRANCH  60  74
ATOM     74  C   UNL A   1      50.526  26.525  26.694  1.00  0.00     0.057 A 
ATOM     75  C   UNL A   1      50.893  26.356  25.353  1.00  0.00     0.134 A 
ATOM     76  C   UNL A   1      51.533  26.240  27.644  1.00  0.00     0.134 A 
ATOM     77  F   UNL A   1      50.031  26.626  24.361  1.00  0.00    -0.206 F 
ATOM     78  C   UNL A   1      52.154  25.880  24.979  1.00  0.00     0.040 A 
ATOM     79  C   UNL A   1      52.802  25.778  27.282  1.00  0.00     0.040 A 
ATOM     80  F   UNL A   1      51.312  26.375  28.962  1.00  0.00    -0.206 F 
ATOM     81  C   UNL A   1      53.111  25.578  25.944  1.00  0.00     0.006 A 
ENDBRANCH  60  74
BRANCH  61  82
ATOM     82  C   UNL A   1      40.823  28.191  28.456  1.00  0.00     0.057 A 
ATOM     83  C   UNL A   1      41.013  27.457  29.649  1.00  0.00     0.134 A 
ATOM     84  C   UNL A   1      39.514  28.577  28.157  1.00  0.00     0.134 A 
ATOM     85  F   UNL A   1      42.243  27.031  29.985  1.00  0.00    -0.206 F 
ATOM     86  C   UNL A   1      40.002  27.319  30.601  1.00  0.00     0.040 A 
ATOM     87  C   UNL A   1      38.475  28.377  29.079  1.00  0.00     0.040 A 
ATOM     88  F   UNL A   1      39.245  29.296  27.057  1.00  0.00    -0.206 F 
ATOM     89  C   UNL A   1      38.736  27.820  30.331  1.00  0.00     0.006 A 
ENDBRANCH  61  82
BRANCH  73  90
ATOM     90  C   UNL A   1      47.312  31.006  30.311  1.00  0.00     0.057 A 
ATOM     91  C   UNL A   1      47.723  30.378  31.493  1.00  0.00     0.134 A 
ATOM     92  C   UNL A   1      47.663  32.364  30.186  1.00  0.00     0.134 A 
ATOM     93  F   UNL A   1      47.348  29.120  31.772  1.00  0.00    -0.206 F 
ATOM     94  C   UNL A   1      48.531  31.021  32.434  1.00  0.00     0.040 A 
ATOM     95  C   UNL A   1      48.401  33.042  31.158  1.00  0.00     0.040 A 
ATOM     96  F   UNL A   1      47.337  33.083  29.102  1.00  0.00    -0.206 F 
ATOM     97  C   UNL A   1      48.871  32.359  32.269  1.00  0.00     0.006 A 
ENDBRANCH  73  90
ENDBRANCH  47  48
ENDBRANCH  40  42
ENDBRANCH  39  40
ENDBRANCH  38  39
ENDBRANCH  37  38
ENDBRANCH   1  37
TORSDOF 18
ENDMDL
MODEL 3
REMARK VINA RESULT:     -14.2      1.545      2.239
REMARK SMILES Cc1ccc(S(=O)(=O)n2cc(C(=O)C(=O)N[C@@H](Cc3cnc[nH]3)C(=O)OCCOC(=O)c3ccc(-c4c5nc(c(-c6c(F)cccc6F)c6ccc([nH]6)c(-c6c(F)cccc6F)c6nc(c(-c7c(F)cccc7F)c7ccc4[nH]7)C=C6)C=C5)cc3)c3ccccc32)cc1
REMARK SMILES IDX 26 1 24 2 25 3 17 4 16 5 14 6 15 7 12 9 13 10 11 11 9 12
REMARK SMILES IDX 10 13 91 14 86 15 90 16 87 17 89 18 88 19 6 20 7 21 8 22
REMARK SMILES IDX 5 23 1 24 2 25 3 26 93 27 4 28 92 29 18 30 19 31 20 32 23 33
REMARK SMILES IDX 21 34 22 35 27 37 28 38 29 39 30 40 31 41 32 42 33 43 85 44
REMARK SMILES IDX 34 45 84 46 35 47 36 48 37 49 78 50 38 51 83 52 77 53 79 54
REMARK SMILES IDX 39 55 82 56 76 57 75 58 40 60 66 61 49 62 65 63 50 64 53 65
REMARK SMILES IDX 64 66 80 67 51 68 52 69 63 71 81 72 54 73 41 74 42 75 47 76
REMARK SMILES IDX 43 77 44 78 46 79 48 80 45 81 67 82 68 83 73 84 69 85 70 86
REMARK SMILES IDX 72 87 74 88 71 89 55 90 56 91 61 92 57 93 58 94 60 95 62 96
REMARK SMILES IDX 59 97
REMARK H PARENT 16 8 23 36 79 59 53 70
REMARK Flexibility Score: inf
ROOT
ATOM      1  O   UNL A   1      37.789  20.131  24.535  1.00  0.00    -0.461 OA
ENDROOT
BRANCH   1   2
ATOM      2  C   UNL A   1      36.767  21.023  25.074  1.00  0.00     0.329 C 
ATOM      3  O   UNL A   1      37.332  22.150  25.071  1.00  0.00    -0.250 OA
BRANCH   2   4
ATOM      4  C   UNL A   1      34.700  20.392  25.499  1.00  0.00     0.198 C 
BRANCH   4   5
ATOM      5  N   UNL A   1      33.490  21.218  26.341  1.00  0.00    -0.335 N 
ATOM      6  C   UNL A   1      33.279  22.496  26.822  1.00  0.00     0.293 C 
ATOM      7  O   UNL A   1      32.308  22.651  27.560  1.00  0.00    -0.265 OA
ATOM      8  H   UNL A   1      32.728  20.629  26.543  1.00  0.00     0.164 HD
BRANCH   6   9
ATOM      9  C   UNL A   1      34.184  23.709  26.482  1.00  0.00     0.252 C 
ATOM     10  O   UNL A   1      35.231  23.844  27.112  1.00  0.00    -0.283 OA
BRANCH   9  11
ATOM     11  C   UNL A   1      33.774  24.719  25.472  1.00  0.00     0.054 A 
ATOM     12  N   UNL A   1      33.330  26.676  24.464  1.00  0.00    -0.240 N 
ATOM     13  C   UNL A   1      33.594  26.080  25.673  1.00  0.00     0.117 A 
ATOM     14  C   UNL A   1      33.307  25.746  23.449  1.00  0.00     0.065 A 
ATOM     15  C   UNL A   1      33.519  24.500  24.063  1.00  0.00     0.012 A 
ATOM     16  C   UNL A   1      33.108  25.873  22.059  1.00  0.00     0.028 A 
ATOM     17  C   UNL A   1      33.471  23.347  23.247  1.00  0.00     0.011 A 
ATOM     18  C   UNL A   1      33.054  24.711  21.289  1.00  0.00     0.002 A 
ATOM     19  C   UNL A   1      33.222  23.463  21.874  1.00  0.00     0.001 A 
BRANCH  12  20
ATOM     20  S   UNL A   1      33.170  28.363  24.252  1.00  0.00     0.268 S 
ATOM     21  O   UNL A   1      33.978  28.672  23.087  1.00  0.00    -0.201 OA
ATOM     22  O   UNL A   1      33.441  28.952  25.551  1.00  0.00    -0.201 OA
BRANCH  20  23
ATOM     23  C   UNL A   1      31.485  28.751  23.851  1.00  0.00     0.088 A 
ATOM     24  C   UNL A   1      27.507  30.037  22.816  1.00  0.00     0.044 C 
ATOM     25  C   UNL A   1      28.887  29.578  23.187  1.00  0.00    -0.051 A 
ATOM     26  C   UNL A   1      29.714  30.404  23.957  1.00  0.00     0.005 A 
ATOM     27  C   UNL A   1      29.365  28.327  22.778  1.00  0.00     0.005 A 
ATOM     28  C   UNL A   1      31.010  29.998  24.283  1.00  0.00     0.022 A 
ATOM     29  C   UNL A   1      30.654  27.904  23.120  1.00  0.00     0.022 A 
ENDBRANCH  20  23
ENDBRANCH  12  20
ENDBRANCH   9  11
ENDBRANCH   6   9
ENDBRANCH   4   5
BRANCH   4  30
ATOM     30  C   UNL A   1      33.477  19.500  24.540  1.00  0.00     0.092 C 
BRANCH  30  31
ATOM     31  C   UNL A   1      33.413  17.993  24.676  1.00  0.00     0.037 A 
ATOM     32  C   UNL A   1      33.543  16.956  23.777  1.00  0.00     0.134 A 
ATOM     33  N   UNL A   1      33.174  17.347  25.874  1.00  0.00    -0.348 N 
ATOM     34  N   UNL A   1      33.626  15.749  24.427  1.00  0.00    -0.245 NA
ATOM     35  C   UNL A   1      33.456  16.025  25.697  1.00  0.00     0.196 A 
ATOM     36  H   UNL A   1      32.858  17.766  26.707  1.00  0.00     0.167 HD
ENDBRANCH  30  31
ENDBRANCH   4  30
ENDBRANCH   2   4
ENDBRANCH   1   2
BRANCH   1  37
ATOM     37  C   UNL A   1      38.318  19.105  25.393  1.00  0.00     0.274 C 
BRANCH  37  38
ATOM     38  C   UNL A   1      39.814  19.340  25.655  1.00  0.00     0.275 C 
BRANCH  38  39
ATOM     39  O   UNL A   1      40.137  20.171  26.806  1.00  0.00    -0.458 OA
BRANCH  39  40
ATOM     40  C   UNL A   1      41.211  21.008  26.895  1.00  0.00     0.338 C 
ATOM     41  O   UNL A   1      42.219  20.761  27.538  1.00  0.00    -0.246 OA
BRANCH  40  42
ATOM     42  C   UNL A   1      40.925  22.398  26.510  1.00  0.00     0.060 A 
ATOM     43  C   UNL A   1      42.265  23.241  25.640  1.00  0.00     0.016 A 
ATOM     44  C   UNL A   1      39.758  23.346  27.498  1.00  0.00     0.016 A 
ATOM     45  C   UNL A   1      42.592  25.001  25.968  1.00  0.00     0.010 A 
ATOM     46  C   UNL A   1      40.090  25.095  27.802  1.00  0.00     0.010 A 
ATOM     47  C   UNL A   1      41.543  25.894  27.093  1.00  0.00    -0.014 A 
BRANCH  47  48
ATOM     48  C   UNL A   1      41.955  27.015  27.948  1.00  0.00     0.031 A 
ATOM     49  C   UNL A   1      40.941  28.039  28.223  1.00  0.00     0.074 A 
ATOM     50  C   UNL A   1      42.954  26.781  28.826  1.00  0.00     0.049 A 
ATOM     51  N   UNL A   1      40.375  28.218  29.370  1.00  0.00    -0.248 NA
ATOM     52  C   UNL A   1      40.359  28.821  27.126  1.00  0.00     0.031 C 
ATOM     53  C   UNL A   1      43.200  27.399  30.122  1.00  0.00     0.029 A 
ATOM     54  N   UNL A   1      44.104  26.034  28.595  1.00  0.00    -0.354 N 
ATOM     55  C   UNL A   1      39.492  29.260  29.215  1.00  0.00     0.074 A 
ATOM     56  C   UNL A   1      39.391  29.478  27.773  1.00  0.00     0.031 C 
ATOM     57  C   UNL A   1      44.502  27.270  30.431  1.00  0.00     0.029 A 
ATOM     58  C   UNL A   1      45.162  26.652  29.294  1.00  0.00     0.049 A 
ATOM     59  H   UNL A   1      44.167  25.220  28.045  1.00  0.00     0.167 HD
ATOM     60  C   UNL A   1      39.534  30.340  30.035  1.00  0.00     0.037 A 
ATOM     61  C   UNL A   1      46.140  27.239  28.538  1.00  0.00     0.037 A 
ATOM     62  C   UNL A   1      40.866  30.631  30.511  1.00  0.00     0.049 A 
ATOM     63  C   UNL A   1      45.941  28.742  28.434  1.00  0.00     0.074 A 
ATOM     64  C   UNL A   1      41.619  30.293  31.616  1.00  0.00     0.029 A 
ATOM     65  N   UNL A   1      41.737  31.205  29.608  1.00  0.00    -0.354 N 
ATOM     66  N   UNL A   1      44.915  29.378  28.940  1.00  0.00    -0.248 NA
ATOM     67  C   UNL A   1      46.850  29.646  27.736  1.00  0.00     0.031 C 
ATOM     68  C   UNL A   1      42.987  30.583  31.304  1.00  0.00     0.029 A 
ATOM     69  C   UNL A   1      43.046  31.144  30.038  1.00  0.00     0.049 A 
ATOM     70  H   UNL A   1      41.458  31.610  28.755  1.00  0.00     0.167 HD
ATOM     71  C   UNL A   1      45.013  30.712  28.684  1.00  0.00     0.074 A 
ATOM     72  C   UNL A   1      46.213  30.825  27.871  1.00  0.00     0.031 C 
ATOM     73  C   UNL A   1      44.111  31.624  29.161  1.00  0.00     0.037 A 
BRANCH  60  74
ATOM     74  C   UNL A   1      38.231  30.886  30.531  1.00  0.00     0.057 A 
ATOM     75  C   UNL A   1      37.701  30.477  31.761  1.00  0.00     0.134 A 
ATOM     76  C   UNL A   1      37.411  31.746  29.766  1.00  0.00     0.134 A 
ATOM     77  F   UNL A   1      38.402  29.685  32.587  1.00  0.00    -0.206 F 
ATOM     78  C   UNL A   1      36.418  30.847  32.180  1.00  0.00     0.040 A 
ATOM     79  C   UNL A   1      36.133  32.134  30.181  1.00  0.00     0.040 A 
ATOM     80  F   UNL A   1      37.809  32.218  28.575  1.00  0.00    -0.206 F 
ATOM     81  C   UNL A   1      35.624  31.668  31.385  1.00  0.00     0.006 A 
ENDBRANCH  60  74
BRANCH  61  82
ATOM     82  C   UNL A   1      46.567  26.294  27.455  1.00  0.00     0.057 A 
ATOM     83  C   UNL A   1      46.131  26.605  26.147  1.00  0.00     0.134 A 
ATOM     84  C   UNL A   1      47.715  25.505  27.564  1.00  0.00     0.134 A 
ATOM     85  F   UNL A   1      45.019  27.339  25.968  1.00  0.00    -0.206 F 
ATOM     86  C   UNL A   1      46.917  26.344  25.024  1.00  0.00     0.040 A 
ATOM     87  C   UNL A   1      48.474  25.176  26.430  1.00  0.00     0.040 A 
ATOM     88  F   UNL A   1      48.213  25.181  28.766  1.00  0.00    -0.206 F 
ATOM     89  C   UNL A   1      48.117  25.662  25.172  1.00  0.00     0.006 A 
ENDBRANCH  61  82
BRANCH  73  90
ATOM     90  C   UNL A   1      44.210  33.081  28.818  1.00  0.00     0.057 A 
ATOM     91  C   UNL A   1      43.999  33.555  27.518  1.00  0.00     0.134 A 
ATOM     92  C   UNL A   1      44.570  34.052  29.773  1.00  0.00     0.134 A 
ATOM     93  F   UNL A   1      43.764  32.708  26.505  1.00  0.00    -0.206 F 
ATOM     94  C   UNL A   1      44.025  34.917  27.211  1.00  0.00     0.040 A 
ATOM     95  C   UNL A   1      44.679  35.408  29.460  1.00  0.00     0.040 A 
ATOM     96  F   UNL A   1      44.794  33.735  31.056  1.00  0.00    -0.206 F 
ATOM     97  C   UNL A   1      44.369  35.850  28.183  1.00  0.00     0.006 A 
ENDBRANCH  73  90
ENDBRANCH  47  48
ENDBRANCH  40  42
ENDBRANCH  39  40
ENDBRANCH  38  39
ENDBRANCH  37  38
ENDBRANCH   1  37
TORSDOF 18
ENDMDL
