MODEL 1
REMARK VINA RESULT:     -11.1      0.000      0.000
REMARK SMILES COc1c(C)cc([C@H](C(=O)OCCOC(=O)c2ccc(-c3c4nc(c(-c5c(F)cccc5F)c5ccc([nH]5)c(-c5c(F)cccc5F)c5nc(c(-c6c(F)cccc6F)c6ccc3[nH]6)C=C5)C=C4)cc2)[N@@H+](C)CCN2CCCCC2=O)cc1C
REMARK SMILES IDX 12 1 11 2 9 3 10 4 8 5 7 6 3 7 4 8 83 9 5 10 6 11 82 12
REMARK SMILES IDX 84 13 2 14 1 15 71 16 72 17 73 19 74 20 75 21 76 22 80 23
REMARK SMILES IDX 77 24 79 25 81 26 78 27 13 28 14 29 15 30 16 31 17 32 18 33
REMARK SMILES IDX 70 34 19 35 69 36 20 37 21 38 22 39 63 40 23 41 68 42 62 43
REMARK SMILES IDX 64 44 24 45 67 46 61 47 60 48 25 50 51 51 34 52 50 53 35 54
REMARK SMILES IDX 38 55 49 56 65 57 36 58 37 59 48 61 66 62 39 63 26 64 27 65
REMARK SMILES IDX 32 66 28 67 29 68 31 69 33 70 30 71 52 72 53 73 58 74 54 75
REMARK SMILES IDX 55 76 57 77 59 78 56 79 40 80 41 81 46 82 42 83 43 84 45 85
REMARK SMILES IDX 47 86 44 87
REMARK H PARENT 71 18 64 49 38 60
REMARK Flexibility Score: inf
ROOT
ATOM      1  C   UNL A   1      32.572  31.158  27.066  1.00  0.00     0.274 C 
ENDROOT
BRANCH   1   2
ATOM      2  O   UNL A   1      31.659  30.127  26.604  1.00  0.00    -0.457 OA
BRANCH   2   3
ATOM      3  C   UNL A   1      31.787  28.791  26.894  1.00  0.00     0.370 C 
ATOM      4  O   UNL A   1      31.336  28.276  27.912  1.00  0.00    -0.245 OA
BRANCH   3   5
ATOM      5  C   UNL A   1      32.603  28.020  25.772  1.00  0.00     0.326 C 
BRANCH   5   6
ATOM      6  C   UNL A   1      32.891  26.495  25.890  1.00  0.00     0.022 A 
ATOM      7  C   UNL A   1      33.356  23.689  26.200  1.00  0.00     0.124 A 
ATOM      8  C   UNL A   1      34.368  24.529  25.704  1.00  0.00    -0.008 A 
ATOM      9  C   UNL A   1      32.092  24.199  26.445  1.00  0.00    -0.008 A 
ATOM     10  C   UNL A   1      35.687  23.949  25.273  1.00  0.00     0.048 C 
ATOM     11  C   UNL A   1      34.146  25.932  25.608  1.00  0.00     0.017 A 
ATOM     12  C   UNL A   1      31.884  25.568  26.231  1.00  0.00     0.017 A 
ATOM     13  C   UNL A   1      30.945  23.396  26.995  1.00  0.00     0.048 C 
BRANCH   7  14
ATOM     14  O   UNL A   1      33.571  22.351  26.397  1.00  0.00    -0.496 OA
ATOM     15  C   UNL A   1      34.023  22.096  27.729  1.00  0.00     0.278 C 
ENDBRANCH   7  14
ENDBRANCH   5   6
BRANCH   5  16
ATOM     16  N   UNL A   1      32.141  28.482  24.443  1.00  0.00    -0.320 N 
ATOM     17  C   UNL A   1      33.265  28.919  23.611  1.00  0.00     0.333 C 
ATOM     18  H   UNL A   1      31.553  29.262  24.735  1.00  0.00     0.348 HD
BRANCH  16  19
ATOM     19  C   UNL A   1      31.110  27.748  23.671  1.00  0.00     0.284 C 
BRANCH  19  20
ATOM     20  C   UNL A   1      31.264  26.635  22.544  1.00  0.00     0.180 C 
BRANCH  20  21
ATOM     21  N   UNL A   1      31.801  25.248  22.732  1.00  0.00    -0.337 N 
ATOM     22  C   UNL A   1      30.900  24.120  22.860  1.00  0.00     0.119 C 
ATOM     23  C   UNL A   1      33.075  24.962  22.228  1.00  0.00     0.222 C 
ATOM     24  C   UNL A   1      31.521  22.869  23.445  1.00  0.00     0.022 C 
ATOM     25  C   UNL A   1      33.555  23.504  22.184  1.00  0.00     0.100 C 
ATOM     26  O   UNL A   1      33.845  25.846  21.844  1.00  0.00    -0.275 OA
ATOM     27  C   UNL A   1      32.573  22.387  22.491  1.00  0.00     0.012 C 
ENDBRANCH  20  21
ENDBRANCH  19  20
ENDBRANCH  16  19
ENDBRANCH   5  16
ENDBRANCH   3   5
ENDBRANCH   2   3
ENDBRANCH   1   2
BRANCH   1  28
ATOM     28  C   UNL A   1      31.895  32.527  27.262  1.00  0.00     0.275 C 
BRANCH  28  29
ATOM     29  O   UNL A   1      32.935  33.511  27.238  1.00  0.00    -0.458 OA
BRANCH  29  30
ATOM     30  C   UNL A   1      33.213  34.176  28.383  1.00  0.00     0.338 C 
ATOM     31  O   UNL A   1      32.498  34.965  28.967  1.00  0.00    -0.246 OA
BRANCH  30  32
ATOM     32  C   UNL A   1      34.484  33.610  28.918  1.00  0.00     0.060 A 
ATOM     33  C   UNL A   1      34.435  32.572  29.860  1.00  0.00     0.016 A 
ATOM     34  C   UNL A   1      35.713  34.199  28.607  1.00  0.00     0.016 A 
ATOM     35  C   UNL A   1      35.582  32.161  30.520  1.00  0.00     0.010 A 
ATOM     36  C   UNL A   1      36.884  33.730  29.218  1.00  0.00     0.010 A 
ATOM     37  C   UNL A   1      36.824  32.703  30.177  1.00  0.00    -0.014 A 
BRANCH  37  38
ATOM     38  C   UNL A   1      38.052  32.094  30.736  1.00  0.00     0.031 A 
ATOM     39  C   UNL A   1      38.770  30.976  30.046  1.00  0.00     0.074 A 
ATOM     40  C   UNL A   1      38.522  32.575  31.904  1.00  0.00     0.049 A 
ATOM     41  N   UNL A   1      39.744  30.226  30.495  1.00  0.00    -0.248 NA
ATOM     42  C   UNL A   1      38.352  30.664  28.671  1.00  0.00     0.031 C 
ATOM     43  C   UNL A   1      37.951  33.708  32.640  1.00  0.00     0.029 A 
ATOM     44  N   UNL A   1      39.574  32.168  32.682  1.00  0.00    -0.354 N 
ATOM     45  C   UNL A   1      40.045  29.338  29.472  1.00  0.00     0.074 A 
ATOM     46  C   UNL A   1      39.148  29.644  28.374  1.00  0.00     0.031 C 
ATOM     47  C   UNL A   1      38.654  33.902  33.761  1.00  0.00     0.029 A 
ATOM     48  C   UNL A   1      39.651  32.846  33.873  1.00  0.00     0.049 A 
ATOM     49  H   UNL A   1      40.207  31.464  32.415  1.00  0.00     0.167 HD
ATOM     50  C   UNL A   1      40.981  28.359  29.463  1.00  0.00     0.037 A 
ATOM     51  C   UNL A   1      40.378  32.602  34.976  1.00  0.00     0.037 A 
ATOM     52  C   UNL A   1      41.868  28.070  30.565  1.00  0.00     0.049 A 
ATOM     53  C   UNL A   1      41.308  31.434  34.996  1.00  0.00     0.074 A 
ATOM     54  C   UNL A   1      42.867  27.113  30.640  1.00  0.00     0.029 A 
ATOM     55  N   UNL A   1      41.856  28.727  31.787  1.00  0.00    -0.354 N 
ATOM     56  N   UNL A   1      41.556  30.568  34.045  1.00  0.00    -0.248 NA
ATOM     57  C   UNL A   1      42.046  31.200  36.241  1.00  0.00     0.031 C 
ATOM     58  C   UNL A   1      43.422  27.155  31.925  1.00  0.00     0.029 A 
ATOM     59  C   UNL A   1      42.806  28.173  32.633  1.00  0.00     0.049 A 
ATOM     60  H   UNL A   1      41.262  29.476  32.019  1.00  0.00     0.167 HD
ATOM     61  C   UNL A   1      42.484  29.685  34.573  1.00  0.00     0.074 A 
ATOM     62  C   UNL A   1      42.763  30.131  35.924  1.00  0.00     0.031 C 
ATOM     63  C   UNL A   1      43.055  28.605  33.986  1.00  0.00     0.037 A 
BRANCH  50  64
ATOM     64  C   UNL A   1      41.077  27.490  28.243  1.00  0.00     0.057 A 
ATOM     65  C   UNL A   1      40.329  26.315  28.103  1.00  0.00     0.134 A 
ATOM     66  C   UNL A   1      41.871  27.883  27.157  1.00  0.00     0.134 A 
ATOM     67  F   UNL A   1      39.560  25.873  29.111  1.00  0.00    -0.206 F 
ATOM     68  C   UNL A   1      40.368  25.562  26.927  1.00  0.00     0.040 A 
ATOM     69  C   UNL A   1      41.903  27.149  25.970  1.00  0.00     0.040 A 
ATOM     70  F   UNL A   1      42.610  29.000  27.225  1.00  0.00    -0.206 F 
ATOM     71  C   UNL A   1      41.149  25.984  25.853  1.00  0.00     0.006 A 
ENDBRANCH  50  64
BRANCH  51  72
ATOM     72  C   UNL A   1      40.156  33.451  36.169  1.00  0.00     0.057 A 
ATOM     73  C   UNL A   1      40.871  34.635  36.360  1.00  0.00     0.134 A 
ATOM     74  C   UNL A   1      39.146  33.143  37.092  1.00  0.00     0.134 A 
ATOM     75  F   UNL A   1      41.858  34.971  35.517  1.00  0.00    -0.206 F 
ATOM     76  C   UNL A   1      40.578  35.496  37.418  1.00  0.00     0.040 A 
ATOM     77  C   UNL A   1      38.825  34.005  38.137  1.00  0.00     0.040 A 
ATOM     78  F   UNL A   1      38.420  32.023  36.950  1.00  0.00    -0.206 F 
ATOM     79  C   UNL A   1      39.542  35.188  38.301  1.00  0.00     0.006 A 
ENDBRANCH  51  72
BRANCH  63  80
ATOM     80  C   UNL A   1      44.051  27.846  34.808  1.00  0.00     0.057 A 
ATOM     81  C   UNL A   1      43.680  26.730  35.569  1.00  0.00     0.134 A 
ATOM     82  C   UNL A   1      45.394  28.243  34.850  1.00  0.00     0.134 A 
ATOM     83  F   UNL A   1      42.405  26.313  35.586  1.00  0.00    -0.206 F 
ATOM     84  C   UNL A   1      44.605  26.053  36.366  1.00  0.00     0.040 A 
ATOM     85  C   UNL A   1      46.331  27.560  35.624  1.00  0.00     0.040 A 
ATOM     86  F   UNL A   1      45.813  29.302  34.141  1.00  0.00    -0.206 F 
ATOM     87  C   UNL A   1      45.936  26.466  36.392  1.00  0.00     0.006 A 
ENDBRANCH  63  80
ENDBRANCH  37  38
ENDBRANCH  30  32
ENDBRANCH  29  30
ENDBRANCH  28  29
ENDBRANCH   1  28
TORSDOF 17
ENDMDL
MODEL 2
REMARK VINA RESULT:     -10.9      4.602      9.574
REMARK SMILES COc1c(C)cc([C@H](C(=O)OCCOC(=O)c2ccc(-c3c4nc(c(-c5c(F)cccc5F)c5ccc([nH]5)c(-c5c(F)cccc5F)c5nc(c(-c6c(F)cccc6F)c6ccc3[nH]6)C=C5)C=C4)cc2)[N@@H+](C)CCN2CCCCC2=O)cc1C
REMARK SMILES IDX 12 1 11 2 9 3 10 4 8 5 7 6 3 7 4 8 83 9 5 10 6 11 82 12
REMARK SMILES IDX 84 13 2 14 1 15 71 16 72 17 73 19 74 20 75 21 76 22 80 23
REMARK SMILES IDX 77 24 79 25 81 26 78 27 13 28 14 29 15 30 16 31 17 32 18 33
REMARK SMILES IDX 70 34 19 35 69 36 20 37 21 38 22 39 63 40 23 41 68 42 62 43
REMARK SMILES IDX 64 44 24 45 67 46 61 47 60 48 25 50 51 51 34 52 50 53 35 54
REMARK SMILES IDX 38 55 49 56 65 57 36 58 37 59 48 61 66 62 39 63 26 64 27 65
REMARK SMILES IDX 32 66 28 67 29 68 31 69 33 70 30 71 52 72 53 73 58 74 54 75
REMARK SMILES IDX 55 76 57 77 59 78 56 79 40 80 41 81 46 82 42 83 43 84 45 85
REMARK SMILES IDX 47 86 44 87
REMARK H PARENT 71 18 64 49 38 60
REMARK Flexibility Score: inf
ROOT
ATOM      1  C   UNL A   1      38.039  21.266  25.851  1.00  0.00     0.274 C 
ENDROOT
BRANCH   1   2
ATOM      2  O   UNL A   1      37.806  22.480  25.090  1.00  0.00    -0.457 OA
BRANCH   2   3
ATOM      3  C   UNL A   1      36.690  22.713  24.324  1.00  0.00     0.370 C 
ATOM      4  O   UNL A   1      36.663  22.557  23.108  1.00  0.00    -0.245 OA
BRANCH   3   5
ATOM      5  C   UNL A   1      35.471  23.227  25.201  1.00  0.00     0.326 C 
BRANCH   5   6
ATOM      6  C   UNL A   1      34.696  24.523  24.823  1.00  0.00     0.022 A 
ATOM      7  C   UNL A   1      33.330  26.908  24.030  1.00  0.00     0.124 A 
ATOM      8  C   UNL A   1      33.660  26.691  25.378  1.00  0.00    -0.008 A 
ATOM      9  C   UNL A   1      33.571  25.920  23.090  1.00  0.00    -0.008 A 
ATOM     10  C   UNL A   1      33.244  27.683  26.428  1.00  0.00     0.048 C 
ATOM     11  C   UNL A   1      34.391  25.528  25.754  1.00  0.00     0.017 A 
ATOM     12  C   UNL A   1      34.194  24.742  23.523  1.00  0.00     0.017 A 
ATOM     13  C   UNL A   1      33.278  26.056  21.621  1.00  0.00     0.048 C 
BRANCH   7  14
ATOM     14  O   UNL A   1      32.714  28.061  23.623  1.00  0.00    -0.496 OA
ATOM     15  C   UNL A   1      33.676  29.048  23.241  1.00  0.00     0.278 C 
ENDBRANCH   7  14
ENDBRANCH   5   6
BRANCH   5  16
ATOM     16  N   UNL A   1      34.631  22.067  25.576  1.00  0.00    -0.320 N 
ATOM     17  C   UNL A   1      34.457  21.983  27.029  1.00  0.00     0.333 C 
ATOM     18  H   UNL A   1      35.217  21.314  25.215  1.00  0.00     0.348 HD
BRANCH  16  19
ATOM     19  C   UNL A   1      33.397  21.717  24.832  1.00  0.00     0.284 C 
BRANCH  19  20
ATOM     20  C   UNL A   1      31.882  22.124  25.099  1.00  0.00     0.180 C 
BRANCH  20  21
ATOM     21  N   UNL A   1      31.293  23.496  24.963  1.00  0.00    -0.337 N 
ATOM     22  C   UNL A   1      30.518  23.853  23.791  1.00  0.00     0.119 C 
ATOM     23  C   UNL A   1      30.996  24.203  26.134  1.00  0.00     0.222 C 
ATOM     24  C   UNL A   1      30.334  25.341  23.576  1.00  0.00     0.022 C 
ATOM     25  C   UNL A   1      30.174  25.497  26.041  1.00  0.00     0.100 C 
ATOM     26  O   UNL A   1      31.398  23.840  27.242  1.00  0.00    -0.275 OA
ATOM     27  C   UNL A   1      29.527  25.876  24.720  1.00  0.00     0.012 C 
ENDBRANCH  20  21
ENDBRANCH  19  20
ENDBRANCH  16  19
ENDBRANCH   5  16
ENDBRANCH   3   5
ENDBRANCH   2   3
ENDBRANCH   1   2
BRANCH   1  28
ATOM     28  C   UNL A   1      38.954  20.260  25.127  1.00  0.00     0.275 C 
BRANCH  28  29
ATOM     29  O   UNL A   1      39.716  19.592  26.139  1.00  0.00    -0.458 OA
BRANCH  29  30
ATOM     30  C   UNL A   1      41.065  19.618  26.046  1.00  0.00     0.338 C 
ATOM     31  O   UNL A   1      41.781  18.793  25.513  1.00  0.00    -0.246 OA
BRANCH  30  32
ATOM     32  C   UNL A   1      41.511  20.953  26.538  1.00  0.00     0.060 A 
ATOM     33  C   UNL A   1      41.896  21.935  25.614  1.00  0.00     0.016 A 
ATOM     34  C   UNL A   1      41.691  21.183  27.905  1.00  0.00     0.016 A 
ATOM     35  C   UNL A   1      42.498  23.108  26.040  1.00  0.00     0.010 A 
ATOM     36  C   UNL A   1      42.229  22.403  28.338  1.00  0.00     0.010 A 
ATOM     37  C   UNL A   1      42.633  23.375  27.406  1.00  0.00    -0.014 A 
BRANCH  37  38
ATOM     38  C   UNL A   1      43.074  24.722  27.833  1.00  0.00     0.031 A 
ATOM     39  C   UNL A   1      42.101  25.784  28.243  1.00  0.00     0.074 A 
ATOM     40  C   UNL A   1      44.396  24.980  27.847  1.00  0.00     0.049 A 
ATOM     41  N   UNL A   1      42.321  27.055  28.467  1.00  0.00    -0.248 NA
ATOM     42  C   UNL A   1      40.705  25.369  28.439  1.00  0.00     0.031 C 
ATOM     43  C   UNL A   1      45.448  24.007  27.534  1.00  0.00     0.029 A 
ATOM     44  N   UNL A   1      45.081  26.135  28.120  1.00  0.00    -0.354 N 
ATOM     45  C   UNL A   1      41.092  27.600  28.810  1.00  0.00     0.074 A 
ATOM     46  C   UNL A   1      40.126  26.519  28.765  1.00  0.00     0.031 C 
ATOM     47  C   UNL A   1      46.641  24.605  27.629  1.00  0.00     0.029 A 
ATOM     48  C   UNL A   1      46.431  26.020  27.902  1.00  0.00     0.049 A 
ATOM     49  H   UNL A   1      44.650  26.960  28.438  1.00  0.00     0.167 HD
ATOM     50  C   UNL A   1      40.806  28.887  29.125  1.00  0.00     0.037 A 
ATOM     51  C   UNL A   1      47.393  26.956  27.838  1.00  0.00     0.037 A 
ATOM     52  C   UNL A   1      41.781  29.950  29.167  1.00  0.00     0.049 A 
ATOM     53  C   UNL A   1      47.034  28.389  28.056  1.00  0.00     0.074 A 
ATOM     54  C   UNL A   1      41.591  31.282  29.500  1.00  0.00     0.029 A 
ATOM     55  N   UNL A   1      43.126  29.808  28.857  1.00  0.00    -0.354 N 
ATOM     56  N   UNL A   1      45.863  28.908  28.332  1.00  0.00    -0.248 NA
ATOM     57  C   UNL A   1      48.121  29.366  27.938  1.00  0.00     0.031 C 
ATOM     58  C   UNL A   1      42.809  31.954  29.339  1.00  0.00     0.029 A 
ATOM     59  C   UNL A   1      43.769  31.033  28.956  1.00  0.00     0.049 A 
ATOM     60  H   UNL A   1      43.560  28.962  28.603  1.00  0.00     0.167 HD
ATOM     61  C   UNL A   1      46.071  30.275  28.427  1.00  0.00     0.074 A 
ATOM     62  C   UNL A   1      47.483  30.500  28.191  1.00  0.00     0.031 C 
ATOM     63  C   UNL A   1      45.169  31.252  28.690  1.00  0.00     0.037 A 
BRANCH  50  64
ATOM     64  C   UNL A   1      39.375  29.239  29.410  1.00  0.00     0.057 A 
ATOM     65  C   UNL A   1      38.475  29.583  28.394  1.00  0.00     0.134 A 
ATOM     66  C   UNL A   1      38.873  29.151  30.715  1.00  0.00     0.134 A 
ATOM     67  F   UNL A   1      38.894  29.700  27.124  1.00  0.00    -0.206 F 
ATOM     68  C   UNL A   1      37.127  29.827  28.668  1.00  0.00     0.040 A 
ATOM     69  C   UNL A   1      37.524  29.374  30.998  1.00  0.00     0.040 A 
ATOM     70  F   UNL A   1      39.682  28.824  31.734  1.00  0.00    -0.206 F 
ATOM     71  C   UNL A   1      36.647  29.713  29.971  1.00  0.00     0.006 A 
ENDBRANCH  50  64
BRANCH  51  72
ATOM     72  C   UNL A   1      48.762  26.537  27.460  1.00  0.00     0.057 A 
ATOM     73  C   UNL A   1      49.673  26.086  28.418  1.00  0.00     0.134 A 
ATOM     74  C   UNL A   1      49.149  26.482  26.114  1.00  0.00     0.134 A 
ATOM     75  F   UNL A   1      49.360  26.131  29.721  1.00  0.00    -0.206 F 
ATOM     76  C   UNL A   1      50.919  25.578  28.050  1.00  0.00     0.040 A 
ATOM     77  C   UNL A   1      50.378  25.951  25.730  1.00  0.00     0.040 A 
ATOM     78  F   UNL A   1      48.309  26.890  25.151  1.00  0.00    -0.206 F 
ATOM     79  C   UNL A   1      51.267  25.495  26.701  1.00  0.00     0.006 A 
ENDBRANCH  51  72
BRANCH  63  80
ATOM     80  C   UNL A   1      45.699  32.652  28.751  1.00  0.00     0.057 A 
ATOM     81  C   UNL A   1      46.222  33.190  29.934  1.00  0.00     0.134 A 
ATOM     82  C   UNL A   1      45.674  33.475  27.618  1.00  0.00     0.134 A 
ATOM     83  F   UNL A   1      46.255  32.458  31.057  1.00  0.00    -0.206 F 
ATOM     84  C   UNL A   1      46.676  34.509  29.994  1.00  0.00     0.040 A 
ATOM     85  C   UNL A   1      46.146  34.787  27.661  1.00  0.00     0.040 A 
ATOM     86  F   UNL A   1      45.188  33.018  26.455  1.00  0.00    -0.206 F 
ATOM     87  C   UNL A   1      46.641  35.310  28.854  1.00  0.00     0.006 A 
ENDBRANCH  63  80
ENDBRANCH  37  38
ENDBRANCH  30  32
ENDBRANCH  29  30
ENDBRANCH  28  29
ENDBRANCH   1  28
TORSDOF 17
ENDMDL
MODEL 3
REMARK VINA RESULT:     -10.7      1.640      2.562
REMARK SMILES COc1c(C)cc([C@H](C(=O)OCCOC(=O)c2ccc(-c3c4nc(c(-c5c(F)cccc5F)c5ccc([nH]5)c(-c5c(F)cccc5F)c5nc(c(-c6c(F)cccc6F)c6ccc3[nH]6)C=C5)C=C4)cc2)[N@@H+](C)CCN2CCCCC2=O)cc1C
REMARK SMILES IDX 12 1 11 2 9 3 10 4 8 5 7 6 3 7 4 8 83 9 5 10 6 11 82 12
REMARK SMILES IDX 84 13 2 14 1 15 71 16 72 17 73 19 74 20 75 21 76 22 80 23
REMARK SMILES IDX 77 24 79 25 81 26 78 27 13 28 14 29 15 30 16 31 17 32 18 33
REMARK SMILES IDX 70 34 19 35 69 36 20 37 21 38 22 39 63 40 23 41 68 42 62 43
REMARK SMILES IDX 64 44 24 45 67 46 61 47 60 48 25 50 51 51 34 52 50 53 35 54
REMARK SMILES IDX 38 55 49 56 65 57 36 58 37 59 48 61 66 62 39 63 26 64 27 65
REMARK SMILES IDX 32 66 28 67 29 68 31 69 33 70 30 71 52 72 53 73 58 74 54 75
REMARK SMILES IDX 55 76 57 77 59 78 56 79 40 80 41 81 46 82 42 83 43 84 45 85
REMARK SMILES IDX 47 86 44 87
REMARK H PARENT 71 18 64 49 38 60
REMARK Flexibility Score: inf
ROOT
ATOM      1  C   UNL A   1      31.665  28.948  27.349  1.00  0.00     0.274 C 
ENDROOT
BRANCH   1   2
ATOM      2  O   UNL A   1      32.582  27.845  27.121  1.00  0.00    -0.457 OA
BRANCH   2   3
ATOM      3  C   UNL A   1      32.244  26.674  26.488  1.00  0.00     0.370 C 
ATOM      4  O   UNL A   1      31.262  26.004  26.788  1.00  0.00    -0.245 OA
BRANCH   3   5
ATOM      5  C   UNL A   1      33.287  26.298  25.352  1.00  0.00     0.326 C 
BRANCH   5   6
ATOM      6  C   UNL A   1      34.034  24.932  25.365  1.00  0.00     0.022 A 
ATOM      7  C   UNL A   1      35.391  22.415  25.278  1.00  0.00     0.124 A 
ATOM      8  C   UNL A   1      34.594  22.757  26.383  1.00  0.00    -0.008 A 
ATOM      9  C   UNL A   1      35.609  23.339  24.269  1.00  0.00    -0.008 A 
ATOM     10  C   UNL A   1      34.496  21.827  27.560  1.00  0.00     0.048 C 
ATOM     11  C   UNL A   1      33.877  23.987  26.391  1.00  0.00     0.017 A 
ATOM     12  C   UNL A   1      34.971  24.582  24.370  1.00  0.00     0.017 A 
ATOM     13  C   UNL A   1      36.425  23.071  23.034  1.00  0.00     0.048 C 
BRANCH   7  14
ATOM     14  O   UNL A   1      36.015  21.199  25.196  1.00  0.00    -0.496 OA
ATOM     15  C   UNL A   1      37.378  21.293  25.621  1.00  0.00     0.278 C 
ENDBRANCH   7  14
ENDBRANCH   5   6
BRANCH   5  16
ATOM     16  N   UNL A   1      32.737  26.712  24.041  1.00  0.00    -0.320 N 
ATOM     17  C   UNL A   1      33.648  27.625  23.346  1.00  0.00     0.333 C 
ATOM     18  H   UNL A   1      31.890  27.183  24.359  1.00  0.00     0.348 HD
BRANCH  16  19
ATOM     19  C   UNL A   1      32.083  25.749  23.124  1.00  0.00     0.284 C 
BRANCH  19  20
ATOM     20  C   UNL A   1      31.052  24.574  23.427  1.00  0.00     0.180 C 
BRANCH  20  21
ATOM     21  N   UNL A   1      31.380  23.119  23.579  1.00  0.00    -0.337 N 
ATOM     22  C   UNL A   1      32.363  22.492  22.718  1.00  0.00     0.119 C 
ATOM     23  C   UNL A   1      31.202  22.533  24.837  1.00  0.00     0.222 C 
ATOM     24  C   UNL A   1      32.310  20.979  22.683  1.00  0.00     0.022 C 
ATOM     25  C   UNL A   1      31.753  21.122  25.092  1.00  0.00     0.100 C 
ATOM     26  O   UNL A   1      30.588  23.097  25.746  1.00  0.00    -0.275 OA
ATOM     27  C   UNL A   1      32.653  20.474  24.053  1.00  0.00     0.012 C 
ENDBRANCH  20  21
ENDBRANCH  19  20
ENDBRANCH  16  19
ENDBRANCH   5  16
ENDBRANCH   3   5
ENDBRANCH   2   3
ENDBRANCH   1   2
BRANCH   1  28
ATOM     28  C   UNL A   1      31.852  30.110  26.355  1.00  0.00     0.275 C 
BRANCH  28  29
ATOM     29  O   UNL A   1      33.234  30.480  26.407  1.00  0.00    -0.458 OA
BRANCH  29  30
ATOM     30  C   UNL A   1      33.582  31.547  27.163  1.00  0.00     0.338 C 
ATOM     31  O   UNL A   1      32.898  32.516  27.426  1.00  0.00    -0.246 OA
BRANCH  30  32
ATOM     32  C   UNL A   1      34.894  31.225  27.793  1.00  0.00     0.060 A 
ATOM     33  C   UNL A   1      35.096  29.958  28.359  1.00  0.00     0.016 A 
ATOM     34  C   UNL A   1      35.867  32.216  27.958  1.00  0.00     0.016 A 
ATOM     35  C   UNL A   1      36.224  29.695  29.120  1.00  0.00     0.010 A 
ATOM     36  C   UNL A   1      37.043  31.924  28.663  1.00  0.00     0.010 A 
ATOM     37  C   UNL A   1      37.229  30.659  29.246  1.00  0.00    -0.014 A 
BRANCH  37  38
ATOM     38  C   UNL A   1      38.513  30.277  29.876  1.00  0.00     0.031 A 
ATOM     39  C   UNL A   1      39.469  29.329  29.221  1.00  0.00     0.074 A 
ATOM     40  C   UNL A   1      38.813  30.813  31.075  1.00  0.00     0.049 A 
ATOM     41  N   UNL A   1      40.537  28.764  29.723  1.00  0.00    -0.248 NA
ATOM     42  C   UNL A   1      39.200  28.974  27.819  1.00  0.00     0.031 C 
ATOM     43  C   UNL A   1      37.996  31.802  31.785  1.00  0.00     0.029 A 
ATOM     44  N   UNL A   1      39.874  30.592  31.914  1.00  0.00    -0.354 N 
ATOM     45  C   UNL A   1      41.061  27.971  28.712  1.00  0.00     0.074 A 
ATOM     46  C   UNL A   1      40.190  28.127  27.563  1.00  0.00     0.031 C 
ATOM     47  C   UNL A   1      38.582  32.099  32.950  1.00  0.00     0.029 A 
ATOM     48  C   UNL A   1      39.750  31.246  33.114  1.00  0.00     0.049 A 
ATOM     49  H   UNL A   1      40.643  30.024  31.681  1.00  0.00     0.167 HD
ATOM     50  C   UNL A   1      42.163  27.184  28.753  1.00  0.00     0.037 A 
ATOM     51  C   UNL A   1      40.442  31.119  34.259  1.00  0.00     0.037 A 
ATOM     52  C   UNL A   1      43.020  27.042  29.905  1.00  0.00     0.049 A 
ATOM     53  C   UNL A   1      41.572  30.145  34.325  1.00  0.00     0.074 A 
ATOM     54  C   UNL A   1      44.175  26.287  30.034  1.00  0.00     0.029 A 
ATOM     55  N   UNL A   1      42.812  27.658  31.131  1.00  0.00    -0.354 N 
ATOM     56  N   UNL A   1      42.035  29.361  33.384  1.00  0.00    -0.248 NA
ATOM     57  C   UNL A   1      42.265  30.026  35.612  1.00  0.00     0.031 C 
ATOM     58  C   UNL A   1      44.634  26.404  31.351  1.00  0.00     0.029 A 
ATOM     59  C   UNL A   1      43.796  27.273  32.030  1.00  0.00     0.049 A 
ATOM     60  H   UNL A   1      42.074  28.278  31.332  1.00  0.00     0.167 HD
ATOM     61  C   UNL A   1      43.079  28.656  33.961  1.00  0.00     0.074 A 
ATOM     62  C   UNL A   1      43.188  29.117  35.331  1.00  0.00     0.031 C 
ATOM     63  C   UNL A   1      43.877  27.714  33.400  1.00  0.00     0.037 A 
BRANCH  50  64
ATOM     64  C   UNL A   1      42.494  26.375  27.532  1.00  0.00     0.057 A 
ATOM     65  C   UNL A   1      43.347  26.852  26.530  1.00  0.00     0.134 A 
ATOM     66  C   UNL A   1      42.015  25.064  27.403  1.00  0.00     0.134 A 
ATOM     67  F   UNL A   1      43.829  28.104  26.585  1.00  0.00    -0.206 F 
ATOM     68  C   UNL A   1      43.711  26.054  25.442  1.00  0.00     0.040 A 
ATOM     69  C   UNL A   1      42.386  24.251  26.330  1.00  0.00     0.040 A 
ATOM     70  F   UNL A   1      41.195  24.545  28.329  1.00  0.00    -0.206 F 
ATOM     71  C   UNL A   1      43.237  24.747  25.346  1.00  0.00     0.006 A 
ENDBRANCH  50  64
BRANCH  51  72
ATOM     72  C   UNL A   1      39.994  31.885  35.444  1.00  0.00     0.057 A 
ATOM     73  C   UNL A   1      40.572  33.112  35.776  1.00  0.00     0.134 A 
ATOM     74  C   UNL A   1      38.902  31.450  36.209  1.00  0.00     0.134 A 
ATOM     75  F   UNL A   1      41.629  33.568  35.088  1.00  0.00    -0.206 F 
ATOM     76  C   UNL A   1      40.070  33.891  36.819  1.00  0.00     0.040 A 
ATOM     77  C   UNL A   1      38.373  32.229  37.234  1.00  0.00     0.040 A 
ATOM     78  F   UNL A   1      38.300  30.284  35.926  1.00  0.00    -0.206 F 
ATOM     79  C   UNL A   1      38.958  33.457  37.540  1.00  0.00     0.006 A 
ENDBRANCH  51  72
BRANCH  63  80
ATOM     80  C   UNL A   1      44.947  27.137  34.276  1.00  0.00     0.057 A 
ATOM     81  C   UNL A   1      44.743  25.962  35.010  1.00  0.00     0.134 A 
ATOM     82  C   UNL A   1      46.190  27.770  34.396  1.00  0.00     0.134 A 
ATOM     83  F   UNL A   1      43.566  25.321  34.952  1.00  0.00    -0.206 F 
ATOM     84  C   UNL A   1      45.729  25.453  35.857  1.00  0.00     0.040 A 
ATOM     85  C   UNL A   1      47.191  27.258  35.222  1.00  0.00     0.040 A 
ATOM     86  F   UNL A   1      46.449  28.898  33.717  1.00  0.00    -0.206 F 
ATOM     87  C   UNL A   1      46.959  26.100  35.961  1.00  0.00     0.006 A 
ENDBRANCH  63  80
ENDBRANCH  37  38
ENDBRANCH  30  32
ENDBRANCH  29  30
ENDBRANCH  28  29
ENDBRANCH   1  28
TORSDOF 17
ENDMDL
