MODEL 1
REMARK VINA RESULT:     -10.6      0.000      0.000
REMARK SMILES CC[N@@H+]1CC[C@H](C[NH2+]Cc2cc(C(=O)OCCOC(=O)c3ccc(-c4c5nc(c(-c6c(F)cccc6F)c6ccc([nH]6)c(-c6c(F)cccc6F)c6nc(c(-c7c(F)cccc7F)c7ccc4[nH]7)C=C6)C=C5)cc3)cs2)C1
REMARK SMILES IDX 15 1 13 2 14 3 12 4 10 5 11 6 76 7 75 8 9 9 8 10 7 13 6 14
REMARK SMILES IDX 3 15 4 16 77 17 5 19 2 20 1 21 16 22 17 23 18 24 19 25 20 26
REMARK SMILES IDX 21 27 22 28 74 29 23 30 73 31 24 32 25 33 26 34 67 35 27 36
REMARK SMILES IDX 72 37 66 38 68 39 28 40 71 41 65 42 64 43 29 45 55 46 38 47
REMARK SMILES IDX 54 48 39 49 42 50 53 51 69 52 40 53 41 54 52 56 70 57 43 58
REMARK SMILES IDX 30 59 31 60 36 61 32 62 33 63 35 64 37 65 34 66 56 67 57 68
REMARK SMILES IDX 62 69 58 70 59 71 61 72 63 73 60 74 44 75 45 76 50 77 46 78
REMARK SMILES IDX 47 79 49 80 51 81 48 82
REMARK H PARENT 8 11 8 12 3 18 68 44 42 55
REMARK Flexibility Score: inf
ROOT
ATOM      1  O   UNL A   1      41.629  21.123  26.631  1.00  0.00    -0.458 OA
ENDROOT
BRANCH   1   2
ATOM      2  C   UNL A   1      40.582  20.423  26.103  1.00  0.00     0.339 C 
ATOM      3  O   UNL A   1      40.613  19.235  25.825  1.00  0.00    -0.246 OA
BRANCH   2   4
ATOM      4  C   UNL A   1      39.378  21.238  25.932  1.00  0.00     0.071 A 
ATOM      5  C   UNL A   1      37.157  21.826  25.487  1.00  0.00     0.059 A 
ATOM      6  C   UNL A   1      38.137  20.860  25.323  1.00  0.00     0.037 A 
ATOM      7  S   UNL A   1      37.816  23.293  26.069  1.00  0.00    -0.142 S 
ATOM      8  C   UNL A   1      39.310  22.542  26.396  1.00  0.00     0.081 A 
BRANCH   5   9
ATOM      9  C   UNL A   1      35.668  21.686  25.350  1.00  0.00     0.308 C 
BRANCH   9  10
ATOM     10  N   UNL A   1      35.264  20.268  25.340  1.00  0.00    -0.341 N 
ATOM     11  H   UNL A   1      35.852  19.767  24.675  1.00  0.00     0.346 HD
ATOM     12  H   UNL A   1      35.375  19.911  26.288  1.00  0.00     0.346 HD
BRANCH  10  13
ATOM     13  C   UNL A   1      33.854  20.080  24.957  1.00  0.00     0.270 C 
BRANCH  13  14
ATOM     14  C   UNL A   1      33.671  18.899  24.001  1.00  0.00     0.105 C 
ATOM     15  N   UNL A   1      32.561  16.735  24.183  1.00  0.00    -0.335 N 
ATOM     16  C   UNL A   1      33.927  16.573  23.666  1.00  0.00     0.262 C 
ATOM     17  C   UNL A   1      32.312  18.198  24.185  1.00  0.00     0.271 C 
ATOM     18  H   UNL A   1      31.905  16.221  23.596  1.00  0.00     0.348 HD
ATOM     19  C   UNL A   1      34.680  17.773  24.195  1.00  0.00     0.076 C 
BRANCH  15  20
ATOM     20  C   UNL A   1      32.367  16.174  25.532  1.00  0.00     0.258 C 
ATOM     21  C   UNL A   1      32.866  14.738  25.678  1.00  0.00     0.071 C 
ENDBRANCH  15  20
ENDBRANCH  13  14
ENDBRANCH  10  13
ENDBRANCH   9  10
ENDBRANCH   5   9
ENDBRANCH   2   4
ENDBRANCH   1   2
BRANCH   1  22
ATOM     22  C   UNL A   1      42.931  20.751  26.141  1.00  0.00     0.275 C 
BRANCH  22  23
ATOM     23  C   UNL A   1      43.472  21.784  25.147  1.00  0.00     0.275 C 
BRANCH  23  24
ATOM     24  O   UNL A   1      42.805  23.054  25.293  1.00  0.00    -0.458 OA
BRANCH  24  25
ATOM     25  C   UNL A   1      43.610  24.141  25.247  1.00  0.00     0.338 C 
ATOM     26  O   UNL A   1      44.352  24.474  24.339  1.00  0.00    -0.246 OA
BRANCH  25  27
ATOM     27  C   UNL A   1      43.367  24.994  26.420  1.00  0.00     0.060 A 
ATOM     28  C   UNL A   1      42.494  24.507  27.389  1.00  0.00     0.016 A 
ATOM     29  C   UNL A   1      43.859  26.294  26.513  1.00  0.00     0.016 A 
ATOM     30  C   UNL A   1      42.088  25.309  28.449  1.00  0.00     0.010 A 
ATOM     31  C   UNL A   1      43.474  27.097  27.599  1.00  0.00     0.010 A 
ATOM     32  C   UNL A   1      42.571  26.617  28.567  1.00  0.00    -0.014 A 
BRANCH  32  33
ATOM     33  C   UNL A   1      42.059  27.470  29.673  1.00  0.00     0.031 A 
ATOM     34  C   UNL A   1      42.787  27.524  30.989  1.00  0.00     0.074 A 
ATOM     35  C   UNL A   1      40.988  28.262  29.472  1.00  0.00     0.049 A 
ATOM     36  N   UNL A   1      42.476  28.175  32.082  1.00  0.00    -0.248 NA
ATOM     37  C   UNL A   1      44.026  26.738  31.091  1.00  0.00     0.031 C 
ATOM     38  C   UNL A   1      40.222  28.346  28.228  1.00  0.00     0.029 A 
ATOM     39  N   UNL A   1      40.371  29.164  30.304  1.00  0.00    -0.354 N 
ATOM     40  C   UNL A   1      43.456  27.849  33.011  1.00  0.00     0.074 A 
ATOM     41  C   UNL A   1      44.365  26.931  32.357  1.00  0.00     0.031 C 
ATOM     42  C   UNL A   1      39.260  29.273  28.367  1.00  0.00     0.029 A 
ATOM     43  C   UNL A   1      39.300  29.801  29.727  1.00  0.00     0.049 A 
ATOM     44  H   UNL A   1      40.668  29.337  31.227  1.00  0.00     0.167 HD
ATOM     45  C   UNL A   1      43.588  28.279  34.290  1.00  0.00     0.037 A 
ATOM     46  C   UNL A   1      38.430  30.692  30.239  1.00  0.00     0.037 A 
ATOM     47  C   UNL A   1      42.707  29.223  34.927  1.00  0.00     0.049 A 
ATOM     48  C   UNL A   1      38.579  31.127  31.669  1.00  0.00     0.074 A 
ATOM     49  C   UNL A   1      42.769  29.730  36.214  1.00  0.00     0.029 A 
ATOM     50  N   UNL A   1      41.605  29.810  34.322  1.00  0.00    -0.354 N 
ATOM     51  N   UNL A   1      39.493  30.788  32.546  1.00  0.00    -0.248 NA
ATOM     52  C   UNL A   1      37.570  32.062  32.185  1.00  0.00     0.031 C 
ATOM     53  C   UNL A   1      41.683  30.591  36.401  1.00  0.00     0.029 A 
ATOM     54  C   UNL A   1      40.969  30.659  35.216  1.00  0.00     0.049 A 
ATOM     55  H   UNL A   1      41.317  29.648  33.395  1.00  0.00     0.167 HD
ATOM     56  C   UNL A   1      39.175  31.473  33.711  1.00  0.00     0.074 A 
ATOM     57  C   UNL A   1      38.001  32.269  33.420  1.00  0.00     0.031 C 
ATOM     58  C   UNL A   1      39.795  31.438  34.916  1.00  0.00     0.037 A 
BRANCH  45  59
ATOM     59  C   UNL A   1      44.711  27.697  35.100  1.00  0.00     0.057 A 
ATOM     60  C   UNL A   1      45.981  28.285  35.148  1.00  0.00     0.134 A 
ATOM     61  C   UNL A   1      44.507  26.540  35.863  1.00  0.00     0.134 A 
ATOM     62  F   UNL A   1      46.249  29.386  34.430  1.00  0.00    -0.206 F 
ATOM     63  C   UNL A   1      47.015  27.728  35.905  1.00  0.00     0.040 A 
ATOM     64  C   UNL A   1      45.524  25.989  36.644  1.00  0.00     0.040 A 
ATOM     65  F   UNL A   1      43.313  25.929  35.868  1.00  0.00    -0.206 F 
ATOM     66  C   UNL A   1      46.785  26.580  36.661  1.00  0.00     0.006 A 
ENDBRANCH  45  59
BRANCH  46  67
ATOM     67  C   UNL A   1      37.318  31.209  29.401  1.00  0.00     0.057 A 
ATOM     68  C   UNL A   1      37.373  32.484  28.825  1.00  0.00     0.134 A 
ATOM     69  C   UNL A   1      36.171  30.442  29.161  1.00  0.00     0.134 A 
ATOM     70  F   UNL A   1      38.433  33.277  29.040  1.00  0.00    -0.206 F 
ATOM     71  C   UNL A   1      36.323  32.981  28.050  1.00  0.00     0.040 A 
ATOM     72  C   UNL A   1      35.127  30.915  28.365  1.00  0.00     0.040 A 
ATOM     73  F   UNL A   1      36.057  29.213  29.685  1.00  0.00    -0.206 F 
ATOM     74  C   UNL A   1      35.200  32.192  27.812  1.00  0.00     0.006 A 
ENDBRANCH  46  67
BRANCH  58  75
ATOM     75  C   UNL A   1      39.220  32.304  35.999  1.00  0.00     0.057 A 
ATOM     76  C   UNL A   1      38.263  31.820  36.902  1.00  0.00     0.134 A 
ATOM     77  C   UNL A   1      39.631  33.636  36.146  1.00  0.00     0.134 A 
ATOM     78  F   UNL A   1      37.816  30.559  36.806  1.00  0.00    -0.206 F 
ATOM     79  C   UNL A   1      37.711  32.639  37.888  1.00  0.00     0.040 A 
ATOM     80  C   UNL A   1      39.107  34.455  37.147  1.00  0.00     0.040 A 
ATOM     81  F   UNL A   1      40.551  34.159  35.321  1.00  0.00    -0.206 F 
ATOM     82  C   UNL A   1      38.136  33.960  38.015  1.00  0.00     0.006 A 
ENDBRANCH  58  75
ENDBRANCH  32  33
ENDBRANCH  25  27
ENDBRANCH  24  25
ENDBRANCH  23  24
ENDBRANCH  22  23
ENDBRANCH   1  22
TORSDOF 16
ENDMDL
MODEL 2
REMARK VINA RESULT:     -10.3      1.790      3.185
REMARK SMILES CC[N@@H+]1CC[C@H](C[NH2+]Cc2cc(C(=O)OCCOC(=O)c3ccc(-c4c5nc(c(-c6c(F)cccc6F)c6ccc([nH]6)c(-c6c(F)cccc6F)c6nc(c(-c7c(F)cccc7F)c7ccc4[nH]7)C=C6)C=C5)cc3)cs2)C1
REMARK SMILES IDX 15 1 13 2 14 3 12 4 10 5 11 6 76 7 75 8 9 9 8 10 7 13 6 14
REMARK SMILES IDX 3 15 4 16 77 17 5 19 2 20 1 21 16 22 17 23 18 24 19 25 20 26
REMARK SMILES IDX 21 27 22 28 74 29 23 30 73 31 24 32 25 33 26 34 67 35 27 36
REMARK SMILES IDX 72 37 66 38 68 39 28 40 71 41 65 42 64 43 29 45 55 46 38 47
REMARK SMILES IDX 54 48 39 49 42 50 53 51 69 52 40 53 41 54 52 56 70 57 43 58
REMARK SMILES IDX 30 59 31 60 36 61 32 62 33 63 35 64 37 65 34 66 56 67 57 68
REMARK SMILES IDX 62 69 58 70 59 71 61 72 63 73 60 74 44 75 45 76 50 77 46 78
REMARK SMILES IDX 47 79 49 80 51 81 48 82
REMARK H PARENT 8 11 8 12 3 18 68 44 42 55
REMARK Flexibility Score: inf
ROOT
ATOM      1  O   UNL A   1      41.363  21.444  25.505  1.00  0.00    -0.458 OA
ENDROOT
BRANCH   1   2
ATOM      2  C   UNL A   1      40.432  21.398  26.503  1.00  0.00     0.339 C 
ATOM      3  O   UNL A   1      40.646  20.989  27.632  1.00  0.00    -0.246 OA
BRANCH   2   4
ATOM      4  C   UNL A   1      39.131  21.933  26.096  1.00  0.00     0.071 A 
ATOM      5  C   UNL A   1      36.913  22.013  25.355  1.00  0.00     0.059 A 
ATOM      6  C   UNL A   1      38.063  21.245  25.433  1.00  0.00     0.037 A 
ATOM      7  S   UNL A   1      37.221  23.644  25.769  1.00  0.00    -0.142 S 
ATOM      8  C   UNL A   1      38.773  23.248  26.348  1.00  0.00     0.081 A 
BRANCH   5   9
ATOM      9  C   UNL A   1      35.502  21.569  25.097  1.00  0.00     0.308 C 
BRANCH   9  10
ATOM     10  N   UNL A   1      34.540  22.367  25.881  1.00  0.00    -0.341 N 
ATOM     11  H   UNL A   1      33.975  21.732  26.446  1.00  0.00     0.346 HD
ATOM     12  H   UNL A   1      35.077  23.012  26.459  1.00  0.00     0.346 HD
BRANCH  10  13
ATOM     13  C   UNL A   1      33.642  23.170  25.034  1.00  0.00     0.270 C 
BRANCH  13  14
ATOM     14  C   UNL A   1      33.042  24.355  25.795  1.00  0.00     0.105 C 
ATOM     15  N   UNL A   1      31.673  26.264  25.140  1.00  0.00    -0.335 N 
ATOM     16  C   UNL A   1      32.826  26.705  25.936  1.00  0.00     0.262 C 
ATOM     17  C   UNL A   1      31.673  24.782  25.233  1.00  0.00     0.271 C 
ATOM     18  H   UNL A   1      30.819  26.685  25.505  1.00  0.00     0.348 HD
ATOM     19  C   UNL A   1      33.871  25.633  25.721  1.00  0.00     0.076 C 
BRANCH  15  20
ATOM     20  C   UNL A   1      31.724  26.695  23.732  1.00  0.00     0.258 C 
ATOM     21  C   UNL A   1      31.380  25.589  22.737  1.00  0.00     0.071 C 
ENDBRANCH  15  20
ENDBRANCH  13  14
ENDBRANCH  10  13
ENDBRANCH   9  10
ENDBRANCH   5   9
ENDBRANCH   2   4
ENDBRANCH   1   2
BRANCH   1  22
ATOM     22  C   UNL A   1      42.671  20.954  25.857  1.00  0.00     0.275 C 
BRANCH  22  23
ATOM     23  C   UNL A   1      43.775  21.885  25.347  1.00  0.00     0.275 C 
BRANCH  23  24
ATOM     24  O   UNL A   1      43.231  23.128  24.860  1.00  0.00    -0.458 OA
BRANCH  24  25
ATOM     25  C   UNL A   1      43.951  24.234  25.161  1.00  0.00     0.338 C 
ATOM     26  O   UNL A   1      44.973  24.621  24.620  1.00  0.00    -0.246 OA
BRANCH  25  27
ATOM     27  C   UNL A   1      43.243  25.032  26.173  1.00  0.00     0.060 A 
ATOM     28  C   UNL A   1      43.638  26.358  26.326  1.00  0.00     0.016 A 
ATOM     29  C   UNL A   1      42.315  24.474  27.050  1.00  0.00     0.016 A 
ATOM     30  C   UNL A   1      43.133  27.137  27.359  1.00  0.00     0.010 A 
ATOM     31  C   UNL A   1      41.779  25.268  28.077  1.00  0.00     0.010 A 
ATOM     32  C   UNL A   1      42.198  26.601  28.252  1.00  0.00    -0.014 A 
BRANCH  32  33
ATOM     33  C   UNL A   1      41.733  27.441  29.389  1.00  0.00     0.031 A 
ATOM     34  C   UNL A   1      42.485  27.440  30.692  1.00  0.00     0.074 A 
ATOM     35  C   UNL A   1      40.683  28.270  29.227  1.00  0.00     0.049 A 
ATOM     36  N   UNL A   1      42.214  28.072  31.805  1.00  0.00    -0.248 NA
ATOM     37  C   UNL A   1      43.702  26.615  30.751  1.00  0.00     0.031 C 
ATOM     38  C   UNL A   1      39.897  28.409  28.000  1.00  0.00     0.029 A 
ATOM     39  N   UNL A   1      40.109  29.169  30.093  1.00  0.00    -0.354 N 
ATOM     40  C   UNL A   1      43.200  27.693  32.708  1.00  0.00     0.074 A 
ATOM     41  C   UNL A   1      44.069  26.765  32.015  1.00  0.00     0.031 C 
ATOM     42  C   UNL A   1      38.966  29.360  28.180  1.00  0.00     0.029 A 
ATOM     43  C   UNL A   1      39.047  29.852  29.552  1.00  0.00     0.049 A 
ATOM     44  H   UNL A   1      40.427  29.309  31.014  1.00  0.00     0.167 HD
ATOM     45  C   UNL A   1      43.368  28.086  33.994  1.00  0.00     0.037 A 
ATOM     46  C   UNL A   1      38.215  30.756  30.103  1.00  0.00     0.037 A 
ATOM     47  C   UNL A   1      42.528  29.040  34.672  1.00  0.00     0.049 A 
ATOM     48  C   UNL A   1      38.402  31.149  31.539  1.00  0.00     0.074 A 
ATOM     49  C   UNL A   1      42.629  29.511  35.969  1.00  0.00     0.029 A 
ATOM     50  N   UNL A   1      41.434  29.675  34.102  1.00  0.00    -0.354 N 
ATOM     51  N   UNL A   1      39.321  30.761  32.390  1.00  0.00    -0.248 NA
ATOM     52  C   UNL A   1      37.431  32.100  32.098  1.00  0.00     0.031 C 
ATOM     53  C   UNL A   1      41.573  30.400  36.198  1.00  0.00     0.029 A 
ATOM     54  C   UNL A   1      40.840  30.519  35.028  1.00  0.00     0.049 A 
ATOM     55  H   UNL A   1      41.124  29.545  33.177  1.00  0.00     0.167 HD
ATOM     56  C   UNL A   1      39.045  31.425  33.578  1.00  0.00     0.074 A 
ATOM     57  C   UNL A   1      37.891  32.263  33.329  1.00  0.00     0.031 C 
ATOM     58  C   UNL A   1      39.685  31.341  34.770  1.00  0.00     0.037 A 
BRANCH  45  59
ATOM     59  C   UNL A   1      44.488  27.450  34.768  1.00  0.00     0.057 A 
ATOM     60  C   UNL A   1      44.330  26.239  35.452  1.00  0.00     0.134 A 
ATOM     61  C   UNL A   1      45.752  28.054  34.809  1.00  0.00     0.134 A 
ATOM     62  F   UNL A   1      43.143  25.615  35.466  1.00  0.00    -0.206 F 
ATOM     63  C   UNL A   1      45.382  25.664  36.170  1.00  0.00     0.040 A 
ATOM     64  C   UNL A   1      46.817  27.476  35.500  1.00  0.00     0.040 A 
ATOM     65  F   UNL A   1      45.973  29.213  34.171  1.00  0.00    -0.206 F 
ATOM     66  C   UNL A   1      46.632  26.280  36.190  1.00  0.00     0.006 A 
ENDBRANCH  45  59
BRANCH  46  67
ATOM     67  C   UNL A   1      37.104  31.327  29.298  1.00  0.00     0.057 A 
ATOM     68  C   UNL A   1      35.942  30.592  29.037  1.00  0.00     0.134 A 
ATOM     69  C   UNL A   1      37.182  32.620  28.767  1.00  0.00     0.134 A 
ATOM     70  F   UNL A   1      35.818  29.338  29.496  1.00  0.00    -0.206 F 
ATOM     71  C   UNL A   1      34.902  31.118  28.267  1.00  0.00     0.040 A 
ATOM     72  C   UNL A   1      36.139  33.169  28.020  1.00  0.00     0.040 A 
ATOM     73  F   UNL A   1      38.269  33.376  28.980  1.00  0.00    -0.206 F 
ATOM     74  C   UNL A   1      34.996  32.414  27.763  1.00  0.00     0.006 A 
ENDBRANCH  46  67
BRANCH  58  75
ATOM     75  C   UNL A   1      39.157  32.195  35.885  1.00  0.00     0.057 A 
ATOM     76  C   UNL A   1      38.234  31.704  36.819  1.00  0.00     0.134 A 
ATOM     77  C   UNL A   1      39.578  33.524  36.031  1.00  0.00     0.134 A 
ATOM     78  F   UNL A   1      37.778  30.446  36.725  1.00  0.00    -0.206 F 
ATOM     79  C   UNL A   1      37.724  32.513  37.836  1.00  0.00     0.040 A 
ATOM     80  C   UNL A   1      39.097  34.333  37.061  1.00  0.00     0.040 A 
ATOM     81  F   UNL A   1      40.468  34.054  35.178  1.00  0.00    -0.206 F 
ATOM     82  C   UNL A   1      38.159  33.831  37.961  1.00  0.00     0.006 A 
ENDBRANCH  58  75
ENDBRANCH  32  33
ENDBRANCH  25  27
ENDBRANCH  24  25
ENDBRANCH  23  24
ENDBRANCH  22  23
ENDBRANCH   1  22
TORSDOF 16
ENDMDL
MODEL 3
REMARK VINA RESULT:     -10.1      4.892      7.437
REMARK SMILES CC[N@@H+]1CC[C@H](C[NH2+]Cc2cc(C(=O)OCCOC(=O)c3ccc(-c4c5nc(c(-c6c(F)cccc6F)c6ccc([nH]6)c(-c6c(F)cccc6F)c6nc(c(-c7c(F)cccc7F)c7ccc4[nH]7)C=C6)C=C5)cc3)cs2)C1
REMARK SMILES IDX 15 1 13 2 14 3 12 4 10 5 11 6 76 7 75 8 9 9 8 10 7 13 6 14
REMARK SMILES IDX 3 15 4 16 77 17 5 19 2 20 1 21 16 22 17 23 18 24 19 25 20 26
REMARK SMILES IDX 21 27 22 28 74 29 23 30 73 31 24 32 25 33 26 34 67 35 27 36
REMARK SMILES IDX 72 37 66 38 68 39 28 40 71 41 65 42 64 43 29 45 55 46 38 47
REMARK SMILES IDX 54 48 39 49 42 50 53 51 69 52 40 53 41 54 52 56 70 57 43 58
REMARK SMILES IDX 30 59 31 60 36 61 32 62 33 63 35 64 37 65 34 66 56 67 57 68
REMARK SMILES IDX 62 69 58 70 59 71 61 72 63 73 60 74 44 75 45 76 50 77 46 78
REMARK SMILES IDX 47 79 49 80 51 81 48 82
REMARK H PARENT 8 11 8 12 3 18 68 44 42 55
REMARK Flexibility Score: inf
ROOT
ATOM      1  O   UNL A   1      41.349  19.974  26.248  1.00  0.00    -0.458 OA
ENDROOT
BRANCH   1   2
ATOM      2  C   UNL A   1      41.367  21.246  26.746  1.00  0.00     0.339 C 
ATOM      3  O   UNL A   1      42.307  21.740  27.346  1.00  0.00    -0.246 OA
BRANCH   2   4
ATOM      4  C   UNL A   1      40.143  21.992  26.453  1.00  0.00     0.071 A 
ATOM      5  C   UNL A   1      37.961  22.461  25.749  1.00  0.00     0.059 A 
ATOM      6  C   UNL A   1      39.016  21.567  25.676  1.00  0.00     0.037 A 
ATOM      7  S   UNL A   1      38.442  23.939  26.465  1.00  0.00    -0.142 S 
ATOM      8  C   UNL A   1      39.929  23.267  26.951  1.00  0.00     0.081 A 
BRANCH   5   9
ATOM      9  C   UNL A   1      36.513  22.237  25.417  1.00  0.00     0.308 C 
BRANCH   9  10
ATOM     10  N   UNL A   1      35.721  21.977  26.634  1.00  0.00    -0.341 N 
ATOM     11  H   UNL A   1      35.244  21.082  26.526  1.00  0.00     0.346 HD
ATOM     12  H   UNL A   1      36.366  21.969  27.423  1.00  0.00     0.346 HD
BRANCH  10  13
ATOM     13  C   UNL A   1      34.715  23.020  26.893  1.00  0.00     0.270 C 
BRANCH  13  14
ATOM     14  C   UNL A   1      33.287  22.473  26.818  1.00  0.00     0.105 C 
ATOM     15  N   UNL A   1      32.224  20.700  25.524  1.00  0.00    -0.335 N 
ATOM     16  C   UNL A   1      31.446  21.943  25.434  1.00  0.00     0.262 C 
ATOM     17  C   UNL A   1      33.253  20.954  26.564  1.00  0.00     0.271 C 
ATOM     18  H   UNL A   1      31.608  19.922  25.756  1.00  0.00     0.348 HD
ATOM     19  C   UNL A   1      32.455  23.043  25.675  1.00  0.00     0.076 C 
BRANCH  15  20
ATOM     20  C   UNL A   1      32.857  20.303  24.254  1.00  0.00     0.258 C 
ATOM     21  C   UNL A   1      32.555  18.864  23.840  1.00  0.00     0.071 C 
ENDBRANCH  15  20
ENDBRANCH  13  14
ENDBRANCH  10  13
ENDBRANCH   9  10
ENDBRANCH   5   9
ENDBRANCH   2   4
ENDBRANCH   1   2
BRANCH   1  22
ATOM     22  C   UNL A   1      42.300  19.066  26.836  1.00  0.00     0.275 C 
BRANCH  22  23
ATOM     23  C   UNL A   1      43.202  18.434  25.772  1.00  0.00     0.275 C 
BRANCH  23  24
ATOM     24  O   UNL A   1      43.399  19.322  24.654  1.00  0.00    -0.458 OA
BRANCH  24  25
ATOM     25  C   UNL A   1      44.690  19.585  24.341  1.00  0.00     0.338 C 
ATOM     26  O   UNL A   1      45.479  18.847  23.776  1.00  0.00    -0.246 OA
BRANCH  25  27
ATOM     27  C   UNL A   1      45.004  20.988  24.650  1.00  0.00     0.060 A 
ATOM     28  C   UNL A   1      45.544  21.256  25.905  1.00  0.00     0.016 A 
ATOM     29  C   UNL A   1      44.656  22.036  23.801  1.00  0.00     0.016 A 
ATOM     30  C   UNL A   1      45.726  22.564  26.337  1.00  0.00     0.010 A 
ATOM     31  C   UNL A   1      44.866  23.359  24.223  1.00  0.00     0.010 A 
ATOM     32  C   UNL A   1      45.386  23.634  25.502  1.00  0.00    -0.014 A 
BRANCH  32  33
ATOM     33  C   UNL A   1      45.527  25.020  26.025  1.00  0.00     0.031 A 
ATOM     34  C   UNL A   1      46.844  25.740  25.923  1.00  0.00     0.074 A 
ATOM     35  C   UNL A   1      44.452  25.666  26.516  1.00  0.00     0.049 A 
ATOM     36  N   UNL A   1      47.172  26.932  26.354  1.00  0.00    -0.248 NA
ATOM     37  C   UNL A   1      47.938  25.023  25.250  1.00  0.00     0.031 C 
ATOM     38  C   UNL A   1      43.105  25.104  26.624  1.00  0.00     0.029 A 
ATOM     39  N   UNL A   1      44.317  26.946  26.997  1.00  0.00    -0.354 N 
ATOM     40  C   UNL A   1      48.517  27.093  26.041  1.00  0.00     0.074 A 
ATOM     41  C   UNL A   1      48.946  25.870  25.395  1.00  0.00     0.031 C 
ATOM     42  C   UNL A   1      42.275  26.043  27.107  1.00  0.00     0.029 A 
ATOM     43  C   UNL A   1      43.040  27.249  27.402  1.00  0.00     0.049 A 
ATOM     44  H   UNL A   1      45.065  27.584  27.049  1.00  0.00     0.167 HD
ATOM     45  C   UNL A   1      49.318  28.163  26.267  1.00  0.00     0.037 A 
ATOM     46  C   UNL A   1      42.543  28.365  27.970  1.00  0.00     0.037 A 
ATOM     47  C   UNL A   1      48.881  29.394  26.874  1.00  0.00     0.049 A 
ATOM     48  C   UNL A   1      43.459  29.524  28.240  1.00  0.00     0.074 A 
ATOM     49  C   UNL A   1      49.616  30.538  27.131  1.00  0.00     0.029 A 
ATOM     50  N   UNL A   1      47.588  29.645  27.312  1.00  0.00    -0.354 N 
ATOM     51  N   UNL A   1      44.735  29.651  27.967  1.00  0.00    -0.248 NA
ATOM     52  C   UNL A   1      42.869  30.692  28.909  1.00  0.00     0.031 C 
ATOM     53  C   UNL A   1      48.780  31.466  27.761  1.00  0.00     0.029 A 
ATOM     54  C   UNL A   1      47.511  30.919  27.855  1.00  0.00     0.049 A 
ATOM     55  H   UNL A   1      46.837  29.012  27.248  1.00  0.00     0.167 HD
ATOM     56  C   UNL A   1      45.097  30.913  28.419  1.00  0.00     0.074 A 
ATOM     57  C   UNL A   1      43.899  31.522  28.959  1.00  0.00     0.031 C 
ATOM     58  C   UNL A   1      46.314  31.509  28.398  1.00  0.00     0.037 A 
BRANCH  45  59
ATOM     59  C   UNL A   1      50.766  28.032  25.890  1.00  0.00     0.057 A 
ATOM     60  C   UNL A   1      51.213  28.192  24.573  1.00  0.00     0.134 A 
ATOM     61  C   UNL A   1      51.730  27.764  26.871  1.00  0.00     0.134 A 
ATOM     62  F   UNL A   1      50.341  28.436  23.584  1.00  0.00    -0.206 F 
ATOM     63  C   UNL A   1      52.564  28.064  24.241  1.00  0.00     0.040 A 
ATOM     64  C   UNL A   1      53.086  27.660  26.556  1.00  0.00     0.040 A 
ATOM     65  F   UNL A   1      51.371  27.605  28.154  1.00  0.00    -0.206 F 
ATOM     66  C   UNL A   1      53.505  27.803  25.235  1.00  0.00     0.006 A 
ENDBRANCH  45  59
BRANCH  46  67
ATOM     67  C   UNL A   1      41.109  28.425  28.352  1.00  0.00     0.057 A 
ATOM     68  C   UNL A   1      40.680  28.054  29.632  1.00  0.00     0.134 A 
ATOM     69  C   UNL A   1      40.132  28.851  27.443  1.00  0.00     0.134 A 
ATOM     70  F   UNL A   1      41.564  27.613  30.538  1.00  0.00    -0.206 F 
ATOM     71  C   UNL A   1      39.332  28.093  29.991  1.00  0.00     0.040 A 
ATOM     72  C   UNL A   1      38.784  28.922  27.798  1.00  0.00     0.040 A 
ATOM     73  F   UNL A   1      40.477  29.219  26.201  1.00  0.00    -0.206 F 
ATOM     74  C   UNL A   1      38.380  28.536  29.074  1.00  0.00     0.006 A 
ENDBRANCH  46  67
BRANCH  58  75
ATOM     75  C   UNL A   1      46.398  32.899  28.958  1.00  0.00     0.057 A 
ATOM     76  C   UNL A   1      46.175  34.031  28.163  1.00  0.00     0.134 A 
ATOM     77  C   UNL A   1      46.700  33.109  30.310  1.00  0.00     0.134 A 
ATOM     78  F   UNL A   1      45.896  33.900  26.857  1.00  0.00    -0.206 F 
ATOM     79  C   UNL A   1      46.283  35.322  28.684  1.00  0.00     0.040 A 
ATOM     80  C   UNL A   1      46.784  34.394  30.849  1.00  0.00     0.040 A 
ATOM     81  F   UNL A   1      46.916  32.069  31.130  1.00  0.00    -0.206 F 
ATOM     82  C   UNL A   1      46.585  35.506  30.032  1.00  0.00     0.006 A 
ENDBRANCH  58  75
ENDBRANCH  32  33
ENDBRANCH  25  27
ENDBRANCH  24  25
ENDBRANCH  23  24
ENDBRANCH  22  23
ENDBRANCH   1  22
TORSDOF 16
ENDMDL
