MODEL 1
REMARK VINA RESULT:     -11.8      0.000      0.000
REMARK SMILES COCCNC(=O)c1cccc(NC(=O)[C@@H]2CCCC[C@H]2C(=O)OCCOC(=O)c2ccc(-c3c4nc(c(-c5c(F)cccc5F)c5ccc([nH]5)c(-c5c(F)cccc5F)c5nc(c(-c6c(F)cccc6F)c6ccc3[nH]6)C=C5)C=C4)cc2)c1
REMARK SMILES IDX 22 1 23 2 21 3 16 4 17 5 18 6 20 7 19 8 14 9 13 10 15 12
REMARK SMILES IDX 12 13 8 14 9 15 84 16 10 17 11 18 6 19 5 20 7 22 4 23 3 24
REMARK SMILES IDX 2 25 1 26 24 27 25 28 26 29 27 30 28 31 29 32 30 33 31 34
REMARK SMILES IDX 83 35 32 36 82 37 33 38 34 39 35 40 76 41 36 42 81 43 75 44
REMARK SMILES IDX 77 45 37 46 80 47 74 48 73 49 38 51 64 52 47 53 63 54 48 55
REMARK SMILES IDX 51 56 62 57 78 58 49 59 50 60 61 62 79 63 52 64 39 65 40 66
REMARK SMILES IDX 45 67 41 68 42 69 44 70 46 71 43 72 65 73 66 74 71 75 67 76
REMARK SMILES IDX 68 77 70 78 72 79 69 80 53 81 54 82 59 83 55 84 56 85 58 86
REMARK SMILES IDX 60 87 57 88
REMARK H PARENT 13 11 5 21 77 50 51 61
REMARK Flexibility Score: inf
ROOT
ATOM      1  C   UNL A   1      33.416  21.913  26.734  1.00  0.00     0.309 C 
ATOM      2  O   UNL A   1      33.246  22.579  27.751  1.00  0.00    -0.252 OA
ENDROOT
BRANCH   1   3
ATOM      3  C   UNL A   1      32.362  21.866  25.637  1.00  0.00     0.111 C 
ATOM      4  C   UNL A   1      31.715  23.216  25.268  1.00  0.00     0.093 C 
ATOM      5  C   UNL A   1      31.073  23.329  23.874  1.00  0.00     0.014 C 
ATOM      6  C   UNL A   1      31.788  22.549  22.779  1.00  0.00     0.001 C 
ATOM      7  C   UNL A   1      33.023  21.158  24.448  1.00  0.00     0.016 C 
ATOM      8  C   UNL A   1      32.153  21.137  23.202  1.00  0.00     0.001 C 
BRANCH   4   9
ATOM      9  C   UNL A   1      30.727  23.757  26.301  1.00  0.00     0.228 C 
ATOM     10  N   UNL A   1      30.378  25.056  26.502  1.00  0.00    -0.326 N 
ATOM     11  H   UNL A   1      29.650  25.132  27.162  1.00  0.00     0.169 HD
ATOM     12  O   UNL A   1      30.194  22.945  27.072  1.00  0.00    -0.274 OA
BRANCH  10  13
ATOM     13  C   UNL A   1      30.770  26.322  26.029  1.00  0.00     0.041 A 
ATOM     14  C   UNL A   1      30.625  27.936  24.206  1.00  0.00     0.041 A 
ATOM     15  C   UNL A   1      31.607  28.725  24.805  1.00  0.00     0.014 A 
ATOM     16  C   UNL A   1      30.208  26.743  24.816  1.00  0.00     0.040 A 
ATOM     17  C   UNL A   1      32.110  28.357  26.043  1.00  0.00     0.003 A 
ATOM     18  C   UNL A   1      31.672  27.177  26.652  1.00  0.00     0.026 A 
BRANCH  14  19
ATOM     19  C   UNL A   1      30.207  28.283  22.835  1.00  0.00     0.251 C 
ATOM     20  N   UNL A   1      29.318  29.297  22.611  1.00  0.00    -0.350 N 
ATOM     21  H   UNL A   1      28.780  29.217  21.790  1.00  0.00     0.163 HD
ATOM     22  O   UNL A   1      30.653  27.618  21.905  1.00  0.00    -0.269 OA
BRANCH  20  23
ATOM     23  C   UNL A   1      29.056  30.480  23.420  1.00  0.00     0.144 C 
BRANCH  23  24
ATOM     24  C   UNL A   1      27.655  31.055  23.177  1.00  0.00     0.181 C 
BRANCH  24  25
ATOM     25  O   UNL A   1      27.651  32.328  22.530  1.00  0.00    -0.383 OA
ATOM     26  C   UNL A   1      28.811  33.113  22.776  1.00  0.00     0.194 C 
ENDBRANCH  24  25
ENDBRANCH  23  24
ENDBRANCH  20  23
ENDBRANCH  14  19
ENDBRANCH  10  13
ENDBRANCH   4   9
ENDBRANCH   1   3
BRANCH   1  27
ATOM     27  O   UNL A   1      34.459  21.073  26.530  1.00  0.00    -0.462 OA
BRANCH  27  28
ATOM     28  C   UNL A   1      35.680  21.703  26.091  1.00  0.00     0.274 C 
BRANCH  28  29
ATOM     29  C   UNL A   1      36.579  20.735  25.326  1.00  0.00     0.275 C 
BRANCH  29  30
ATOM     30  O   UNL A   1      37.812  21.377  24.951  1.00  0.00    -0.458 OA
BRANCH  30  31
ATOM     31  C   UNL A   1      38.868  21.107  25.751  1.00  0.00     0.338 C 
ATOM     32  O   UNL A   1      39.383  20.024  25.961  1.00  0.00    -0.246 OA
BRANCH  31  33
ATOM     33  C   UNL A   1      39.324  22.329  26.431  1.00  0.00     0.060 A 
ATOM     34  C   UNL A   1      38.774  23.570  26.124  1.00  0.00     0.016 A 
ATOM     35  C   UNL A   1      40.427  22.242  27.285  1.00  0.00     0.016 A 
ATOM     36  C   UNL A   1      39.382  24.729  26.614  1.00  0.00     0.010 A 
ATOM     37  C   UNL A   1      40.994  23.404  27.819  1.00  0.00     0.010 A 
ATOM     38  C   UNL A   1      40.515  24.669  27.446  1.00  0.00    -0.014 A 
BRANCH  38  39
ATOM     39  C   UNL A   1      41.233  25.918  27.850  1.00  0.00     0.031 A 
ATOM     40  C   UNL A   1      42.630  26.207  27.343  1.00  0.00     0.074 A 
ATOM     41  C   UNL A   1      40.618  26.856  28.598  1.00  0.00     0.049 A 
ATOM     42  N   UNL A   1      43.407  27.235  27.594  1.00  0.00    -0.248 NA
ATOM     43  C   UNL A   1      43.226  25.232  26.417  1.00  0.00     0.031 C 
ATOM     44  C   UNL A   1      39.246  26.770  29.099  1.00  0.00     0.029 A 
ATOM     45  N   UNL A   1      41.045  28.096  29.016  1.00  0.00    -0.354 N 
ATOM     46  C   UNL A   1      44.591  27.004  26.903  1.00  0.00     0.074 A 
ATOM     47  C   UNL A   1      44.435  25.739  26.218  1.00  0.00     0.031 C 
ATOM     48  C   UNL A   1      38.908  27.942  29.656  1.00  0.00     0.029 A 
ATOM     49  C   UNL A   1      40.065  28.832  29.639  1.00  0.00     0.049 A 
ATOM     50  H   UNL A   1      41.963  28.424  28.882  1.00  0.00     0.167 HD
ATOM     51  C   UNL A   1      45.702  27.775  26.826  1.00  0.00     0.037 A 
ATOM     52  C   UNL A   1      40.087  30.076  30.156  1.00  0.00     0.037 A 
ATOM     53  C   UNL A   1      45.868  29.055  27.462  1.00  0.00     0.049 A 
ATOM     54  C   UNL A   1      41.361  30.870  30.130  1.00  0.00     0.074 A 
ATOM     55  C   UNL A   1      46.962  29.904  27.417  1.00  0.00     0.029 A 
ATOM     56  N   UNL A   1      44.916  29.677  28.250  1.00  0.00    -0.354 N 
ATOM     57  N   UNL A   1      42.495  30.600  29.534  1.00  0.00    -0.248 NA
ATOM     58  C   UNL A   1      41.366  32.129  30.893  1.00  0.00     0.031 C 
ATOM     59  C   UNL A   1      46.678  31.032  28.194  1.00  0.00     0.029 A 
ATOM     60  C   UNL A   1      45.394  30.901  28.692  1.00  0.00     0.049 A 
ATOM     61  H   UNL A   1      44.030  29.305  28.467  1.00  0.00     0.167 HD
ATOM     62  C   UNL A   1      43.350  31.646  29.859  1.00  0.00     0.074 A 
ATOM     63  C   UNL A   1      42.595  32.574  30.671  1.00  0.00     0.031 C 
ATOM     64  C   UNL A   1      44.652  31.811  29.522  1.00  0.00     0.037 A 
BRANCH  51  65
ATOM     65  C   UNL A   1      46.854  27.253  26.018  1.00  0.00     0.057 A 
ATOM     66  C   UNL A   1      46.986  27.533  24.653  1.00  0.00     0.134 A 
ATOM     67  C   UNL A   1      47.878  26.522  26.634  1.00  0.00     0.134 A 
ATOM     68  F   UNL A   1      46.028  28.209  24.002  1.00  0.00    -0.206 F 
ATOM     69  C   UNL A   1      48.096  27.100  23.926  1.00  0.00     0.040 A 
ATOM     70  C   UNL A   1      48.999  26.095  25.921  1.00  0.00     0.040 A 
ATOM     71  F   UNL A   1      47.811  26.225  27.941  1.00  0.00    -0.206 F 
ATOM     72  C   UNL A   1      49.110  26.385  24.563  1.00  0.00     0.006 A 
ENDBRANCH  51  65
BRANCH  52  73
ATOM     73  C   UNL A   1      38.868  30.639  30.789  1.00  0.00     0.057 A 
ATOM     74  C   UNL A   1      37.949  31.393  30.050  1.00  0.00     0.134 A 
ATOM     75  C   UNL A   1      38.603  30.454  32.152  1.00  0.00     0.134 A 
ATOM     76  F   UNL A   1      38.169  31.643  28.751  1.00  0.00    -0.206 F 
ATOM     77  C   UNL A   1      36.810  31.940  30.643  1.00  0.00     0.040 A 
ATOM     78  C   UNL A   1      37.455  30.971  32.751  1.00  0.00     0.040 A 
ATOM     79  F   UNL A   1      39.453  29.755  32.918  1.00  0.00    -0.206 F 
ATOM     80  C   UNL A   1      36.556  31.721  31.997  1.00  0.00     0.006 A 
ENDBRANCH  52  73
BRANCH  64  81
ATOM     81  C   UNL A   1      45.345  33.033  30.043  1.00  0.00     0.057 A 
ATOM     82  C   UNL A   1      45.297  34.250  29.350  1.00  0.00     0.134 A 
ATOM     83  C   UNL A   1      46.050  33.004  31.252  1.00  0.00     0.134 A 
ATOM     84  F   UNL A   1      44.650  34.338  28.177  1.00  0.00    -0.206 F 
ATOM     85  C   UNL A   1      45.940  35.390  29.833  1.00  0.00     0.040 A 
ATOM     86  C   UNL A   1      46.681  34.143  31.755  1.00  0.00     0.040 A 
ATOM     87  F   UNL A   1      46.131  31.870  31.965  1.00  0.00    -0.206 F 
ATOM     88  C   UNL A   1      46.630  35.339  31.043  1.00  0.00     0.006 A 
ENDBRANCH  64  81
ENDBRANCH  38  39
ENDBRANCH  31  33
ENDBRANCH  30  31
ENDBRANCH  29  30
ENDBRANCH  28  29
ENDBRANCH  27  28
ENDBRANCH   1  27
TORSDOF 17
ENDMDL
MODEL 2
REMARK VINA RESULT:     -11.7      3.230      6.630
REMARK SMILES COCCNC(=O)c1cccc(NC(=O)[C@@H]2CCCC[C@H]2C(=O)OCCOC(=O)c2ccc(-c3c4nc(c(-c5c(F)cccc5F)c5ccc([nH]5)c(-c5c(F)cccc5F)c5nc(c(-c6c(F)cccc6F)c6ccc3[nH]6)C=C5)C=C4)cc2)c1
REMARK SMILES IDX 22 1 23 2 21 3 16 4 17 5 18 6 20 7 19 8 14 9 13 10 15 12
REMARK SMILES IDX 12 13 8 14 9 15 84 16 10 17 11 18 6 19 5 20 7 22 4 23 3 24
REMARK SMILES IDX 2 25 1 26 24 27 25 28 26 29 27 30 28 31 29 32 30 33 31 34
REMARK SMILES IDX 83 35 32 36 82 37 33 38 34 39 35 40 76 41 36 42 81 43 75 44
REMARK SMILES IDX 77 45 37 46 80 47 74 48 73 49 38 51 64 52 47 53 63 54 48 55
REMARK SMILES IDX 51 56 62 57 78 58 49 59 50 60 61 62 79 63 52 64 39 65 40 66
REMARK SMILES IDX 45 67 41 68 42 69 44 70 46 71 43 72 65 73 66 74 71 75 67 76
REMARK SMILES IDX 68 77 70 78 72 79 69 80 53 81 54 82 59 83 55 84 56 85 58 86
REMARK SMILES IDX 60 87 57 88
REMARK H PARENT 13 11 5 21 77 50 51 61
REMARK Flexibility Score: inf
ROOT
ATOM      1  C   UNL A   1      34.235  22.085  26.800  1.00  0.00     0.309 C 
ATOM      2  O   UNL A   1      34.129  22.182  28.019  1.00  0.00    -0.252 OA
ENDROOT
BRANCH   1   3
ATOM      3  C   UNL A   1      33.011  21.917  25.912  1.00  0.00     0.111 C 
ATOM      4  C   UNL A   1      32.372  23.222  25.394  1.00  0.00     0.093 C 
ATOM      5  C   UNL A   1      31.510  23.124  24.123  1.00  0.00     0.014 C 
ATOM      6  C   UNL A   1      31.995  22.104  23.102  1.00  0.00     0.001 C 
ATOM      7  C   UNL A   1      33.430  20.954  24.794  1.00  0.00     0.016 C 
ATOM      8  C   UNL A   1      32.362  20.770  23.729  1.00  0.00     0.001 C 
BRANCH   4   9
ATOM      9  C   UNL A   1      31.598  24.018  26.444  1.00  0.00     0.228 C 
ATOM     10  N   UNL A   1      31.604  25.366  26.621  1.00  0.00    -0.326 N 
ATOM     11  H   UNL A   1      30.946  25.639  27.302  1.00  0.00     0.169 HD
ATOM     12  O   UNL A   1      30.904  23.384  27.253  1.00  0.00    -0.274 OA
BRANCH  10  13
ATOM     13  C   UNL A   1      32.290  26.479  26.102  1.00  0.00     0.041 A 
ATOM     14  C   UNL A   1      32.181  28.857  25.570  1.00  0.00     0.041 A 
ATOM     15  C   UNL A   1      33.404  28.781  24.904  1.00  0.00     0.014 A 
ATOM     16  C   UNL A   1      31.628  27.713  26.166  1.00  0.00     0.040 A 
ATOM     17  C   UNL A   1      34.102  27.582  24.905  1.00  0.00     0.003 A 
ATOM     18  C   UNL A   1      33.552  26.454  25.520  1.00  0.00     0.026 A 
BRANCH  14  19
ATOM     19  C   UNL A   1      31.405  30.105  25.439  1.00  0.00     0.251 C 
ATOM     20  N   UNL A   1      30.631  30.334  24.337  1.00  0.00    -0.350 N 
ATOM     21  H   UNL A   1      30.486  31.281  24.109  1.00  0.00     0.163 HD
ATOM     22  O   UNL A   1      31.497  30.943  26.331  1.00  0.00    -0.269 OA
BRANCH  20  23
ATOM     23  C   UNL A   1      29.989  29.370  23.452  1.00  0.00     0.144 C 
BRANCH  23  24
ATOM     24  C   UNL A   1      30.278  29.652  21.973  1.00  0.00     0.181 C 
BRANCH  24  25
ATOM     25  O   UNL A   1      29.167  30.190  21.255  1.00  0.00    -0.383 OA
ATOM     26  C   UNL A   1      27.923  30.087  21.938  1.00  0.00     0.194 C 
ENDBRANCH  24  25
ENDBRANCH  23  24
ENDBRANCH  20  23
ENDBRANCH  14  19
ENDBRANCH  10  13
ENDBRANCH   4   9
ENDBRANCH   1   3
BRANCH   1  27
ATOM     27  O   UNL A   1      35.413  21.990  26.135  1.00  0.00    -0.462 OA
BRANCH  27  28
ATOM     28  C   UNL A   1      36.144  23.225  26.000  1.00  0.00     0.274 C 
BRANCH  28  29
ATOM     29  C   UNL A   1      37.519  23.009  25.372  1.00  0.00     0.275 C 
BRANCH  29  30
ATOM     30  O   UNL A   1      38.447  22.498  26.346  1.00  0.00    -0.458 OA
BRANCH  30  31
ATOM     31  C   UNL A   1      39.692  23.022  26.285  1.00  0.00     0.338 C 
ATOM     32  O   UNL A   1      40.696  22.500  25.836  1.00  0.00    -0.246 OA
BRANCH  31  33
ATOM     33  C   UNL A   1      39.721  24.354  26.908  1.00  0.00     0.060 A 
ATOM     34  C   UNL A   1      40.449  25.397  26.341  1.00  0.00     0.016 A 
ATOM     35  C   UNL A   1      39.127  24.515  28.162  1.00  0.00     0.016 A 
ATOM     36  C   UNL A   1      40.643  26.573  27.071  1.00  0.00     0.010 A 
ATOM     37  C   UNL A   1      39.276  25.717  28.861  1.00  0.00     0.010 A 
ATOM     38  C   UNL A   1      40.084  26.744  28.350  1.00  0.00    -0.014 A 
BRANCH  38  39
ATOM     39  C   UNL A   1      40.414  27.951  29.172  1.00  0.00     0.031 A 
ATOM     40  C   UNL A   1      39.413  29.075  29.334  1.00  0.00     0.074 A 
ATOM     41  C   UNL A   1      41.570  28.020  29.862  1.00  0.00     0.049 A 
ATOM     42  N   UNL A   1      39.529  30.199  30.003  1.00  0.00    -0.248 NA
ATOM     43  C   UNL A   1      38.104  28.911  28.682  1.00  0.00     0.031 C 
ATOM     44  C   UNL A   1      42.605  26.986  29.881  1.00  0.00     0.029 A 
ATOM     45  N   UNL A   1      42.043  28.977  30.732  1.00  0.00    -0.354 N 
ATOM     46  C   UNL A   1      38.339  30.890  29.809  1.00  0.00     0.074 A 
ATOM     47  C   UNL A   1      37.508  30.062  28.961  1.00  0.00     0.031 C 
ATOM     48  C   UNL A   1      43.530  27.308  30.796  1.00  0.00     0.029 A 
ATOM     49  C   UNL A   1      43.209  28.615  31.363  1.00  0.00     0.049 A 
ATOM     50  H   UNL A   1      41.589  29.836  30.886  1.00  0.00     0.167 HD
ATOM     51  C   UNL A   1      37.957  32.093  30.301  1.00  0.00     0.037 A 
ATOM     52  C   UNL A   1      43.953  29.259  32.283  1.00  0.00     0.037 A 
ATOM     53  C   UNL A   1      38.746  32.917  31.178  1.00  0.00     0.049 A 
ATOM     54  C   UNL A   1      43.547  30.629  32.742  1.00  0.00     0.074 A 
ATOM     55  C   UNL A   1      38.420  34.144  31.732  1.00  0.00     0.029 A 
ATOM     56  N   UNL A   1      40.012  32.599  31.638  1.00  0.00    -0.354 N 
ATOM     57  N   UNL A   1      42.450  31.298  32.488  1.00  0.00    -0.248 NA
ATOM     58  C   UNL A   1      44.511  31.353  33.586  1.00  0.00     0.031 C 
ATOM     59  C   UNL A   1      39.496  34.577  32.513  1.00  0.00     0.029 A 
ATOM     60  C   UNL A   1      40.477  33.602  32.474  1.00  0.00     0.049 A 
ATOM     61  H   UNL A   1      40.509  31.781  31.406  1.00  0.00     0.167 HD
ATOM     62  C   UNL A   1      42.598  32.522  33.129  1.00  0.00     0.074 A 
ATOM     63  C   UNL A   1      43.871  32.491  33.815  1.00  0.00     0.031 C 
ATOM     64  C   UNL A   1      41.755  33.582  33.134  1.00  0.00     0.037 A 
BRANCH  51  65
ATOM     65  C   UNL A   1      36.609  32.612  29.897  1.00  0.00     0.057 A 
ATOM     66  C   UNL A   1      35.463  32.367  30.663  1.00  0.00     0.134 A 
ATOM     67  C   UNL A   1      36.472  33.425  28.764  1.00  0.00     0.134 A 
ATOM     68  F   UNL A   1      35.525  31.578  31.745  1.00  0.00    -0.206 F 
ATOM     69  C   UNL A   1      34.226  32.911  30.315  1.00  0.00     0.040 A 
ATOM     70  C   UNL A   1      35.243  33.985  28.413  1.00  0.00     0.040 A 
ATOM     71  F   UNL A   1      37.535  33.699  27.991  1.00  0.00    -0.206 F 
ATOM     72  C   UNL A   1      34.116  33.730  29.191  1.00  0.00     0.006 A 
ENDBRANCH  51  65
BRANCH  52  73
ATOM     73  C   UNL A   1      45.195  28.634  32.805  1.00  0.00     0.057 A 
ATOM     74  C   UNL A   1      46.421  28.803  32.152  1.00  0.00     0.134 A 
ATOM     75  C   UNL A   1      45.182  27.838  33.957  1.00  0.00     0.134 A 
ATOM     76  F   UNL A   1      46.492  29.518  31.019  1.00  0.00    -0.206 F 
ATOM     77  C   UNL A   1      47.589  28.204  32.627  1.00  0.00     0.040 A 
ATOM     78  C   UNL A   1      46.346  27.257  34.459  1.00  0.00     0.040 A 
ATOM     79  F   UNL A   1      44.035  27.624  34.619  1.00  0.00    -0.206 F 
ATOM     80  C   UNL A   1      47.555  27.436  33.790  1.00  0.00     0.006 A 
ENDBRANCH  52  73
BRANCH  64  81
ATOM     81  C   UNL A   1      42.188  34.800  33.892  1.00  0.00     0.057 A 
ATOM     82  C   UNL A   1      41.934  34.933  35.264  1.00  0.00     0.134 A 
ATOM     83  C   UNL A   1      42.880  35.839  33.258  1.00  0.00     0.134 A 
ATOM     84  F   UNL A   1      41.261  33.979  35.925  1.00  0.00    -0.206 F 
ATOM     85  C   UNL A   1      42.338  36.065  35.973  1.00  0.00     0.040 A 
ATOM     86  C   UNL A   1      43.306  36.966  33.961  1.00  0.00     0.040 A 
ATOM     87  F   UNL A   1      43.157  35.770  31.947  1.00  0.00    -0.206 F 
ATOM     88  C   UNL A   1      43.031  37.083  35.322  1.00  0.00     0.006 A 
ENDBRANCH  64  81
ENDBRANCH  38  39
ENDBRANCH  31  33
ENDBRANCH  30  31
ENDBRANCH  29  30
ENDBRANCH  28  29
ENDBRANCH  27  28
ENDBRANCH   1  27
TORSDOF 17
ENDMDL
MODEL 3
REMARK VINA RESULT:     -11.7      1.911      6.557
REMARK SMILES COCCNC(=O)c1cccc(NC(=O)[C@@H]2CCCC[C@H]2C(=O)OCCOC(=O)c2ccc(-c3c4nc(c(-c5c(F)cccc5F)c5ccc([nH]5)c(-c5c(F)cccc5F)c5nc(c(-c6c(F)cccc6F)c6ccc3[nH]6)C=C5)C=C4)cc2)c1
REMARK SMILES IDX 22 1 23 2 21 3 16 4 17 5 18 6 20 7 19 8 14 9 13 10 15 12
REMARK SMILES IDX 12 13 8 14 9 15 84 16 10 17 11 18 6 19 5 20 7 22 4 23 3 24
REMARK SMILES IDX 2 25 1 26 24 27 25 28 26 29 27 30 28 31 29 32 30 33 31 34
REMARK SMILES IDX 83 35 32 36 82 37 33 38 34 39 35 40 76 41 36 42 81 43 75 44
REMARK SMILES IDX 77 45 37 46 80 47 74 48 73 49 38 51 64 52 47 53 63 54 48 55
REMARK SMILES IDX 51 56 62 57 78 58 49 59 50 60 61 62 79 63 52 64 39 65 40 66
REMARK SMILES IDX 45 67 41 68 42 69 44 70 46 71 43 72 65 73 66 74 71 75 67 76
REMARK SMILES IDX 68 77 70 78 72 79 69 80 53 81 54 82 59 83 55 84 56 85 58 86
REMARK SMILES IDX 60 87 57 88
REMARK H PARENT 13 11 5 21 77 50 51 61
REMARK Flexibility Score: inf
ROOT
ATOM      1  C   UNL A   1      35.104  22.473  24.451  1.00  0.00     0.309 C 
ATOM      2  O   UNL A   1      35.590  22.803  23.373  1.00  0.00    -0.252 OA
ENDROOT
BRANCH   1   3
ATOM      3  C   UNL A   1      33.790  23.066  24.939  1.00  0.00     0.111 C 
ATOM      4  C   UNL A   1      32.514  22.314  24.511  1.00  0.00     0.093 C 
ATOM      5  C   UNL A   1      31.253  22.527  25.369  1.00  0.00     0.014 C 
ATOM      6  C   UNL A   1      31.519  22.707  26.857  1.00  0.00     0.001 C 
ATOM      7  C   UNL A   1      33.934  23.214  26.459  1.00  0.00     0.016 C 
ATOM      8  C   UNL A   1      32.656  23.674  27.140  1.00  0.00     0.001 C 
BRANCH   4   9
ATOM      9  C   UNL A   1      32.133  22.482  23.041  1.00  0.00     0.228 C 
ATOM     10  N   UNL A   1      31.803  23.638  22.405  1.00  0.00    -0.326 N 
ATOM     11  H   UNL A   1      31.695  23.494  21.436  1.00  0.00     0.169 HD
ATOM     12  O   UNL A   1      32.085  21.463  22.336  1.00  0.00    -0.274 OA
BRANCH  10  13
ATOM     13  C   UNL A   1      31.574  24.984  22.748  1.00  0.00     0.041 A 
ATOM     14  C   UNL A   1      32.515  27.230  22.877  1.00  0.00     0.041 A 
ATOM     15  C   UNL A   1      31.393  27.678  23.572  1.00  0.00     0.014 A 
ATOM     16  C   UNL A   1      32.604  25.890  22.466  1.00  0.00     0.040 A 
ATOM     17  C   UNL A   1      30.335  26.807  23.785  1.00  0.00     0.003 A 
ATOM     18  C   UNL A   1      30.425  25.481  23.353  1.00  0.00     0.026 A 
BRANCH  14  19
ATOM     19  C   UNL A   1      33.673  28.139  22.782  1.00  0.00     0.251 C 
ATOM     20  N   UNL A   1      34.068  28.881  23.859  1.00  0.00    -0.350 N 
ATOM     21  H   UNL A   1      34.532  29.723  23.647  1.00  0.00     0.163 HD
ATOM     22  O   UNL A   1      34.251  28.234  21.703  1.00  0.00    -0.269 OA
BRANCH  20  23
ATOM     23  C   UNL A   1      33.898  28.597  25.278  1.00  0.00     0.144 C 
BRANCH  23  24
ATOM     24  C   UNL A   1      33.253  29.766  26.034  1.00  0.00     0.181 C 
BRANCH  24  25
ATOM     25  O   UNL A   1      34.098  30.361  27.019  1.00  0.00    -0.383 OA
ATOM     26  C   UNL A   1      35.023  29.460  27.618  1.00  0.00     0.194 C 
ENDBRANCH  24  25
ENDBRANCH  23  24
ENDBRANCH  20  23
ENDBRANCH  14  19
ENDBRANCH  10  13
ENDBRANCH   4   9
ENDBRANCH   1   3
BRANCH   1  27
ATOM     27  O   UNL A   1      35.716  21.673  25.358  1.00  0.00    -0.462 OA
BRANCH  27  28
ATOM     28  C   UNL A   1      35.737  20.270  25.026  1.00  0.00     0.274 C 
BRANCH  28  29
ATOM     29  C   UNL A   1      37.161  19.729  24.920  1.00  0.00     0.275 C 
BRANCH  29  30
ATOM     30  O   UNL A   1      38.115  20.806  24.939  1.00  0.00    -0.458 OA
BRANCH  30  31
ATOM     31  C   UNL A   1      39.161  20.633  25.778  1.00  0.00     0.338 C 
ATOM     32  O   UNL A   1      39.690  19.585  26.100  1.00  0.00    -0.246 OA
BRANCH  31  33
ATOM     33  C   UNL A   1      39.585  21.923  26.345  1.00  0.00     0.060 A 
ATOM     34  C   UNL A   1      38.906  23.100  26.040  1.00  0.00     0.016 A 
ATOM     35  C   UNL A   1      40.775  21.970  27.075  1.00  0.00     0.016 A 
ATOM     36  C   UNL A   1      39.465  24.327  26.404  1.00  0.00     0.010 A 
ATOM     37  C   UNL A   1      41.298  23.200  27.488  1.00  0.00     0.010 A 
ATOM     38  C   UNL A   1      40.680  24.401  27.109  1.00  0.00    -0.014 A 
BRANCH  38  39
ATOM     39  C   UNL A   1      41.332  25.723  27.371  1.00  0.00     0.031 A 
ATOM     40  C   UNL A   1      40.673  26.747  28.269  1.00  0.00     0.074 A 
ATOM     41  C   UNL A   1      42.563  25.992  26.889  1.00  0.00     0.049 A 
ATOM     42  N   UNL A   1      41.089  27.947  28.603  1.00  0.00    -0.248 NA
ATOM     43  C   UNL A   1      39.394  26.374  28.893  1.00  0.00     0.031 C 
ATOM     44  C   UNL A   1      43.368  25.081  26.076  1.00  0.00     0.029 A 
ATOM     45  N   UNL A   1      43.378  27.087  27.065  1.00  0.00    -0.354 N 
ATOM     46  C   UNL A   1      40.106  28.483  29.426  1.00  0.00     0.074 A 
ATOM     47  C   UNL A   1      39.069  27.480  29.547  1.00  0.00     0.031 C 
ATOM     48  C   UNL A   1      44.594  25.602  25.917  1.00  0.00     0.029 A 
ATOM     49  C   UNL A   1      44.635  26.924  26.534  1.00  0.00     0.049 A 
ATOM     50  H   UNL A   1      43.087  27.907  27.526  1.00  0.00     0.167 HD
ATOM     51  C   UNL A   1      40.069  29.688  30.044  1.00  0.00     0.037 A 
ATOM     52  C   UNL A   1      45.704  27.745  26.525  1.00  0.00     0.037 A 
ATOM     53  C   UNL A   1      41.104  30.686  29.974  1.00  0.00     0.049 A 
ATOM     54  C   UNL A   1      45.600  29.109  27.142  1.00  0.00     0.074 A 
ATOM     55  C   UNL A   1      41.144  31.929  30.586  1.00  0.00     0.029 A 
ATOM     56  N   UNL A   1      42.282  30.558  29.260  1.00  0.00    -0.354 N 
ATOM     57  N   UNL A   1      44.631  29.626  27.855  1.00  0.00    -0.248 NA
ATOM     58  C   UNL A   1      46.731  30.023  26.913  1.00  0.00     0.031 C 
ATOM     59  C   UNL A   1      42.340  32.559  30.227  1.00  0.00     0.029 A 
ATOM     60  C   UNL A   1      43.059  31.694  29.421  1.00  0.00     0.049 A 
ATOM     61  H   UNL A   1      42.532  29.775  28.717  1.00  0.00     0.167 HD
ATOM     62  C   UNL A   1      45.028  30.925  28.147  1.00  0.00     0.074 A 
ATOM     63  C   UNL A   1      46.342  31.106  27.570  1.00  0.00     0.031 C 
ATOM     64  C   UNL A   1      44.353  31.885  28.824  1.00  0.00     0.037 A 
BRANCH  51  65
ATOM     65  C   UNL A   1      38.852  30.013  30.859  1.00  0.00     0.057 A 
ATOM     66  C   UNL A   1      38.775  29.710  32.224  1.00  0.00     0.134 A 
ATOM     67  C   UNL A   1      37.776  30.701  30.284  1.00  0.00     0.134 A 
ATOM     68  F   UNL A   1      39.764  29.033  32.826  1.00  0.00    -0.206 F 
ATOM     69  C   UNL A   1      37.667  30.077  32.988  1.00  0.00     0.040 A 
ATOM     70  C   UNL A   1      36.668  31.085  31.041  1.00  0.00     0.040 A 
ATOM     71  F   UNL A   1      37.792  31.023  28.981  1.00  0.00    -0.206 F 
ATOM     72  C   UNL A   1      36.613  30.774  32.398  1.00  0.00     0.006 A 
ENDBRANCH  51  65
BRANCH  52  73
ATOM     73  C   UNL A   1      46.963  27.318  25.864  1.00  0.00     0.057 A 
ATOM     74  C   UNL A   1      47.170  27.522  24.495  1.00  0.00     0.134 A 
ATOM     75  C   UNL A   1      47.982  26.679  26.582  1.00  0.00     0.134 A 
ATOM     76  F   UNL A   1      46.213  28.089  23.744  1.00  0.00    -0.206 F 
ATOM     77  C   UNL A   1      48.344  27.107  23.865  1.00  0.00     0.040 A 
ATOM     78  C   UNL A   1      49.172  26.285  25.971  1.00  0.00     0.040 A 
ATOM     79  F   UNL A   1      47.839  26.439  27.894  1.00  0.00    -0.206 F 
ATOM     80  C   UNL A   1      49.354  26.495  24.605  1.00  0.00     0.006 A 
ENDBRANCH  52  73
BRANCH  64  81
ATOM     81  C   UNL A   1      45.018  33.220  28.966  1.00  0.00     0.057 A 
ATOM     82  C   UNL A   1      45.907  33.484  30.015  1.00  0.00     0.134 A 
ATOM     83  C   UNL A   1      44.785  34.245  28.040  1.00  0.00     0.134 A 
ATOM     84  F   UNL A   1      46.159  32.549  30.943  1.00  0.00    -0.206 F 
ATOM     85  C   UNL A   1      46.529  34.727  30.148  1.00  0.00     0.040 A 
ATOM     86  C   UNL A   1      45.416  35.484  28.151  1.00  0.00     0.040 A 
ATOM     87  F   UNL A   1      43.946  34.054  27.010  1.00  0.00    -0.206 F 
ATOM     88  C   UNL A   1      46.287  35.729  29.210  1.00  0.00     0.006 A 
ENDBRANCH  64  81
ENDBRANCH  38  39
ENDBRANCH  31  33
ENDBRANCH  30  31
ENDBRANCH  29  30
ENDBRANCH  28  29
ENDBRANCH  27  28
ENDBRANCH   1  27
TORSDOF 17
ENDMDL
