MODEL 1
REMARK VINA RESULT:     -12.6      0.000      0.000
REMARK SMILES Cc1ccc(-c2nn(-c3ccccc3)cc2[C@@H]2[NH2+][C@H](C(=O)OCCOC(=O)c3ccc(-c4c5nc(c(-c6c(F)cccc6F)c6ccc([nH]6)c(-c6c(F)cccc6F)c6nc(c(-c7c(F)cccc7F)c7ccc4[nH]7)C=C6)C=C5)cc3)CS2)cc1
REMARK SMILES IDX 23 1 22 2 20 3 21 4 19 5 17 6 18 7 83 8 82 11 16 12 6 13
REMARK SMILES IDX 7 14 8 15 15 16 5 17 1 18 2 19 3 20 85 21 4 22 84 23 9 24
REMARK SMILES IDX 10 25 14 26 11 27 13 28 12 29 24 30 25 31 26 32 27 33 28 34
REMARK SMILES IDX 29 35 81 36 30 37 80 38 31 39 32 40 33 41 74 42 34 43 79 44
REMARK SMILES IDX 73 45 75 46 35 47 78 48 72 49 71 50 36 52 62 53 45 54 61 55
REMARK SMILES IDX 46 56 49 57 60 58 76 59 47 60 48 61 59 63 77 64 50 65 37 66
REMARK SMILES IDX 38 67 43 68 39 69 40 70 42 71 44 72 41 73 63 74 64 75 69 76
REMARK SMILES IDX 65 77 66 78 68 79 70 80 67 81 51 82 52 83 57 84 53 85 54 86
REMARK SMILES IDX 56 87 58 88 55 89
REMARK H PARENT 18 9 18 10 75 51 49 62
REMARK Flexibility Score: inf
ROOT
ATOM      1  C   UNL A   1      36.948  22.947  24.630  1.00  0.00     0.274 C 
ENDROOT
BRANCH   1   2
ATOM      2  O   UNL A   1      35.525  22.970  24.799  1.00  0.00    -0.458 OA
BRANCH   2   3
ATOM      3  C   UNL A   1      35.082  22.380  25.948  1.00  0.00     0.365 C 
ATOM      4  O   UNL A   1      35.142  21.180  26.168  1.00  0.00    -0.245 OA
BRANCH   3   5
ATOM      5  C   UNL A   1      34.489  23.405  26.922  1.00  0.00     0.304 C 
ATOM      6  C   UNL A   1      32.170  23.311  26.317  1.00  0.00     0.278 C 
ATOM      7  N   UNL A   1      33.381  24.157  26.280  1.00  0.00    -0.319 N 
ATOM      8  S   UNL A   1      32.153  22.613  27.987  1.00  0.00    -0.087 SA
ATOM      9  H   UNL A   1      33.212  25.024  26.789  1.00  0.00     0.348 HD
ATOM     10  H   UNL A   1      33.623  24.387  25.316  1.00  0.00     0.348 HD
ATOM     11  C   UNL A   1      33.947  22.788  28.215  1.00  0.00     0.153 C 
BRANCH   6  12
ATOM     12  C   UNL A   1      32.232  22.286  25.220  1.00  0.00     0.067 A 
ATOM     13  C   UNL A   1      32.302  22.539  23.821  1.00  0.00     0.103 A 
ATOM     14  N   UNL A   1      32.625  21.443  23.123  1.00  0.00    -0.167 NA
ATOM     15  N   UNL A   1      32.674  20.451  24.053  1.00  0.00    -0.240 N 
ATOM     16  C   UNL A   1      32.211  20.903  25.271  1.00  0.00     0.126 A 
BRANCH  13  17
ATOM     17  C   UNL A   1      31.926  23.797  23.203  1.00  0.00     0.003 A 
ATOM     18  C   UNL A   1      30.908  27.874  22.314  1.00  0.00     0.044 C 
ATOM     19  C   UNL A   1      31.244  26.437  22.575  1.00  0.00    -0.051 A 
ATOM     20  C   UNL A   1      32.506  25.929  22.233  1.00  0.00     0.004 A 
ATOM     21  C   UNL A   1      30.309  25.597  23.187  1.00  0.00     0.004 A 
ATOM     22  C   UNL A   1      32.850  24.610  22.545  1.00  0.00     0.011 A 
ATOM     23  C   UNL A   1      30.647  24.284  23.496  1.00  0.00     0.011 A 
ENDBRANCH  13  17
BRANCH  15  24
ATOM     24  C   UNL A   1      33.210  19.162  23.760  1.00  0.00     0.065 A 
ATOM     25  C   UNL A   1      34.298  18.672  24.494  1.00  0.00     0.028 A 
ATOM     26  C   UNL A   1      32.618  18.340  22.791  1.00  0.00     0.028 A 
ATOM     27  C   UNL A   1      34.756  17.366  24.284  1.00  0.00     0.002 A 
ATOM     28  C   UNL A   1      33.076  17.034  22.587  1.00  0.00     0.002 A 
ATOM     29  C   UNL A   1      34.141  16.547  23.337  1.00  0.00     0.000 A 
ENDBRANCH  15  24
ENDBRANCH   6  12
ENDBRANCH   3   5
ENDBRANCH   2   3
ENDBRANCH   1   2
BRANCH   1  30
ATOM     30  C   UNL A   1      37.658  23.944  25.555  1.00  0.00     0.275 C 
BRANCH  30  31
ATOM     31  O   UNL A   1      38.696  23.445  26.451  1.00  0.00    -0.458 OA
BRANCH  31  32
ATOM     32  C   UNL A   1      39.902  23.964  26.822  1.00  0.00     0.338 C 
ATOM     33  O   UNL A   1      40.941  23.385  26.630  1.00  0.00    -0.246 OA
BRANCH  32  34
ATOM     34  C   UNL A   1      39.919  25.314  27.420  1.00  0.00     0.060 A 
ATOM     35  C   UNL A   1      40.439  26.399  26.688  1.00  0.00     0.016 A 
ATOM     36  C   UNL A   1      39.357  25.510  28.668  1.00  0.00     0.016 A 
ATOM     37  C   UNL A   1      40.289  27.704  27.174  1.00  0.00     0.010 A 
ATOM     38  C   UNL A   1      39.045  26.792  29.050  1.00  0.00     0.010 A 
ATOM     39  C   UNL A   1      39.545  27.901  28.339  1.00  0.00    -0.014 A 
BRANCH  39  40
ATOM     40  C   UNL A   1      39.434  29.168  29.066  1.00  0.00     0.031 A 
ATOM     41  C   UNL A   1      38.437  30.231  28.815  1.00  0.00     0.074 A 
ATOM     42  C   UNL A   1      40.327  29.242  30.078  1.00  0.00     0.049 A 
ATOM     43  N   UNL A   1      38.566  31.454  29.206  1.00  0.00    -0.248 NA
ATOM     44  C   UNL A   1      37.191  30.026  28.097  1.00  0.00     0.031 C 
ATOM     45  C   UNL A   1      40.472  30.192  31.162  1.00  0.00     0.029 A 
ATOM     46  N   UNL A   1      41.479  28.443  30.172  1.00  0.00    -0.354 N 
ATOM     47  C   UNL A   1      37.352  32.103  29.044  1.00  0.00     0.074 A 
ATOM     48  C   UNL A   1      36.551  31.190  28.278  1.00  0.00     0.031 C 
ATOM     49  C   UNL A   1      41.754  30.147  31.581  1.00  0.00     0.029 A 
ATOM     50  C   UNL A   1      42.482  29.268  30.666  1.00  0.00     0.049 A 
ATOM     51  H   UNL A   1      41.559  27.490  29.935  1.00  0.00     0.167 HD
ATOM     52  C   UNL A   1      37.140  33.280  29.707  1.00  0.00     0.037 A 
ATOM     53  C   UNL A   1      43.480  29.634  29.808  1.00  0.00     0.037 A 
ATOM     54  C   UNL A   1      38.384  33.707  30.340  1.00  0.00     0.049 A 
ATOM     55  C   UNL A   1      43.489  31.125  29.609  1.00  0.00     0.074 A 
ATOM     56  C   UNL A   1      38.887  33.495  31.612  1.00  0.00     0.029 A 
ATOM     57  N   UNL A   1      39.456  34.088  29.542  1.00  0.00    -0.354 N 
ATOM     58  N   UNL A   1      42.423  31.875  29.655  1.00  0.00    -0.248 NA
ATOM     59  C   UNL A   1      44.715  31.880  29.384  1.00  0.00     0.031 C 
ATOM     60  C   UNL A   1      40.297  33.620  31.540  1.00  0.00     0.029 A 
ATOM     61  C   UNL A   1      40.640  33.946  30.238  1.00  0.00     0.049 A 
ATOM     62  H   UNL A   1      39.381  34.412  28.615  1.00  0.00     0.167 HD
ATOM     63  C   UNL A   1      42.797  33.181  29.525  1.00  0.00     0.074 A 
ATOM     64  C   UNL A   1      44.237  33.135  29.341  1.00  0.00     0.031 C 
ATOM     65  C   UNL A   1      41.915  34.218  29.599  1.00  0.00     0.037 A 
BRANCH  52  66
ATOM     66  C   UNL A   1      35.793  33.900  30.040  1.00  0.00     0.057 A 
ATOM     67  C   UNL A   1      34.971  34.414  29.009  1.00  0.00     0.134 A 
ATOM     68  C   UNL A   1      35.262  34.079  31.329  1.00  0.00     0.134 A 
ATOM     69  F   UNL A   1      35.283  34.259  27.715  1.00  0.00    -0.206 F 
ATOM     70  C   UNL A   1      33.785  35.125  29.243  1.00  0.00     0.040 A 
ATOM     71  C   UNL A   1      34.086  34.814  31.581  1.00  0.00     0.040 A 
ATOM     72  F   UNL A   1      35.824  33.519  32.405  1.00  0.00    -0.206 F 
ATOM     73  C   UNL A   1      33.351  35.353  30.537  1.00  0.00     0.006 A 
ENDBRANCH  52  66
BRANCH  53  74
ATOM     74  C   UNL A   1      43.797  28.630  28.734  1.00  0.00     0.057 A 
ATOM     75  C   UNL A   1      43.476  28.923  27.390  1.00  0.00     0.134 A 
ATOM     76  C   UNL A   1      44.624  27.519  28.938  1.00  0.00     0.134 A 
ATOM     77  F   UNL A   1      42.690  29.972  27.097  1.00  0.00    -0.206 F 
ATOM     78  C   UNL A   1      44.017  28.210  26.312  1.00  0.00     0.040 A 
ATOM     79  C   UNL A   1      45.155  26.783  27.865  1.00  0.00     0.040 A 
ATOM     80  F   UNL A   1      44.993  27.157  30.175  1.00  0.00    -0.206 F 
ATOM     81  C   UNL A   1      44.875  27.144  26.549  1.00  0.00     0.006 A 
ENDBRANCH  53  74
BRANCH  65  82
ATOM     82  C   UNL A   1      42.232  35.614  29.160  1.00  0.00     0.057 A 
ATOM     83  C   UNL A   1      43.088  36.464  29.875  1.00  0.00     0.134 A 
ATOM     84  C   UNL A   1      41.804  36.091  27.905  1.00  0.00     0.134 A 
ATOM     85  F   UNL A   1      43.663  36.074  31.023  1.00  0.00    -0.206 F 
ATOM     86  C   UNL A   1      43.432  37.735  29.413  1.00  0.00     0.040 A 
ATOM     87  C   UNL A   1      42.189  37.336  27.406  1.00  0.00     0.040 A 
ATOM     88  F   UNL A   1      41.021  35.356  27.101  1.00  0.00    -0.206 F 
ATOM     89  C   UNL A   1      42.989  38.172  28.171  1.00  0.00     0.006 A 
ENDBRANCH  65  82
ENDBRANCH  39  40
ENDBRANCH  32  34
ENDBRANCH  31  32
ENDBRANCH  30  31
ENDBRANCH   1  30
TORSDOF 14
ENDMDL
MODEL 2
REMARK VINA RESULT:     -12.1      2.712      4.059
REMARK SMILES Cc1ccc(-c2nn(-c3ccccc3)cc2[C@@H]2[NH2+][C@H](C(=O)OCCOC(=O)c3ccc(-c4c5nc(c(-c6c(F)cccc6F)c6ccc([nH]6)c(-c6c(F)cccc6F)c6nc(c(-c7c(F)cccc7F)c7ccc4[nH]7)C=C6)C=C5)cc3)CS2)cc1
REMARK SMILES IDX 23 1 22 2 20 3 21 4 19 5 17 6 18 7 83 8 82 11 16 12 6 13
REMARK SMILES IDX 7 14 8 15 15 16 5 17 1 18 2 19 3 20 85 21 4 22 84 23 9 24
REMARK SMILES IDX 10 25 14 26 11 27 13 28 12 29 24 30 25 31 26 32 27 33 28 34
REMARK SMILES IDX 29 35 81 36 30 37 80 38 31 39 32 40 33 41 74 42 34 43 79 44
REMARK SMILES IDX 73 45 75 46 35 47 78 48 72 49 71 50 36 52 62 53 45 54 61 55
REMARK SMILES IDX 46 56 49 57 60 58 76 59 47 60 48 61 59 63 77 64 50 65 37 66
REMARK SMILES IDX 38 67 43 68 39 69 40 70 42 71 44 72 41 73 63 74 64 75 69 76
REMARK SMILES IDX 65 77 66 78 68 79 70 80 67 81 51 82 52 83 57 84 53 85 54 86
REMARK SMILES IDX 56 87 58 88 55 89
REMARK H PARENT 18 9 18 10 75 51 49 62
REMARK Flexibility Score: inf
ROOT
ATOM      1  C   UNL A   1      37.287  21.233  24.225  1.00  0.00     0.274 C 
ENDROOT
BRANCH   1   2
ATOM      2  O   UNL A   1      36.025  21.803  24.594  1.00  0.00    -0.458 OA
BRANCH   2   3
ATOM      3  C   UNL A   1      35.747  22.998  23.995  1.00  0.00     0.365 C 
ATOM      4  O   UNL A   1      35.535  23.132  22.799  1.00  0.00    -0.245 OA
BRANCH   3   5
ATOM      5  C   UNL A   1      35.745  24.152  25.004  1.00  0.00     0.304 C 
ATOM      6  C   UNL A   1      33.497  24.024  25.832  1.00  0.00     0.278 C 
ATOM      7  N   UNL A   1      34.426  24.835  25.017  1.00  0.00    -0.319 N 
ATOM      8  S   UNL A   1      34.464  23.549  27.288  1.00  0.00    -0.087 SA
ATOM      9  H   UNL A   1      34.522  25.764  25.426  1.00  0.00     0.348 HD
ATOM     10  H   UNL A   1      34.070  24.932  24.067  1.00  0.00     0.348 HD
ATOM     11  C   UNL A   1      36.062  23.719  26.439  1.00  0.00     0.153 C 
BRANCH   6  12
ATOM     12  C   UNL A   1      32.992  22.862  25.022  1.00  0.00     0.067 A 
ATOM     13  C   UNL A   1      32.334  22.927  23.762  1.00  0.00     0.103 A 
ATOM     14  N   UNL A   1      32.257  21.728  23.169  1.00  0.00    -0.167 NA
ATOM     15  N   UNL A   1      32.780  20.864  24.080  1.00  0.00    -0.240 N 
ATOM     16  C   UNL A   1      33.006  21.504  25.282  1.00  0.00     0.126 A 
BRANCH  13  17
ATOM     17  C   UNL A   1      31.688  24.118  23.241  1.00  0.00     0.003 A 
ATOM     18  C   UNL A   1      30.139  28.063  22.545  1.00  0.00     0.044 C 
ATOM     19  C   UNL A   1      30.647  26.667  22.749  1.00  0.00    -0.051 A 
ATOM     20  C   UNL A   1      31.771  26.211  22.044  1.00  0.00     0.004 A 
ATOM     21  C   UNL A   1      30.018  25.817  23.664  1.00  0.00     0.004 A 
ATOM     22  C   UNL A   1      32.294  24.938  22.288  1.00  0.00     0.011 A 
ATOM     23  C   UNL A   1      30.534  24.549  23.905  1.00  0.00     0.011 A 
ENDBRANCH  13  17
BRANCH  15  24
ATOM     24  C   UNL A   1      33.096  19.513  23.751  1.00  0.00     0.065 A 
ATOM     25  C   UNL A   1      34.049  18.813  24.501  1.00  0.00     0.028 A 
ATOM     26  C   UNL A   1      32.411  18.844  22.727  1.00  0.00     0.028 A 
ATOM     27  C   UNL A   1      34.280  17.455  24.251  1.00  0.00     0.002 A 
ATOM     28  C   UNL A   1      32.642  17.487  22.482  1.00  0.00     0.002 A 
ATOM     29  C   UNL A   1      33.573  16.792  23.247  1.00  0.00     0.000 A 
ENDBRANCH  15  24
ENDBRANCH   6  12
ENDBRANCH   3   5
ENDBRANCH   2   3
ENDBRANCH   1   2
BRANCH   1  30
ATOM     30  C   UNL A   1      38.142  20.877  25.447  1.00  0.00     0.275 C 
BRANCH  30  31
ATOM     31  O   UNL A   1      39.307  21.704  25.747  1.00  0.00    -0.458 OA
BRANCH  31  32
ATOM     32  C   UNL A   1      40.111  21.775  26.847  1.00  0.00     0.338 C 
ATOM     33  O   UNL A   1      40.457  20.795  27.458  1.00  0.00    -0.246 OA
BRANCH  32  34
ATOM     34  C   UNL A   1      40.615  23.103  27.251  1.00  0.00     0.060 A 
ATOM     35  C   UNL A   1      40.009  24.268  26.743  1.00  0.00     0.016 A 
ATOM     36  C   UNL A   1      41.633  23.187  28.183  1.00  0.00     0.016 A 
ATOM     37  C   UNL A   1      40.360  25.520  27.262  1.00  0.00     0.010 A 
ATOM     38  C   UNL A   1      41.838  24.387  28.820  1.00  0.00     0.010 A 
ATOM     39  C   UNL A   1      41.246  25.571  28.340  1.00  0.00    -0.014 A 
BRANCH  39  40
ATOM     40  C   UNL A   1      41.839  26.793  28.888  1.00  0.00     0.031 A 
ATOM     41  C   UNL A   1      41.134  28.070  29.133  1.00  0.00     0.074 A 
ATOM     42  C   UNL A   1      43.134  26.609  29.228  1.00  0.00     0.049 A 
ATOM     43  N   UNL A   1      41.724  29.209  29.274  1.00  0.00    -0.248 NA
ATOM     44  C   UNL A   1      39.691  28.195  29.243  1.00  0.00     0.031 C 
ATOM     45  C   UNL A   1      44.063  27.446  29.959  1.00  0.00     0.029 A 
ATOM     46  N   UNL A   1      43.934  25.560  28.743  1.00  0.00    -0.354 N 
ATOM     47  C   UNL A   1      40.803  30.130  29.750  1.00  0.00     0.074 A 
ATOM     48  C   UNL A   1      39.534  29.466  29.641  1.00  0.00     0.031 C 
ATOM     49  C   UNL A   1      45.314  27.084  29.603  1.00  0.00     0.029 A 
ATOM     50  C   UNL A   1      45.194  26.105  28.524  1.00  0.00     0.049 A 
ATOM     51  H   UNL A   1      43.658  24.627  28.589  1.00  0.00     0.167 HD
ATOM     52  C   UNL A   1      41.261  31.291  30.308  1.00  0.00     0.037 A 
ATOM     53  C   UNL A   1      45.595  26.268  27.228  1.00  0.00     0.037 A 
ATOM     54  C   UNL A   1      42.703  31.386  30.108  1.00  0.00     0.049 A 
ATOM     55  C   UNL A   1      45.819  27.724  26.921  1.00  0.00     0.074 A 
ATOM     56  C   UNL A   1      43.769  31.002  30.905  1.00  0.00     0.029 A 
ATOM     57  N   UNL A   1      43.201  31.544  28.820  1.00  0.00    -0.354 N 
ATOM     58  N   UNL A   1      45.155  28.698  27.479  1.00  0.00    -0.248 NA
ATOM     59  C   UNL A   1      46.840  28.183  25.990  1.00  0.00     0.031 C 
ATOM     60  C   UNL A   1      44.885  30.799  30.055  1.00  0.00     0.029 A 
ATOM     61  C   UNL A   1      44.506  31.098  28.757  1.00  0.00     0.049 A 
ATOM     62  H   UNL A   1      42.695  31.921  28.063  1.00  0.00     0.167 HD
ATOM     63  C   UNL A   1      45.669  29.887  27.046  1.00  0.00     0.074 A 
ATOM     64  C   UNL A   1      46.709  29.515  26.103  1.00  0.00     0.031 C 
ATOM     65  C   UNL A   1      45.231  31.095  27.499  1.00  0.00     0.037 A 
BRANCH  52  66
ATOM     66  C   UNL A   1      40.504  32.191  31.272  1.00  0.00     0.057 A 
ATOM     67  C   UNL A   1      40.221  33.532  30.919  1.00  0.00     0.134 A 
ATOM     68  C   UNL A   1      40.074  31.842  32.564  1.00  0.00     0.134 A 
ATOM     69  F   UNL A   1      40.487  34.012  29.697  1.00  0.00    -0.206 F 
ATOM     70  C   UNL A   1      39.655  34.464  31.803  1.00  0.00     0.040 A 
ATOM     71  C   UNL A   1      39.529  32.773  33.469  1.00  0.00     0.040 A 
ATOM     72  F   UNL A   1      40.116  30.580  33.001  1.00  0.00    -0.206 F 
ATOM     73  C   UNL A   1      39.332  34.094  33.096  1.00  0.00     0.006 A 
ENDBRANCH  52  66
BRANCH  53  74
ATOM     74  C   UNL A   1      45.030  25.271  26.255  1.00  0.00     0.057 A 
ATOM     75  C   UNL A   1      45.582  23.972  26.188  1.00  0.00     0.134 A 
ATOM     76  C   UNL A   1      43.820  25.458  25.577  1.00  0.00     0.134 A 
ATOM     77  F   UNL A   1      46.741  23.699  26.811  1.00  0.00    -0.206 F 
ATOM     78  C   UNL A   1      44.926  22.905  25.563  1.00  0.00     0.040 A 
ATOM     79  C   UNL A   1      43.163  24.398  24.927  1.00  0.00     0.040 A 
ATOM     80  F   UNL A   1      43.208  26.650  25.581  1.00  0.00    -0.206 F 
ATOM     81  C   UNL A   1      43.701  23.113  24.943  1.00  0.00     0.006 A 
ENDBRANCH  53  74
BRANCH  65  82
ATOM     82  C   UNL A   1      45.546  32.398  26.832  1.00  0.00     0.057 A 
ATOM     83  C   UNL A   1      44.689  33.011  25.907  1.00  0.00     0.134 A 
ATOM     84  C   UNL A   1      46.664  33.159  27.227  1.00  0.00     0.134 A 
ATOM     85  F   UNL A   1      43.528  32.444  25.546  1.00  0.00    -0.206 F 
ATOM     86  C   UNL A   1      44.964  34.262  25.351  1.00  0.00     0.040 A 
ATOM     87  C   UNL A   1      46.918  34.435  26.722  1.00  0.00     0.040 A 
ATOM     88  F   UNL A   1      47.537  32.708  28.140  1.00  0.00    -0.206 F 
ATOM     89  C   UNL A   1      46.077  34.982  25.764  1.00  0.00     0.006 A 
ENDBRANCH  65  82
ENDBRANCH  39  40
ENDBRANCH  32  34
ENDBRANCH  31  32
ENDBRANCH  30  31
ENDBRANCH   1  30
TORSDOF 14
ENDMDL
MODEL 3
REMARK VINA RESULT:     -12.1      2.067      3.005
REMARK SMILES Cc1ccc(-c2nn(-c3ccccc3)cc2[C@@H]2[NH2+][C@H](C(=O)OCCOC(=O)c3ccc(-c4c5nc(c(-c6c(F)cccc6F)c6ccc([nH]6)c(-c6c(F)cccc6F)c6nc(c(-c7c(F)cccc7F)c7ccc4[nH]7)C=C6)C=C5)cc3)CS2)cc1
REMARK SMILES IDX 23 1 22 2 20 3 21 4 19 5 17 6 18 7 83 8 82 11 16 12 6 13
REMARK SMILES IDX 7 14 8 15 15 16 5 17 1 18 2 19 3 20 85 21 4 22 84 23 9 24
REMARK SMILES IDX 10 25 14 26 11 27 13 28 12 29 24 30 25 31 26 32 27 33 28 34
REMARK SMILES IDX 29 35 81 36 30 37 80 38 31 39 32 40 33 41 74 42 34 43 79 44
REMARK SMILES IDX 73 45 75 46 35 47 78 48 72 49 71 50 36 52 62 53 45 54 61 55
REMARK SMILES IDX 46 56 49 57 60 58 76 59 47 60 48 61 59 63 77 64 50 65 37 66
REMARK SMILES IDX 38 67 43 68 39 69 40 70 42 71 44 72 41 73 63 74 64 75 69 76
REMARK SMILES IDX 65 77 66 78 68 79 70 80 67 81 51 82 52 83 57 84 53 85 54 86
REMARK SMILES IDX 56 87 58 88 55 89
REMARK H PARENT 18 9 18 10 75 51 49 62
REMARK Flexibility Score: inf
ROOT
ATOM      1  C   UNL A   1      35.358  24.532  24.998  1.00  0.00     0.274 C 
ENDROOT
BRANCH   1   2
ATOM      2  O   UNL A   1      34.406  25.472  25.510  1.00  0.00    -0.458 OA
BRANCH   2   3
ATOM      3  C   UNL A   1      34.052  26.456  24.631  1.00  0.00     0.365 C 
ATOM      4  O   UNL A   1      33.850  26.271  23.441  1.00  0.00    -0.245 OA
BRANCH   3   5
ATOM      5  C   UNL A   1      33.953  27.823  25.319  1.00  0.00     0.304 C 
ATOM      6  C   UNL A   1      31.581  28.003  25.624  1.00  0.00     0.278 C 
ATOM      7  N   UNL A   1      32.733  28.545  24.875  1.00  0.00    -0.319 N 
ATOM      8  S   UNL A   1      32.172  27.860  27.330  1.00  0.00    -0.087 SA
ATOM      9  H   UNL A   1      32.833  29.542  25.070  1.00  0.00     0.348 HD
ATOM     10  H   UNL A   1      32.595  28.420  23.873  1.00  0.00     0.348 HD
ATOM     11  C   UNL A   1      33.920  27.744  26.848  1.00  0.00     0.153 C 
BRANCH   6  12
ATOM     12  C   UNL A   1      31.144  26.701  25.013  1.00  0.00     0.067 A 
ATOM     13  C   UNL A   1      30.502  26.526  23.755  1.00  0.00     0.103 A 
ATOM     14  N   UNL A   1      30.492  25.244  23.365  1.00  0.00    -0.167 NA
ATOM     15  N   UNL A   1      31.043  24.568  24.410  1.00  0.00    -0.240 N 
ATOM     16  C   UNL A   1      31.221  25.405  25.492  1.00  0.00     0.126 A 
BRANCH  13  17
ATOM     17  C   UNL A   1      29.807  27.582  23.042  1.00  0.00     0.003 A 
ATOM     18  C   UNL A   1      27.772  31.166  21.832  1.00  0.00     0.044 C 
ATOM     19  C   UNL A   1      28.467  29.891  22.208  1.00  0.00    -0.051 A 
ATOM     20  C   UNL A   1      29.809  29.684  21.858  1.00  0.00     0.004 A 
ATOM     21  C   UNL A   1      27.787  28.909  22.935  1.00  0.00     0.004 A 
ATOM     22  C   UNL A   1      30.482  28.531  22.272  1.00  0.00     0.011 A 
ATOM     23  C   UNL A   1      28.453  27.760  23.346  1.00  0.00     0.011 A 
ENDBRANCH  13  17
BRANCH  15  24
ATOM     24  C   UNL A   1      31.428  23.199  24.308  1.00  0.00     0.065 A 
ATOM     25  C   UNL A   1      31.717  22.642  23.055  1.00  0.00     0.028 A 
ATOM     26  C   UNL A   1      31.596  22.411  25.457  1.00  0.00     0.028 A 
ATOM     27  C   UNL A   1      32.201  21.332  22.964  1.00  0.00     0.002 A 
ATOM     28  C   UNL A   1      32.084  21.105  25.361  1.00  0.00     0.002 A 
ATOM     29  C   UNL A   1      32.390  20.567  24.115  1.00  0.00     0.000 A 
ENDBRANCH  15  24
ENDBRANCH   6  12
ENDBRANCH   3   5
ENDBRANCH   2   3
ENDBRANCH   1   2
BRANCH   1  30
ATOM     30  C   UNL A   1      36.299  24.007  26.089  1.00  0.00     0.275 C 
BRANCH  30  31
ATOM     31  O   UNL A   1      37.719  23.876  25.781  1.00  0.00    -0.458 OA
BRANCH  31  32
ATOM     32  C   UNL A   1      38.818  23.791  26.584  1.00  0.00     0.338 C 
ATOM     33  O   UNL A   1      39.514  22.807  26.625  1.00  0.00    -0.246 OA
BRANCH  32  34
ATOM     34  C   UNL A   1      39.190  24.979  27.378  1.00  0.00     0.060 A 
ATOM     35  C   UNL A   1      39.819  26.072  26.752  1.00  0.00     0.016 A 
ATOM     36  C   UNL A   1      38.848  25.035  28.717  1.00  0.00     0.016 A 
ATOM     37  C   UNL A   1      40.005  27.269  27.456  1.00  0.00     0.010 A 
ATOM     38  C   UNL A   1      38.857  26.258  29.343  1.00  0.00     0.010 A 
ATOM     39  C   UNL A   1      39.476  27.373  28.744  1.00  0.00    -0.014 A 
BRANCH  39  40
ATOM     40  C   UNL A   1      39.722  28.480  29.670  1.00  0.00     0.031 A 
ATOM     41  C   UNL A   1      38.814  29.620  29.927  1.00  0.00     0.074 A 
ATOM     42  C   UNL A   1      40.879  28.315  30.349  1.00  0.00     0.049 A 
ATOM     43  N   UNL A   1      39.183  30.737  30.457  1.00  0.00    -0.248 NA
ATOM     44  C   UNL A   1      37.396  29.618  29.612  1.00  0.00     0.031 C 
ATOM     45  C   UNL A   1      41.442  29.031  31.475  1.00  0.00     0.029 A 
ATOM     46  N   UNL A   1      41.915  27.457  29.941  1.00  0.00    -0.354 N 
ATOM     47  C   UNL A   1      38.052  31.464  30.795  1.00  0.00     0.074 A 
ATOM     48  C   UNL A   1      36.966  30.755  30.177  1.00  0.00     0.031 C 
ATOM     49  C   UNL A   1      42.779  28.843  31.458  1.00  0.00     0.029 A 
ATOM     50  C   UNL A   1      43.101  28.122  30.227  1.00  0.00     0.049 A 
ATOM     51  H   UNL A   1      41.820  26.565  29.535  1.00  0.00     0.167 HD
ATOM     52  C   UNL A   1      38.175  32.500  31.678  1.00  0.00     0.037 A 
ATOM     53  C   UNL A   1      43.830  28.596  29.173  1.00  0.00     0.037 A 
ATOM     54  C   UNL A   1      39.588  32.736  31.951  1.00  0.00     0.049 A 
ATOM     55  C   UNL A   1      43.938  30.096  29.234  1.00  0.00     0.074 A 
ATOM     56  C   UNL A   1      40.424  32.259  32.947  1.00  0.00     0.029 A 
ATOM     57  N   UNL A   1      40.406  33.210  30.932  1.00  0.00    -0.354 N 
ATOM     58  N   UNL A   1      43.020  30.874  29.737  1.00  0.00    -0.248 NA
ATOM     59  C   UNL A   1      45.112  30.819  28.766  1.00  0.00     0.031 C 
ATOM     60  C   UNL A   1      41.753  32.327  32.458  1.00  0.00     0.029 A 
ATOM     61  C   UNL A   1      41.723  32.880  31.189  1.00  0.00     0.049 A 
ATOM     62  H   UNL A   1      40.093  33.710  30.144  1.00  0.00     0.167 HD
ATOM     63  C   UNL A   1      43.475  32.161  29.718  1.00  0.00     0.074 A 
ATOM     64  C   UNL A   1      44.780  32.080  29.086  1.00  0.00     0.031 C 
ATOM     65  C   UNL A   1      42.769  33.206  30.236  1.00  0.00     0.037 A 
BRANCH  52  66
ATOM     66  C   UNL A   1      37.062  33.110  32.516  1.00  0.00     0.057 A 
ATOM     67  C   UNL A   1      36.127  33.991  31.924  1.00  0.00     0.134 A 
ATOM     68  C   UNL A   1      36.876  32.931  33.897  1.00  0.00     0.134 A 
ATOM     69  F   UNL A   1      36.106  34.215  30.603  1.00  0.00    -0.206 F 
ATOM     70  C   UNL A   1      35.162  34.703  32.652  1.00  0.00     0.040 A 
ATOM     71  C   UNL A   1      35.929  33.658  34.645  1.00  0.00     0.040 A 
ATOM     72  F   UNL A   1      37.565  32.016  34.587  1.00  0.00    -0.206 F 
ATOM     73  C   UNL A   1      35.078  34.560  34.026  1.00  0.00     0.006 A 
ENDBRANCH  52  66
BRANCH  53  74
ATOM     74  C   UNL A   1      43.703  27.804  27.902  1.00  0.00     0.057 A 
ATOM     75  C   UNL A   1      43.025  28.363  26.796  1.00  0.00     0.134 A 
ATOM     76  C   UNL A   1      44.432  26.636  27.646  1.00  0.00     0.134 A 
ATOM     77  F   UNL A   1      42.302  29.485  26.946  1.00  0.00    -0.206 F 
ATOM     78  C   UNL A   1      43.139  27.846  25.500  1.00  0.00     0.040 A 
ATOM     79  C   UNL A   1      44.536  26.095  26.353  1.00  0.00     0.040 A 
ATOM     80  F   UNL A   1      45.117  26.027  28.624  1.00  0.00    -0.206 F 
ATOM     81  C   UNL A   1      43.913  26.715  25.272  1.00  0.00     0.006 A 
ENDBRANCH  53  74
BRANCH  65  82
ATOM     82  C   UNL A   1      43.087  34.643  29.960  1.00  0.00     0.057 A 
ATOM     83  C   UNL A   1      43.626  35.506  30.926  1.00  0.00     0.134 A 
ATOM     84  C   UNL A   1      43.007  35.162  28.653  1.00  0.00     0.134 A 
ATOM     85  F   UNL A   1      43.869  35.090  32.178  1.00  0.00    -0.206 F 
ATOM     86  C   UNL A   1      43.985  36.822  30.631  1.00  0.00     0.040 A 
ATOM     87  C   UNL A   1      43.418  36.457  28.334  1.00  0.00     0.040 A 
ATOM     88  F   UNL A   1      42.554  34.424  27.628  1.00  0.00    -0.206 F 
ATOM     89  C   UNL A   1      43.890  37.299  29.330  1.00  0.00     0.006 A 
ENDBRANCH  65  82
ENDBRANCH  39  40
ENDBRANCH  32  34
ENDBRANCH  31  32
ENDBRANCH  30  31
ENDBRANCH   1  30
TORSDOF 14
ENDMDL
