MODEL 1
REMARK VINA RESULT:     -11.6      0.000      0.000
REMARK SMILES Cc1cc(CNc2ccc(C(=O)OCCOC(=O)c3ccc(-c4c5nc(c(-c6c(F)cccc6F)c6ccc([nH]6)c(-c6c(F)cccc6F)c6nc(c(-c7c(F)cccc7F)c7ccc4[nH]7)C=C6)C=C5)cc3)c(F)c2F)sc1C
REMARK SMILES IDX 14 1 13 2 11 3 12 4 10 5 7 6 8 7 75 8 9 9 73 10 76 11 74 12
REMARK SMILES IDX 6 13 5 15 4 16 1 17 2 18 3 19 78 20 77 21 79 22 15 23 16 24
REMARK SMILES IDX 17 25 18 26 19 27 20 28 72 29 21 30 71 31 22 32 23 33 24 34
REMARK SMILES IDX 65 35 25 36 70 37 64 38 66 39 26 40 69 41 63 42 62 43 27 45
REMARK SMILES IDX 53 46 36 47 52 48 37 49 40 50 51 51 67 52 38 53 39 54 50 56
REMARK SMILES IDX 68 57 41 58 28 59 29 60 34 61 30 62 31 63 33 64 35 65 32 66
REMARK SMILES IDX 54 67 55 68 60 69 56 70 57 71 59 72 61 73 58 74 42 75 43 76
REMARK SMILES IDX 48 77 44 78 45 79 47 80 49 81 46 82
REMARK H PARENT 6 14 66 44 40 55
REMARK Flexibility Score: inf
ROOT
ATOM      1  C   UNL A   1      42.642  20.317  26.139  1.00  0.00     0.275 C 
ENDROOT
BRANCH   1   2
ATOM      2  O   UNL A   1      41.282  20.647  25.790  1.00  0.00    -0.458 OA
BRANCH   2   3
ATOM      3  C   UNL A   1      40.502  21.109  26.794  1.00  0.00     0.341 C 
ATOM      4  O   UNL A   1      40.746  21.062  27.991  1.00  0.00    -0.246 OA
BRANCH   3   5
ATOM      5  C   UNL A   1      39.329  21.830  26.265  1.00  0.00     0.099 A 
ATOM      6  C   UNL A   1      37.103  23.291  25.328  1.00  0.00     0.074 A 
ATOM      7  C   UNL A   1      38.008  23.874  26.216  1.00  0.00     0.030 A 
ATOM      8  C   UNL A   1      37.333  21.958  24.936  1.00  0.00     0.182 A 
ATOM      9  C   UNL A   1      39.090  23.140  26.707  1.00  0.00     0.021 A 
ATOM     10  C   UNL A   1      38.436  21.237  25.384  1.00  0.00     0.175 A 
ATOM     11  F   UNL A   1      36.466  21.371  24.094  1.00  0.00    -0.201 F 
ATOM     12  F   UNL A   1      38.594  19.966  24.987  1.00  0.00    -0.203 F 
BRANCH   6  13
ATOM     13  N   UNL A   1      36.014  23.982  24.827  1.00  0.00    -0.378 N 
ATOM     14  H   UNL A   1      36.131  24.516  24.008  1.00  0.00     0.161 HD
BRANCH  13  15
ATOM     15  C   UNL A   1      34.699  23.955  25.457  1.00  0.00     0.160 C 
BRANCH  15  16
ATOM     16  C   UNL A   1      33.923  22.742  25.027  1.00  0.00     0.024 A 
ATOM     17  C   UNL A   1      32.134  20.728  22.412  1.00  0.00     0.045 C 
ATOM     18  C   UNL A   1      32.772  21.216  23.670  1.00  0.00    -0.037 A 
ATOM     19  C   UNL A   1      33.324  22.529  23.803  1.00  0.00     0.021 A 
ATOM     20  C   UNL A   1      32.939  20.490  24.840  1.00  0.00     0.005 A 
ATOM     21  S   UNL A   1      33.746  21.393  26.051  1.00  0.00    -0.144 S 
ATOM     22  C   UNL A   1      32.527  19.083  25.123  1.00  0.00     0.056 C 
ENDBRANCH  15  16
ENDBRANCH  13  15
ENDBRANCH   6  13
ENDBRANCH   3   5
ENDBRANCH   2   3
ENDBRANCH   1   2
BRANCH   1  23
ATOM     23  C   UNL A   1      43.627  21.250  25.439  1.00  0.00     0.275 C 
BRANCH  23  24
ATOM     24  O   UNL A   1      43.838  22.427  26.241  1.00  0.00    -0.458 OA
BRANCH  24  25
ATOM     25  C   UNL A   1      43.724  23.608  25.594  1.00  0.00     0.338 C 
ATOM     26  O   UNL A   1      44.041  23.869  24.447  1.00  0.00    -0.246 OA
BRANCH  25  27
ATOM     27  C   UNL A   1      43.091  24.593  26.482  1.00  0.00     0.060 A 
ATOM     28  C   UNL A   1      43.463  25.930  26.376  1.00  0.00     0.016 A 
ATOM     29  C   UNL A   1      42.249  24.181  27.512  1.00  0.00     0.016 A 
ATOM     30  C   UNL A   1      43.076  26.847  27.350  1.00  0.00     0.010 A 
ATOM     31  C   UNL A   1      41.777  25.124  28.434  1.00  0.00     0.010 A 
ATOM     32  C   UNL A   1      42.217  26.461  28.389  1.00  0.00    -0.014 A 
BRANCH  32  33
ATOM     33  C   UNL A   1      41.818  27.432  29.450  1.00  0.00     0.031 A 
ATOM     34  C   UNL A   1      42.587  27.499  30.746  1.00  0.00     0.074 A 
ATOM     35  C   UNL A   1      40.781  28.275  29.263  1.00  0.00     0.049 A 
ATOM     36  N   UNL A   1      42.288  28.120  31.859  1.00  0.00    -0.248 NA
ATOM     37  C   UNL A   1      43.858  26.757  30.801  1.00  0.00     0.031 C 
ATOM     38  C   UNL A   1      39.973  28.373  28.046  1.00  0.00     0.029 A 
ATOM     39  N   UNL A   1      40.230  29.217  30.098  1.00  0.00    -0.354 N 
ATOM     40  C   UNL A   1      43.296  27.797  32.760  1.00  0.00     0.074 A 
ATOM     41  C   UNL A   1      44.218  26.925  32.065  1.00  0.00     0.031 C 
ATOM     42  C   UNL A   1      39.061  29.345  28.197  1.00  0.00     0.029 A 
ATOM     43  C   UNL A   1      39.155  29.877  29.553  1.00  0.00     0.049 A 
ATOM     44  H   UNL A   1      40.574  29.402  31.002  1.00  0.00     0.167 HD
ATOM     45  C   UNL A   1      43.440  28.192  34.048  1.00  0.00     0.037 A 
ATOM     46  C   UNL A   1      38.307  30.774  30.091  1.00  0.00     0.037 A 
ATOM     47  C   UNL A   1      42.558  29.108  34.724  1.00  0.00     0.049 A 
ATOM     48  C   UNL A   1      38.465  31.167  31.531  1.00  0.00     0.074 A 
ATOM     49  C   UNL A   1      42.622  29.563  36.031  1.00  0.00     0.029 A 
ATOM     50  N   UNL A   1      41.465  29.727  34.139  1.00  0.00    -0.354 N 
ATOM     51  N   UNL A   1      39.376  30.792  32.396  1.00  0.00    -0.248 NA
ATOM     52  C   UNL A   1      37.459  32.090  32.080  1.00  0.00     0.031 C 
ATOM     53  C   UNL A   1      41.553  30.440  36.243  1.00  0.00     0.029 A 
ATOM     54  C   UNL A   1      40.846  30.557  35.058  1.00  0.00     0.049 A 
ATOM     55  H   UNL A   1      41.173  29.596  33.208  1.00  0.00     0.167 HD
ATOM     56  C   UNL A   1      39.062  31.440  33.583  1.00  0.00     0.074 A 
ATOM     57  C   UNL A   1      37.889  32.247  33.325  1.00  0.00     0.031 C 
ATOM     58  C   UNL A   1      39.686  31.365  34.782  1.00  0.00     0.037 A 
BRANCH  45  59
ATOM     59  C   UNL A   1      44.585  27.615  34.829  1.00  0.00     0.057 A 
ATOM     60  C   UNL A   1      44.474  26.408  35.530  1.00  0.00     0.134 A 
ATOM     61  C   UNL A   1      45.832  28.255  34.837  1.00  0.00     0.134 A 
ATOM     62  F   UNL A   1      43.305  25.753  35.574  1.00  0.00    -0.206 F 
ATOM     63  C   UNL A   1      45.558  25.866  36.224  1.00  0.00     0.040 A 
ATOM     64  C   UNL A   1      46.928  27.712  35.507  1.00  0.00     0.040 A 
ATOM     65  F   UNL A   1      46.007  29.411  34.179  1.00  0.00    -0.206 F 
ATOM     66  C   UNL A   1      46.792  26.514  36.207  1.00  0.00     0.006 A 
ENDBRANCH  45  59
BRANCH  46  67
ATOM     67  C   UNL A   1      37.195  31.329  29.277  1.00  0.00     0.057 A 
ATOM     68  C   UNL A   1      37.260  32.623  28.751  1.00  0.00     0.134 A 
ATOM     69  C   UNL A   1      36.037  30.584  29.018  1.00  0.00     0.134 A 
ATOM     70  F   UNL A   1      38.332  33.395  28.988  1.00  0.00    -0.206 F 
ATOM     71  C   UNL A   1      36.211  33.161  28.004  1.00  0.00     0.040 A 
ATOM     72  C   UNL A   1      34.993  31.099  28.249  1.00  0.00     0.040 A 
ATOM     73  F   UNL A   1      35.912  29.337  29.496  1.00  0.00    -0.206 F 
ATOM     74  C   UNL A   1      35.076  32.396  27.745  1.00  0.00     0.006 A 
ENDBRANCH  46  67
BRANCH  58  75
ATOM     75  C   UNL A   1      39.133  32.206  35.893  1.00  0.00     0.057 A 
ATOM     76  C   UNL A   1      38.218  31.693  36.819  1.00  0.00     0.134 A 
ATOM     77  C   UNL A   1      39.544  33.535  36.051  1.00  0.00     0.134 A 
ATOM     78  F   UNL A   1      37.775  30.432  36.711  1.00  0.00    -0.206 F 
ATOM     79  C   UNL A   1      37.714  32.480  37.856  1.00  0.00     0.040 A 
ATOM     80  C   UNL A   1      39.064  34.326  37.096  1.00  0.00     0.040 A 
ATOM     81  F   UNL A   1      40.424  34.082  35.200  1.00  0.00    -0.206 F 
ATOM     82  C   UNL A   1      38.141  33.799  37.999  1.00  0.00     0.006 A 
ENDBRANCH  58  75
ENDBRANCH  32  33
ENDBRANCH  25  27
ENDBRANCH  24  25
ENDBRANCH  23  24
ENDBRANCH   1  23
TORSDOF 14
ENDMDL
MODEL 2
REMARK VINA RESULT:     -11.5      1.372      2.406
REMARK SMILES Cc1cc(CNc2ccc(C(=O)OCCOC(=O)c3ccc(-c4c5nc(c(-c6c(F)cccc6F)c6ccc([nH]6)c(-c6c(F)cccc6F)c6nc(c(-c7c(F)cccc7F)c7ccc4[nH]7)C=C6)C=C5)cc3)c(F)c2F)sc1C
REMARK SMILES IDX 14 1 13 2 11 3 12 4 10 5 7 6 8 7 75 8 9 9 73 10 76 11 74 12
REMARK SMILES IDX 6 13 5 15 4 16 1 17 2 18 3 19 78 20 77 21 79 22 15 23 16 24
REMARK SMILES IDX 17 25 18 26 19 27 20 28 72 29 21 30 71 31 22 32 23 33 24 34
REMARK SMILES IDX 65 35 25 36 70 37 64 38 66 39 26 40 69 41 63 42 62 43 27 45
REMARK SMILES IDX 53 46 36 47 52 48 37 49 40 50 51 51 67 52 38 53 39 54 50 56
REMARK SMILES IDX 68 57 41 58 28 59 29 60 34 61 30 62 31 63 33 64 35 65 32 66
REMARK SMILES IDX 54 67 55 68 60 69 56 70 57 71 59 72 61 73 58 74 42 75 43 76
REMARK SMILES IDX 48 77 44 78 45 79 47 80 49 81 46 82
REMARK H PARENT 6 14 66 44 40 55
REMARK Flexibility Score: inf
ROOT
ATOM      1  C   UNL A   1      42.647  20.765  26.092  1.00  0.00     0.275 C 
ENDROOT
BRANCH   1   2
ATOM      2  O   UNL A   1      41.301  21.105  25.702  1.00  0.00    -0.458 OA
BRANCH   2   3
ATOM      3  C   UNL A   1      40.425  21.330  26.709  1.00  0.00     0.341 C 
ATOM      4  O   UNL A   1      40.611  21.125  27.899  1.00  0.00    -0.246 OA
BRANCH   3   5
ATOM      5  C   UNL A   1      39.212  22.007  26.215  1.00  0.00     0.099 A 
ATOM      6  C   UNL A   1      36.911  23.387  25.337  1.00  0.00     0.074 A 
ATOM      7  C   UNL A   1      37.864  24.032  26.126  1.00  0.00     0.030 A 
ATOM      8  C   UNL A   1      37.131  22.034  25.015  1.00  0.00     0.182 A 
ATOM      9  C   UNL A   1      38.985  23.340  26.589  1.00  0.00     0.021 A 
ATOM     10  C   UNL A   1      38.271  21.352  25.433  1.00  0.00     0.175 A 
ATOM     11  F   UNL A   1      36.219  21.387  24.270  1.00  0.00    -0.201 F 
ATOM     12  F   UNL A   1      38.419  20.060  25.106  1.00  0.00    -0.203 F 
BRANCH   6  13
ATOM     13  N   UNL A   1      35.783  24.036  24.867  1.00  0.00    -0.378 N 
ATOM     14  H   UNL A   1      35.629  24.069  23.895  1.00  0.00     0.161 HD
BRANCH  13  15
ATOM     15  C   UNL A   1      34.810  24.673  25.747  1.00  0.00     0.160 C 
BRANCH  15  16
ATOM     16  C   UNL A   1      33.885  25.564  24.967  1.00  0.00     0.024 A 
ATOM     17  C   UNL A   1      31.815  26.318  21.927  1.00  0.00     0.045 C 
ATOM     18  C   UNL A   1      32.477  26.349  23.264  1.00  0.00    -0.037 A 
ATOM     19  C   UNL A   1      33.456  25.387  23.668  1.00  0.00     0.021 A 
ATOM     20  C   UNL A   1      32.234  27.261  24.279  1.00  0.00     0.005 A 
ATOM     21  S   UNL A   1      33.174  26.942  25.675  1.00  0.00    -0.144 S 
ATOM     22  C   UNL A   1      31.280  28.410  24.282  1.00  0.00     0.056 C 
ENDBRANCH  15  16
ENDBRANCH  13  15
ENDBRANCH   6  13
ENDBRANCH   3   5
ENDBRANCH   2   3
ENDBRANCH   1   2
BRANCH   1  23
ATOM     23  C   UNL A   1      43.658  21.703  25.435  1.00  0.00     0.275 C 
BRANCH  23  24
ATOM     24  O   UNL A   1      42.994  22.900  24.989  1.00  0.00    -0.458 OA
BRANCH  24  25
ATOM     25  C   UNL A   1      43.719  24.038  25.068  1.00  0.00     0.338 C 
ATOM     26  O   UNL A   1      44.733  24.327  24.458  1.00  0.00    -0.246 OA
BRANCH  25  27
ATOM     27  C   UNL A   1      43.072  24.965  26.009  1.00  0.00     0.060 A 
ATOM     28  C   UNL A   1      43.428  26.310  25.978  1.00  0.00     0.016 A 
ATOM     29  C   UNL A   1      42.232  24.486  27.011  1.00  0.00     0.016 A 
ATOM     30  C   UNL A   1      43.028  27.166  27.001  1.00  0.00     0.010 A 
ATOM     31  C   UNL A   1      41.748  25.370  27.983  1.00  0.00     0.010 A 
ATOM     32  C   UNL A   1      42.171  26.712  28.015  1.00  0.00    -0.014 A 
BRANCH  32  33
ATOM     33  C   UNL A   1      41.758  27.618  29.127  1.00  0.00     0.031 A 
ATOM     34  C   UNL A   1      42.540  27.639  30.418  1.00  0.00     0.074 A 
ATOM     35  C   UNL A   1      40.698  28.441  28.993  1.00  0.00     0.049 A 
ATOM     36  N   UNL A   1      42.236  28.196  31.564  1.00  0.00    -0.248 NA
ATOM     37  C   UNL A   1      43.830  26.930  30.423  1.00  0.00     0.031 C 
ATOM     38  C   UNL A   1      39.875  28.578  27.790  1.00  0.00     0.029 A 
ATOM     39  N   UNL A   1      40.131  29.325  29.880  1.00  0.00    -0.354 N 
ATOM     40  C   UNL A   1      43.262  27.855  32.438  1.00  0.00     0.074 A 
ATOM     41  C   UNL A   1      44.199  27.043  31.690  1.00  0.00     0.031 C 
ATOM     42  C   UNL A   1      38.939  29.518  27.999  1.00  0.00     0.029 A 
ATOM     43  C   UNL A   1      39.034  29.982  29.379  1.00  0.00     0.049 A 
ATOM     44  H   UNL A   1      40.480  29.473  30.788  1.00  0.00     0.167 HD
ATOM     45  C   UNL A   1      43.409  28.187  33.743  1.00  0.00     0.037 A 
ATOM     46  C   UNL A   1      38.168  30.828  29.970  1.00  0.00     0.037 A 
ATOM     47  C   UNL A   1      42.511  29.044  34.472  1.00  0.00     0.049 A 
ATOM     48  C   UNL A   1      38.332  31.153  31.427  1.00  0.00     0.074 A 
ATOM     49  C   UNL A   1      42.577  29.434  35.800  1.00  0.00     0.029 A 
ATOM     50  N   UNL A   1      41.396  29.663  33.929  1.00  0.00    -0.354 N 
ATOM     51  N   UNL A   1      39.261  30.759  32.262  1.00  0.00    -0.248 NA
ATOM     52  C   UNL A   1      37.308  32.019  32.031  1.00  0.00     0.031 C 
ATOM     53  C   UNL A   1      41.488  30.271  36.066  1.00  0.00     0.029 A 
ATOM     54  C   UNL A   1      40.765  30.429  34.895  1.00  0.00     0.049 A 
ATOM     55  H   UNL A   1      41.097  29.571  32.996  1.00  0.00     0.167 HD
ATOM     56  C   UNL A   1      38.943  31.337  33.483  1.00  0.00     0.074 A 
ATOM     57  C   UNL A   1      37.746  32.125  33.278  1.00  0.00     0.031 C 
ATOM     58  C   UNL A   1      39.582  31.218  34.672  1.00  0.00     0.037 A 
BRANCH  45  59
ATOM     59  C   UNL A   1      44.577  27.603  34.483  1.00  0.00     0.057 A 
ATOM     60  C   UNL A   1      45.799  28.277  34.596  1.00  0.00     0.134 A 
ATOM     61  C   UNL A   1      44.458  26.367  35.133  1.00  0.00     0.134 A 
ATOM     62  F   UNL A   1      45.983  29.457  33.986  1.00  0.00    -0.206 F 
ATOM     63  C   UNL A   1      46.866  27.736  35.317  1.00  0.00     0.040 A 
ATOM     64  C   UNL A   1      45.508  25.827  35.876  1.00  0.00     0.040 A 
ATOM     65  F   UNL A   1      43.311  25.673  35.070  1.00  0.00    -0.206 F 
ATOM     66  C   UNL A   1      46.719  26.511  35.966  1.00  0.00     0.006 A 
ENDBRANCH  45  59
BRANCH  46  67
ATOM     67  C   UNL A   1      37.034  31.393  29.196  1.00  0.00     0.057 A 
ATOM     68  C   UNL A   1      35.905  30.621  28.897  1.00  0.00     0.134 A 
ATOM     69  C   UNL A   1      37.056  32.712  28.725  1.00  0.00     0.134 A 
ATOM     70  F   UNL A   1      35.838  29.343  29.297  1.00  0.00    -0.206 F 
ATOM     71  C   UNL A   1      34.845  31.137  28.152  1.00  0.00     0.040 A 
ATOM     72  C   UNL A   1      35.989  33.250  28.003  1.00  0.00     0.040 A 
ATOM     73  F   UNL A   1      38.109  33.504  28.977  1.00  0.00    -0.206 F 
ATOM     74  C   UNL A   1      34.881  32.458  27.708  1.00  0.00     0.006 A 
ENDBRANCH  46  67
BRANCH  58  75
ATOM     75  C   UNL A   1      39.019  31.987  35.829  1.00  0.00     0.057 A 
ATOM     76  C   UNL A   1      39.313  33.342  36.025  1.00  0.00     0.134 A 
ATOM     77  C   UNL A   1      38.152  31.371  36.738  1.00  0.00     0.134 A 
ATOM     78  F   UNL A   1      40.149  33.983  35.196  1.00  0.00    -0.206 F 
ATOM     79  C   UNL A   1      38.778  34.053  37.100  1.00  0.00     0.040 A 
ATOM     80  C   UNL A   1      37.594  32.077  37.805  1.00  0.00     0.040 A 
ATOM     81  F   UNL A   1      37.826  30.077  36.601  1.00  0.00    -0.206 F 
ATOM     82  C   UNL A   1      37.912  33.421  37.991  1.00  0.00     0.006 A 
ENDBRANCH  58  75
ENDBRANCH  32  33
ENDBRANCH  25  27
ENDBRANCH  24  25
ENDBRANCH  23  24
ENDBRANCH   1  23
TORSDOF 14
ENDMDL
MODEL 3
REMARK VINA RESULT:     -11.4      5.188     10.129
REMARK SMILES Cc1cc(CNc2ccc(C(=O)OCCOC(=O)c3ccc(-c4c5nc(c(-c6c(F)cccc6F)c6ccc([nH]6)c(-c6c(F)cccc6F)c6nc(c(-c7c(F)cccc7F)c7ccc4[nH]7)C=C6)C=C5)cc3)c(F)c2F)sc1C
REMARK SMILES IDX 14 1 13 2 11 3 12 4 10 5 7 6 8 7 75 8 9 9 73 10 76 11 74 12
REMARK SMILES IDX 6 13 5 15 4 16 1 17 2 18 3 19 78 20 77 21 79 22 15 23 16 24
REMARK SMILES IDX 17 25 18 26 19 27 20 28 72 29 21 30 71 31 22 32 23 33 24 34
REMARK SMILES IDX 65 35 25 36 70 37 64 38 66 39 26 40 69 41 63 42 62 43 27 45
REMARK SMILES IDX 53 46 36 47 52 48 37 49 40 50 51 51 67 52 38 53 39 54 50 56
REMARK SMILES IDX 68 57 41 58 28 59 29 60 34 61 30 62 31 63 33 64 35 65 32 66
REMARK SMILES IDX 54 67 55 68 60 69 56 70 57 71 59 72 61 73 58 74 42 75 43 76
REMARK SMILES IDX 48 77 44 78 45 79 47 80 49 81 46 82
REMARK H PARENT 6 14 66 44 40 55
REMARK Flexibility Score: inf
ROOT
ATOM      1  C   UNL A   1      34.210  34.197  29.942  1.00  0.00     0.275 C 
ENDROOT
BRANCH   1   2
ATOM      2  O   UNL A   1      33.814  32.981  29.276  1.00  0.00    -0.458 OA
BRANCH   2   3
ATOM      3  C   UNL A   1      34.452  32.699  28.116  1.00  0.00     0.341 C 
ATOM      4  O   UNL A   1      35.318  33.371  27.576  1.00  0.00    -0.246 OA
BRANCH   3   5
ATOM      5  C   UNL A   1      34.072  31.367  27.612  1.00  0.00     0.099 A 
ATOM      6  C   UNL A   1      33.450  28.784  26.659  1.00  0.00     0.074 A 
ATOM      7  C   UNL A   1      34.697  29.047  27.226  1.00  0.00     0.030 A 
ATOM      8  C   UNL A   1      32.532  29.848  26.566  1.00  0.00     0.182 A 
ATOM      9  C   UNL A   1      35.018  30.332  27.666  1.00  0.00     0.021 A 
ATOM     10  C   UNL A   1      32.828  31.121  27.048  1.00  0.00     0.175 A 
ATOM     11  F   UNL A   1      31.331  29.623  26.008  1.00  0.00    -0.201 F 
ATOM     12  F   UNL A   1      31.918  32.097  26.920  1.00  0.00    -0.203 F 
BRANCH   6  13
ATOM     13  N   UNL A   1      33.099  27.525  26.202  1.00  0.00    -0.378 N 
ATOM     14  H   UNL A   1      32.143  27.311  26.100  1.00  0.00     0.161 HD
BRANCH  13  15
ATOM     15  C   UNL A   1      34.081  26.502  25.862  1.00  0.00     0.160 C 
BRANCH  15  16
ATOM     16  C   UNL A   1      33.799  25.916  24.507  1.00  0.00     0.024 A 
ATOM     17  C   UNL A   1      33.231  22.982  22.235  1.00  0.00     0.045 C 
ATOM     18  C   UNL A   1      33.372  24.350  22.816  1.00  0.00    -0.037 A 
ATOM     19  C   UNL A   1      33.808  24.582  24.159  1.00  0.00     0.021 A 
ATOM     20  C   UNL A   1      33.087  25.546  22.176  1.00  0.00     0.005 A 
ATOM     21  S   UNL A   1      33.348  26.901  23.192  1.00  0.00    -0.144 S 
ATOM     22  C   UNL A   1      32.591  25.756  20.783  1.00  0.00     0.056 C 
ENDBRANCH  15  16
ENDBRANCH  13  15
ENDBRANCH   6  13
ENDBRANCH   3   5
ENDBRANCH   2   3
ENDBRANCH   1   2
BRANCH   1  23
ATOM     23  C   UNL A   1      34.531  33.934  31.412  1.00  0.00     0.275 C 
BRANCH  23  24
ATOM     24  O   UNL A   1      34.725  32.523  31.623  1.00  0.00    -0.458 OA
BRANCH  24  25
ATOM     25  C   UNL A   1      35.705  32.188  32.491  1.00  0.00     0.338 C 
ATOM     26  O   UNL A   1      35.743  32.384  33.693  1.00  0.00    -0.246 OA
BRANCH  25  27
ATOM     27  C   UNL A   1      36.771  31.473  31.774  1.00  0.00     0.060 A 
ATOM     28  C   UNL A   1      37.571  30.578  32.478  1.00  0.00     0.016 A 
ATOM     29  C   UNL A   1      37.075  31.795  30.453  1.00  0.00     0.016 A 
ATOM     30  C   UNL A   1      38.733  30.072  31.901  1.00  0.00     0.010 A 
ATOM     31  C   UNL A   1      38.188  31.205  29.841  1.00  0.00     0.010 A 
ATOM     32  C   UNL A   1      39.055  30.368  30.569  1.00  0.00    -0.014 A 
BRANCH  32  33
ATOM     33  C   UNL A   1      40.311  29.849  29.953  1.00  0.00     0.031 A 
ATOM     34  C   UNL A   1      41.523  30.740  29.837  1.00  0.00     0.074 A 
ATOM     35  C   UNL A   1      40.391  28.577  29.510  1.00  0.00     0.049 A 
ATOM     36  N   UNL A   1      42.631  30.551  29.164  1.00  0.00    -0.248 NA
ATOM     37  C   UNL A   1      41.478  32.018  30.565  1.00  0.00     0.031 C 
ATOM     38  C   UNL A   1      39.326  27.576  29.601  1.00  0.00     0.029 A 
ATOM     39  N   UNL A   1      41.421  27.905  28.895  1.00  0.00    -0.354 N 
ATOM     40  C   UNL A   1      43.385  31.707  29.338  1.00  0.00     0.074 A 
ATOM     41  C   UNL A   1      42.610  32.592  30.181  1.00  0.00     0.031 C 
ATOM     42  C   UNL A   1      39.770  26.412  29.102  1.00  0.00     0.029 A 
ATOM     43  C   UNL A   1      41.115  26.606  28.570  1.00  0.00     0.049 A 
ATOM     44  H   UNL A   1      42.295  28.317  28.707  1.00  0.00     0.167 HD
ATOM     45  C   UNL A   1      44.610  32.002  28.842  1.00  0.00     0.037 A 
ATOM     46  C   UNL A   1      41.812  25.683  27.880  1.00  0.00     0.037 A 
ATOM     47  C   UNL A   1      45.410  31.100  28.053  1.00  0.00     0.049 A 
ATOM     48  C   UNL A   1      43.152  26.047  27.308  1.00  0.00     0.074 A 
ATOM     49  C   UNL A   1      46.663  31.314  27.502  1.00  0.00     0.029 A 
ATOM     50  N   UNL A   1      45.045  29.804  27.725  1.00  0.00    -0.354 N 
ATOM     51  N   UNL A   1      43.818  27.170  27.412  1.00  0.00    -0.248 NA
ATOM     52  C   UNL A   1      43.827  25.021  26.498  1.00  0.00     0.031 C 
ATOM     53  C   UNL A   1      47.046  30.154  26.821  1.00  0.00     0.029 A 
ATOM     54  C   UNL A   1      46.046  29.208  26.977  1.00  0.00     0.049 A 
ATOM     55  H   UNL A   1      44.199  29.372  27.984  1.00  0.00     0.167 HD
ATOM     56  C   UNL A   1      44.992  26.984  26.695  1.00  0.00     0.074 A 
ATOM     57  C   UNL A   1      44.958  25.633  26.176  1.00  0.00     0.031 C 
ATOM     58  C   UNL A   1      46.004  27.858  26.478  1.00  0.00     0.037 A 
BRANCH  45  59
ATOM     59  C   UNL A   1      45.160  33.372  29.113  1.00  0.00     0.057 A 
ATOM     60  C   UNL A   1      45.982  33.639  30.214  1.00  0.00     0.134 A 
ATOM     61  C   UNL A   1      44.900  34.428  28.229  1.00  0.00     0.134 A 
ATOM     62  F   UNL A   1      46.259  32.676  31.105  1.00  0.00    -0.206 F 
ATOM     63  C   UNL A   1      46.515  34.912  30.435  1.00  0.00     0.040 A 
ATOM     64  C   UNL A   1      45.445  35.697  28.426  1.00  0.00     0.040 A 
ATOM     65  F   UNL A   1      44.125  34.237  27.150  1.00  0.00    -0.206 F 
ATOM     66  C   UNL A   1      46.252  35.943  29.534  1.00  0.00     0.006 A 
ENDBRANCH  45  59
BRANCH  46  67
ATOM     67  C   UNL A   1      41.235  24.335  27.646  1.00  0.00     0.057 A 
ATOM     68  C   UNL A   1      41.702  23.217  28.346  1.00  0.00     0.134 A 
ATOM     69  C   UNL A   1      40.214  24.130  26.709  1.00  0.00     0.134 A 
ATOM     70  F   UNL A   1      42.697  23.346  29.236  1.00  0.00    -0.206 F 
ATOM     71  C   UNL A   1      41.182  21.943  28.116  1.00  0.00     0.040 A 
ATOM     72  C   UNL A   1      39.665  22.866  26.490  1.00  0.00     0.040 A 
ATOM     73  F   UNL A   1      39.724  25.161  26.005  1.00  0.00    -0.206 F 
ATOM     74  C   UNL A   1      40.155  21.766  27.191  1.00  0.00     0.006 A 
ENDBRANCH  46  67
BRANCH  58  75
ATOM     75  C   UNL A   1      47.171  27.366  25.677  1.00  0.00     0.057 A 
ATOM     76  C   UNL A   1      47.262  27.585  24.298  1.00  0.00     0.134 A 
ATOM     77  C   UNL A   1      48.227  26.689  26.300  1.00  0.00     0.134 A 
ATOM     78  F   UNL A   1      46.275  28.213  23.642  1.00  0.00    -0.206 F 
ATOM     79  C   UNL A   1      48.356  27.131  23.560  1.00  0.00     0.040 A 
ATOM     80  C   UNL A   1      49.336  26.249  25.577  1.00  0.00     0.040 A 
ATOM     81  F   UNL A   1      48.201  26.454  27.620  1.00  0.00    -0.206 F 
ATOM     82  C   UNL A   1      49.400  26.465  24.201  1.00  0.00     0.006 A 
ENDBRANCH  58  75
ENDBRANCH  32  33
ENDBRANCH  25  27
ENDBRANCH  24  25
ENDBRANCH  23  24
ENDBRANCH   1  23
TORSDOF 14
ENDMDL
