MODEL 1
REMARK VINA RESULT:     -10.3      0.000      0.000
REMARK SMILES C[C@@H]1OCC[C@@H]1C#CC(=O)OCCOC(=O)c1ccc(-c2c3nc(c(-c4c(F)cccc4F)c4ccc([nH]4)c(-c4c(F)cccc4F)c4nc(c(-c5c(F)cccc5F)c5ccc2[nH]5)C=C4)C=C3)cc1
REMARK SMILES IDX 13 1 12 2 11 3 9 4 10 5 8 6 7 7 6 8 1 9 2 10 3 11 4 12 5 13
REMARK SMILES IDX 14 14 15 15 16 16 17 17 18 18 70 19 19 20 69 21 20 22 21 23
REMARK SMILES IDX 22 24 63 25 23 26 68 27 62 28 64 29 24 30 67 31 61 32 60 33
REMARK SMILES IDX 25 35 51 36 34 37 50 38 35 39 38 40 49 41 65 42 36 43 37 44
REMARK SMILES IDX 48 46 66 47 39 48 26 49 27 50 32 51 28 52 29 53 31 54 33 55
REMARK SMILES IDX 30 56 52 57 53 58 58 59 54 60 55 61 57 62 59 63 56 64 40 65
REMARK SMILES IDX 41 66 46 67 42 68 43 69 45 70 47 71 44 72
REMARK H PARENT 64 34 38 45
REMARK Flexibility Score: inf
ROOT
ATOM      1  C   UNL A   1      46.064  24.119  25.189  1.00  0.00     0.275 C 
ENDROOT
BRANCH   1   2
ATOM      2  C   UNL A   1      46.306  22.789  24.466  1.00  0.00     0.275 C 
BRANCH   2   3
ATOM      3  O   UNL A   1      46.370  21.700  25.403  1.00  0.00    -0.452 OA
BRANCH   3   4
ATOM      4  C   UNL A   1      46.169  20.469  24.870  1.00  0.00     0.384 C 
ATOM      5  O   UNL A   1      47.023  19.725  24.410  1.00  0.00    -0.236 OA
BRANCH   4   6
ATOM      6  C   UNL A   1      44.804  20.018  24.994  1.00  0.00     0.017 C 
ATOM      7  C   UNL A   1      43.705  19.586  25.223  1.00  0.00    -0.085 C 
BRANCH   7   8
ATOM      8  C   UNL A   1      42.393  18.980  25.534  1.00  0.00     0.096 C 
ATOM      9  C   UNL A   1      41.440  21.295  26.266  1.00  0.00     0.040 C 
ATOM     10  C   UNL A   1      41.552  19.801  26.518  1.00  0.00     0.130 C 
ATOM     11  O   UNL A   1      42.103  19.541  27.824  1.00  0.00    -0.377 OA
ATOM     12  C   UNL A   1      42.814  18.292  27.756  1.00  0.00     0.162 C 
ATOM     13  C   UNL A   1      42.595  17.725  26.361  1.00  0.00     0.048 C 
ENDBRANCH   7   8
ENDBRANCH   4   6
ENDBRANCH   3   4
ENDBRANCH   2   3
ENDBRANCH   1   2
BRANCH   1  14
ATOM     14  O   UNL A   1      44.954  24.846  24.627  1.00  0.00    -0.458 OA
BRANCH  14  15
ATOM     15  C   UNL A   1      43.727  24.370  24.951  1.00  0.00     0.338 C 
ATOM     16  O   UNL A   1      43.197  23.353  24.538  1.00  0.00    -0.246 OA
BRANCH  15  17
ATOM     17  C   UNL A   1      43.124  25.212  25.995  1.00  0.00     0.060 A 
ATOM     18  C   UNL A   1      43.546  26.540  26.103  1.00  0.00     0.016 A 
ATOM     19  C   UNL A   1      42.226  24.679  26.920  1.00  0.00     0.016 A 
ATOM     20  C   UNL A   1      43.086  27.339  27.145  1.00  0.00     0.010 A 
ATOM     21  C   UNL A   1      41.752  25.487  27.958  1.00  0.00     0.010 A 
ATOM     22  C   UNL A   1      42.190  26.817  28.087  1.00  0.00    -0.014 A 
BRANCH  22  23
ATOM     23  C   UNL A   1      41.746  27.659  29.225  1.00  0.00     0.031 A 
ATOM     24  C   UNL A   1      42.485  27.608  30.532  1.00  0.00     0.074 A 
ATOM     25  C   UNL A   1      40.691  28.480  29.080  1.00  0.00     0.049 A 
ATOM     26  N   UNL A   1      42.223  28.225  31.658  1.00  0.00    -0.248 NA
ATOM     27  C   UNL A   1      43.676  26.747  30.580  1.00  0.00     0.031 C 
ATOM     28  C   UNL A   1      39.918  28.651  27.850  1.00  0.00     0.029 A 
ATOM     29  N   UNL A   1      40.086  29.324  29.977  1.00  0.00    -0.354 N 
ATOM     30  C   UNL A   1      43.209  27.820  32.549  1.00  0.00     0.074 A 
ATOM     31  C   UNL A   1      44.049  26.873  31.845  1.00  0.00     0.031 C 
ATOM     32  C   UNL A   1      38.948  29.553  28.065  1.00  0.00     0.029 A 
ATOM     33  C   UNL A   1      38.998  29.983  29.460  1.00  0.00     0.049 A 
ATOM     34  H   UNL A   1      40.401  29.446  30.901  1.00  0.00     0.167 HD
ATOM     35  C   UNL A   1      43.402  28.210  33.834  1.00  0.00     0.037 A 
ATOM     36  C   UNL A   1      38.125  30.821  30.051  1.00  0.00     0.037 A 
ATOM     37  C   UNL A   1      42.555  29.143  34.531  1.00  0.00     0.049 A 
ATOM     38  C   UNL A   1      38.301  31.160  31.506  1.00  0.00     0.074 A 
ATOM     39  C   UNL A   1      42.668  29.607  35.831  1.00  0.00     0.029 A 
ATOM     40  N   UNL A   1      41.429  29.748  33.991  1.00  0.00    -0.354 N 
ATOM     41  N   UNL A   1      39.243  30.784  32.336  1.00  0.00    -0.248 NA
ATOM     42  C   UNL A   1      37.288  32.040  32.104  1.00  0.00     0.031 C 
ATOM     43  C   UNL A   1      41.577  30.442  36.096  1.00  0.00     0.029 A 
ATOM     44  C   UNL A   1      40.821  30.555  34.940  1.00  0.00     0.049 A 
ATOM     45  H   UNL A   1      41.108  29.623  33.069  1.00  0.00     0.167 HD
ATOM     46  C   UNL A   1      38.958  31.410  33.544  1.00  0.00     0.074 A 
ATOM     47  C   UNL A   1      37.761  32.197  33.333  1.00  0.00     0.031 C 
ATOM     48  C   UNL A   1      39.631  31.340  34.719  1.00  0.00     0.037 A 
BRANCH  35  49
ATOM     49  C   UNL A   1      44.557  27.594  34.573  1.00  0.00     0.057 A 
ATOM     50  C   UNL A   1      44.431  26.392  35.284  1.00  0.00     0.134 A 
ATOM     51  C   UNL A   1      45.817  28.206  34.566  1.00  0.00     0.134 A 
ATOM     52  F   UNL A   1      43.251  25.755  35.341  1.00  0.00    -0.206 F 
ATOM     53  C   UNL A   1      45.503  25.844  35.993  1.00  0.00     0.040 A 
ATOM     54  C   UNL A   1      46.905  27.651  35.244  1.00  0.00     0.040 A 
ATOM     55  F   UNL A   1      46.016  29.352  33.898  1.00  0.00    -0.206 F 
ATOM     56  C   UNL A   1      46.746  26.472  35.969  1.00  0.00     0.006 A 
ENDBRANCH  35  49
BRANCH  36  57
ATOM     57  C   UNL A   1      37.005  31.401  29.266  1.00  0.00     0.057 A 
ATOM     58  C   UNL A   1      35.874  30.639  28.953  1.00  0.00     0.134 A 
ATOM     59  C   UNL A   1      37.042  32.721  28.800  1.00  0.00     0.134 A 
ATOM     60  F   UNL A   1      35.790  29.360  29.351  1.00  0.00    -0.206 F 
ATOM     61  C   UNL A   1      34.826  31.162  28.194  1.00  0.00     0.040 A 
ATOM     62  C   UNL A   1      35.989  33.266  28.065  1.00  0.00     0.040 A 
ATOM     63  F   UNL A   1      38.097  33.505  29.066  1.00  0.00    -0.206 F 
ATOM     64  C   UNL A   1      34.879  32.483  27.754  1.00  0.00     0.006 A 
ENDBRANCH  36  57
BRANCH  48  65
ATOM     65  C   UNL A   1      39.115  32.176  35.859  1.00  0.00     0.057 A 
ATOM     66  C   UNL A   1      38.248  31.660  36.830  1.00  0.00     0.134 A 
ATOM     67  C   UNL A   1      39.523  33.509  36.002  1.00  0.00     0.134 A 
ATOM     68  F   UNL A   1      37.807  30.395  36.747  1.00  0.00    -0.206 F 
ATOM     69  C   UNL A   1      37.782  32.448  37.886  1.00  0.00     0.040 A 
ATOM     70  C   UNL A   1      39.091  34.296  37.071  1.00  0.00     0.040 A 
ATOM     71  F   UNL A   1      40.360  34.065  35.114  1.00  0.00    -0.206 F 
ATOM     72  C   UNL A   1      38.210  33.767  38.012  1.00  0.00     0.006 A 
ENDBRANCH  48  65
ENDBRANCH  22  23
ENDBRANCH  15  17
ENDBRANCH  14  15
ENDBRANCH   1  14
TORSDOF 12
ENDMDL
MODEL 2
REMARK VINA RESULT:     -10.3      2.035      3.234
REMARK SMILES C[C@@H]1OCC[C@@H]1C#CC(=O)OCCOC(=O)c1ccc(-c2c3nc(c(-c4c(F)cccc4F)c4ccc([nH]4)c(-c4c(F)cccc4F)c4nc(c(-c5c(F)cccc5F)c5ccc2[nH]5)C=C4)C=C3)cc1
REMARK SMILES IDX 13 1 12 2 11 3 9 4 10 5 8 6 7 7 6 8 1 9 2 10 3 11 4 12 5 13
REMARK SMILES IDX 14 14 15 15 16 16 17 17 18 18 70 19 19 20 69 21 20 22 21 23
REMARK SMILES IDX 22 24 63 25 23 26 68 27 62 28 64 29 24 30 67 31 61 32 60 33
REMARK SMILES IDX 25 35 51 36 34 37 50 38 35 39 38 40 49 41 65 42 36 43 37 44
REMARK SMILES IDX 48 46 66 47 39 48 26 49 27 50 32 51 28 52 29 53 31 54 33 55
REMARK SMILES IDX 30 56 52 57 53 58 58 59 54 60 55 61 57 62 59 63 56 64 40 65
REMARK SMILES IDX 41 66 46 67 42 68 43 69 45 70 47 71 44 72
REMARK H PARENT 64 34 38 45
REMARK Flexibility Score: inf
ROOT
ATOM      1  C   UNL A   1      43.443  21.850  25.393  1.00  0.00     0.275 C 
ENDROOT
BRANCH   1   2
ATOM      2  C   UNL A   1      42.302  21.052  26.034  1.00  0.00     0.275 C 
BRANCH   2   3
ATOM      3  O   UNL A   1      41.029  21.458  25.503  1.00  0.00    -0.452 OA
BRANCH   3   4
ATOM      4  C   UNL A   1      40.027  21.547  26.413  1.00  0.00     0.384 C 
ATOM      5  O   UNL A   1      40.134  21.871  27.586  1.00  0.00    -0.236 OA
BRANCH   4   6
ATOM      6  C   UNL A   1      38.722  21.330  25.836  1.00  0.00     0.017 C 
ATOM      7  C   UNL A   1      37.605  21.283  25.393  1.00  0.00    -0.085 C 
BRANCH   7   8
ATOM      8  C   UNL A   1      36.205  21.269  24.922  1.00  0.00     0.096 C 
ATOM      9  C   UNL A   1      36.777  22.956  23.015  1.00  0.00     0.040 C 
ATOM     10  C   UNL A   1      35.817  22.507  24.105  1.00  0.00     0.130 C 
ATOM     11  O   UNL A   1      35.597  23.562  25.062  1.00  0.00    -0.377 OA
ATOM     12  C   UNL A   1      35.317  22.946  26.331  1.00  0.00     0.162 C 
ATOM     13  C   UNL A   1      35.269  21.443  26.102  1.00  0.00     0.048 C 
ENDBRANCH   7   8
ENDBRANCH   4   6
ENDBRANCH   3   4
ENDBRANCH   2   3
ENDBRANCH   1   2
BRANCH   1  14
ATOM     14  O   UNL A   1      42.993  23.120  24.881  1.00  0.00    -0.458 OA
BRANCH  14  15
ATOM     15  C   UNL A   1      43.819  24.167  25.122  1.00  0.00     0.338 C 
ATOM     16  O   UNL A   1      44.861  24.432  24.548  1.00  0.00    -0.246 OA
BRANCH  15  17
ATOM     17  C   UNL A   1      43.225  25.049  26.137  1.00  0.00     0.060 A 
ATOM     18  C   UNL A   1      43.778  26.320  26.317  1.00  0.00     0.016 A 
ATOM     19  C   UNL A   1      42.200  24.600  26.970  1.00  0.00     0.016 A 
ATOM     20  C   UNL A   1      43.320  27.144  27.341  1.00  0.00     0.010 A 
ATOM     21  C   UNL A   1      41.731  25.435  27.989  1.00  0.00     0.010 A 
ATOM     22  C   UNL A   1      42.297  26.706  28.192  1.00  0.00    -0.014 A 
BRANCH  22  23
ATOM     23  C   UNL A   1      41.853  27.569  29.314  1.00  0.00     0.031 A 
ATOM     24  C   UNL A   1      42.589  27.540  30.623  1.00  0.00     0.074 A 
ATOM     25  C   UNL A   1      40.800  28.391  29.151  1.00  0.00     0.049 A 
ATOM     26  N   UNL A   1      42.326  28.178  31.736  1.00  0.00    -0.248 NA
ATOM     27  C   UNL A   1      43.777  26.677  30.689  1.00  0.00     0.031 C 
ATOM     28  C   UNL A   1      40.031  28.542  27.916  1.00  0.00     0.029 A 
ATOM     29  N   UNL A   1      40.196  29.252  30.031  1.00  0.00    -0.354 N 
ATOM     30  C   UNL A   1      43.309  27.785  32.637  1.00  0.00     0.074 A 
ATOM     31  C   UNL A   1      44.148  26.824  31.953  1.00  0.00     0.031 C 
ATOM     32  C   UNL A   1      39.063  29.449  28.113  1.00  0.00     0.029 A 
ATOM     33  C   UNL A   1      39.111  29.905  29.500  1.00  0.00     0.049 A 
ATOM     34  H   UNL A   1      40.509  29.390  30.954  1.00  0.00     0.167 HD
ATOM     35  C   UNL A   1      43.499  28.197  33.915  1.00  0.00     0.037 A 
ATOM     36  C   UNL A   1      38.239  30.755  30.073  1.00  0.00     0.037 A 
ATOM     37  C   UNL A   1      42.653  29.146  34.594  1.00  0.00     0.049 A 
ATOM     38  C   UNL A   1      38.412  31.119  31.523  1.00  0.00     0.074 A 
ATOM     39  C   UNL A   1      42.764  29.632  35.886  1.00  0.00     0.029 A 
ATOM     40  N   UNL A   1      41.531  29.744  34.040  1.00  0.00    -0.354 N 
ATOM     41  N   UNL A   1      39.352  30.756  32.362  1.00  0.00    -0.248 NA
ATOM     42  C   UNL A   1      37.400  32.013  32.103  1.00  0.00     0.031 C 
ATOM     43  C   UNL A   1      41.676  30.475  36.133  1.00  0.00     0.029 A 
ATOM     44  C   UNL A   1      40.923  30.569  34.974  1.00  0.00     0.049 A 
ATOM     45  H   UNL A   1      41.212  29.603  33.120  1.00  0.00     0.167 HD
ATOM     46  C   UNL A   1      39.065  31.404  33.558  1.00  0.00     0.074 A 
ATOM     47  C   UNL A   1      37.870  32.190  33.330  1.00  0.00     0.031 C 
ATOM     48  C   UNL A   1      39.735  31.353  34.736  1.00  0.00     0.037 A 
BRANCH  35  49
ATOM     49  C   UNL A   1      44.651  27.591  34.668  1.00  0.00     0.057 A 
ATOM     50  C   UNL A   1      44.521  26.403  35.400  1.00  0.00     0.134 A 
ATOM     51  C   UNL A   1      45.913  28.200  34.653  1.00  0.00     0.134 A 
ATOM     52  F   UNL A   1      43.338  25.771  35.466  1.00  0.00    -0.206 F 
ATOM     53  C   UNL A   1      45.589  25.865  36.122  1.00  0.00     0.040 A 
ATOM     54  C   UNL A   1      46.998  27.654  35.343  1.00  0.00     0.040 A 
ATOM     55  F   UNL A   1      46.117  29.333  33.965  1.00  0.00    -0.206 F 
ATOM     56  C   UNL A   1      46.834  26.489  36.089  1.00  0.00     0.006 A 
ENDBRANCH  35  49
BRANCH  36  57
ATOM     57  C   UNL A   1      37.123  31.324  29.276  1.00  0.00     0.057 A 
ATOM     58  C   UNL A   1      37.174  32.638  28.797  1.00  0.00     0.134 A 
ATOM     59  C   UNL A   1      35.975  30.576  28.982  1.00  0.00     0.134 A 
ATOM     60  F   UNL A   1      38.237  33.412  29.065  1.00  0.00    -0.206 F 
ATOM     61  C   UNL A   1      36.121  33.193  28.069  1.00  0.00     0.040 A 
ATOM     62  C   UNL A   1      34.928  31.109  28.230  1.00  0.00     0.040 A 
ATOM     63  F   UNL A   1      35.864  29.310  29.410  1.00  0.00    -0.206 F 
ATOM     64  C   UNL A   1      34.997  32.425  27.777  1.00  0.00     0.006 A 
ENDBRANCH  36  57
BRANCH  48  65
ATOM     65  C   UNL A   1      39.219  32.210  35.859  1.00  0.00     0.057 A 
ATOM     66  C   UNL A   1      39.619  33.542  36.026  1.00  0.00     0.134 A 
ATOM     67  C   UNL A   1      38.280  31.701  36.767  1.00  0.00     0.134 A 
ATOM     68  F   UNL A   1      40.524  34.090  35.201  1.00  0.00    -0.206 F 
ATOM     69  C   UNL A   1      39.127  34.327  37.072  1.00  0.00     0.040 A 
ATOM     70  C   UNL A   1      37.756  32.486  37.795  1.00  0.00     0.040 A 
ATOM     71  F   UNL A   1      37.845  30.437  36.661  1.00  0.00    -0.206 F 
ATOM     72  C   UNL A   1      38.186  33.801  37.954  1.00  0.00     0.006 A 
ENDBRANCH  48  65
ENDBRANCH  22  23
ENDBRANCH  15  17
ENDBRANCH  14  15
ENDBRANCH   1  14
TORSDOF 12
ENDMDL
MODEL 3
REMARK VINA RESULT:     -10.1      3.788      5.449
REMARK SMILES C[C@@H]1OCC[C@@H]1C#CC(=O)OCCOC(=O)c1ccc(-c2c3nc(c(-c4c(F)cccc4F)c4ccc([nH]4)c(-c4c(F)cccc4F)c4nc(c(-c5c(F)cccc5F)c5ccc2[nH]5)C=C4)C=C3)cc1
REMARK SMILES IDX 13 1 12 2 11 3 9 4 10 5 8 6 7 7 6 8 1 9 2 10 3 11 4 12 5 13
REMARK SMILES IDX 14 14 15 15 16 16 17 17 18 18 70 19 19 20 69 21 20 22 21 23
REMARK SMILES IDX 22 24 63 25 23 26 68 27 62 28 64 29 24 30 67 31 61 32 60 33
REMARK SMILES IDX 25 35 51 36 34 37 50 38 35 39 38 40 49 41 65 42 36 43 37 44
REMARK SMILES IDX 48 46 66 47 39 48 26 49 27 50 32 51 28 52 29 53 31 54 33 55
REMARK SMILES IDX 30 56 52 57 53 58 58 59 54 60 55 61 57 62 59 63 56 64 40 65
REMARK SMILES IDX 41 66 46 67 42 68 43 69 45 70 47 71 44 72
REMARK H PARENT 64 34 38 45
REMARK Flexibility Score: inf
ROOT
ATOM      1  C   UNL A   1      40.620  19.978  26.413  1.00  0.00     0.275 C 
ENDROOT
BRANCH   1   2
ATOM      2  C   UNL A   1      41.951  19.220  26.479  1.00  0.00     0.275 C 
BRANCH   2   3
ATOM      3  O   UNL A   1      42.491  19.016  25.163  1.00  0.00    -0.452 OA
BRANCH   3   4
ATOM      4  C   UNL A   1      43.819  19.264  25.041  1.00  0.00     0.384 C 
ATOM      5  O   UNL A   1      44.668  18.496  24.614  1.00  0.00    -0.236 OA
BRANCH   4   6
ATOM      6  C   UNL A   1      44.170  20.626  25.364  1.00  0.00     0.017 C 
ATOM      7  C   UNL A   1      44.530  21.708  25.745  1.00  0.00    -0.085 C 
BRANCH   7   8
ATOM      8  C   UNL A   1      44.954  23.012  26.298  1.00  0.00     0.096 C 
ATOM      9  C   UNL A   1      42.948  24.213  25.139  1.00  0.00     0.040 C 
ATOM     10  C   UNL A   1      44.421  24.217  25.514  1.00  0.00     0.130 C 
ATOM     11  O   UNL A   1      45.249  24.324  24.339  1.00  0.00    -0.377 OA
ATOM     12  C   UNL A   1      46.489  23.651  24.618  1.00  0.00     0.162 C 
ATOM     13  C   UNL A   1      46.441  23.202  26.070  1.00  0.00     0.048 C 
ENDBRANCH   7   8
ENDBRANCH   4   6
ENDBRANCH   3   4
ENDBRANCH   2   3
ENDBRANCH   1   2
BRANCH   1  14
ATOM     14  O   UNL A   1      40.722  21.301  26.975  1.00  0.00    -0.458 OA
BRANCH  14  15
ATOM     15  C   UNL A   1      39.749  22.166  26.601  1.00  0.00     0.338 C 
ATOM     16  O   UNL A   1      38.725  21.907  25.992  1.00  0.00    -0.246 OA
BRANCH  15  17
ATOM     17  C   UNL A   1      40.037  23.505  27.138  1.00  0.00     0.060 A 
ATOM     18  C   UNL A   1      39.534  24.615  26.456  1.00  0.00     0.016 A 
ATOM     19  C   UNL A   1      40.871  23.672  28.243  1.00  0.00     0.016 A 
ATOM     20  C   UNL A   1      39.875  25.901  26.864  1.00  0.00     0.010 A 
ATOM     21  C   UNL A   1      41.201  24.966  28.662  1.00  0.00     0.010 A 
ATOM     22  C   UNL A   1      40.718  26.088  27.966  1.00  0.00    -0.014 A 
BRANCH  22  23
ATOM     23  C   UNL A   1      41.120  27.461  28.361  1.00  0.00     0.031 A 
ATOM     24  C   UNL A   1      42.563  27.872  28.293  1.00  0.00     0.074 A 
ATOM     25  C   UNL A   1      40.186  28.342  28.764  1.00  0.00     0.049 A 
ATOM     26  N   UNL A   1      43.120  29.005  28.643  1.00  0.00    -0.248 NA
ATOM     27  C   UNL A   1      43.505  26.875  27.764  1.00  0.00     0.031 C 
ATOM     28  C   UNL A   1      38.749  28.077  28.831  1.00  0.00     0.029 A 
ATOM     29  N   UNL A   1      40.310  29.639  29.194  1.00  0.00    -0.354 N 
ATOM     30  C   UNL A   1      44.477  28.853  28.386  1.00  0.00     0.074 A 
ATOM     31  C   UNL A   1      44.664  27.506  27.890  1.00  0.00     0.031 C 
ATOM     32  C   UNL A   1      38.122  29.181  29.266  1.00  0.00     0.029 A 
ATOM     33  C   UNL A   1      39.115  30.211  29.557  1.00  0.00     0.049 A 
ATOM     34  H   UNL A   1      41.171  30.114  29.238  1.00  0.00     0.167 HD
ATOM     35  C   UNL A   1      45.474  29.760  28.540  1.00  0.00     0.037 A 
ATOM     36  C   UNL A   1      38.854  31.421  30.087  1.00  0.00     0.037 A 
ATOM     37  C   UNL A   1      45.283  31.095  29.046  1.00  0.00     0.049 A 
ATOM     38  C   UNL A   1      39.991  32.372  30.344  1.00  0.00     0.074 A 
ATOM     39  C   UNL A   1      46.227  32.090  29.235  1.00  0.00     0.029 A 
ATOM     40  N   UNL A   1      44.065  31.620  29.455  1.00  0.00    -0.354 N 
ATOM     41  N   UNL A   1      41.268  32.227  30.084  1.00  0.00    -0.248 NA
ATOM     42  C   UNL A   1      39.647  33.657  30.969  1.00  0.00     0.031 C 
ATOM     43  C   UNL A   1      45.592  33.193  29.816  1.00  0.00     0.029 A 
ATOM     44  C   UNL A   1      44.239  32.913  29.925  1.00  0.00     0.049 A 
ATOM     45  H   UNL A   1      43.204  31.145  29.418  1.00  0.00     0.167 HD
ATOM     46  C   UNL A   1      41.875  33.413  30.480  1.00  0.00     0.074 A 
ATOM     47  C   UNL A   1      40.822  34.270  30.987  1.00  0.00     0.031 C 
ATOM     48  C   UNL A   1      43.184  33.760  30.424  1.00  0.00     0.037 A 
BRANCH  35  49
ATOM     49  C   UNL A   1      46.867  29.315  28.189  1.00  0.00     0.057 A 
ATOM     50  C   UNL A   1      47.735  28.760  29.139  1.00  0.00     0.134 A 
ATOM     51  C   UNL A   1      47.344  29.434  26.877  1.00  0.00     0.134 A 
ATOM     52  F   UNL A   1      47.347  28.625  30.417  1.00  0.00    -0.206 F 
ATOM     53  C   UNL A   1      49.037  28.380  28.809  1.00  0.00     0.040 A 
ATOM     54  C   UNL A   1      48.633  29.026  26.526  1.00  0.00     0.040 A 
ATOM     55  F   UNL A   1      46.567  29.945  25.911  1.00  0.00    -0.206 F 
ATOM     56  C   UNL A   1      49.487  28.508  27.497  1.00  0.00     0.006 A 
ENDBRANCH  35  49
BRANCH  36  57
ATOM     57  C   UNL A   1      37.456  31.803  30.411  1.00  0.00     0.057 A 
ATOM     58  C   UNL A   1      36.664  32.491  29.484  1.00  0.00     0.134 A 
ATOM     59  C   UNL A   1      36.882  31.503  31.652  1.00  0.00     0.134 A 
ATOM     60  F   UNL A   1      37.165  32.828  28.286  1.00  0.00    -0.206 F 
ATOM     61  C   UNL A   1      35.358  32.880  29.784  1.00  0.00     0.040 A 
ATOM     62  C   UNL A   1      35.567  31.860  31.955  1.00  0.00     0.040 A 
ATOM     63  F   UNL A   1      37.586  30.845  32.584  1.00  0.00    -0.206 F 
ATOM     64  C   UNL A   1      34.804  32.557  31.021  1.00  0.00     0.006 A 
ENDBRANCH  36  57
BRANCH  48  65
ATOM     65  C   UNL A   1      43.549  35.147  30.880  1.00  0.00     0.057 A 
ATOM     66  C   UNL A   1      43.923  35.425  32.201  1.00  0.00     0.134 A 
ATOM     67  C   UNL A   1      43.558  36.214  29.970  1.00  0.00     0.134 A 
ATOM     68  F   UNL A   1      43.923  34.454  33.127  1.00  0.00    -0.206 F 
ATOM     69  C   UNL A   1      44.264  36.717  32.607  1.00  0.00     0.040 A 
ATOM     70  C   UNL A   1      43.930  37.502  30.357  1.00  0.00     0.040 A 
ATOM     71  F   UNL A   1      43.221  36.018  28.687  1.00  0.00    -0.206 F 
ATOM     72  C   UNL A   1      44.276  37.758  31.681  1.00  0.00     0.006 A 
ENDBRANCH  48  65
ENDBRANCH  22  23
ENDBRANCH  15  17
ENDBRANCH  14  15
ENDBRANCH   1  14
TORSDOF 12
ENDMDL
