MODEL 1
REMARK VINA RESULT:     -13.3      0.000      0.000
REMARK SMILES O=C(OCCOC(=O)c1ccc([C@H]2CCCN(C(=O)c3ccc4[nH]ccc4c3)C2)cc1)c1ccc(-c2c3nc(c(-c4c(F)cccc4F)c4ccc([nH]4)c(-c4c(F)cccc4F)c4nc(c(-c5c(F)cccc5F)c5ccc2[nH]5)C=C4)C=C3)cc1
REMARK SMILES IDX 5 1 4 2 3 3 2 4 1 5 32 6 33 7 85 8 34 9 84 10 35 11 36 12
REMARK SMILES IDX 37 13 78 14 38 15 83 16 77 17 79 18 39 19 82 20 76 21 75 22
REMARK SMILES IDX 40 24 66 25 49 26 65 27 50 28 53 29 64 30 80 31 51 32 52 33
REMARK SMILES IDX 63 35 81 36 54 37 41 38 42 39 47 40 43 41 44 42 46 43 48 44
REMARK SMILES IDX 45 45 67 46 68 47 73 48 69 49 70 50 72 51 74 52 71 53 55 54
REMARK SMILES IDX 56 55 61 56 57 57 58 58 60 59 62 60 59 61 6 62 7 63 8 64
REMARK SMILES IDX 9 65 10 66 31 67 11 68 30 69 12 70 13 71 14 72 29 73 15 74
REMARK SMILES IDX 17 75 16 76 18 77 19 78 20 79 21 80 28 81 22 82 27 83 23 84
REMARK SMILES IDX 26 85 24 86 25 87
REMARK H PARENT 79 23 53 34 24 88
REMARK Flexibility Score: inf
ROOT
ATOM      1  C   UNL A   1      42.665  21.064  26.117  1.00  0.00     0.275 C 
ENDROOT
BRANCH   1   2
ATOM      2  C   UNL A   1      43.719  21.763  25.251  1.00  0.00     0.275 C 
BRANCH   2   3
ATOM      3  O   UNL A   1      43.360  23.078  24.791  1.00  0.00    -0.458 OA
BRANCH   3   4
ATOM      4  C   UNL A   1      43.922  24.279  25.062  1.00  0.00     0.338 C 
ATOM      5  O   UNL A   1      44.971  24.585  24.498  1.00  0.00    -0.246 OA
BRANCH   4   6
ATOM      6  C   UNL A   1      43.414  25.211  26.117  1.00  0.00     0.060 A 
ATOM      7  C   UNL A   1      43.910  26.486  26.393  1.00  0.00     0.016 A 
ATOM      8  C   UNL A   1      42.352  24.733  26.907  1.00  0.00     0.016 A 
ATOM      9  C   UNL A   1      43.320  27.293  27.368  1.00  0.00     0.010 A 
ATOM     10  C   UNL A   1      41.755  25.535  27.884  1.00  0.00     0.010 A 
ATOM     11  C   UNL A   1      42.243  26.823  28.118  1.00  0.00    -0.014 A 
BRANCH  11  12
ATOM     12  C   UNL A   1      41.740  27.630  29.248  1.00  0.00     0.031 A 
ATOM     13  C   UNL A   1      42.427  27.504  30.571  1.00  0.00     0.074 A 
ATOM     14  C   UNL A   1      40.734  28.504  29.075  1.00  0.00     0.049 A 
ATOM     15  N   UNL A   1      42.192  28.142  31.685  1.00  0.00    -0.248 NA
ATOM     16  C   UNL A   1      43.552  26.556  30.638  1.00  0.00     0.031 C 
ATOM     17  C   UNL A   1      40.073  28.780  27.804  1.00  0.00     0.029 A 
ATOM     18  N   UNL A   1      40.087  29.317  29.968  1.00  0.00    -0.354 N 
ATOM     19  C   UNL A   1      43.169  27.711  32.570  1.00  0.00     0.074 A 
ATOM     20  C   UNL A   1      43.951  26.703  31.891  1.00  0.00     0.031 C 
ATOM     21  C   UNL A   1      39.062  29.642  28.005  1.00  0.00     0.029 A 
ATOM     22  C   UNL A   1      39.024  29.995  29.420  1.00  0.00     0.049 A 
ATOM     23  H   UNL A   1      40.357  29.406  30.910  1.00  0.00     0.167 HD
ATOM     24  C   UNL A   1      43.413  28.150  33.825  1.00  0.00     0.037 A 
ATOM     25  C   UNL A   1      38.123  30.807  30.002  1.00  0.00     0.037 A 
ATOM     26  C   UNL A   1      42.600  29.125  34.500  1.00  0.00     0.049 A 
ATOM     27  C   UNL A   1      38.309  31.153  31.452  1.00  0.00     0.074 A 
ATOM     28  C   UNL A   1      42.731  29.622  35.782  1.00  0.00     0.029 A 
ATOM     29  N   UNL A   1      41.487  29.740  33.939  1.00  0.00    -0.354 N 
ATOM     30  N   UNL A   1      39.254  30.765  32.275  1.00  0.00    -0.248 NA
ATOM     31  C   UNL A   1      37.332  32.073  32.047  1.00  0.00     0.031 C 
ATOM     32  C   UNL A   1      41.667  30.501  36.015  1.00  0.00     0.029 A 
ATOM     33  C   UNL A   1      40.903  30.589  34.861  1.00  0.00     0.049 A 
ATOM     34  H   UNL A   1      41.163  29.591  33.021  1.00  0.00     0.167 HD
ATOM     35  C   UNL A   1      39.019  31.431  33.468  1.00  0.00     0.074 A 
ATOM     36  C   UNL A   1      37.835  32.243  33.262  1.00  0.00     0.031 C 
ATOM     37  C   UNL A   1      39.727  31.390  34.623  1.00  0.00     0.037 A 
BRANCH  24  38
ATOM     38  C   UNL A   1      44.590  27.550  34.531  1.00  0.00     0.057 A 
ATOM     39  C   UNL A   1      44.466  26.391  35.311  1.00  0.00     0.134 A 
ATOM     40  C   UNL A   1      45.850  28.155  34.467  1.00  0.00     0.134 A 
ATOM     41  F   UNL A   1      43.278  25.780  35.435  1.00  0.00    -0.206 F 
ATOM     42  C   UNL A   1      45.546  25.874  36.027  1.00  0.00     0.040 A 
ATOM     43  C   UNL A   1      46.944  27.633  35.159  1.00  0.00     0.040 A 
ATOM     44  F   UNL A   1      46.034  29.269  33.744  1.00  0.00    -0.206 F 
ATOM     45  C   UNL A   1      46.791  26.495  35.950  1.00  0.00     0.006 A 
ENDBRANCH  24  38
BRANCH  25  46
ATOM     46  C   UNL A   1      36.987  31.349  29.215  1.00  0.00     0.057 A 
ATOM     47  C   UNL A   1      36.997  32.653  28.711  1.00  0.00     0.134 A 
ATOM     48  C   UNL A   1      35.854  30.566  28.957  1.00  0.00     0.134 A 
ATOM     49  F   UNL A   1      38.047  33.455  28.936  1.00  0.00    -0.206 F 
ATOM     50  C   UNL A   1      35.913  33.168  27.995  1.00  0.00     0.040 A 
ATOM     51  C   UNL A   1      34.772  31.060  28.225  1.00  0.00     0.040 A 
ATOM     52  F   UNL A   1      35.789  29.306  29.412  1.00  0.00    -0.206 F 
ATOM     53  C   UNL A   1      34.799  32.369  27.748  1.00  0.00     0.006 A 
ENDBRANCH  25  46
BRANCH  37  54
ATOM     54  C   UNL A   1      39.261  32.278  35.737  1.00  0.00     0.057 A 
ATOM     55  C   UNL A   1      38.361  31.833  36.712  1.00  0.00     0.134 A 
ATOM     56  C   UNL A   1      39.760  33.581  35.859  1.00  0.00     0.134 A 
ATOM     57  F   UNL A   1      37.837  30.600  36.640  1.00  0.00    -0.206 F 
ATOM     58  C   UNL A   1      37.958  32.659  37.760  1.00  0.00     0.040 A 
ATOM     59  C   UNL A   1      39.386  34.407  36.917  1.00  0.00     0.040 A 
ATOM     60  F   UNL A   1      40.631  34.064  34.960  1.00  0.00    -0.206 F 
ATOM     61  C   UNL A   1      38.479  33.948  37.869  1.00  0.00     0.006 A 
ENDBRANCH  37  54
ENDBRANCH  11  12
ENDBRANCH   4   6
ENDBRANCH   3   4
ENDBRANCH   2   3
ENDBRANCH   1   2
BRANCH   1  62
ATOM     62  O   UNL A   1      41.312  21.350  25.728  1.00  0.00    -0.458 OA
BRANCH  62  63
ATOM     63  C   UNL A   1      40.467  21.600  26.764  1.00  0.00     0.338 C 
ATOM     64  O   UNL A   1      40.715  21.473  27.951  1.00  0.00    -0.246 OA
BRANCH  63  65
ATOM     65  C   UNL A   1      39.209  22.186  26.261  1.00  0.00     0.060 A 
ATOM     66  C   UNL A   1      38.410  21.415  25.417  1.00  0.00     0.016 A 
ATOM     67  C   UNL A   1      38.817  23.483  26.586  1.00  0.00     0.016 A 
ATOM     68  C   UNL A   1      37.200  21.925  24.937  1.00  0.00     0.005 A 
ATOM     69  C   UNL A   1      37.610  23.995  26.082  1.00  0.00     0.005 A 
ATOM     70  C   UNL A   1      36.765  23.221  25.270  1.00  0.00    -0.043 A 
BRANCH  70  71
ATOM     71  C   UNL A   1      35.484  23.768  24.642  1.00  0.00     0.039 C 
ATOM     72  C   UNL A   1      34.993  22.958  23.414  1.00  0.00     0.012 C 
ATOM     73  C   UNL A   1      34.268  23.950  25.581  1.00  0.00     0.128 C 
ATOM     74  C   UNL A   1      33.828  23.677  22.716  1.00  0.00     0.022 C 
ATOM     75  N   UNL A   1      33.210  24.677  24.875  1.00  0.00    -0.338 N 
ATOM     76  C   UNL A   1      32.690  24.009  23.682  1.00  0.00     0.120 C 
BRANCH  75  77
ATOM     77  C   UNL A   1      32.897  25.963  25.301  1.00  0.00     0.253 C 
ATOM     78  O   UNL A   1      33.018  26.354  26.460  1.00  0.00    -0.269 OA
BRANCH  77  79
ATOM     79  C   UNL A   1      32.458  26.960  24.310  1.00  0.00     0.040 A 
ATOM     80  C   UNL A   1      33.439  27.629  23.576  1.00  0.00     0.016 A 
ATOM     81  C   UNL A   1      31.100  27.288  24.197  1.00  0.00     0.024 A 
ATOM     82  C   UNL A   1      33.088  28.637  22.675  1.00  0.00     0.027 A 
ATOM     83  C   UNL A   1      30.734  28.317  23.307  1.00  0.00     0.000 A 
ATOM     84  C   UNL A   1      31.730  28.958  22.566  1.00  0.00     0.045 A 
ATOM     85  C   UNL A   1      29.498  28.932  22.962  1.00  0.00     0.028 A 
ATOM     86  N   UNL A   1      31.107  29.909  21.787  1.00  0.00    -0.361 N 
ATOM     87  C   UNL A   1      29.760  29.911  22.031  1.00  0.00     0.083 A 
ATOM     88  H   UNL A   1      31.565  30.501  21.147  1.00  0.00     0.166 HD
ENDBRANCH  77  79
ENDBRANCH  75  77
ENDBRANCH  70  71
ENDBRANCH  63  65
ENDBRANCH  62  63
ENDBRANCH   1  62
TORSDOF 14
ENDMDL
MODEL 2
REMARK VINA RESULT:     -13.0      1.108      1.642
REMARK SMILES O=C(OCCOC(=O)c1ccc([C@H]2CCCN(C(=O)c3ccc4[nH]ccc4c3)C2)cc1)c1ccc(-c2c3nc(c(-c4c(F)cccc4F)c4ccc([nH]4)c(-c4c(F)cccc4F)c4nc(c(-c5c(F)cccc5F)c5ccc2[nH]5)C=C4)C=C3)cc1
REMARK SMILES IDX 5 1 4 2 3 3 2 4 1 5 32 6 33 7 85 8 34 9 84 10 35 11 36 12
REMARK SMILES IDX 37 13 78 14 38 15 83 16 77 17 79 18 39 19 82 20 76 21 75 22
REMARK SMILES IDX 40 24 66 25 49 26 65 27 50 28 53 29 64 30 80 31 51 32 52 33
REMARK SMILES IDX 63 35 81 36 54 37 41 38 42 39 47 40 43 41 44 42 46 43 48 44
REMARK SMILES IDX 45 45 67 46 68 47 73 48 69 49 70 50 72 51 74 52 71 53 55 54
REMARK SMILES IDX 56 55 61 56 57 57 58 58 60 59 62 60 59 61 6 62 7 63 8 64
REMARK SMILES IDX 9 65 10 66 31 67 11 68 30 69 12 70 13 71 14 72 29 73 15 74
REMARK SMILES IDX 17 75 16 76 18 77 19 78 20 79 21 80 28 81 22 82 27 83 23 84
REMARK SMILES IDX 26 85 24 86 25 87
REMARK H PARENT 79 23 53 34 24 88
REMARK Flexibility Score: inf
ROOT
ATOM      1  C   UNL A   1      43.178  21.223  26.013  1.00  0.00     0.275 C 
ENDROOT
BRANCH   1   2
ATOM      2  C   UNL A   1      44.221  22.002  25.205  1.00  0.00     0.275 C 
BRANCH   2   3
ATOM      3  O   UNL A   1      43.824  23.328  24.811  1.00  0.00    -0.458 OA
BRANCH   3   4
ATOM      4  C   UNL A   1      44.351  24.529  25.141  1.00  0.00     0.338 C 
ATOM      5  O   UNL A   1      45.416  24.872  24.628  1.00  0.00    -0.246 OA
BRANCH   4   6
ATOM      6  C   UNL A   1      43.786  25.417  26.205  1.00  0.00     0.060 A 
ATOM      7  C   UNL A   1      44.248  26.692  26.541  1.00  0.00     0.016 A 
ATOM      8  C   UNL A   1      42.702  24.896  26.936  1.00  0.00     0.016 A 
ATOM      9  C   UNL A   1      43.605  27.456  27.516  1.00  0.00     0.010 A 
ATOM     10  C   UNL A   1      42.053  25.655  27.913  1.00  0.00     0.010 A 
ATOM     11  C   UNL A   1      42.508  26.944  28.207  1.00  0.00    -0.014 A 
BRANCH  11  12
ATOM     12  C   UNL A   1      41.946  27.705  29.341  1.00  0.00     0.031 A 
ATOM     13  C   UNL A   1      42.589  27.555  30.684  1.00  0.00     0.074 A 
ATOM     14  C   UNL A   1      40.926  28.560  29.158  1.00  0.00     0.049 A 
ATOM     15  N   UNL A   1      42.300  28.154  31.807  1.00  0.00    -0.248 NA
ATOM     16  C   UNL A   1      43.734  26.632  30.764  1.00  0.00     0.031 C 
ATOM     17  C   UNL A   1      40.303  28.858  27.873  1.00  0.00     0.029 A 
ATOM     18  N   UNL A   1      40.228  29.331  30.050  1.00  0.00    -0.354 N 
ATOM     19  C   UNL A   1      43.255  27.720  32.713  1.00  0.00     0.074 A 
ATOM     20  C   UNL A   1      44.086  26.751  32.034  1.00  0.00     0.031 C 
ATOM     21  C   UNL A   1      39.265  29.690  28.063  1.00  0.00     0.029 A 
ATOM     22  C   UNL A   1      39.169  30.000  29.485  1.00  0.00     0.049 A 
ATOM     23  H   UNL A   1      40.463  29.398  31.004  1.00  0.00     0.167 HD
ATOM     24  C   UNL A   1      43.445  28.127  33.989  1.00  0.00     0.037 A 
ATOM     25  C   UNL A   1      38.229  30.773  30.058  1.00  0.00     0.037 A 
ATOM     26  C   UNL A   1      42.585  29.063  34.662  1.00  0.00     0.049 A 
ATOM     27  C   UNL A   1      38.355  31.080  31.523  1.00  0.00     0.074 A 
ATOM     28  C   UNL A   1      42.659  29.524  35.962  1.00  0.00     0.029 A 
ATOM     29  N   UNL A   1      41.478  29.668  34.080  1.00  0.00    -0.354 N 
ATOM     30  N   UNL A   1      39.280  30.690  32.367  1.00  0.00    -0.248 NA
ATOM     31  C   UNL A   1      37.337  31.959  32.109  1.00  0.00     0.031 C 
ATOM     32  C   UNL A   1      41.567  30.371  36.182  1.00  0.00     0.029 A 
ATOM     33  C   UNL A   1      40.841  30.475  35.004  1.00  0.00     0.049 A 
ATOM     34  H   UNL A   1      41.190  29.539  33.147  1.00  0.00     0.167 HD
ATOM     35  C   UNL A   1      38.987  31.314  33.570  1.00  0.00     0.074 A 
ATOM     36  C   UNL A   1      37.792  32.104  33.346  1.00  0.00     0.031 C 
ATOM     37  C   UNL A   1      39.655  31.255  34.748  1.00  0.00     0.037 A 
BRANCH  24  38
ATOM     38  C   UNL A   1      44.611  27.534  34.718  1.00  0.00     0.057 A 
ATOM     39  C   UNL A   1      44.488  26.348  35.458  1.00  0.00     0.134 A 
ATOM     40  C   UNL A   1      45.856  28.171  34.719  1.00  0.00     0.134 A 
ATOM     41  F   UNL A   1      43.312  25.705  35.520  1.00  0.00    -0.206 F 
ATOM     42  C   UNL A   1      45.555  25.835  36.197  1.00  0.00     0.040 A 
ATOM     43  C   UNL A   1      46.938  27.653  35.435  1.00  0.00     0.040 A 
ATOM     44  F   UNL A   1      46.038  29.311  34.037  1.00  0.00    -0.206 F 
ATOM     45  C   UNL A   1      46.786  26.488  36.184  1.00  0.00     0.006 A 
ENDBRANCH  24  38
BRANCH  25  46
ATOM     46  C   UNL A   1      37.109  31.311  29.247  1.00  0.00     0.057 A 
ATOM     47  C   UNL A   1      37.125  32.616  28.743  1.00  0.00     0.134 A 
ATOM     48  C   UNL A   1      35.984  30.525  28.965  1.00  0.00     0.134 A 
ATOM     49  F   UNL A   1      38.168  33.421  28.991  1.00  0.00    -0.206 F 
ATOM     50  C   UNL A   1      36.055  33.128  28.004  1.00  0.00     0.040 A 
ATOM     51  C   UNL A   1      34.917  31.016  28.210  1.00  0.00     0.040 A 
ATOM     52  F   UNL A   1      35.913  29.265  29.417  1.00  0.00    -0.206 F 
ATOM     53  C   UNL A   1      34.949  32.325  27.734  1.00  0.00     0.006 A 
ENDBRANCH  25  46
BRANCH  37  54
ATOM     54  C   UNL A   1      39.130  32.099  35.870  1.00  0.00     0.057 A 
ATOM     55  C   UNL A   1      39.507  33.437  36.029  1.00  0.00     0.134 A 
ATOM     56  C   UNL A   1      38.196  31.575  36.772  1.00  0.00     0.134 A 
ATOM     57  F   UNL A   1      40.410  33.991  35.205  1.00  0.00    -0.206 F 
ATOM     58  C   UNL A   1      38.988  34.221  37.058  1.00  0.00     0.040 A 
ATOM     59  C   UNL A   1      37.648  32.356  37.789  1.00  0.00     0.040 A 
ATOM     60  F   UNL A   1      37.788  30.301  36.667  1.00  0.00    -0.206 F 
ATOM     61  C   UNL A   1      38.049  33.682  37.937  1.00  0.00     0.006 A 
ENDBRANCH  37  54
ENDBRANCH  11  12
ENDBRANCH   4   6
ENDBRANCH   3   4
ENDBRANCH   2   3
ENDBRANCH   1   2
BRANCH   1  62
ATOM     62  O   UNL A   1      41.822  21.605  25.734  1.00  0.00    -0.458 OA
BRANCH  62  63
ATOM     63  C   UNL A   1      41.051  21.799  26.837  1.00  0.00     0.338 C 
ATOM     64  O   UNL A   1      41.422  21.764  27.998  1.00  0.00    -0.246 OA
BRANCH  63  65
ATOM     65  C   UNL A   1      39.687  22.199  26.437  1.00  0.00     0.060 A 
ATOM     66  C   UNL A   1      38.901  21.274  25.751  1.00  0.00     0.016 A 
ATOM     67  C   UNL A   1      39.182  23.470  26.704  1.00  0.00     0.016 A 
ATOM     68  C   UNL A   1      37.596  21.605  25.375  1.00  0.00     0.005 A 
ATOM     69  C   UNL A   1      37.878  23.801  26.303  1.00  0.00     0.005 A 
ATOM     70  C   UNL A   1      37.049  22.871  25.655  1.00  0.00    -0.043 A 
BRANCH  70  71
ATOM     71  C   UNL A   1      35.654  23.217  25.136  1.00  0.00     0.039 C 
ATOM     72  C   UNL A   1      35.500  23.065  23.601  1.00  0.00     0.012 C 
ATOM     73  C   UNL A   1      34.462  22.475  25.788  1.00  0.00     0.128 C 
ATOM     74  C   UNL A   1      34.147  23.621  23.130  1.00  0.00     0.022 C 
ATOM     75  N   UNL A   1      33.206  23.077  25.335  1.00  0.00    -0.338 N 
ATOM     76  C   UNL A   1      32.972  23.009  23.893  1.00  0.00     0.120 C 
BRANCH  75  77
ATOM     77  C   UNL A   1      32.432  23.766  26.262  1.00  0.00     0.253 C 
ATOM     78  O   UNL A   1      31.994  23.270  27.298  1.00  0.00    -0.269 OA
BRANCH  77  79
ATOM     79  C   UNL A   1      32.166  25.199  26.052  1.00  0.00     0.040 A 
ATOM     80  C   UNL A   1      30.870  25.580  25.696  1.00  0.00     0.016 A 
ATOM     81  C   UNL A   1      33.217  26.124  26.109  1.00  0.00     0.024 A 
ATOM     82  C   UNL A   1      30.575  26.915  25.412  1.00  0.00     0.027 A 
ATOM     83  C   UNL A   1      32.938  27.471  25.805  1.00  0.00     0.000 A 
ATOM     84  C   UNL A   1      31.629  27.834  25.473  1.00  0.00     0.045 A 
ATOM     85  C   UNL A   1      33.729  28.651  25.725  1.00  0.00     0.028 A 
ATOM     86  N   UNL A   1      31.635  29.189  25.225  1.00  0.00    -0.361 N 
ATOM     87  C   UNL A   1      32.902  29.689  25.359  1.00  0.00     0.083 A 
ATOM     88  H   UNL A   1      30.842  29.721  24.985  1.00  0.00     0.166 HD
ENDBRANCH  77  79
ENDBRANCH  75  77
ENDBRANCH  70  71
ENDBRANCH  63  65
ENDBRANCH  62  63
ENDBRANCH   1  62
TORSDOF 14
ENDMDL
MODEL 3
REMARK VINA RESULT:     -12.9      1.766      3.515
REMARK SMILES O=C(OCCOC(=O)c1ccc([C@H]2CCCN(C(=O)c3ccc4[nH]ccc4c3)C2)cc1)c1ccc(-c2c3nc(c(-c4c(F)cccc4F)c4ccc([nH]4)c(-c4c(F)cccc4F)c4nc(c(-c5c(F)cccc5F)c5ccc2[nH]5)C=C4)C=C3)cc1
REMARK SMILES IDX 5 1 4 2 3 3 2 4 1 5 32 6 33 7 85 8 34 9 84 10 35 11 36 12
REMARK SMILES IDX 37 13 78 14 38 15 83 16 77 17 79 18 39 19 82 20 76 21 75 22
REMARK SMILES IDX 40 24 66 25 49 26 65 27 50 28 53 29 64 30 80 31 51 32 52 33
REMARK SMILES IDX 63 35 81 36 54 37 41 38 42 39 47 40 43 41 44 42 46 43 48 44
REMARK SMILES IDX 45 45 67 46 68 47 73 48 69 49 70 50 72 51 74 52 71 53 55 54
REMARK SMILES IDX 56 55 61 56 57 57 58 58 60 59 62 60 59 61 6 62 7 63 8 64
REMARK SMILES IDX 9 65 10 66 31 67 11 68 30 69 12 70 13 71 14 72 29 73 15 74
REMARK SMILES IDX 17 75 16 76 18 77 19 78 20 79 21 80 28 81 22 82 27 83 23 84
REMARK SMILES IDX 26 85 24 86 25 87
REMARK H PARENT 79 23 53 34 24 88
REMARK Flexibility Score: inf
ROOT
ATOM      1  C   UNL A   1      42.885  21.205  25.970  1.00  0.00     0.275 C 
ENDROOT
BRANCH   1   2
ATOM      2  C   UNL A   1      43.881  21.928  25.057  1.00  0.00     0.275 C 
BRANCH   2   3
ATOM      3  O   UNL A   1      43.534  23.284  24.725  1.00  0.00    -0.458 OA
BRANCH   3   4
ATOM      4  C   UNL A   1      44.125  24.447  25.083  1.00  0.00     0.338 C 
ATOM      5  O   UNL A   1      45.222  24.729  24.605  1.00  0.00    -0.246 OA
BRANCH   4   6
ATOM      6  C   UNL A   1      43.584  25.358  26.140  1.00  0.00     0.060 A 
ATOM      7  C   UNL A   1      44.037  26.648  26.422  1.00  0.00     0.016 A 
ATOM      8  C   UNL A   1      42.535  24.843  26.925  1.00  0.00     0.016 A 
ATOM      9  C   UNL A   1      43.418  27.432  27.398  1.00  0.00     0.010 A 
ATOM     10  C   UNL A   1      41.910  25.621  27.903  1.00  0.00     0.010 A 
ATOM     11  C   UNL A   1      42.355  26.924  28.143  1.00  0.00    -0.014 A 
BRANCH  11  12
ATOM     12  C   UNL A   1      41.822  27.710  29.274  1.00  0.00     0.031 A 
ATOM     13  C   UNL A   1      42.496  27.585  30.604  1.00  0.00     0.074 A 
ATOM     14  C   UNL A   1      40.801  28.565  29.097  1.00  0.00     0.049 A 
ATOM     15  N   UNL A   1      42.235  28.208  31.721  1.00  0.00    -0.248 NA
ATOM     16  C   UNL A   1      43.640  26.660  30.676  1.00  0.00     0.031 C 
ATOM     17  C   UNL A   1      40.149  28.839  27.822  1.00  0.00     0.029 A 
ATOM     18  N   UNL A   1      40.127  29.356  29.990  1.00  0.00    -0.354 N 
ATOM     19  C   UNL A   1      43.211  27.789  32.613  1.00  0.00     0.074 A 
ATOM     20  C   UNL A   1      44.022  26.803  31.935  1.00  0.00     0.031 C 
ATOM     21  C   UNL A   1      39.118  29.678  28.019  1.00  0.00     0.029 A 
ATOM     22  C   UNL A   1      39.057  30.017  29.436  1.00  0.00     0.049 A 
ATOM     23  H   UNL A   1      40.384  29.442  30.936  1.00  0.00     0.167 HD
ATOM     24  C   UNL A   1      43.431  28.220  33.876  1.00  0.00     0.037 A 
ATOM     25  C   UNL A   1      38.133  30.805  30.015  1.00  0.00     0.037 A 
ATOM     26  C   UNL A   1      42.591  29.173  34.549  1.00  0.00     0.049 A 
ATOM     27  C   UNL A   1      38.295  31.141  31.470  1.00  0.00     0.074 A 
ATOM     28  C   UNL A   1      42.697  29.660  35.838  1.00  0.00     0.029 A 
ATOM     29  N   UNL A   1      41.472  29.770  33.982  1.00  0.00    -0.354 N 
ATOM     30  N   UNL A   1      39.238  30.765  32.301  1.00  0.00    -0.248 NA
ATOM     31  C   UNL A   1      37.293  32.036  32.062  1.00  0.00     0.031 C 
ATOM     32  C   UNL A   1      41.613  30.515  36.066  1.00  0.00     0.029 A 
ATOM     33  C   UNL A   1      40.860  30.599  34.904  1.00  0.00     0.049 A 
ATOM     34  H   UNL A   1      41.162  29.623  33.058  1.00  0.00     0.167 HD
ATOM     35  C   UNL A   1      38.975  31.415  33.497  1.00  0.00     0.074 A 
ATOM     36  C   UNL A   1      37.778  32.204  33.285  1.00  0.00     0.031 C 
ATOM     37  C   UNL A   1      39.671  31.377  34.660  1.00  0.00     0.037 A 
BRANCH  24  38
ATOM     38  C   UNL A   1      44.613  27.638  34.589  1.00  0.00     0.057 A 
ATOM     39  C   UNL A   1      44.510  26.453  35.333  1.00  0.00     0.134 A 
ATOM     40  C   UNL A   1      45.853  28.285  34.571  1.00  0.00     0.134 A 
ATOM     41  F   UNL A   1      43.340  25.800  35.412  1.00  0.00    -0.206 F 
ATOM     42  C   UNL A   1      45.591  25.950  36.057  1.00  0.00     0.040 A 
ATOM     43  C   UNL A   1      46.948  27.778  35.273  1.00  0.00     0.040 A 
ATOM     44  F   UNL A   1      46.016  29.426  33.886  1.00  0.00    -0.206 F 
ATOM     45  C   UNL A   1      46.816  26.612  36.026  1.00  0.00     0.006 A 
ENDBRANCH  24  38
BRANCH  25  46
ATOM     46  C   UNL A   1      36.995  31.331  29.220  1.00  0.00     0.057 A 
ATOM     47  C   UNL A   1      36.986  32.639  28.724  1.00  0.00     0.134 A 
ATOM     48  C   UNL A   1      35.879  30.529  28.946  1.00  0.00     0.134 A 
ATOM     49  F   UNL A   1      38.020  33.458  28.964  1.00  0.00    -0.206 F 
ATOM     50  C   UNL A   1      35.901  33.138  27.999  1.00  0.00     0.040 A 
ATOM     51  C   UNL A   1      34.796  31.008  28.206  1.00  0.00     0.040 A 
ATOM     52  F   UNL A   1      35.832  29.266  29.392  1.00  0.00    -0.206 F 
ATOM     53  C   UNL A   1      34.804  32.321  27.737  1.00  0.00     0.006 A 
ENDBRANCH  25  46
BRANCH  37  54
ATOM     54  C   UNL A   1      39.174  32.245  35.776  1.00  0.00     0.057 A 
ATOM     55  C   UNL A   1      39.559  33.586  35.898  1.00  0.00     0.134 A 
ATOM     56  C   UNL A   1      38.261  31.743  36.711  1.00  0.00     0.134 A 
ATOM     57  F   UNL A   1      40.442  34.120  35.041  1.00  0.00    -0.206 F 
ATOM     58  C   UNL A   1      39.067  34.392  36.924  1.00  0.00     0.040 A 
ATOM     59  C   UNL A   1      37.741  32.547  37.725  1.00  0.00     0.040 A 
ATOM     60  F   UNL A   1      37.848  30.468  36.643  1.00  0.00    -0.206 F 
ATOM     61  C   UNL A   1      38.147  33.874  37.836  1.00  0.00     0.006 A 
ENDBRANCH  37  54
ENDBRANCH  11  12
ENDBRANCH   4   6
ENDBRANCH   3   4
ENDBRANCH   2   3
ENDBRANCH   1   2
BRANCH   1  62
ATOM     62  O   UNL A   1      41.510  21.500  25.679  1.00  0.00    -0.458 OA
BRANCH  62  63
ATOM     63  C   UNL A   1      40.740  21.748  26.772  1.00  0.00     0.338 C 
ATOM     64  O   UNL A   1      41.095  21.690  27.938  1.00  0.00    -0.246 OA
BRANCH  63  65
ATOM     65  C   UNL A   1      39.412  22.237  26.356  1.00  0.00     0.060 A 
ATOM     66  C   UNL A   1      38.548  21.346  25.719  1.00  0.00     0.016 A 
ATOM     67  C   UNL A   1      39.013  23.556  26.560  1.00  0.00     0.016 A 
ATOM     68  C   UNL A   1      37.272  21.764  25.329  1.00  0.00     0.005 A 
ATOM     69  C   UNL A   1      37.738  23.973  26.145  1.00  0.00     0.005 A 
ATOM     70  C   UNL A   1      36.832  23.082  25.547  1.00  0.00    -0.043 A 
BRANCH  70  71
ATOM     71  C   UNL A   1      35.466  23.515  25.015  1.00  0.00     0.039 C 
ATOM     72  C   UNL A   1      35.142  25.011  25.264  1.00  0.00     0.012 C 
ATOM     73  C   UNL A   1      35.176  23.230  23.521  1.00  0.00     0.128 C 
ATOM     74  C   UNL A   1      33.684  25.323  24.889  1.00  0.00     0.022 C 
ATOM     75  N   UNL A   1      33.766  23.505  23.237  1.00  0.00    -0.338 N 
ATOM     76  C   UNL A   1      33.346  24.888  23.464  1.00  0.00     0.120 C 
BRANCH  75  77
ATOM     77  C   UNL A   1      32.936  22.434  22.923  1.00  0.00     0.253 C 
ATOM     78  O   UNL A   1      32.326  22.324  21.862  1.00  0.00    -0.269 OA
BRANCH  77  79
ATOM     79  C   UNL A   1      32.819  21.314  23.872  1.00  0.00     0.040 A 
ATOM     80  C   UNL A   1      32.862  21.604  25.237  1.00  0.00     0.016 A 
ATOM     81  C   UNL A   1      32.773  19.996  23.399  1.00  0.00     0.024 A 
ATOM     82  C   UNL A   1      32.830  20.577  26.183  1.00  0.00     0.027 A 
ATOM     83  C   UNL A   1      32.761  18.949  24.342  1.00  0.00     0.000 A 
ATOM     84  C   UNL A   1      32.782  19.263  25.704  1.00  0.00     0.045 A 
ATOM     85  C   UNL A   1      32.753  17.529  24.243  1.00  0.00     0.028 A 
ATOM     86  N   UNL A   1      32.765  18.071  26.395  1.00  0.00    -0.361 N 
ATOM     87  C   UNL A   1      32.763  17.017  25.521  1.00  0.00     0.083 A 
ATOM     88  H   UNL A   1      32.756  17.989  27.377  1.00  0.00     0.166 HD
ENDBRANCH  77  79
ENDBRANCH  75  77
ENDBRANCH  70  71
ENDBRANCH  63  65
ENDBRANCH  62  63
ENDBRANCH   1  62
TORSDOF 14
ENDMDL
