MODEL 1
REMARK VINA RESULT:     -11.1      0.000      0.000
REMARK SMILES C[C@H](C(=O)OCCOC(=O)c1ccc(-c2c3nc(c(-c4c(F)cccc4F)c4ccc([nH]4)c(-c4c(F)cccc4F)c4nc(c(-c5c(F)cccc5F)c5ccc2[nH]5)C=C4)C=C3)cc1)c1cccc(C(=O)c2ccccc2)c1
REMARK SMILES IDX 6 1 5 2 3 3 4 4 2 5 1 6 65 7 66 8 78 9 67 10 69 11 68 12
REMARK SMILES IDX 70 13 71 14 72 15 73 16 77 17 74 18 76 19 75 20 7 21 8 22
REMARK SMILES IDX 9 23 10 24 11 25 12 26 64 27 13 28 63 29 14 30 15 31 16 32
REMARK SMILES IDX 57 33 17 34 62 35 56 36 58 37 18 38 61 39 55 40 54 41 19 43
REMARK SMILES IDX 45 44 28 45 44 46 29 47 32 48 43 49 59 50 30 51 31 52 42 54
REMARK SMILES IDX 60 55 33 56 20 57 21 58 26 59 22 60 23 61 25 62 27 63 24 64
REMARK SMILES IDX 46 65 47 66 52 67 48 68 49 69 51 70 53 71 50 72 34 73 35 74
REMARK SMILES IDX 40 75 36 76 37 77 39 78 41 79 38 80
REMARK H PARENT 58 42 32 53
REMARK Flexibility Score: inf
ROOT
ATOM      1  C   UNL A   1      32.243  29.946  26.915  1.00  0.00     0.274 C 
ENDROOT
BRANCH   1   2
ATOM      2  O   UNL A   1      32.382  28.682  26.236  1.00  0.00    -0.462 OA
BRANCH   2   3
ATOM      3  C   UNL A   1      31.573  27.674  26.661  1.00  0.00     0.313 C 
ATOM      4  O   UNL A   1      31.101  27.579  27.790  1.00  0.00    -0.252 OA
BRANCH   3   5
ATOM      5  C   UNL A   1      31.269  26.681  25.554  1.00  0.00     0.126 C 
ATOM      6  C   UNL A   1      31.634  27.248  24.176  1.00  0.00     0.025 C 
BRANCH   5   7
ATOM      7  C   UNL A   1      31.887  25.301  25.688  1.00  0.00    -0.033 A 
ATOM      8  C   UNL A   1      31.572  24.396  26.706  1.00  0.00     0.004 A 
ATOM      9  C   UNL A   1      32.949  24.992  24.820  1.00  0.00     0.016 A 
ATOM     10  C   UNL A   1      32.331  23.235  26.877  1.00  0.00     0.001 A 
ATOM     11  C   UNL A   1      33.764  23.877  25.037  1.00  0.00     0.023 A 
ATOM     12  C   UNL A   1      33.436  22.985  26.060  1.00  0.00     0.012 A 
BRANCH  11  13
ATOM     13  C   UNL A   1      34.984  23.640  24.215  1.00  0.00     0.193 C 
ATOM     14  O   UNL A   1      35.010  23.976  23.036  1.00  0.00    -0.289 OA
BRANCH  13  15
ATOM     15  C   UNL A   1      36.192  23.016  24.814  1.00  0.00     0.022 A 
ATOM     16  C   UNL A   1      36.483  21.688  24.487  1.00  0.00     0.012 A 
ATOM     17  C   UNL A   1      37.047  23.735  25.660  1.00  0.00     0.012 A 
ATOM     18  C   UNL A   1      37.655  21.099  24.961  1.00  0.00     0.001 A 
ATOM     19  C   UNL A   1      38.223  23.142  26.125  1.00  0.00     0.001 A 
ATOM     20  C   UNL A   1      38.530  21.829  25.767  1.00  0.00     0.000 A 
ENDBRANCH  13  15
ENDBRANCH  11  13
ENDBRANCH   5   7
ENDBRANCH   3   5
ENDBRANCH   2   3
ENDBRANCH   1   2
BRANCH   1  21
ATOM     21  C   UNL A   1      33.609  30.621  26.983  1.00  0.00     0.275 C 
BRANCH  21  22
ATOM     22  O   UNL A   1      34.466  29.832  27.829  1.00  0.00    -0.458 OA
BRANCH  22  23
ATOM     23  C   UNL A   1      35.331  30.530  28.600  1.00  0.00     0.338 C 
ATOM     24  O   UNL A   1      35.096  31.537  29.243  1.00  0.00    -0.246 OA
BRANCH  23  25
ATOM     25  C   UNL A   1      36.660  29.877  28.588  1.00  0.00     0.060 A 
ATOM     26  C   UNL A   1      37.211  29.327  29.749  1.00  0.00     0.016 A 
ATOM     27  C   UNL A   1      37.413  29.920  27.414  1.00  0.00     0.016 A 
ATOM     28  C   UNL A   1      38.543  28.913  29.760  1.00  0.00     0.010 A 
ATOM     29  C   UNL A   1      38.712  29.404  27.402  1.00  0.00     0.010 A 
ATOM     30  C   UNL A   1      39.304  28.924  28.582  1.00  0.00    -0.014 A 
BRANCH  30  31
ATOM     31  C   UNL A   1      40.716  28.448  28.567  1.00  0.00     0.031 A 
ATOM     32  C   UNL A   1      41.842  29.401  28.873  1.00  0.00     0.074 A 
ATOM     33  C   UNL A   1      41.002  27.170  28.251  1.00  0.00     0.049 A 
ATOM     34  N   UNL A   1      43.128  29.255  28.673  1.00  0.00    -0.248 NA
ATOM     35  C   UNL A   1      41.473  30.696  29.466  1.00  0.00     0.031 C 
ATOM     36  C   UNL A   1      40.020  26.122  27.965  1.00  0.00     0.029 A 
ATOM     37  N   UNL A   1      42.211  26.534  28.112  1.00  0.00    -0.354 N 
ATOM     38  C   UNL A   1      43.710  30.462  29.042  1.00  0.00     0.074 A 
ATOM     39  C   UNL A   1      42.640  31.324  29.498  1.00  0.00     0.031 C 
ATOM     40  C   UNL A   1      40.661  24.969  27.726  1.00  0.00     0.029 A 
ATOM     41  C   UNL A   1      42.099  25.214  27.747  1.00  0.00     0.049 A 
ATOM     42  H   UNL A   1      43.075  26.981  28.259  1.00  0.00     0.167 HD
ATOM     43  C   UNL A   1      45.015  30.818  28.994  1.00  0.00     0.037 A 
ATOM     44  C   UNL A   1      43.040  24.311  27.417  1.00  0.00     0.037 A 
ATOM     45  C   UNL A   1      46.086  29.937  28.607  1.00  0.00     0.049 A 
ATOM     46  C   UNL A   1      44.479  24.727  27.375  1.00  0.00     0.074 A 
ATOM     47  C   UNL A   1      47.445  30.202  28.549  1.00  0.00     0.029 A 
ATOM     48  N   UNL A   1      45.922  28.613  28.237  1.00  0.00    -0.354 N 
ATOM     49  N   UNL A   1      45.008  25.894  27.649  1.00  0.00    -0.248 NA
ATOM     50  C   UNL A   1      45.449  23.709  26.947  1.00  0.00     0.031 C 
ATOM     51  C   UNL A   1      48.100  29.041  28.124  1.00  0.00     0.029 A 
ATOM     52  C   UNL A   1      47.152  28.048  27.945  1.00  0.00     0.049 A 
ATOM     53  H   UNL A   1      45.058  28.144  28.186  1.00  0.00     0.167 HD
ATOM     54  C   UNL A   1      46.370  25.754  27.424  1.00  0.00     0.074 A 
ATOM     55  C   UNL A   1      46.590  24.381  27.014  1.00  0.00     0.031 C 
ATOM     56  C   UNL A   1      47.350  26.682  27.536  1.00  0.00     0.037 A 
BRANCH  43  57
ATOM     57  C   UNL A   1      45.360  32.236  29.338  1.00  0.00     0.057 A 
ATOM     58  C   UNL A   1      45.733  32.620  30.632  1.00  0.00     0.134 A 
ATOM     59  C   UNL A   1      45.359  33.224  28.344  1.00  0.00     0.134 A 
ATOM     60  F   UNL A   1      45.738  31.726  31.631  1.00  0.00    -0.206 F 
ATOM     61  C   UNL A   1      46.080  33.941  30.927  1.00  0.00     0.040 A 
ATOM     62  C   UNL A   1      45.722  34.542  28.622  1.00  0.00     0.040 A 
ATOM     63  F   UNL A   1      45.015  32.919  27.083  1.00  0.00    -0.206 F 
ATOM     64  C   UNL A   1      46.081  34.904  29.919  1.00  0.00     0.006 A 
ENDBRANCH  43  57
BRANCH  44  65
ATOM     65  C   UNL A   1      42.635  22.931  27.057  1.00  0.00     0.057 A 
ATOM     66  C   UNL A   1      42.636  22.508  25.725  1.00  0.00     0.134 A 
ATOM     67  C   UNL A   1      42.265  21.999  28.034  1.00  0.00     0.134 A 
ATOM     68  F   UNL A   1      42.960  23.364  24.746  1.00  0.00    -0.206 F 
ATOM     69  C   UNL A   1      42.283  21.203  25.375  1.00  0.00     0.040 A 
ATOM     70  C   UNL A   1      41.931  20.687  27.702  1.00  0.00     0.040 A 
ATOM     71  F   UNL A   1      42.248  22.346  29.330  1.00  0.00    -0.206 F 
ATOM     72  C   UNL A   1      41.938  20.287  26.367  1.00  0.00     0.006 A 
ENDBRANCH  44  65
BRANCH  56  73
ATOM     73  C   UNL A   1      48.743  26.234  27.225  1.00  0.00     0.057 A 
ATOM     74  C   UNL A   1      49.285  26.370  25.941  1.00  0.00     0.134 A 
ATOM     75  C   UNL A   1      49.556  25.680  28.221  1.00  0.00     0.134 A 
ATOM     76  F   UNL A   1      48.548  26.880  24.943  1.00  0.00    -0.206 F 
ATOM     77  C   UNL A   1      50.585  25.953  25.654  1.00  0.00     0.040 A 
ATOM     78  C   UNL A   1      50.862  25.274  27.949  1.00  0.00     0.040 A 
ATOM     79  F   UNL A   1      49.092  25.527  29.471  1.00  0.00    -0.206 F 
ATOM     80  C   UNL A   1      51.379  25.407  26.662  1.00  0.00     0.006 A 
ENDBRANCH  56  73
ENDBRANCH  30  31
ENDBRANCH  23  25
ENDBRANCH  22  23
ENDBRANCH  21  22
ENDBRANCH   1  21
TORSDOF 14
ENDMDL
MODEL 2
REMARK VINA RESULT:     -11.1      4.755      9.794
REMARK SMILES C[C@H](C(=O)OCCOC(=O)c1ccc(-c2c3nc(c(-c4c(F)cccc4F)c4ccc([nH]4)c(-c4c(F)cccc4F)c4nc(c(-c5c(F)cccc5F)c5ccc2[nH]5)C=C4)C=C3)cc1)c1cccc(C(=O)c2ccccc2)c1
REMARK SMILES IDX 6 1 5 2 3 3 4 4 2 5 1 6 65 7 66 8 78 9 67 10 69 11 68 12
REMARK SMILES IDX 70 13 71 14 72 15 73 16 77 17 74 18 76 19 75 20 7 21 8 22
REMARK SMILES IDX 9 23 10 24 11 25 12 26 64 27 13 28 63 29 14 30 15 31 16 32
REMARK SMILES IDX 57 33 17 34 62 35 56 36 58 37 18 38 61 39 55 40 54 41 19 43
REMARK SMILES IDX 45 44 28 45 44 46 29 47 32 48 43 49 59 50 30 51 31 52 42 54
REMARK SMILES IDX 60 55 33 56 20 57 21 58 26 59 22 60 23 61 25 62 27 63 24 64
REMARK SMILES IDX 46 65 47 66 52 67 48 68 49 69 51 70 53 71 50 72 34 73 35 74
REMARK SMILES IDX 40 75 36 76 37 77 39 78 41 79 38 80
REMARK H PARENT 58 42 32 53
REMARK Flexibility Score: inf
ROOT
ATOM      1  C   UNL A   1      33.642  36.081  31.097  1.00  0.00     0.274 C 
ENDROOT
BRANCH   1   2
ATOM      2  O   UNL A   1      34.617  35.158  31.622  1.00  0.00    -0.462 OA
BRANCH   2   3
ATOM      3  C   UNL A   1      34.813  35.184  32.968  1.00  0.00     0.313 C 
ATOM      4  O   UNL A   1      35.019  36.197  33.629  1.00  0.00    -0.252 OA
BRANCH   3   5
ATOM      5  C   UNL A   1      34.699  33.804  33.588  1.00  0.00     0.126 C 
ATOM      6  C   UNL A   1      34.555  32.716  32.515  1.00  0.00     0.025 C 
BRANCH   5   7
ATOM      7  C   UNL A   1      35.804  33.394  34.545  1.00  0.00    -0.033 A 
ATOM      8  C   UNL A   1      36.056  34.023  35.769  1.00  0.00     0.004 A 
ATOM      9  C   UNL A   1      36.715  32.424  34.090  1.00  0.00     0.016 A 
ATOM     10  C   UNL A   1      37.213  33.722  36.491  1.00  0.00     0.001 A 
ATOM     11  C   UNL A   1      37.914  32.180  34.764  1.00  0.00     0.023 A 
ATOM     12  C   UNL A   1      38.150  32.819  35.983  1.00  0.00     0.012 A 
BRANCH  11  13
ATOM     13  C   UNL A   1      38.950  31.272  34.195  1.00  0.00     0.193 C 
ATOM     14  O   UNL A   1      40.123  31.385  34.534  1.00  0.00    -0.289 OA
BRANCH  13  15
ATOM     15  C   UNL A   1      38.578  30.206  33.230  1.00  0.00     0.022 A 
ATOM     16  C   UNL A   1      39.442  29.118  33.078  1.00  0.00     0.012 A 
ATOM     17  C   UNL A   1      37.378  30.256  32.506  1.00  0.00     0.012 A 
ATOM     18  C   UNL A   1      39.082  28.058  32.247  1.00  0.00     0.001 A 
ATOM     19  C   UNL A   1      37.019  29.188  31.682  1.00  0.00     0.001 A 
ATOM     20  C   UNL A   1      37.868  28.086  31.561  1.00  0.00     0.000 A 
ENDBRANCH  13  15
ENDBRANCH  11  13
ENDBRANCH   5   7
ENDBRANCH   3   5
ENDBRANCH   2   3
ENDBRANCH   1   2
BRANCH   1  21
ATOM     21  C   UNL A   1      32.590  35.295  30.321  1.00  0.00     0.275 C 
BRANCH  21  22
ATOM     22  O   UNL A   1      32.929  35.335  28.923  1.00  0.00    -0.458 OA
BRANCH  22  23
ATOM     23  C   UNL A   1      33.026  34.134  28.309  1.00  0.00     0.338 C 
ATOM     24  O   UNL A   1      32.174  33.581  27.636  1.00  0.00    -0.246 OA
BRANCH  23  25
ATOM     25  C   UNL A   1      34.367  33.552  28.544  1.00  0.00     0.060 A 
ATOM     26  C   UNL A   1      34.520  32.299  29.144  1.00  0.00     0.016 A 
ATOM     27  C   UNL A   1      35.491  34.328  28.258  1.00  0.00     0.016 A 
ATOM     28  C   UNL A   1      35.785  31.870  29.548  1.00  0.00     0.010 A 
ATOM     29  C   UNL A   1      36.765  33.846  28.566  1.00  0.00     0.010 A 
ATOM     30  C   UNL A   1      36.927  32.625  29.243  1.00  0.00    -0.014 A 
BRANCH  30  31
ATOM     31  C   UNL A   1      38.289  32.163  29.631  1.00  0.00     0.031 A 
ATOM     32  C   UNL A   1      38.823  30.853  29.113  1.00  0.00     0.074 A 
ATOM     33  C   UNL A   1      39.044  32.896  30.472  1.00  0.00     0.049 A 
ATOM     34  N   UNL A   1      39.858  30.162  29.518  1.00  0.00    -0.248 NA
ATOM     35  C   UNL A   1      38.085  30.228  28.004  1.00  0.00     0.031 C 
ATOM     36  C   UNL A   1      38.680  34.200  31.029  1.00  0.00     0.029 A 
ATOM     37  N   UNL A   1      40.282  32.643  31.011  1.00  0.00    -0.354 N 
ATOM     38  C   UNL A   1      39.853  28.992  28.770  1.00  0.00     0.074 A 
ATOM     39  C   UNL A   1      38.721  29.073  27.871  1.00  0.00     0.031 C 
ATOM     40  C   UNL A   1      39.684  34.650  31.796  1.00  0.00     0.029 A 
ATOM     41  C   UNL A   1      40.722  33.628  31.862  1.00  0.00     0.049 A 
ATOM     42  H   UNL A   1      40.803  31.833  30.808  1.00  0.00     0.167 HD
ATOM     43  C   UNL A   1      40.707  27.943  28.836  1.00  0.00     0.037 A 
ATOM     44  C   UNL A   1      41.813  33.687  32.647  1.00  0.00     0.037 A 
ATOM     45  C   UNL A   1      41.871  27.894  29.681  1.00  0.00     0.049 A 
ATOM     46  C   UNL A   1      42.747  32.515  32.702  1.00  0.00     0.074 A 
ATOM     47  C   UNL A   1      42.810  26.882  29.802  1.00  0.00     0.029 A 
ATOM     48  N   UNL A   1      42.271  28.912  30.533  1.00  0.00    -0.354 N 
ATOM     49  N   UNL A   1      42.686  31.381  32.049  1.00  0.00    -0.248 NA
ATOM     50  C   UNL A   1      43.885  32.620  33.626  1.00  0.00     0.031 C 
ATOM     51  C   UNL A   1      43.768  27.282  30.741  1.00  0.00     0.029 A 
ATOM     52  C   UNL A   1      43.439  28.552  31.184  1.00  0.00     0.049 A 
ATOM     53  H   UNL A   1      41.793  29.763  30.658  1.00  0.00     0.167 HD
ATOM     54  C   UNL A   1      43.771  30.635  32.485  1.00  0.00     0.074 A 
ATOM     55  C   UNL A   1      44.489  31.455  33.440  1.00  0.00     0.031 C 
ATOM     56  C   UNL A   1      44.136  29.379  32.132  1.00  0.00     0.037 A 
BRANCH  43  57
ATOM     57  C   UNL A   1      40.397  26.741  27.995  1.00  0.00     0.057 A 
ATOM     58  C   UNL A   1      40.980  26.541  26.738  1.00  0.00     0.134 A 
ATOM     59  C   UNL A   1      39.531  25.749  28.473  1.00  0.00     0.134 A 
ATOM     60  F   UNL A   1      41.804  27.462  26.217  1.00  0.00    -0.206 F 
ATOM     61  C   UNL A   1      40.702  25.401  25.981  1.00  0.00     0.040 A 
ATOM     62  C   UNL A   1      39.261  24.596  27.735  1.00  0.00     0.040 A 
ATOM     63  F   UNL A   1      38.944  25.880  29.673  1.00  0.00    -0.206 F 
ATOM     64  C   UNL A   1      39.846  24.422  26.482  1.00  0.00     0.006 A 
ENDBRANCH  43  57
BRANCH  44  65
ATOM     65  C   UNL A   1      42.051  34.890  33.480  1.00  0.00     0.057 A 
ATOM     66  C   UNL A   1      41.560  34.965  34.787  1.00  0.00     0.134 A 
ATOM     67  C   UNL A   1      42.793  35.976  33.002  1.00  0.00     0.134 A 
ATOM     68  F   UNL A   1      40.824  33.965  35.290  1.00  0.00    -0.206 F 
ATOM     69  C   UNL A   1      41.800  36.081  35.591  1.00  0.00     0.040 A 
ATOM     70  C   UNL A   1      43.059  37.087  33.801  1.00  0.00     0.040 A 
ATOM     71  F   UNL A   1      43.293  35.959  31.757  1.00  0.00    -0.206 F 
ATOM     72  C   UNL A   1      42.559  37.142  35.100  1.00  0.00     0.006 A 
ENDBRANCH  44  65
BRANCH  56  73
ATOM     73  C   UNL A   1      45.370  28.829  32.775  1.00  0.00     0.057 A 
ATOM     74  C   UNL A   1      46.637  29.032  32.216  1.00  0.00     0.134 A 
ATOM     75  C   UNL A   1      45.292  28.106  33.971  1.00  0.00     0.134 A 
ATOM     76  F   UNL A   1      46.771  29.704  31.062  1.00  0.00    -0.206 F 
ATOM     77  C   UNL A   1      47.787  28.520  32.817  1.00  0.00     0.040 A 
ATOM     78  C   UNL A   1      46.437  27.603  34.590  1.00  0.00     0.040 A 
ATOM     79  F   UNL A   1      44.106  27.881  34.555  1.00  0.00    -0.206 F 
ATOM     80  C   UNL A   1      47.688  27.806  34.011  1.00  0.00     0.006 A 
ENDBRANCH  56  73
ENDBRANCH  30  31
ENDBRANCH  23  25
ENDBRANCH  22  23
ENDBRANCH  21  22
ENDBRANCH   1  21
TORSDOF 14
ENDMDL
MODEL 3
REMARK VINA RESULT:     -11.1      3.239      6.029
REMARK SMILES C[C@H](C(=O)OCCOC(=O)c1ccc(-c2c3nc(c(-c4c(F)cccc4F)c4ccc([nH]4)c(-c4c(F)cccc4F)c4nc(c(-c5c(F)cccc5F)c5ccc2[nH]5)C=C4)C=C3)cc1)c1cccc(C(=O)c2ccccc2)c1
REMARK SMILES IDX 6 1 5 2 3 3 4 4 2 5 1 6 65 7 66 8 78 9 67 10 69 11 68 12
REMARK SMILES IDX 70 13 71 14 72 15 73 16 77 17 74 18 76 19 75 20 7 21 8 22
REMARK SMILES IDX 9 23 10 24 11 25 12 26 64 27 13 28 63 29 14 30 15 31 16 32
REMARK SMILES IDX 57 33 17 34 62 35 56 36 58 37 18 38 61 39 55 40 54 41 19 43
REMARK SMILES IDX 45 44 28 45 44 46 29 47 32 48 43 49 59 50 30 51 31 52 42 54
REMARK SMILES IDX 60 55 33 56 20 57 21 58 26 59 22 60 23 61 25 62 27 63 24 64
REMARK SMILES IDX 46 65 47 66 52 67 48 68 49 69 51 70 53 71 50 72 34 73 35 74
REMARK SMILES IDX 40 75 36 76 37 77 39 78 41 79 38 80
REMARK H PARENT 58 42 32 53
REMARK Flexibility Score: inf
ROOT
ATOM      1  C   UNL A   1      33.266  34.104  28.414  1.00  0.00     0.274 C 
ENDROOT
BRANCH   1   2
ATOM      2  O   UNL A   1      34.640  34.162  28.846  1.00  0.00    -0.462 OA
BRANCH   2   3
ATOM      3  C   UNL A   1      34.887  33.795  30.133  1.00  0.00     0.313 C 
ATOM      4  O   UNL A   1      34.114  33.960  31.071  1.00  0.00    -0.252 OA
BRANCH   3   5
ATOM      5  C   UNL A   1      36.229  33.102  30.282  1.00  0.00     0.126 C 
ATOM      6  C   UNL A   1      37.176  33.458  29.127  1.00  0.00     0.025 C 
BRANCH   5   7
ATOM      7  C   UNL A   1      36.964  33.314  31.592  1.00  0.00    -0.033 A 
ATOM      8  C   UNL A   1      37.559  34.523  31.970  1.00  0.00     0.004 A 
ATOM      9  C   UNL A   1      37.184  32.179  32.392  1.00  0.00     0.016 A 
ATOM     10  C   UNL A   1      38.391  34.578  33.092  1.00  0.00     0.001 A 
ATOM     11  C   UNL A   1      38.079  32.208  33.464  1.00  0.00     0.023 A 
ATOM     12  C   UNL A   1      38.667  33.422  33.826  1.00  0.00     0.012 A 
BRANCH  11  13
ATOM     13  C   UNL A   1      38.434  30.967  34.209  1.00  0.00     0.193 C 
ATOM     14  O   UNL A   1      37.985  30.772  35.334  1.00  0.00    -0.289 OA
BRANCH  13  15
ATOM     15  C   UNL A   1      39.314  29.939  33.596  1.00  0.00     0.022 A 
ATOM     16  C   UNL A   1      40.695  30.056  33.776  1.00  0.00     0.012 A 
ATOM     17  C   UNL A   1      38.788  28.855  32.879  1.00  0.00     0.012 A 
ATOM     18  C   UNL A   1      41.544  29.063  33.288  1.00  0.00     0.001 A 
ATOM     19  C   UNL A   1      39.642  27.859  32.400  1.00  0.00     0.001 A 
ATOM     20  C   UNL A   1      41.018  27.961  32.613  1.00  0.00     0.000 A 
ENDBRANCH  13  15
ENDBRANCH  11  13
ENDBRANCH   5   7
ENDBRANCH   3   5
ENDBRANCH   2   3
ENDBRANCH   1   2
BRANCH   1  21
ATOM     21  C   UNL A   1      33.035  32.784  27.685  1.00  0.00     0.275 C 
BRANCH  21  22
ATOM     22  O   UNL A   1      34.290  32.084  27.600  1.00  0.00    -0.458 OA
BRANCH  22  23
ATOM     23  C   UNL A   1      34.223  30.741  27.741  1.00  0.00     0.338 C 
ATOM     24  O   UNL A   1      33.234  30.038  27.625  1.00  0.00    -0.246 OA
BRANCH  23  25
ATOM     25  C   UNL A   1      35.565  30.195  28.044  1.00  0.00     0.060 A 
ATOM     26  C   UNL A   1      35.880  29.703  29.314  1.00  0.00     0.016 A 
ATOM     27  C   UNL A   1      36.557  30.283  27.067  1.00  0.00     0.016 A 
ATOM     28  C   UNL A   1      37.202  29.396  29.634  1.00  0.00     0.010 A 
ATOM     29  C   UNL A   1      37.860  29.870  27.360  1.00  0.00     0.010 A 
ATOM     30  C   UNL A   1      38.206  29.453  28.656  1.00  0.00    -0.014 A 
BRANCH  30  31
ATOM     31  C   UNL A   1      39.616  29.090  28.970  1.00  0.00     0.031 A 
ATOM     32  C   UNL A   1      40.526  30.086  29.641  1.00  0.00     0.074 A 
ATOM     33  C   UNL A   1      40.101  27.880  28.631  1.00  0.00     0.049 A 
ATOM     34  N   UNL A   1      41.828  30.061  29.771  1.00  0.00    -0.248 NA
ATOM     35  C   UNL A   1      39.890  31.277  30.224  1.00  0.00     0.031 C 
ATOM     36  C   UNL A   1      39.334  26.797  28.010  1.00  0.00     0.029 A 
ATOM     37  N   UNL A   1      41.364  27.355  28.759  1.00  0.00    -0.354 N 
ATOM     38  C   UNL A   1      42.174  31.260  30.382  1.00  0.00     0.074 A 
ATOM     39  C   UNL A   1      40.942  31.984  30.614  1.00  0.00     0.031 C 
ATOM     40  C   UNL A   1      40.128  25.729  27.849  1.00  0.00     0.029 A 
ATOM     41  C   UNL A   1      41.481  26.079  28.266  1.00  0.00     0.049 A 
ATOM     42  H   UNL A   1      42.113  27.848  29.165  1.00  0.00     0.167 HD
ATOM     43  C   UNL A   1      43.405  31.718  30.709  1.00  0.00     0.037 A 
ATOM     44  C   UNL A   1      42.562  25.290  28.118  1.00  0.00     0.037 A 
ATOM     45  C   UNL A   1      44.623  30.968  30.541  1.00  0.00     0.049 A 
ATOM     46  C   UNL A   1      43.916  25.816  28.489  1.00  0.00     0.074 A 
ATOM     47  C   UNL A   1      45.918  31.340  30.863  1.00  0.00     0.029 A 
ATOM     48  N   UNL A   1      44.693  29.683  30.028  1.00  0.00    -0.354 N 
ATOM     49  N   UNL A   1      44.237  26.983  28.991  1.00  0.00    -0.248 NA
ATOM     50  C   UNL A   1      45.060  24.927  28.245  1.00  0.00     0.031 C 
ATOM     51  C   UNL A   1      46.774  30.284  30.527  1.00  0.00     0.029 A 
ATOM     52  C   UNL A   1      46.007  29.248  30.021  1.00  0.00     0.049 A 
ATOM     53  H   UNL A   1      43.921  29.158  29.713  1.00  0.00     0.167 HD
ATOM     54  C   UNL A   1      45.619  26.972  29.119  1.00  0.00     0.074 A 
ATOM     55  C   UNL A   1      46.072  25.672  28.665  1.00  0.00     0.031 C 
ATOM     56  C   UNL A   1      46.439  27.954  29.563  1.00  0.00     0.037 A 
BRANCH  43  57
ATOM     57  C   UNL A   1      43.507  33.112  31.251  1.00  0.00     0.057 A 
ATOM     58  C   UNL A   1      43.674  34.225  30.419  1.00  0.00     0.134 A 
ATOM     59  C   UNL A   1      43.392  33.343  32.629  1.00  0.00     0.134 A 
ATOM     60  F   UNL A   1      43.807  34.069  29.094  1.00  0.00    -0.206 F 
ATOM     61  C   UNL A   1      43.737  35.519  30.941  1.00  0.00     0.040 A 
ATOM     62  C   UNL A   1      43.435  34.633  33.159  1.00  0.00     0.040 A 
ATOM     63  F   UNL A   1      43.226  32.318  33.478  1.00  0.00    -0.206 F 
ATOM     64  C   UNL A   1      43.611  35.726  32.314  1.00  0.00     0.006 A 
ENDBRANCH  43  57
BRANCH  44  65
ATOM     65  C   UNL A   1      42.403  23.931  27.548  1.00  0.00     0.057 A 
ATOM     66  C   UNL A   1      42.399  23.730  26.164  1.00  0.00     0.134 A 
ATOM     67  C   UNL A   1      42.279  22.803  28.368  1.00  0.00     0.134 A 
ATOM     68  F   UNL A   1      42.491  24.775  25.330  1.00  0.00    -0.206 F 
ATOM     69  C   UNL A   1      42.277  22.452  25.615  1.00  0.00     0.040 A 
ATOM     70  C   UNL A   1      42.179  21.520  27.834  1.00  0.00     0.040 A 
ATOM     71  F   UNL A   1      42.281  22.934  29.703  1.00  0.00    -0.206 F 
ATOM     72  C   UNL A   1      42.176  21.342  26.452  1.00  0.00     0.006 A 
ENDBRANCH  44  65
BRANCH  56  73
ATOM     73  C   UNL A   1      47.904  27.649  29.590  1.00  0.00     0.057 A 
ATOM     74  C   UNL A   1      48.508  27.068  30.710  1.00  0.00     0.134 A 
ATOM     75  C   UNL A   1      48.711  27.921  28.479  1.00  0.00     0.134 A 
ATOM     76  F   UNL A   1      47.787  26.799  31.809  1.00  0.00    -0.206 F 
ATOM     77  C   UNL A   1      49.874  26.783  30.732  1.00  0.00     0.040 A 
ATOM     78  C   UNL A   1      50.075  27.626  28.484  1.00  0.00     0.040 A 
ATOM     79  F   UNL A   1      48.188  28.476  27.376  1.00  0.00    -0.206 F 
ATOM     80  C   UNL A   1      50.661  27.059  29.614  1.00  0.00     0.006 A 
ENDBRANCH  56  73
ENDBRANCH  30  31
ENDBRANCH  23  25
ENDBRANCH  22  23
ENDBRANCH  21  22
ENDBRANCH   1  21
TORSDOF 14
ENDMDL
