MODEL 1
REMARK VINA RESULT:     -11.7      0.000      0.000
REMARK SMILES O=C(Cc1ccc(-c2ccc(Cl)cc2)cc1)OCCOC(=O)c1ccc(-c2c3nc(c(-c4c(F)cccc4F)c4ccc([nH]4)c(-c4c(F)cccc4F)c4nc(c(-c5c(F)cccc5F)c5ccc2[nH]5)C=C4)C=C3)cc1
REMARK SMILES IDX 18 1 17 2 2 3 1 4 3 5 4 6 5 7 16 8 6 9 15 10 7 11 8 12 9 13
REMARK SMILES IDX 14 14 10 15 13 16 11 17 12 18 19 19 20 20 21 21 22 22 23 23
REMARK SMILES IDX 24 24 76 25 25 26 75 27 26 28 27 29 28 30 69 31 29 32 74 33
REMARK SMILES IDX 68 34 70 35 30 36 73 37 67 38 66 39 31 41 57 42 40 43 56 44
REMARK SMILES IDX 41 45 44 46 55 47 71 48 42 49 43 50 54 52 72 53 45 54 32 55
REMARK SMILES IDX 33 56 38 57 34 58 35 59 37 60 39 61 36 62 58 63 59 64 64 65
REMARK SMILES IDX 60 66 61 67 63 68 65 69 62 70 46 71 47 72 52 73 48 74 49 75
REMARK SMILES IDX 51 76 53 77 50 78
REMARK H PARENT 70 40 44 51
REMARK Flexibility Score: inf
ROOT
ATOM      1  C   UNL A   1      43.921  21.375  25.080  1.00  0.00     0.274 C 
ENDROOT
BRANCH   1   2
ATOM      2  O   UNL A   1      42.525  21.592  25.376  1.00  0.00    -0.462 OA
BRANCH   2   3
ATOM      3  C   UNL A   1      41.862  21.017  26.410  1.00  0.00     0.310 C 
ATOM      4  O   UNL A   1      41.960  19.807  26.610  1.00  0.00    -0.252 OA
BRANCH   3   5
ATOM      5  C   UNL A   1      40.937  21.869  27.247  1.00  0.00     0.158 C 
BRANCH   5   6
ATOM      6  C   UNL A   1      39.659  22.290  26.579  1.00  0.00    -0.037 A 
ATOM      7  C   UNL A   1      38.966  21.405  25.753  1.00  0.00     0.005 A 
ATOM      8  C   UNL A   1      39.169  23.590  26.751  1.00  0.00     0.005 A 
ATOM      9  C   UNL A   1      37.785  21.810  25.130  1.00  0.00     0.009 A 
ATOM     10  C   UNL A   1      37.976  23.983  26.147  1.00  0.00     0.009 A 
ATOM     11  C   UNL A   1      37.260  23.098  25.330  1.00  0.00    -0.018 A 
BRANCH  11  12
ATOM     12  C   UNL A   1      35.992  23.504  24.704  1.00  0.00    -0.018 A 
ATOM     13  C   UNL A   1      35.166  24.461  25.318  1.00  0.00     0.010 A 
ATOM     14  C   UNL A   1      35.573  22.955  23.481  1.00  0.00     0.010 A 
ATOM     15  C   UNL A   1      33.956  24.847  24.739  1.00  0.00     0.021 A 
ATOM     16  C   UNL A   1      34.364  23.340  22.896  1.00  0.00     0.021 A 
ATOM     17  C   UNL A   1      33.559  24.282  23.530  1.00  0.00     0.041 A 
ATOM     18  Cl  UNL A   1      32.065  24.749  22.819  1.00  0.00    -0.084 Cl
ENDBRANCH  11  12
ENDBRANCH   5   6
ENDBRANCH   3   5
ENDBRANCH   2   3
ENDBRANCH   1   2
BRANCH   1  19
ATOM     19  C   UNL A   1      44.535  22.534  24.290  1.00  0.00     0.275 C 
BRANCH  19  20
ATOM     20  O   UNL A   1      43.820  23.757  24.548  1.00  0.00    -0.458 OA
BRANCH  20  21
ATOM     21  C   UNL A   1      44.569  24.775  25.041  1.00  0.00     0.338 C 
ATOM     22  O   UNL A   1      45.653  25.151  24.626  1.00  0.00    -0.246 OA
BRANCH  21  23
ATOM     23  C   UNL A   1      43.778  25.523  26.047  1.00  0.00     0.060 A 
ATOM     24  C   UNL A   1      44.061  26.885  26.214  1.00  0.00     0.016 A 
ATOM     25  C   UNL A   1      42.747  24.927  26.783  1.00  0.00     0.016 A 
ATOM     26  C   UNL A   1      43.341  27.643  27.138  1.00  0.00     0.010 A 
ATOM     27  C   UNL A   1      42.030  25.687  27.714  1.00  0.00     0.010 A 
ATOM     28  C   UNL A   1      42.345  27.042  27.918  1.00  0.00    -0.014 A 
BRANCH  28  29
ATOM     29  C   UNL A   1      41.770  27.782  29.068  1.00  0.00     0.031 A 
ATOM     30  C   UNL A   1      42.448  27.666  30.405  1.00  0.00     0.074 A 
ATOM     31  C   UNL A   1      40.685  28.565  28.932  1.00  0.00     0.049 A 
ATOM     32  N   UNL A   1      42.155  28.250  31.539  1.00  0.00    -0.248 NA
ATOM     33  C   UNL A   1      43.612  26.769  30.470  1.00  0.00     0.031 C 
ATOM     34  C   UNL A   1      39.940  28.781  27.693  1.00  0.00     0.029 A 
ATOM     35  N   UNL A   1      40.022  29.328  29.862  1.00  0.00    -0.354 N 
ATOM     36  C   UNL A   1      43.107  27.805  32.445  1.00  0.00     0.074 A 
ATOM     37  C   UNL A   1      43.958  26.869  31.744  1.00  0.00     0.031 C 
ATOM     38  C   UNL A   1      38.916  29.618  27.942  1.00  0.00     0.029 A 
ATOM     39  C   UNL A   1      38.929  29.987  29.357  1.00  0.00     0.049 A 
ATOM     40  H   UNL A   1      40.304  29.396  30.803  1.00  0.00     0.167 HD
ATOM     41  C   UNL A   1      43.273  28.155  33.742  1.00  0.00     0.037 A 
ATOM     42  C   UNL A   1      38.040  30.794  29.971  1.00  0.00     0.037 A 
ATOM     43  C   UNL A   1      42.426  29.071  34.454  1.00  0.00     0.049 A 
ATOM     44  C   UNL A   1      38.202  31.110  31.437  1.00  0.00     0.074 A 
ATOM     45  C   UNL A   1      42.528  29.499  35.768  1.00  0.00     0.029 A 
ATOM     46  N   UNL A   1      41.311  29.692  33.916  1.00  0.00    -0.354 N 
ATOM     47  N   UNL A   1      39.140  30.730  32.269  1.00  0.00    -0.248 NA
ATOM     48  C   UNL A   1      37.179  31.977  32.044  1.00  0.00     0.031 C 
ATOM     49  C   UNL A   1      41.448  30.347  36.035  1.00  0.00     0.029 A 
ATOM     50  C   UNL A   1      40.700  30.480  34.878  1.00  0.00     0.049 A 
ATOM     51  H   UNL A   1      40.999  29.589  32.988  1.00  0.00     0.167 HD
ATOM     52  C   UNL A   1      38.843  31.338  33.484  1.00  0.00     0.074 A 
ATOM     53  C   UNL A   1      37.639  32.115  33.280  1.00  0.00     0.031 C 
ATOM     54  C   UNL A   1      39.509  31.261  34.660  1.00  0.00     0.037 A 
BRANCH  41  55
ATOM     55  C   UNL A   1      44.419  27.526  34.475  1.00  0.00     0.057 A 
ATOM     56  C   UNL A   1      44.313  26.251  35.045  1.00  0.00     0.134 A 
ATOM     57  C   UNL A   1      45.640  28.196  34.603  1.00  0.00     0.134 A 
ATOM     58  F   UNL A   1      43.161  25.566  34.972  1.00  0.00    -0.206 F 
ATOM     59  C   UNL A   1      45.378  25.672  35.737  1.00  0.00     0.040 A 
ATOM     60  C   UNL A   1      46.720  27.618  35.273  1.00  0.00     0.040 A 
ATOM     61  F   UNL A   1      45.805  29.420  34.080  1.00  0.00    -0.206 F 
ATOM     62  C   UNL A   1      46.588  26.355  35.847  1.00  0.00     0.006 A 
ENDBRANCH  41  55
BRANCH  42  63
ATOM     63  C   UNL A   1      36.908  31.377  29.208  1.00  0.00     0.057 A 
ATOM     64  C   UNL A   1      35.794  30.603  28.862  1.00  0.00     0.134 A 
ATOM     65  C   UNL A   1      36.938  32.702  28.761  1.00  0.00     0.134 A 
ATOM     66  F   UNL A   1      35.724  29.317  29.236  1.00  0.00    -0.206 F 
ATOM     67  C   UNL A   1      34.758  31.121  28.083  1.00  0.00     0.040 A 
ATOM     68  C   UNL A   1      35.899  33.239  28.000  1.00  0.00     0.040 A 
ATOM     69  F   UNL A   1      37.980  33.493  29.055  1.00  0.00    -0.206 F 
ATOM     70  C   UNL A   1      34.808  32.444  27.651  1.00  0.00     0.006 A 
ENDBRANCH  42  63
BRANCH  54  71
ATOM     71  C   UNL A   1      38.981  32.068  35.811  1.00  0.00     0.057 A 
ATOM     72  C   UNL A   1      38.150  31.506  36.787  1.00  0.00     0.134 A 
ATOM     73  C   UNL A   1      39.351  33.409  35.969  1.00  0.00     0.134 A 
ATOM     74  F   UNL A   1      37.750  30.230  36.689  1.00  0.00    -0.206 F 
ATOM     75  C   UNL A   1      37.688  32.257  37.871  1.00  0.00     0.040 A 
ATOM     76  C   UNL A   1      38.916  34.163  37.059  1.00  0.00     0.040 A 
ATOM     77  F   UNL A   1      40.155  34.005  35.074  1.00  0.00    -0.206 F 
ATOM     78  C   UNL A   1      38.077  33.588  38.012  1.00  0.00     0.006 A 
ENDBRANCH  54  71
ENDBRANCH  28  29
ENDBRANCH  21  23
ENDBRANCH  20  21
ENDBRANCH  19  20
ENDBRANCH   1  19
TORSDOF 13
ENDMDL
MODEL 2
REMARK VINA RESULT:     -11.6      5.357     10.627
REMARK SMILES O=C(Cc1ccc(-c2ccc(Cl)cc2)cc1)OCCOC(=O)c1ccc(-c2c3nc(c(-c4c(F)cccc4F)c4ccc([nH]4)c(-c4c(F)cccc4F)c4nc(c(-c5c(F)cccc5F)c5ccc2[nH]5)C=C4)C=C3)cc1
REMARK SMILES IDX 18 1 17 2 2 3 1 4 3 5 4 6 5 7 16 8 6 9 15 10 7 11 8 12 9 13
REMARK SMILES IDX 14 14 10 15 13 16 11 17 12 18 19 19 20 20 21 21 22 22 23 23
REMARK SMILES IDX 24 24 76 25 25 26 75 27 26 28 27 29 28 30 69 31 29 32 74 33
REMARK SMILES IDX 68 34 70 35 30 36 73 37 67 38 66 39 31 41 57 42 40 43 56 44
REMARK SMILES IDX 41 45 44 46 55 47 71 48 42 49 43 50 54 52 72 53 45 54 32 55
REMARK SMILES IDX 33 56 38 57 34 58 35 59 37 60 39 61 36 62 58 63 59 64 64 65
REMARK SMILES IDX 60 66 61 67 63 68 65 69 62 70 46 71 47 72 52 73 48 74 49 75
REMARK SMILES IDX 51 76 53 77 50 78
REMARK H PARENT 70 40 44 51
REMARK Flexibility Score: inf
ROOT
ATOM      1  C   UNL A   1      34.450  34.573  31.499  1.00  0.00     0.274 C 
ENDROOT
BRANCH   1   2
ATOM      2  O   UNL A   1      33.252  34.877  30.754  1.00  0.00    -0.462 OA
BRANCH   2   3
ATOM      3  C   UNL A   1      33.238  35.344  29.481  1.00  0.00     0.310 C 
ATOM      4  O   UNL A   1      32.409  36.187  29.142  1.00  0.00    -0.252 OA
BRANCH   3   5
ATOM      5  C   UNL A   1      34.193  34.747  28.474  1.00  0.00     0.158 C 
BRANCH   5   6
ATOM      6  C   UNL A   1      33.910  33.328  28.073  1.00  0.00    -0.037 A 
ATOM      7  C   UNL A   1      34.904  32.354  28.161  1.00  0.00     0.005 A 
ATOM      8  C   UNL A   1      32.650  32.975  27.572  1.00  0.00     0.005 A 
ATOM      9  C   UNL A   1      34.632  31.040  27.777  1.00  0.00     0.009 A 
ATOM     10  C   UNL A   1      32.375  31.657  27.213  1.00  0.00     0.009 A 
ATOM     11  C   UNL A   1      33.360  30.665  27.313  1.00  0.00    -0.018 A 
BRANCH  11  12
ATOM     12  C   UNL A   1      33.068  29.270  26.951  1.00  0.00    -0.018 A 
ATOM     13  C   UNL A   1      34.035  28.482  26.301  1.00  0.00     0.010 A 
ATOM     14  C   UNL A   1      31.826  28.684  27.245  1.00  0.00     0.010 A 
ATOM     15  C   UNL A   1      33.765  27.160  25.944  1.00  0.00     0.021 A 
ATOM     16  C   UNL A   1      31.553  27.359  26.893  1.00  0.00     0.021 A 
ATOM     17  C   UNL A   1      32.523  26.605  26.240  1.00  0.00     0.041 A 
ATOM     18  Cl  UNL A   1      32.186  24.979  25.793  1.00  0.00    -0.084 Cl
ENDBRANCH  11  12
ENDBRANCH   5   6
ENDBRANCH   3   5
ENDBRANCH   2   3
ENDBRANCH   1   2
BRANCH   1  19
ATOM     19  C   UNL A   1      34.177  33.645  32.686  1.00  0.00     0.275 C 
BRANCH  19  20
ATOM     20  O   UNL A   1      34.917  32.418  32.549  1.00  0.00    -0.458 OA
BRANCH  20  21
ATOM     21  C   UNL A   1      36.106  32.381  33.201  1.00  0.00     0.338 C 
ATOM     22  O   UNL A   1      36.312  32.691  34.361  1.00  0.00    -0.246 OA
BRANCH  21  23
ATOM     23  C   UNL A   1      37.109  31.696  32.351  1.00  0.00     0.060 A 
ATOM     24  C   UNL A   1      38.121  30.972  32.995  1.00  0.00     0.016 A 
ATOM     25  C   UNL A   1      37.044  31.714  30.952  1.00  0.00     0.016 A 
ATOM     26  C   UNL A   1      39.087  30.297  32.247  1.00  0.00     0.010 A 
ATOM     27  C   UNL A   1      38.017  31.043  30.203  1.00  0.00     0.010 A 
ATOM     28  C   UNL A   1      39.061  30.357  30.848  1.00  0.00    -0.014 A 
BRANCH  28  29
ATOM     29  C   UNL A   1      40.225  29.861  30.073  1.00  0.00     0.031 A 
ATOM     30  C   UNL A   1      41.373  30.801  29.826  1.00  0.00     0.074 A 
ATOM     31  C   UNL A   1      40.284  28.597  29.617  1.00  0.00     0.049 A 
ATOM     32  N   UNL A   1      42.510  30.582  29.216  1.00  0.00    -0.248 NA
ATOM     33  C   UNL A   1      41.215  32.172  30.337  1.00  0.00     0.031 C 
ATOM     34  C   UNL A   1      39.252  27.578  29.798  1.00  0.00     0.029 A 
ATOM     35  N   UNL A   1      41.268  27.959  28.902  1.00  0.00    -0.354 N 
ATOM     36  C   UNL A   1      43.207  31.781  29.284  1.00  0.00     0.074 A 
ATOM     37  C   UNL A   1      42.351  32.735  29.954  1.00  0.00     0.031 C 
ATOM     38  C   UNL A   1      39.656  26.441  29.202  1.00  0.00     0.029 A 
ATOM     39  C   UNL A   1      40.968  26.656  28.592  1.00  0.00     0.049 A 
ATOM     40  H   UNL A   1      42.110  28.395  28.638  1.00  0.00     0.167 HD
ATOM     41  C   UNL A   1      44.457  32.062  28.845  1.00  0.00     0.037 A 
ATOM     42  C   UNL A   1      41.672  25.745  27.892  1.00  0.00     0.037 A 
ATOM     43  C   UNL A   1      45.311  31.128  28.165  1.00  0.00     0.049 A 
ATOM     44  C   UNL A   1      43.032  26.104  27.347  1.00  0.00     0.074 A 
ATOM     45  C   UNL A   1      46.601  31.320  27.699  1.00  0.00     0.029 A 
ATOM     46  N   UNL A   1      44.957  29.828  27.842  1.00  0.00    -0.354 N 
ATOM     47  N   UNL A   1      43.705  27.222  27.470  1.00  0.00    -0.248 NA
ATOM     48  C   UNL A   1      43.730  25.067  26.572  1.00  0.00     0.031 C 
ATOM     49  C   UNL A   1      47.011  30.148  27.055  1.00  0.00     0.029 A 
ATOM     50  C   UNL A   1      45.994  29.214  27.159  1.00  0.00     0.049 A 
ATOM     51  H   UNL A   1      44.097  29.405  28.064  1.00  0.00     0.167 HD
ATOM     52  C   UNL A   1      44.917  27.011  26.821  1.00  0.00     0.074 A 
ATOM     53  C   UNL A   1      44.888  25.657  26.310  1.00  0.00     0.031 C 
ATOM     54  C   UNL A   1      45.960  27.861  26.666  1.00  0.00     0.037 A 
BRANCH  41  55
ATOM     55  C   UNL A   1      44.965  33.451  29.085  1.00  0.00     0.057 A 
ATOM     56  C   UNL A   1      45.684  33.780  30.241  1.00  0.00     0.134 A 
ATOM     57  C   UNL A   1      44.742  34.465  28.148  1.00  0.00     0.134 A 
ATOM     58  F   UNL A   1      45.913  32.854  31.185  1.00  0.00    -0.206 F 
ATOM     59  C   UNL A   1      46.146  35.077  30.467  1.00  0.00     0.040 A 
ATOM     60  C   UNL A   1      45.217  35.762  28.352  1.00  0.00     0.040 A 
ATOM     61  F   UNL A   1      44.059  34.215  27.020  1.00  0.00    -0.206 F 
ATOM     62  C   UNL A   1      45.917  36.071  29.517  1.00  0.00     0.006 A 
ENDBRANCH  41  55
BRANCH  42  63
ATOM     63  C   UNL A   1      41.117  24.387  27.662  1.00  0.00     0.057 A 
ATOM     64  C   UNL A   1      41.602  23.278  28.367  1.00  0.00     0.134 A 
ATOM     65  C   UNL A   1      40.130  24.158  26.697  1.00  0.00     0.134 A 
ATOM     66  F   UNL A   1      42.569  23.432  29.282  1.00  0.00    -0.206 F 
ATOM     67  C   UNL A   1      41.139  21.987  28.106  1.00  0.00     0.040 A 
ATOM     68  C   UNL A   1      39.643  22.876  26.442  1.00  0.00     0.040 A 
ATOM     69  F   UNL A   1      39.630  25.178  25.985  1.00  0.00    -0.206 F 
ATOM     70  C   UNL A   1      40.154  21.784  27.142  1.00  0.00     0.006 A 
ENDBRANCH  42  63
BRANCH  54  71
ATOM     71  C   UNL A   1      47.176  27.346  25.952  1.00  0.00     0.057 A 
ATOM     72  C   UNL A   1      48.191  26.656  26.624  1.00  0.00     0.134 A 
ATOM     73  C   UNL A   1      47.306  27.501  24.566  1.00  0.00     0.134 A 
ATOM     74  F   UNL A   1      48.132  26.482  27.953  1.00  0.00    -0.206 F 
ATOM     75  C   UNL A   1      49.304  26.154  25.945  1.00  0.00     0.040 A 
ATOM     76  C   UNL A   1      48.401  26.985  23.873  1.00  0.00     0.040 A 
ATOM     77  F   UNL A   1      46.363  28.144  23.861  1.00  0.00    -0.206 F 
ATOM     78  C   UNL A   1      49.408  26.312  24.564  1.00  0.00     0.006 A 
ENDBRANCH  54  71
ENDBRANCH  28  29
ENDBRANCH  21  23
ENDBRANCH  20  21
ENDBRANCH  19  20
ENDBRANCH   1  19
TORSDOF 13
ENDMDL
MODEL 3
REMARK VINA RESULT:     -11.2      0.512      6.383
REMARK SMILES O=C(Cc1ccc(-c2ccc(Cl)cc2)cc1)OCCOC(=O)c1ccc(-c2c3nc(c(-c4c(F)cccc4F)c4ccc([nH]4)c(-c4c(F)cccc4F)c4nc(c(-c5c(F)cccc5F)c5ccc2[nH]5)C=C4)C=C3)cc1
REMARK SMILES IDX 18 1 17 2 2 3 1 4 3 5 4 6 5 7 16 8 6 9 15 10 7 11 8 12 9 13
REMARK SMILES IDX 14 14 10 15 13 16 11 17 12 18 19 19 20 20 21 21 22 22 23 23
REMARK SMILES IDX 24 24 76 25 25 26 75 27 26 28 27 29 28 30 69 31 29 32 74 33
REMARK SMILES IDX 68 34 70 35 30 36 73 37 67 38 66 39 31 41 57 42 40 43 56 44
REMARK SMILES IDX 41 45 44 46 55 47 71 48 42 49 43 50 54 52 72 53 45 54 32 55
REMARK SMILES IDX 33 56 38 57 34 58 35 59 37 60 39 61 36 62 58 63 59 64 64 65
REMARK SMILES IDX 60 66 61 67 63 68 65 69 62 70 46 71 47 72 52 73 48 74 49 75
REMARK SMILES IDX 51 76 53 77 50 78
REMARK H PARENT 70 40 44 51
REMARK Flexibility Score: inf
ROOT
ATOM      1  C   UNL A   1      43.801  21.299  25.555  1.00  0.00     0.274 C 
ENDROOT
BRANCH   1   2
ATOM      2  O   UNL A   1      42.429  20.857  25.506  1.00  0.00    -0.462 OA
BRANCH   2   3
ATOM      3  C   UNL A   1      41.657  20.627  26.597  1.00  0.00     0.310 C 
ATOM      4  O   UNL A   1      41.483  19.478  26.999  1.00  0.00    -0.252 OA
BRANCH   3   5
ATOM      5  C   UNL A   1      40.948  21.792  27.248  1.00  0.00     0.158 C 
BRANCH   5   6
ATOM      6  C   UNL A   1      39.673  22.228  26.586  1.00  0.00    -0.037 A 
ATOM      7  C   UNL A   1      38.948  21.342  25.788  1.00  0.00     0.005 A 
ATOM      8  C   UNL A   1      39.215  23.543  26.735  1.00  0.00     0.005 A 
ATOM      9  C   UNL A   1      37.769  21.761  25.171  1.00  0.00     0.009 A 
ATOM     10  C   UNL A   1      38.024  23.950  26.137  1.00  0.00     0.009 A 
ATOM     11  C   UNL A   1      37.278  23.065  25.348  1.00  0.00    -0.018 A 
BRANCH  11  12
ATOM     12  C   UNL A   1      36.012  23.487  24.729  1.00  0.00    -0.018 A 
ATOM     13  C   UNL A   1      35.606  22.953  23.493  1.00  0.00     0.010 A 
ATOM     14  C   UNL A   1      35.172  24.426  25.352  1.00  0.00     0.010 A 
ATOM     15  C   UNL A   1      34.412  23.353  22.892  1.00  0.00     0.021 A 
ATOM     16  C   UNL A   1      33.974  24.827  24.755  1.00  0.00     0.021 A 
ATOM     17  C   UNL A   1      33.601  24.290  23.526  1.00  0.00     0.041 A 
ATOM     18  Cl  UNL A   1      32.133  24.791  22.783  1.00  0.00    -0.084 Cl
ENDBRANCH  11  12
ENDBRANCH   5   6
ENDBRANCH   3   5
ENDBRANCH   2   3
ENDBRANCH   1   2
BRANCH   1  19
ATOM     19  C   UNL A   1      44.067  22.477  24.614  1.00  0.00     0.275 C 
BRANCH  19  20
ATOM     20  O   UNL A   1      43.328  23.638  25.034  1.00  0.00    -0.458 OA
BRANCH  20  21
ATOM     21  C   UNL A   1      44.075  24.743  25.284  1.00  0.00     0.338 C 
ATOM     22  O   UNL A   1      45.027  25.142  24.635  1.00  0.00    -0.246 OA
BRANCH  21  23
ATOM     23  C   UNL A   1      43.431  25.538  26.357  1.00  0.00     0.060 A 
ATOM     24  C   UNL A   1      43.813  26.880  26.490  1.00  0.00     0.016 A 
ATOM     25  C   UNL A   1      42.439  25.006  27.190  1.00  0.00     0.016 A 
ATOM     26  C   UNL A   1      43.233  27.680  27.476  1.00  0.00     0.010 A 
ATOM     27  C   UNL A   1      41.864  25.808  28.183  1.00  0.00     0.010 A 
ATOM     28  C   UNL A   1      42.280  27.140  28.349  1.00  0.00    -0.014 A 
BRANCH  28  29
ATOM     29  C   UNL A   1      41.865  27.913  29.546  1.00  0.00     0.031 A 
ATOM     30  C   UNL A   1      40.647  28.789  29.444  1.00  0.00     0.074 A 
ATOM     31  C   UNL A   1      42.532  27.825  30.710  1.00  0.00     0.049 A 
ATOM     32  N   UNL A   1      40.070  29.521  30.363  1.00  0.00    -0.248 NA
ATOM     33  C   UNL A   1      39.992  28.846  28.128  1.00  0.00     0.031 C 
ATOM     34  C   UNL A   1      43.717  27.005  30.953  1.00  0.00     0.029 A 
ATOM     35  N   UNL A   1      42.297  28.444  31.914  1.00  0.00    -0.354 N 
ATOM     36  C   UNL A   1      38.979  30.111  29.741  1.00  0.00     0.074 A 
ATOM     37  C   UNL A   1      38.998  29.689  28.357  1.00  0.00     0.031 C 
ATOM     38  C   UNL A   1      44.110  27.176  32.228  1.00  0.00     0.029 A 
ATOM     39  C   UNL A   1      43.211  28.124  32.886  1.00  0.00     0.049 A 
ATOM     40  H   UNL A   1      41.544  29.059  32.065  1.00  0.00     0.167 HD
ATOM     41  C   UNL A   1      38.032  30.918  30.274  1.00  0.00     0.037 A 
ATOM     42  C   UNL A   1      43.310  28.552  34.161  1.00  0.00     0.037 A 
ATOM     43  C   UNL A   1      38.011  31.357  31.642  1.00  0.00     0.049 A 
ATOM     44  C   UNL A   1      42.286  29.511  34.712  1.00  0.00     0.074 A 
ATOM     45  C   UNL A   1      37.080  32.163  32.276  1.00  0.00     0.029 A 
ATOM     46  N   UNL A   1      38.972  31.036  32.587  1.00  0.00    -0.354 N 
ATOM     47  N   UNL A   1      41.225  30.015  34.131  1.00  0.00    -0.248 NA
ATOM     48  C   UNL A   1      42.473  29.953  36.103  1.00  0.00     0.031 C 
ATOM     49  C   UNL A   1      37.502  32.364  33.594  1.00  0.00     0.029 A 
ATOM     50  C   UNL A   1      38.672  31.650  33.792  1.00  0.00     0.049 A 
ATOM     51  H   UNL A   1      39.753  30.459  32.425  1.00  0.00     0.167 HD
ATOM     52  C   UNL A   1      40.600  30.803  35.092  1.00  0.00     0.074 A 
ATOM     53  C   UNL A   1      41.399  30.707  36.296  1.00  0.00     0.031 C 
ATOM     54  C   UNL A   1      39.466  31.536  34.988  1.00  0.00     0.037 A 
BRANCH  41  55
ATOM     55  C   UNL A   1      36.943  31.387  29.357  1.00  0.00     0.057 A 
ATOM     56  C   UNL A   1      36.975  32.659  28.772  1.00  0.00     0.134 A 
ATOM     57  C   UNL A   1      35.861  30.556  29.049  1.00  0.00     0.134 A 
ATOM     58  F   UNL A   1      37.977  33.509  29.044  1.00  0.00    -0.206 F 
ATOM     59  C   UNL A   1      35.954  33.097  27.927  1.00  0.00     0.040 A 
ATOM     60  C   UNL A   1      34.845  30.974  28.188  1.00  0.00     0.040 A 
ATOM     61  F   UNL A   1      35.773  29.326  29.578  1.00  0.00    -0.206 F 
ATOM     62  C   UNL A   1      34.887  32.251  27.630  1.00  0.00     0.006 A 
ENDBRANCH  41  55
BRANCH  42  63
ATOM     63  C   UNL A   1      44.420  28.076  35.025  1.00  0.00     0.057 A 
ATOM     64  C   UNL A   1      44.274  26.940  35.831  1.00  0.00     0.134 A 
ATOM     65  C   UNL A   1      45.630  28.774  35.106  1.00  0.00     0.134 A 
ATOM     66  F   UNL A   1      43.125  26.248  35.818  1.00  0.00    -0.206 F 
ATOM     67  C   UNL A   1      45.284  26.527  36.701  1.00  0.00     0.040 A 
ATOM     68  C   UNL A   1      46.656  28.359  35.956  1.00  0.00     0.040 A 
ATOM     69  F   UNL A   1      45.829  29.873  34.363  1.00  0.00    -0.206 F 
ATOM     70  C   UNL A   1      46.481  27.237  36.763  1.00  0.00     0.006 A 
ENDBRANCH  42  63
BRANCH  54  71
ATOM     71  C   UNL A   1      38.992  32.261  36.214  1.00  0.00     0.057 A 
ATOM     72  C   UNL A   1      38.159  31.649  37.159  1.00  0.00     0.134 A 
ATOM     73  C   UNL A   1      39.416  33.570  36.475  1.00  0.00     0.134 A 
ATOM     74  F   UNL A   1      37.710  30.401  36.963  1.00  0.00    -0.206 F 
ATOM     75  C   UNL A   1      37.748  32.322  38.312  1.00  0.00     0.040 A 
ATOM     76  C   UNL A   1      39.031  34.244  37.634  1.00  0.00     0.040 A 
ATOM     77  F   UNL A   1      40.223  34.209  35.615  1.00  0.00    -0.206 F 
ATOM     78  C   UNL A   1      38.190  33.621  38.555  1.00  0.00     0.006 A 
ENDBRANCH  54  71
ENDBRANCH  28  29
ENDBRANCH  21  23
ENDBRANCH  20  21
ENDBRANCH  19  20
ENDBRANCH   1  19
TORSDOF 13
ENDMDL
