MODEL 1
REMARK VINA RESULT:     -11.7      0.000      0.000
REMARK SMILES Cn1ncc(C(=O)OCCOC(=O)c2ccc(-c3c4nc(c(-c5c(F)cccc5F)c5ccc([nH]5)c(-c5c(F)cccc5F)c5nc(c(-c6c(F)cccc6F)c6ccc3[nH]6)C=C5)C=C4)cc2)c1C(=O)NCC1CC[NH+](Cc2ccccc2)CC1
REMARK SMILES IDX 8 1 6 2 7 3 5 4 1 5 2 6 3 7 68 8 4 9 69 10 70 11 71 12 72 14
REMARK SMILES IDX 73 15 74 16 85 17 75 18 84 19 76 20 77 22 78 23 79 24 83 25
REMARK SMILES IDX 80 26 82 27 81 28 9 29 10 30 11 31 12 32 13 33 14 34 15 35
REMARK SMILES IDX 67 36 16 37 66 38 17 39 18 40 19 41 60 42 20 43 65 44 59 45
REMARK SMILES IDX 61 46 21 47 64 48 58 49 57 50 22 52 48 53 31 54 47 55 32 56
REMARK SMILES IDX 35 57 46 58 62 59 33 60 34 61 45 63 63 64 36 65 23 66 24 67
REMARK SMILES IDX 29 68 25 69 26 70 28 71 30 72 27 73 49 74 50 75 55 76 51 77
REMARK SMILES IDX 52 78 54 79 56 80 53 81 37 82 38 83 43 84 39 85 40 86 42 87
REMARK SMILES IDX 44 88 41 89
REMARK H PARENT 71 13 76 21 61 51 35 62
REMARK Flexibility Score: inf
ROOT
ATOM      1  O   UNL A   1      33.853  21.324  25.868  1.00  0.00    -0.458 OA
ENDROOT
BRANCH   1   2
ATOM      2  C   UNL A   1      32.527  21.314  25.547  1.00  0.00     0.342 C 
ATOM      3  O   UNL A   1      31.908  20.297  25.237  1.00  0.00    -0.246 OA
BRANCH   2   4
ATOM      4  C   UNL A   1      31.814  22.563  25.764  1.00  0.00     0.111 A 
ATOM      5  C   UNL A   1      30.027  25.680  25.487  1.00  0.00     0.174 C 
ATOM      6  N   UNL A   1      30.716  24.448  25.738  1.00  0.00    -0.262 N 
ATOM      7  N   UNL A   1      30.813  24.145  27.044  1.00  0.00    -0.180 NA
ATOM      8  C   UNL A   1      31.268  23.517  24.879  1.00  0.00     0.140 A 
ATOM      9  C   UNL A   1      31.440  22.985  27.054  1.00  0.00     0.151 A 
BRANCH   8  10
ATOM     10  C   UNL A   1      31.322  23.419  23.425  1.00  0.00     0.270 C 
ATOM     11  O   UNL A   1      31.006  22.365  22.861  1.00  0.00    -0.268 OA
ATOM     12  N   UNL A   1      31.672  24.378  22.510  1.00  0.00    -0.350 N 
ATOM     13  H   UNL A   1      31.998  23.957  21.682  1.00  0.00     0.163 HD
BRANCH  12  14
ATOM     14  C   UNL A   1      31.709  25.827  22.386  1.00  0.00     0.120 C 
BRANCH  14  15
ATOM     15  C   UNL A   1      33.086  26.532  22.568  1.00  0.00     0.019 C 
ATOM     16  C   UNL A   1      34.026  25.831  23.562  1.00  0.00     0.067 C 
ATOM     17  C   UNL A   1      33.074  28.026  22.922  1.00  0.00     0.067 C 
ATOM     18  C   UNL A   1      33.732  26.182  25.023  1.00  0.00     0.262 C 
ATOM     19  C   UNL A   1      32.684  28.285  24.378  1.00  0.00     0.262 C 
ATOM     20  N   UNL A   1      33.651  27.624  25.254  1.00  0.00    -0.331 N 
ATOM     21  H   UNL A   1      34.565  27.991  24.988  1.00  0.00     0.348 HD
BRANCH  20  22
ATOM     22  C   UNL A   1      33.494  27.989  26.673  1.00  0.00     0.299 C 
BRANCH  22  23
ATOM     23  C   UNL A   1      34.104  29.301  27.122  1.00  0.00     0.006 A 
ATOM     24  C   UNL A   1      35.482  29.396  27.364  1.00  0.00     0.009 A 
ATOM     25  C   UNL A   1      33.306  30.437  27.333  1.00  0.00     0.009 A 
ATOM     26  C   UNL A   1      36.043  30.600  27.789  1.00  0.00     0.001 A 
ATOM     27  C   UNL A   1      33.873  31.649  27.718  1.00  0.00     0.001 A 
ATOM     28  C   UNL A   1      35.239  31.723  27.958  1.00  0.00     0.000 A 
ENDBRANCH  22  23
ENDBRANCH  20  22
ENDBRANCH  14  15
ENDBRANCH  12  14
ENDBRANCH   8  10
ENDBRANCH   2   4
ENDBRANCH   1   2
BRANCH   1  29
ATOM     29  C   UNL A   1      34.748  21.170  24.747  1.00  0.00     0.275 C 
BRANCH  29  30
ATOM     30  C   UNL A   1      36.105  20.604  25.163  1.00  0.00     0.275 C 
BRANCH  30  31
ATOM     31  O   UNL A   1      36.957  21.649  25.657  1.00  0.00    -0.458 OA
BRANCH  31  32
ATOM     32  C   UNL A   1      38.279  21.346  25.700  1.00  0.00     0.338 C 
ATOM     33  O   UNL A   1      38.815  20.302  25.382  1.00  0.00    -0.246 OA
BRANCH  32  34
ATOM     34  C   UNL A   1      39.031  22.489  26.245  1.00  0.00     0.060 A 
ATOM     35  C   UNL A   1      40.157  22.280  27.036  1.00  0.00     0.016 A 
ATOM     36  C   UNL A   1      38.562  23.783  26.019  1.00  0.00     0.016 A 
ATOM     37  C   UNL A   1      40.799  23.361  27.635  1.00  0.00     0.010 A 
ATOM     38  C   UNL A   1      39.264  24.873  26.537  1.00  0.00     0.010 A 
ATOM     39  C   UNL A   1      40.393  24.673  27.349  1.00  0.00    -0.014 A 
BRANCH  39  40
ATOM     40  C   UNL A   1      41.197  25.831  27.821  1.00  0.00     0.031 A 
ATOM     41  C   UNL A   1      40.607  26.869  28.733  1.00  0.00     0.074 A 
ATOM     42  C   UNL A   1      42.465  25.959  27.380  1.00  0.00     0.049 A 
ATOM     43  N   UNL A   1      41.105  28.022  29.103  1.00  0.00    -0.248 NA
ATOM     44  C   UNL A   1      39.276  26.584  29.290  1.00  0.00     0.031 C 
ATOM     45  C   UNL A   1      43.149  25.015  26.491  1.00  0.00     0.029 A 
ATOM     46  N   UNL A   1      43.409  26.926  27.618  1.00  0.00    -0.354 N 
ATOM     47  C   UNL A   1      40.134  28.620  29.896  1.00  0.00     0.074 A 
ATOM     48  C   UNL A   1      39.015  27.703  29.954  1.00  0.00     0.031 C 
ATOM     49  C   UNL A   1      44.412  25.419  26.301  1.00  0.00     0.029 A 
ATOM     50  C   UNL A   1      44.599  26.699  26.970  1.00  0.00     0.049 A 
ATOM     51  H   UNL A   1      43.249  27.706  28.196  1.00  0.00     0.167 HD
ATOM     52  C   UNL A   1      40.179  29.827  30.511  1.00  0.00     0.037 A 
ATOM     53  C   UNL A   1      45.709  27.455  26.883  1.00  0.00     0.037 A 
ATOM     54  C   UNL A   1      41.315  30.713  30.470  1.00  0.00     0.049 A 
ATOM     55  C   UNL A   1      45.725  28.790  27.564  1.00  0.00     0.074 A 
ATOM     56  C   UNL A   1      41.469  31.950  31.072  1.00  0.00     0.029 A 
ATOM     57  N   UNL A   1      42.497  30.450  29.792  1.00  0.00    -0.354 N 
ATOM     58  N   UNL A   1      44.788  29.357  28.283  1.00  0.00    -0.248 NA
ATOM     59  C   UNL A   1      46.938  29.599  27.401  1.00  0.00     0.031 C 
ATOM     60  C   UNL A   1      42.731  32.450  30.731  1.00  0.00     0.029 A 
ATOM     61  C   UNL A   1      43.380  31.507  29.949  1.00  0.00     0.049 A 
ATOM     62  H   UNL A   1      42.681  29.633  29.275  1.00  0.00     0.167 HD
ATOM     63  C   UNL A   1      45.297  30.591  28.662  1.00  0.00     0.074 A 
ATOM     64  C   UNL A   1      46.637  30.675  28.114  1.00  0.00     0.031 C 
ATOM     65  C   UNL A   1      44.705  31.570  29.388  1.00  0.00     0.037 A 
BRANCH  52  66
ATOM     66  C   UNL A   1      38.954  30.276  31.257  1.00  0.00     0.057 A 
ATOM     67  C   UNL A   1      38.645  29.804  32.539  1.00  0.00     0.134 A 
ATOM     68  C   UNL A   1      38.092  31.230  30.697  1.00  0.00     0.134 A 
ATOM     69  F   UNL A   1      39.421  28.884  33.129  1.00  0.00    -0.206 F 
ATOM     70  C   UNL A   1      37.514  30.250  33.228  1.00  0.00     0.040 A 
ATOM     71  C   UNL A   1      36.971  31.699  31.385  1.00  0.00     0.040 A 
ATOM     72  F   UNL A   1      38.331  31.730  29.475  1.00  0.00    -0.206 F 
ATOM     73  C   UNL A   1      36.677  31.204  32.654  1.00  0.00     0.006 A 
ENDBRANCH  52  66
BRANCH  53  74
ATOM     74  C   UNL A   1      46.869  26.974  26.092  1.00  0.00     0.057 A 
ATOM     75  C   UNL A   1      47.008  27.303  24.740  1.00  0.00     0.134 A 
ATOM     76  C   UNL A   1      47.883  26.204  26.676  1.00  0.00     0.134 A 
ATOM     77  F   UNL A   1      46.061  28.020  24.118  1.00  0.00    -0.206 F 
ATOM     78  C   UNL A   1      48.113  26.884  23.996  1.00  0.00     0.040 A 
ATOM     79  C   UNL A   1      49.007  25.803  25.953  1.00  0.00     0.040 A 
ATOM     80  F   UNL A   1      47.812  25.861  27.971  1.00  0.00    -0.206 F 
ATOM     81  C   UNL A   1      49.122  26.140  24.606  1.00  0.00     0.006 A 
ENDBRANCH  53  74
BRANCH  65  82
ATOM     82  C   UNL A   1      45.519  32.802  29.637  1.00  0.00     0.057 A 
ATOM     83  C   UNL A   1      46.380  32.903  30.737  1.00  0.00     0.134 A 
ATOM     84  C   UNL A   1      45.448  33.893  28.764  1.00  0.00     0.134 A 
ATOM     85  F   UNL A   1      46.476  31.896  31.619  1.00  0.00    -0.206 F 
ATOM     86  C   UNL A   1      47.127  34.057  30.972  1.00  0.00     0.040 A 
ATOM     87  C   UNL A   1      46.207  35.044  28.976  1.00  0.00     0.040 A 
ATOM     88  F   UNL A   1      44.644  33.856  27.690  1.00  0.00    -0.206 F 
ATOM     89  C   UNL A   1      47.044  35.130  30.086  1.00  0.00     0.006 A 
ENDBRANCH  65  82
ENDBRANCH  39  40
ENDBRANCH  32  34
ENDBRANCH  31  32
ENDBRANCH  30  31
ENDBRANCH  29  30
ENDBRANCH   1  29
TORSDOF 16
ENDMDL
MODEL 2
REMARK VINA RESULT:     -11.6      4.456      9.537
REMARK SMILES Cn1ncc(C(=O)OCCOC(=O)c2ccc(-c3c4nc(c(-c5c(F)cccc5F)c5ccc([nH]5)c(-c5c(F)cccc5F)c5nc(c(-c6c(F)cccc6F)c6ccc3[nH]6)C=C5)C=C4)cc2)c1C(=O)NCC1CC[NH+](Cc2ccccc2)CC1
REMARK SMILES IDX 8 1 6 2 7 3 5 4 1 5 2 6 3 7 68 8 4 9 69 10 70 11 71 12 72 14
REMARK SMILES IDX 73 15 74 16 85 17 75 18 84 19 76 20 77 22 78 23 79 24 83 25
REMARK SMILES IDX 80 26 82 27 81 28 9 29 10 30 11 31 12 32 13 33 14 34 15 35
REMARK SMILES IDX 67 36 16 37 66 38 17 39 18 40 19 41 60 42 20 43 65 44 59 45
REMARK SMILES IDX 61 46 21 47 64 48 58 49 57 50 22 52 48 53 31 54 47 55 32 56
REMARK SMILES IDX 35 57 46 58 62 59 33 60 34 61 45 63 63 64 36 65 23 66 24 67
REMARK SMILES IDX 29 68 25 69 26 70 28 71 30 72 27 73 49 74 50 75 55 76 51 77
REMARK SMILES IDX 52 78 54 79 56 80 53 81 37 82 38 83 43 84 39 85 40 86 42 87
REMARK SMILES IDX 44 88 41 89
REMARK H PARENT 71 13 76 21 61 51 35 62
REMARK Flexibility Score: inf
ROOT
ATOM      1  O   UNL A   1      31.768  30.557  25.844  1.00  0.00    -0.458 OA
ENDROOT
BRANCH   1   2
ATOM      2  C   UNL A   1      32.318  29.369  25.457  1.00  0.00     0.342 C 
ATOM      3  O   UNL A   1      33.445  29.002  25.783  1.00  0.00    -0.246 OA
BRANCH   2   4
ATOM      4  C   UNL A   1      31.422  28.452  24.770  1.00  0.00     0.111 A 
ATOM      5  C   UNL A   1      29.514  25.631  23.589  1.00  0.00     0.174 C 
ATOM      6  N   UNL A   1      30.194  26.835  23.972  1.00  0.00    -0.262 N 
ATOM      7  N   UNL A   1      29.787  27.920  23.291  1.00  0.00    -0.180 NA
ATOM      8  C   UNL A   1      31.166  27.072  24.925  1.00  0.00     0.140 A 
ATOM      9  C   UNL A   1      30.501  28.902  23.806  1.00  0.00     0.151 A 
BRANCH   8  10
ATOM     10  C   UNL A   1      31.823  26.217  25.906  1.00  0.00     0.270 C 
ATOM     11  O   UNL A   1      31.175  25.734  26.842  1.00  0.00    -0.268 OA
ATOM     12  N   UNL A   1      33.131  25.812  25.956  1.00  0.00    -0.350 N 
ATOM     13  H   UNL A   1      33.385  25.593  26.882  1.00  0.00     0.163 HD
BRANCH  12  14
ATOM     14  C   UNL A   1      34.261  25.606  25.063  1.00  0.00     0.120 C 
BRANCH  14  15
ATOM     15  C   UNL A   1      35.126  24.329  25.276  1.00  0.00     0.019 C 
ATOM     16  C   UNL A   1      35.232  23.427  24.035  1.00  0.00     0.067 C 
ATOM     17  C   UNL A   1      34.778  23.429  26.471  1.00  0.00     0.067 C 
ATOM     18  C   UNL A   1      34.028  22.497  23.859  1.00  0.00     0.262 C 
ATOM     19  C   UNL A   1      33.511  22.603  26.239  1.00  0.00     0.262 C 
ATOM     20  N   UNL A   1      33.712  21.744  25.072  1.00  0.00    -0.331 N 
ATOM     21  H   UNL A   1      34.547  21.192  25.272  1.00  0.00     0.348 HD
BRANCH  20  22
ATOM     22  C   UNL A   1      32.638  20.751  24.891  1.00  0.00     0.299 C 
BRANCH  22  23
ATOM     23  C   UNL A   1      33.019  19.424  24.268  1.00  0.00     0.006 A 
ATOM     24  C   UNL A   1      32.313  18.931  23.160  1.00  0.00     0.009 A 
ATOM     25  C   UNL A   1      34.062  18.647  24.797  1.00  0.00     0.009 A 
ATOM     26  C   UNL A   1      32.655  17.705  22.593  1.00  0.00     0.001 A 
ATOM     27  C   UNL A   1      34.428  17.440  24.205  1.00  0.00     0.001 A 
ATOM     28  C   UNL A   1      33.714  16.967  23.112  1.00  0.00     0.000 A 
ENDBRANCH  22  23
ENDBRANCH  20  22
ENDBRANCH  14  15
ENDBRANCH  12  14
ENDBRANCH   8  10
ENDBRANCH   2   4
ENDBRANCH   1   2
BRANCH   1  29
ATOM     29  C   UNL A   1      32.445  31.208  26.938  1.00  0.00     0.275 C 
BRANCH  29  30
ATOM     30  C   UNL A   1      31.893  32.609  27.209  1.00  0.00     0.275 C 
BRANCH  30  31
ATOM     31  O   UNL A   1      32.951  33.579  27.186  1.00  0.00    -0.458 OA
BRANCH  31  32
ATOM     32  C   UNL A   1      33.186  34.207  28.365  1.00  0.00     0.338 C 
ATOM     33  O   UNL A   1      32.565  35.132  28.853  1.00  0.00    -0.246 OA
BRANCH  32  34
ATOM     34  C   UNL A   1      34.377  33.625  29.007  1.00  0.00     0.060 A 
ATOM     35  C   UNL A   1      34.255  32.529  29.857  1.00  0.00     0.016 A 
ATOM     36  C   UNL A   1      35.619  34.228  28.811  1.00  0.00     0.016 A 
ATOM     37  C   UNL A   1      35.369  32.052  30.543  1.00  0.00     0.010 A 
ATOM     38  C   UNL A   1      36.754  33.687  29.421  1.00  0.00     0.010 A 
ATOM     39  C   UNL A   1      36.640  32.592  30.292  1.00  0.00    -0.014 A 
BRANCH  39  40
ATOM     40  C   UNL A   1      37.855  31.955  30.866  1.00  0.00     0.031 A 
ATOM     41  C   UNL A   1      38.627  30.920  30.099  1.00  0.00     0.074 A 
ATOM     42  C   UNL A   1      38.233  32.293  32.116  1.00  0.00     0.049 A 
ATOM     43  N   UNL A   1      39.601  30.145  30.508  1.00  0.00    -0.248 NA
ATOM     44  C   UNL A   1      38.248  30.714  28.693  1.00  0.00     0.031 C 
ATOM     45  C   UNL A   1      37.561  33.285  32.960  1.00  0.00     0.029 A 
ATOM     46  N   UNL A   1      39.270  31.848  32.895  1.00  0.00    -0.354 N 
ATOM     47  C   UNL A   1      39.920  29.331  29.428  1.00  0.00     0.074 A 
ATOM     48  C   UNL A   1      39.035  29.703  28.345  1.00  0.00     0.031 C 
ATOM     49  C   UNL A   1      38.230  33.412  34.114  1.00  0.00     0.029 A 
ATOM     50  C   UNL A   1      39.317  32.442  34.134  1.00  0.00     0.049 A 
ATOM     51  H   UNL A   1      39.917  31.171  32.597  1.00  0.00     0.167 HD
ATOM     52  C   UNL A   1      40.862  28.359  29.359  1.00  0.00     0.037 A 
ATOM     53  C   UNL A   1      40.115  32.206  35.191  1.00  0.00     0.037 A 
ATOM     54  C   UNL A   1      41.758  28.024  30.437  1.00  0.00     0.049 A 
ATOM     55  C   UNL A   1      41.140  31.118  35.089  1.00  0.00     0.074 A 
ATOM     56  C   UNL A   1      42.759  27.069  30.464  1.00  0.00     0.029 A 
ATOM     57  N   UNL A   1      41.763  28.642  31.679  1.00  0.00    -0.354 N 
ATOM     58  N   UNL A   1      41.408  30.333  34.074  1.00  0.00    -0.248 NA
ATOM     59  C   UNL A   1      41.954  30.865  36.283  1.00  0.00     0.031 C 
ATOM     60  C   UNL A   1      43.348  27.085  31.734  1.00  0.00     0.029 A 
ATOM     61  C   UNL A   1      42.741  28.079  32.485  1.00  0.00     0.049 A 
ATOM     62  H   UNL A   1      41.161  29.372  31.949  1.00  0.00     0.167 HD
ATOM     63  C   UNL A   1      42.424  29.493  34.504  1.00  0.00     0.074 A 
ATOM     64  C   UNL A   1      42.741  29.884  35.864  1.00  0.00     0.031 C 
ATOM     65  C   UNL A   1      43.032  28.481  33.838  1.00  0.00     0.037 A 
BRANCH  52  66
ATOM     66  C   UNL A   1      40.955  27.567  28.086  1.00  0.00     0.057 A 
ATOM     67  C   UNL A   1      41.770  27.962  27.017  1.00  0.00     0.134 A 
ATOM     68  C   UNL A   1      40.248  26.364  27.944  1.00  0.00     0.134 A 
ATOM     69  F   UNL A   1      42.465  29.107  27.081  1.00  0.00    -0.206 F 
ATOM     70  C   UNL A   1      41.862  27.202  25.848  1.00  0.00     0.040 A 
ATOM     71  C   UNL A   1      40.350  25.584  26.790  1.00  0.00     0.040 A 
ATOM     72  F   UNL A   1      39.454  25.921  28.931  1.00  0.00    -0.206 F 
ATOM     73  C   UNL A   1      41.156  26.006  25.736  1.00  0.00     0.006 A 
ENDBRANCH  52  66
BRANCH  53  74
ATOM     74  C   UNL A   1      39.941  32.993  36.437  1.00  0.00     0.057 A 
ATOM     75  C   UNL A   1      40.720  34.126  36.691  1.00  0.00     0.134 A 
ATOM     76  C   UNL A   1      38.967  32.652  37.386  1.00  0.00     0.134 A 
ATOM     77  F   UNL A   1      41.681  34.492  35.832  1.00  0.00    -0.206 F 
ATOM     78  C   UNL A   1      40.539  34.893  37.845  1.00  0.00     0.040 A 
ATOM     79  C   UNL A   1      38.757  33.426  38.528  1.00  0.00     0.040 A 
ATOM     80  F   UNL A   1      38.183  31.581  37.197  1.00  0.00    -0.206 F 
ATOM     81  C   UNL A   1      39.548  34.548  38.762  1.00  0.00     0.006 A 
ENDBRANCH  53  74
BRANCH  65  82
ATOM     82  C   UNL A   1      44.108  27.747  34.576  1.00  0.00     0.057 A 
ATOM     83  C   UNL A   1      45.438  28.187  34.563  1.00  0.00     0.134 A 
ATOM     84  C   UNL A   1      43.811  26.596  35.313  1.00  0.00     0.134 A 
ATOM     85  F   UNL A   1      45.788  29.274  33.858  1.00  0.00    -0.206 F 
ATOM     86  C   UNL A   1      46.440  27.493  35.241  1.00  0.00     0.040 A 
ATOM     87  C   UNL A   1      44.800  25.906  36.014  1.00  0.00     0.040 A 
ATOM     88  F   UNL A   1      42.555  26.127  35.367  1.00  0.00    -0.206 F 
ATOM     89  C   UNL A   1      46.120  26.351  35.974  1.00  0.00     0.006 A 
ENDBRANCH  65  82
ENDBRANCH  39  40
ENDBRANCH  32  34
ENDBRANCH  31  32
ENDBRANCH  30  31
ENDBRANCH  29  30
ENDBRANCH   1  29
TORSDOF 16
ENDMDL
MODEL 3
REMARK VINA RESULT:     -11.5      3.111      6.550
REMARK SMILES Cn1ncc(C(=O)OCCOC(=O)c2ccc(-c3c4nc(c(-c5c(F)cccc5F)c5ccc([nH]5)c(-c5c(F)cccc5F)c5nc(c(-c6c(F)cccc6F)c6ccc3[nH]6)C=C5)C=C4)cc2)c1C(=O)NCC1CC[NH+](Cc2ccccc2)CC1
REMARK SMILES IDX 8 1 6 2 7 3 5 4 1 5 2 6 3 7 68 8 4 9 69 10 70 11 71 12 72 14
REMARK SMILES IDX 73 15 74 16 85 17 75 18 84 19 76 20 77 22 78 23 79 24 83 25
REMARK SMILES IDX 80 26 82 27 81 28 9 29 10 30 11 31 12 32 13 33 14 34 15 35
REMARK SMILES IDX 67 36 16 37 66 38 17 39 18 40 19 41 60 42 20 43 65 44 59 45
REMARK SMILES IDX 61 46 21 47 64 48 58 49 57 50 22 52 48 53 31 54 47 55 32 56
REMARK SMILES IDX 35 57 46 58 62 59 33 60 34 61 45 63 63 64 36 65 23 66 24 67
REMARK SMILES IDX 29 68 25 69 26 70 28 71 30 72 27 73 49 74 50 75 55 76 51 77
REMARK SMILES IDX 52 78 54 79 56 80 53 81 37 82 38 83 43 84 39 85 40 86 42 87
REMARK SMILES IDX 44 88 41 89
REMARK H PARENT 71 13 76 21 61 51 35 62
REMARK Flexibility Score: inf
ROOT
ATOM      1  O   UNL A   1      31.939  29.905  25.776  1.00  0.00    -0.458 OA
ENDROOT
BRANCH   1   2
ATOM      2  C   UNL A   1      31.238  29.627  24.638  1.00  0.00     0.342 C 
ATOM      3  O   UNL A   1      30.223  30.231  24.297  1.00  0.00    -0.246 OA
BRANCH   2   4
ATOM      4  C   UNL A   1      31.861  28.677  23.729  1.00  0.00     0.111 A 
ATOM      5  C   UNL A   1      32.707  25.908  21.582  1.00  0.00     0.174 C 
ATOM      6  N   UNL A   1      32.491  27.073  22.391  1.00  0.00    -0.262 N 
ATOM      7  N   UNL A   1      33.493  27.965  22.324  1.00  0.00    -0.180 NA
ATOM      8  C   UNL A   1      31.431  27.441  23.199  1.00  0.00     0.140 A 
ATOM      9  C   UNL A   1      33.090  28.952  23.101  1.00  0.00     0.151 A 
BRANCH   8  10
ATOM     10  C   UNL A   1      30.147  26.819  23.493  1.00  0.00     0.270 C 
ATOM     11  O   UNL A   1      29.103  27.478  23.410  1.00  0.00    -0.268 OA
ATOM     12  N   UNL A   1      29.880  25.524  23.856  1.00  0.00    -0.350 N 
ATOM     13  H   UNL A   1      29.036  25.478  24.361  1.00  0.00     0.163 HD
BRANCH  12  14
ATOM     14  C   UNL A   1      30.461  24.197  23.723  1.00  0.00     0.120 C 
BRANCH  14  15
ATOM     15  C   UNL A   1      31.205  23.608  24.958  1.00  0.00     0.019 C 
ATOM     16  C   UNL A   1      31.934  24.657  25.813  1.00  0.00     0.067 C 
ATOM     17  C   UNL A   1      32.188  22.455  24.707  1.00  0.00     0.067 C 
ATOM     18  C   UNL A   1      33.307  25.043  25.256  1.00  0.00     0.262 C 
ATOM     19  C   UNL A   1      33.497  22.923  24.069  1.00  0.00     0.262 C 
ATOM     20  N   UNL A   1      34.146  23.881  24.963  1.00  0.00    -0.331 N 
ATOM     21  H   UNL A   1      34.259  23.398  25.856  1.00  0.00     0.348 HD
BRANCH  20  22
ATOM     22  C   UNL A   1      35.516  24.229  24.547  1.00  0.00     0.299 C 
BRANCH  22  23
ATOM     23  C   UNL A   1      36.630  23.300  24.982  1.00  0.00     0.006 A 
ATOM     24  C   UNL A   1      37.625  23.750  25.863  1.00  0.00     0.009 A 
ATOM     25  C   UNL A   1      36.710  21.985  24.496  1.00  0.00     0.009 A 
ATOM     26  C   UNL A   1      38.658  22.900  26.256  1.00  0.00     0.001 A 
ATOM     27  C   UNL A   1      37.719  21.124  24.921  1.00  0.00     0.001 A 
ATOM     28  C   UNL A   1      38.698  21.589  25.790  1.00  0.00     0.000 A 
ENDBRANCH  22  23
ENDBRANCH  20  22
ENDBRANCH  14  15
ENDBRANCH  12  14
ENDBRANCH   8  10
ENDBRANCH   2   4
ENDBRANCH   1   2
BRANCH   1  29
ATOM     29  C   UNL A   1      31.891  28.872  26.782  1.00  0.00     0.275 C 
BRANCH  29  30
ATOM     30  C   UNL A   1      33.286  28.407  27.200  1.00  0.00     0.275 C 
BRANCH  30  31
ATOM     31  O   UNL A   1      34.276  29.369  26.807  1.00  0.00    -0.458 OA
BRANCH  31  32
ATOM     32  C   UNL A   1      34.710  30.190  27.796  1.00  0.00     0.338 C 
ATOM     33  O   UNL A   1      34.107  31.107  28.321  1.00  0.00    -0.246 OA
BRANCH  32  34
ATOM     34  C   UNL A   1      36.095  29.842  28.158  1.00  0.00     0.060 A 
ATOM     35  C   UNL A   1      36.393  29.365  29.431  1.00  0.00     0.016 A 
ATOM     36  C   UNL A   1      37.115  30.062  27.233  1.00  0.00     0.016 A 
ATOM     37  C   UNL A   1      37.717  29.140  29.799  1.00  0.00     0.010 A 
ATOM     38  C   UNL A   1      38.433  29.742  27.568  1.00  0.00     0.010 A 
ATOM     39  C   UNL A   1      38.747  29.275  28.855  1.00  0.00    -0.014 A 
BRANCH  39  40
ATOM     40  C   UNL A   1      40.131  28.842  29.184  1.00  0.00     0.031 A 
ATOM     41  C   UNL A   1      41.073  29.747  29.927  1.00  0.00     0.074 A 
ATOM     42  C   UNL A   1      40.546  27.630  28.764  1.00  0.00     0.049 A 
ATOM     43  N   UNL A   1      42.356  29.601  30.147  1.00  0.00    -0.248 NA
ATOM     44  C   UNL A   1      40.507  30.985  30.482  1.00  0.00     0.031 C 
ATOM     45  C   UNL A   1      39.722  26.663  28.033  1.00  0.00     0.029 A 
ATOM     46  N   UNL A   1      41.757  26.998  28.891  1.00  0.00    -0.354 N 
ATOM     47  C   UNL A   1      42.759  30.745  30.823  1.00  0.00     0.074 A 
ATOM     48  C   UNL A   1      41.585  31.579  30.978  1.00  0.00     0.031 C 
ATOM     49  C   UNL A   1      40.430  25.546  27.822  1.00  0.00     0.029 A 
ATOM     50  C   UNL A   1      41.786  25.752  28.313  1.00  0.00     0.049 A 
ATOM     51  H   UNL A   1      42.529  27.398  29.350  1.00  0.00     0.167 HD
ATOM     52  C   UNL A   1      44.000  31.066  31.266  1.00  0.00     0.037 A 
ATOM     53  C   UNL A   1      42.801  24.883  28.152  1.00  0.00     0.037 A 
ATOM     54  C   UNL A   1      45.151  30.209  31.133  1.00  0.00     0.049 A 
ATOM     55  C   UNL A   1      44.163  25.269  28.641  1.00  0.00     0.074 A 
ATOM     56  C   UNL A   1      46.448  30.432  31.562  1.00  0.00     0.029 A 
ATOM     57  N   UNL A   1      45.140  28.960  30.531  1.00  0.00    -0.354 N 
ATOM     58  N   UNL A   1      44.537  26.368  29.250  1.00  0.00    -0.248 NA
ATOM     59  C   UNL A   1      45.247  24.310  28.401  1.00  0.00     0.031 C 
ATOM     60  C   UNL A   1      47.229  29.332  31.189  1.00  0.00     0.029 A 
ATOM     61  C   UNL A   1      46.409  28.405  30.563  1.00  0.00     0.049 A 
ATOM     62  H   UNL A   1      44.346  28.530  30.137  1.00  0.00     0.167 HD
ATOM     63  C   UNL A   1      45.900  26.234  29.467  1.00  0.00     0.074 A 
ATOM     64  C   UNL A   1      46.280  24.934  28.949  1.00  0.00     0.031 C 
ATOM     65  C   UNL A   1      46.763  27.112  30.034  1.00  0.00     0.037 A 
BRANCH  52  66
ATOM     66  C   UNL A   1      44.185  32.411  31.909  1.00  0.00     0.057 A 
ATOM     67  C   UNL A   1      44.509  33.555  31.168  1.00  0.00     0.134 A 
ATOM     68  C   UNL A   1      43.995  32.571  33.290  1.00  0.00     0.134 A 
ATOM     69  F   UNL A   1      44.714  33.472  29.846  1.00  0.00    -0.206 F 
ATOM     70  C   UNL A   1      44.655  34.804  31.779  1.00  0.00     0.040 A 
ATOM     71  C   UNL A   1      44.117  33.818  33.906  1.00  0.00     0.040 A 
ATOM     72  F   UNL A   1      43.677  31.519  34.059  1.00  0.00    -0.206 F 
ATOM     73  C   UNL A   1      44.453  34.938  33.150  1.00  0.00     0.006 A 
ENDBRANCH  52  66
BRANCH  53  74
ATOM     74  C   UNL A   1      42.561  23.589  27.466  1.00  0.00     0.057 A 
ATOM     75  C   UNL A   1      42.693  23.470  26.079  1.00  0.00     0.134 A 
ATOM     76  C   UNL A   1      42.229  22.432  28.184  1.00  0.00     0.134 A 
ATOM     77  F   UNL A   1      42.989  24.544  25.334  1.00  0.00    -0.206 F 
ATOM     78  C   UNL A   1      42.503  22.248  25.429  1.00  0.00     0.040 A 
ATOM     79  C   UNL A   1      42.065  21.199  27.551  1.00  0.00     0.040 A 
ATOM     80  F   UNL A   1      42.094  22.478  29.518  1.00  0.00    -0.206 F 
ATOM     81  C   UNL A   1      42.198  21.106  26.168  1.00  0.00     0.006 A 
ENDBRANCH  53  74
BRANCH  65  82
ATOM     82  C   UNL A   1      48.192  26.677  30.132  1.00  0.00     0.057 A 
ATOM     83  C   UNL A   1      48.649  25.894  31.199  1.00  0.00     0.134 A 
ATOM     84  C   UNL A   1      49.117  27.035  29.145  1.00  0.00     0.134 A 
ATOM     85  F   UNL A   1      47.813  25.535  32.186  1.00  0.00    -0.206 F 
ATOM     86  C   UNL A   1      49.984  25.501  31.293  1.00  0.00     0.040 A 
ATOM     87  C   UNL A   1      50.449  26.630  29.216  1.00  0.00     0.040 A 
ATOM     88  F   UNL A   1      48.739  27.781  28.096  1.00  0.00    -0.206 F 
ATOM     89  C   UNL A   1      50.887  25.866  30.295  1.00  0.00     0.006 A 
ENDBRANCH  65  82
ENDBRANCH  39  40
ENDBRANCH  32  34
ENDBRANCH  31  32
ENDBRANCH  30  31
ENDBRANCH  29  30
ENDBRANCH   1  29
TORSDOF 16
ENDMDL
