MODEL 1
REMARK VINA RESULT:     -11.5      0.000      0.000
REMARK SMILES CC(=O)c1ccc(N2/C(=[NH+]/C(=O)CCC(=O)OCCOC(=O)c3ccc(-c4c5nc(c(-c6c(F)cccc6F)c6ccc([nH]6)c(-c6c(F)cccc6F)c6nc(c(-c7c(F)cccc7F)c7ccc4[nH]7)C=C6)C=C5)cc3)S[C@H]3CS(=O)(=O)C[C@@H]32)cc1
REMARK SMILES IDX 18 1 17 2 15 3 16 4 14 5 13 6 11 7 8 8 9 9 84 10 10 11 77 12
REMARK SMILES IDX 78 13 83 14 79 16 80 17 12 18 81 19 82 20 7 21 4 22 5 23
REMARK SMILES IDX 86 24 6 25 85 26 2 27 1 28 3 29 19 30 20 31 21 32 22 33
REMARK SMILES IDX 23 34 24 35 76 36 25 37 75 38 26 39 27 40 28 41 69 42 29 43
REMARK SMILES IDX 74 44 68 45 70 46 30 47 73 48 67 49 66 50 31 52 57 53 40 54
REMARK SMILES IDX 56 55 41 56 44 57 55 58 71 59 42 60 43 61 54 63 72 64 45 65
REMARK SMILES IDX 32 66 33 67 38 68 34 69 35 70 37 71 39 72 36 73 58 74 59 75
REMARK SMILES IDX 64 76 60 77 61 78 63 79 65 80 62 81 46 82 47 83 52 84 48 85
REMARK SMILES IDX 49 86 51 87 53 88 50 89
REMARK H PARENT 10 15 70 51 44 62
REMARK Flexibility Score: inf
ROOT
ATOM      1  C   UNL A   1      34.417  33.846  29.552  1.00  0.00     0.274 C 
ENDROOT
BRANCH   1   2
ATOM      2  O   UNL A   1      34.013  32.667  28.838  1.00  0.00    -0.462 OA
BRANCH   2   3
ATOM      3  C   UNL A   1      33.009  32.793  27.940  1.00  0.00     0.306 C 
ATOM      4  O   UNL A   1      32.389  33.822  27.706  1.00  0.00    -0.252 OA
BRANCH   3   5
ATOM      5  C   UNL A   1      32.744  31.482  27.244  1.00  0.00     0.135 C 
BRANCH   5   6
ATOM      6  C   UNL A   1      34.021  30.681  27.062  1.00  0.00     0.139 C 
BRANCH   6   7
ATOM      7  C   UNL A   1      33.787  29.198  26.849  1.00  0.00     0.308 C 
ATOM      8  N   UNL A   1      32.185  27.248  24.191  1.00  0.00    -0.217 N 
ATOM      9  C   UNL A   1      33.012  27.722  25.214  1.00  0.00     0.319 C 
ATOM     10  C   UNL A   1      32.249  25.802  24.008  1.00  0.00     0.212 C 
ATOM     11  N   UNL A   1      32.978  28.883  25.780  1.00  0.00    -0.204 N 
ATOM     12  S   UNL A   1      34.194  26.415  25.608  1.00  0.00    -0.029 SA
ATOM     13  C   UNL A   1      33.739  25.489  24.138  1.00  0.00     0.120 C 
ATOM     14  C   UNL A   1      31.861  25.184  22.682  1.00  0.00     0.188 C 
ATOM     15  H   UNL A   1      32.355  29.563  25.437  1.00  0.00     0.316 HD
ATOM     16  C   UNL A   1      33.839  23.987  24.097  1.00  0.00     0.156 C 
ATOM     17  S   UNL A   1      32.708  23.597  22.751  1.00  0.00     0.155 S 
ATOM     18  O   UNL A   1      34.230  28.409  27.682  1.00  0.00    -0.247 OA
ATOM     19  O   UNL A   1      33.474  23.444  21.533  1.00  0.00    -0.229 OA
ATOM     20  O   UNL A   1      31.771  22.596  23.213  1.00  0.00    -0.229 OA
BRANCH   8  21
ATOM     21  C   UNL A   1      31.208  27.954  23.488  1.00  0.00     0.128 A 
ATOM     22  C   UNL A   1      29.205  29.612  22.360  1.00  0.00     0.018 A 
ATOM     23  C   UNL A   1      30.543  29.736  21.967  1.00  0.00     0.016 A 
ATOM     24  C   UNL A   1      28.869  28.651  23.316  1.00  0.00     0.016 A 
ATOM     25  C   UNL A   1      31.535  28.920  22.531  1.00  0.00     0.052 A 
ATOM     26  C   UNL A   1      29.863  27.830  23.866  1.00  0.00     0.052 A 
BRANCH  22  27
ATOM     27  C   UNL A   1      28.184  30.513  21.741  1.00  0.00     0.159 C 
ATOM     28  C   UNL A   1      27.552  31.593  22.581  1.00  0.00     0.093 C 
ATOM     29  O   UNL A   1      27.881  30.367  20.560  1.00  0.00    -0.295 OA
ENDBRANCH  22  27
ENDBRANCH   8  21
ENDBRANCH   6   7
ENDBRANCH   5   6
ENDBRANCH   3   5
ENDBRANCH   2   3
ENDBRANCH   1   2
BRANCH   1  30
ATOM     30  C   UNL A   1      34.376  33.577  31.058  1.00  0.00     0.275 C 
BRANCH  30  31
ATOM     31  O   UNL A   1      34.916  32.265  31.292  1.00  0.00    -0.458 OA
BRANCH  31  32
ATOM     32  C   UNL A   1      35.874  32.165  32.238  1.00  0.00     0.338 C 
ATOM     33  O   UNL A   1      35.778  32.343  33.436  1.00  0.00    -0.246 OA
BRANCH  32  34
ATOM     34  C   UNL A   1      37.069  31.625  31.578  1.00  0.00     0.060 A 
ATOM     35  C   UNL A   1      38.085  31.085  32.371  1.00  0.00     0.016 A 
ATOM     36  C   UNL A   1      37.169  31.637  30.187  1.00  0.00     0.016 A 
ATOM     37  C   UNL A   1      39.216  30.547  31.769  1.00  0.00     0.010 A 
ATOM     38  C   UNL A   1      38.302  31.093  29.585  1.00  0.00     0.010 A 
ATOM     39  C   UNL A   1      39.333  30.552  30.373  1.00  0.00    -0.014 A 
BRANCH  39  40
ATOM     40  C   UNL A   1      40.563  30.032  29.739  1.00  0.00     0.031 A 
ATOM     41  C   UNL A   1      41.743  30.939  29.563  1.00  0.00     0.074 A 
ATOM     42  C   UNL A   1      40.616  28.748  29.342  1.00  0.00     0.049 A 
ATOM     43  N   UNL A   1      42.899  30.694  29.004  1.00  0.00    -0.248 NA
ATOM     44  C   UNL A   1      41.600  32.309  30.081  1.00  0.00     0.031 C 
ATOM     45  C   UNL A   1      39.534  27.774  29.488  1.00  0.00     0.029 A 
ATOM     46  N   UNL A   1      41.623  28.044  28.734  1.00  0.00    -0.354 N 
ATOM     47  C   UNL A   1      43.619  31.878  29.095  1.00  0.00     0.074 A 
ATOM     48  C   UNL A   1      42.759  32.850  29.736  1.00  0.00     0.031 C 
ATOM     49  C   UNL A   1      39.938  26.595  28.986  1.00  0.00     0.029 A 
ATOM     50  C   UNL A   1      41.290  26.741  28.456  1.00  0.00     0.049 A 
ATOM     51  H   UNL A   1      42.500  28.435  28.517  1.00  0.00     0.167 HD
ATOM     52  C   UNL A   1      44.887  32.125  28.689  1.00  0.00     0.037 A 
ATOM     53  C   UNL A   1      41.996  25.782  27.829  1.00  0.00     0.037 A 
ATOM     54  C   UNL A   1      45.734  31.151  28.053  1.00  0.00     0.049 A 
ATOM     55  C   UNL A   1      43.384  26.098  27.343  1.00  0.00     0.074 A 
ATOM     56  C   UNL A   1      47.038  31.293  27.613  1.00  0.00     0.029 A 
ATOM     57  N   UNL A   1      45.354  29.848  27.762  1.00  0.00    -0.354 N 
ATOM     58  N   UNL A   1      44.063  27.215  27.450  1.00  0.00    -0.248 NA
ATOM     59  C   UNL A   1      44.103  25.020  26.651  1.00  0.00     0.031 C 
ATOM     60  C   UNL A   1      47.433  30.090  27.018  1.00  0.00     0.029 A 
ATOM     61  C   UNL A   1      46.391  29.182  27.129  1.00  0.00     0.049 A 
ATOM     62  H   UNL A   1      44.478  29.454  27.975  1.00  0.00     0.167 HD
ATOM     63  C   UNL A   1      45.293  26.971  26.855  1.00  0.00     0.074 A 
ATOM     64  C   UNL A   1      45.274  25.592  26.410  1.00  0.00     0.031 C 
ATOM     65  C   UNL A   1      46.345  27.811  26.689  1.00  0.00     0.037 A 
BRANCH  52  66
ATOM     66  C   UNL A   1      45.418  33.512  28.900  1.00  0.00     0.057 A 
ATOM     67  C   UNL A   1      46.104  33.872  30.067  1.00  0.00     0.134 A 
ATOM     68  C   UNL A   1      45.256  34.496  27.917  1.00  0.00     0.134 A 
ATOM     69  F   UNL A   1      46.278  32.982  31.056  1.00  0.00    -0.206 F 
ATOM     70  C   UNL A   1      46.589  35.167  30.259  1.00  0.00     0.040 A 
ATOM     71  C   UNL A   1      45.758  35.787  28.086  1.00  0.00     0.040 A 
ATOM     72  F   UNL A   1      44.610  34.217  26.774  1.00  0.00    -0.206 F 
ATOM     73  C   UNL A   1      46.421  36.128  29.264  1.00  0.00     0.006 A 
ENDBRANCH  52  66
BRANCH  53  74
ATOM     74  C   UNL A   1      41.403  24.437  27.623  1.00  0.00     0.057 A 
ATOM     75  C   UNL A   1      40.421  24.221  26.650  1.00  0.00     0.134 A 
ATOM     76  C   UNL A   1      41.798  23.338  28.396  1.00  0.00     0.134 A 
ATOM     77  F   UNL A   1      39.985  25.238  25.893  1.00  0.00    -0.206 F 
ATOM     78  C   UNL A   1      39.844  22.964  26.461  1.00  0.00     0.040 A 
ATOM     79  C   UNL A   1      41.247  22.071  28.201  1.00  0.00     0.040 A 
ATOM     80  F   UNL A   1      42.736  23.480  29.345  1.00  0.00    -0.206 F 
ATOM     81  C   UNL A   1      40.261  21.883  27.235  1.00  0.00     0.006 A 
ENDBRANCH  53  74
BRANCH  65  82
ATOM     82  C   UNL A   1      47.561  27.249  26.013  1.00  0.00     0.057 A 
ATOM     83  C   UNL A   1      48.580  26.617  26.737  1.00  0.00     0.134 A 
ATOM     84  C   UNL A   1      47.703  27.323  24.622  1.00  0.00     0.134 A 
ATOM     85  F   UNL A   1      48.509  26.527  28.074  1.00  0.00    -0.206 F 
ATOM     86  C   UNL A   1      49.713  26.104  26.103  1.00  0.00     0.040 A 
ATOM     87  C   UNL A   1      48.818  26.790  23.974  1.00  0.00     0.040 A 
ATOM     88  F   UNL A   1      46.758  27.907  23.870  1.00  0.00    -0.206 F 
ATOM     89  C   UNL A   1      49.831  26.186  24.717  1.00  0.00     0.006 A 
ENDBRANCH  65  82
ENDBRANCH  39  40
ENDBRANCH  32  34
ENDBRANCH  31  32
ENDBRANCH  30  31
ENDBRANCH   1  30
TORSDOF 15
ENDMDL
MODEL 2
REMARK VINA RESULT:     -11.5      3.866      8.331
REMARK SMILES CC(=O)c1ccc(N2/C(=[NH+]/C(=O)CCC(=O)OCCOC(=O)c3ccc(-c4c5nc(c(-c6c(F)cccc6F)c6ccc([nH]6)c(-c6c(F)cccc6F)c6nc(c(-c7c(F)cccc7F)c7ccc4[nH]7)C=C6)C=C5)cc3)S[C@H]3CS(=O)(=O)C[C@@H]32)cc1
REMARK SMILES IDX 18 1 17 2 15 3 16 4 14 5 13 6 11 7 8 8 9 9 84 10 10 11 77 12
REMARK SMILES IDX 78 13 83 14 79 16 80 17 12 18 81 19 82 20 7 21 4 22 5 23
REMARK SMILES IDX 86 24 6 25 85 26 2 27 1 28 3 29 19 30 20 31 21 32 22 33
REMARK SMILES IDX 23 34 24 35 76 36 25 37 75 38 26 39 27 40 28 41 69 42 29 43
REMARK SMILES IDX 74 44 68 45 70 46 30 47 73 48 67 49 66 50 31 52 57 53 40 54
REMARK SMILES IDX 56 55 41 56 44 57 55 58 71 59 42 60 43 61 54 63 72 64 45 65
REMARK SMILES IDX 32 66 33 67 38 68 34 69 35 70 37 71 39 72 36 73 58 74 59 75
REMARK SMILES IDX 64 76 60 77 61 78 63 79 65 80 62 81 46 82 47 83 52 84 48 85
REMARK SMILES IDX 49 86 51 87 53 88 50 89
REMARK H PARENT 10 15 70 51 44 62
REMARK Flexibility Score: inf
ROOT
ATOM      1  C   UNL A   1      31.526  28.547  25.328  1.00  0.00     0.274 C 
ENDROOT
BRANCH   1   2
ATOM      2  O   UNL A   1      30.715  28.316  24.164  1.00  0.00    -0.462 OA
BRANCH   2   3
ATOM      3  C   UNL A   1      31.307  27.740  23.093  1.00  0.00     0.306 C 
ATOM      4  O   UNL A   1      30.805  27.618  21.984  1.00  0.00    -0.252 OA
BRANCH   3   5
ATOM      5  C   UNL A   1      32.693  27.262  23.439  1.00  0.00     0.135 C 
BRANCH   5   6
ATOM      6  C   UNL A   1      33.425  26.741  22.214  1.00  0.00     0.139 C 
BRANCH   6   7
ATOM      7  C   UNL A   1      33.339  25.237  22.043  1.00  0.00     0.308 C 
ATOM      8  N   UNL A   1      34.488  22.395  24.051  1.00  0.00    -0.217 N 
ATOM      9  C   UNL A   1      33.781  23.271  23.221  1.00  0.00     0.319 C 
ATOM     10  C   UNL A   1      34.118  20.994  23.875  1.00  0.00     0.212 C 
ATOM     11  N   UNL A   1      34.061  24.504  22.957  1.00  0.00    -0.204 N 
ATOM     12  S   UNL A   1      32.349  22.377  22.580  1.00  0.00    -0.029 SA
ATOM     13  C   UNL A   1      32.596  21.037  23.751  1.00  0.00     0.120 C 
ATOM     14  C   UNL A   1      34.365  19.996  24.985  1.00  0.00     0.188 C 
ATOM     15  H   UNL A   1      34.814  24.932  23.424  1.00  0.00     0.316 HD
ATOM     16  C   UNL A   1      32.179  19.627  23.427  1.00  0.00     0.156 C 
ATOM     17  S   UNL A   1      33.201  18.687  24.573  1.00  0.00     0.155 S 
ATOM     18  O   UNL A   1      32.738  24.793  21.066  1.00  0.00    -0.247 OA
ATOM     19  O   UNL A   1      32.419  18.393  25.755  1.00  0.00    -0.229 OA
ATOM     20  O   UNL A   1      33.904  17.664  23.831  1.00  0.00    -0.229 OA
BRANCH   8  21
ATOM     21  C   UNL A   1      35.592  22.684  24.854  1.00  0.00     0.128 A 
ATOM     22  C   UNL A   1      37.953  23.489  26.201  1.00  0.00     0.018 A 
ATOM     23  C   UNL A   1      36.713  24.054  26.526  1.00  0.00     0.016 A 
ATOM     24  C   UNL A   1      38.008  22.515  25.202  1.00  0.00     0.016 A 
ATOM     25  C   UNL A   1      35.547  23.660  25.854  1.00  0.00     0.052 A 
ATOM     26  C   UNL A   1      36.836  22.116  24.543  1.00  0.00     0.052 A 
BRANCH  22  27
ATOM     27  C   UNL A   1      39.171  23.951  26.935  1.00  0.00     0.159 C 
ATOM     28  C   UNL A   1      40.232  22.945  27.304  1.00  0.00     0.093 C 
ATOM     29  O   UNL A   1      39.294  25.139  27.222  1.00  0.00    -0.295 OA
ENDBRANCH  22  27
ENDBRANCH   8  21
ENDBRANCH   6   7
ENDBRANCH   5   6
ENDBRANCH   3   5
ENDBRANCH   2   3
ENDBRANCH   1   2
BRANCH   1  30
ATOM     30  C   UNL A   1      31.735  30.050  25.521  1.00  0.00     0.275 C 
BRANCH  30  31
ATOM     31  O   UNL A   1      33.039  30.250  26.092  1.00  0.00    -0.458 OA
BRANCH  31  32
ATOM     32  C   UNL A   1      33.190  31.326  26.894  1.00  0.00     0.338 C 
ATOM     33  O   UNL A   1      32.411  32.235  27.098  1.00  0.00    -0.246 OA
BRANCH  32  34
ATOM     34  C   UNL A   1      34.441  31.128  27.638  1.00  0.00     0.060 A 
ATOM     35  C   UNL A   1      34.765  29.840  28.073  1.00  0.00     0.016 A 
ATOM     36  C   UNL A   1      35.291  32.207  27.883  1.00  0.00     0.016 A 
ATOM     37  C   UNL A   1      35.953  29.623  28.758  1.00  0.00     0.010 A 
ATOM     38  C   UNL A   1      36.485  31.987  28.567  1.00  0.00     0.010 A 
ATOM     39  C   UNL A   1      36.818  30.696  29.013  1.00  0.00    -0.014 A 
BRANCH  39  40
ATOM     40  C   UNL A   1      38.053  30.471  29.794  1.00  0.00     0.031 A 
ATOM     41  C   UNL A   1      39.183  29.700  29.181  1.00  0.00     0.074 A 
ATOM     42  C   UNL A   1      38.156  30.972  31.038  1.00  0.00     0.049 A 
ATOM     43  N   UNL A   1      40.333  29.363  29.702  1.00  0.00    -0.248 NA
ATOM     44  C   UNL A   1      38.990  29.243  27.796  1.00  0.00     0.031 C 
ATOM     45  C   UNL A   1      37.126  31.756  31.719  1.00  0.00     0.029 A 
ATOM     46  N   UNL A   1      39.178  30.894  31.949  1.00  0.00    -0.354 N 
ATOM     47  C   UNL A   1      40.999  28.648  28.715  1.00  0.00     0.074 A 
ATOM     48  C   UNL A   1      40.111  28.574  27.574  1.00  0.00     0.031 C 
ATOM     49  C   UNL A   1      37.571  32.092  32.942  1.00  0.00     0.029 A 
ATOM     50  C   UNL A   1      38.899  31.519  33.139  1.00  0.00     0.049 A 
ATOM     51  H   UNL A   1      40.029  30.434  31.766  1.00  0.00     0.167 HD
ATOM     52  C   UNL A   1      42.240  28.112  28.757  1.00  0.00     0.037 A 
ATOM     53  C   UNL A   1      39.632  31.604  34.265  1.00  0.00     0.037 A 
ATOM     54  C   UNL A   1      43.115  28.191  29.897  1.00  0.00     0.049 A 
ATOM     55  C   UNL A   1      40.989  30.956  34.301  1.00  0.00     0.074 A 
ATOM     56  C   UNL A   1      44.397  27.692  30.041  1.00  0.00     0.029 A 
ATOM     57  N   UNL A   1      42.789  28.809  31.097  1.00  0.00    -0.354 N 
ATOM     58  N   UNL A   1      41.617  30.297  33.357  1.00  0.00    -0.248 NA
ATOM     59  C   UNL A   1      41.739  31.064  35.560  1.00  0.00     0.031 C 
ATOM     60  C   UNL A   1      44.832  27.972  31.341  1.00  0.00     0.029 A 
ATOM     61  C   UNL A   1      43.838  28.685  31.993  1.00  0.00     0.049 A 
ATOM     62  H   UNL A   1      41.939  29.268  31.283  1.00  0.00     0.167 HD
ATOM     63  C   UNL A   1      42.840  29.927  33.899  1.00  0.00     0.074 A 
ATOM     64  C   UNL A   1      42.874  30.455  35.248  1.00  0.00     0.031 C 
ATOM     65  C   UNL A   1      43.846  29.213  33.334  1.00  0.00     0.037 A 
BRANCH  52  66
ATOM     66  C   UNL A   1      42.711  27.371  27.540  1.00  0.00     0.057 A 
ATOM     67  C   UNL A   1      42.648  25.974  27.454  1.00  0.00     0.134 A 
ATOM     68  C   UNL A   1      43.220  28.063  26.435  1.00  0.00     0.134 A 
ATOM     69  F   UNL A   1      42.188  25.249  28.485  1.00  0.00    -0.206 F 
ATOM     70  C   UNL A   1      43.095  25.291  26.321  1.00  0.00     0.040 A 
ATOM     71  C   UNL A   1      43.647  27.394  25.287  1.00  0.00     0.040 A 
ATOM     72  F   UNL A   1      43.306  29.402  26.451  1.00  0.00    -0.206 F 
ATOM     73  C   UNL A   1      43.592  26.003  25.231  1.00  0.00     0.006 A 
ENDBRANCH  52  66
BRANCH  53  74
ATOM     74  C   UNL A   1      39.098  32.324  35.447  1.00  0.00     0.057 A 
ATOM     75  C   UNL A   1      39.358  33.685  35.644  1.00  0.00     0.134 A 
ATOM     76  C   UNL A   1      38.321  31.670  36.411  1.00  0.00     0.134 A 
ATOM     77  F   UNL A   1      40.114  34.361  34.767  1.00  0.00    -0.206 F 
ATOM     78  C   UNL A   1      38.876  34.366  36.763  1.00  0.00     0.040 A 
ATOM     79  C   UNL A   1      37.812  32.345  37.521  1.00  0.00     0.040 A 
ATOM     80  F   UNL A   1      38.035  30.366  36.280  1.00  0.00    -0.206 F 
ATOM     81  C   UNL A   1      38.095  33.697  37.703  1.00  0.00     0.006 A 
ENDBRANCH  53  74
BRANCH  65  82
ATOM     82  C   UNL A   1      45.067  28.982  34.174  1.00  0.00     0.057 A 
ATOM     83  C   UNL A   1      45.202  27.846  34.980  1.00  0.00     0.134 A 
ATOM     84  C   UNL A   1      46.126  29.898  34.161  1.00  0.00     0.134 A 
ATOM     85  F   UNL A   1      44.216  26.938  35.047  1.00  0.00    -0.206 F 
ATOM     86  C   UNL A   1      46.337  27.641  35.767  1.00  0.00     0.040 A 
ATOM     87  C   UNL A   1      47.277  29.692  34.923  1.00  0.00     0.040 A 
ATOM     88  F   UNL A   1      46.063  31.003  33.402  1.00  0.00    -0.206 F 
ATOM     89  C   UNL A   1      47.380  28.564  35.735  1.00  0.00     0.006 A 
ENDBRANCH  65  82
ENDBRANCH  39  40
ENDBRANCH  32  34
ENDBRANCH  31  32
ENDBRANCH  30  31
ENDBRANCH   1  30
TORSDOF 15
ENDMDL
MODEL 3
REMARK VINA RESULT:     -11.4      3.870      7.356
REMARK SMILES CC(=O)c1ccc(N2/C(=[NH+]/C(=O)CCC(=O)OCCOC(=O)c3ccc(-c4c5nc(c(-c6c(F)cccc6F)c6ccc([nH]6)c(-c6c(F)cccc6F)c6nc(c(-c7c(F)cccc7F)c7ccc4[nH]7)C=C6)C=C5)cc3)S[C@H]3CS(=O)(=O)C[C@@H]32)cc1
REMARK SMILES IDX 18 1 17 2 15 3 16 4 14 5 13 6 11 7 8 8 9 9 84 10 10 11 77 12
REMARK SMILES IDX 78 13 83 14 79 16 80 17 12 18 81 19 82 20 7 21 4 22 5 23
REMARK SMILES IDX 86 24 6 25 85 26 2 27 1 28 3 29 19 30 20 31 21 32 22 33
REMARK SMILES IDX 23 34 24 35 76 36 25 37 75 38 26 39 27 40 28 41 69 42 29 43
REMARK SMILES IDX 74 44 68 45 70 46 30 47 73 48 67 49 66 50 31 52 57 53 40 54
REMARK SMILES IDX 56 55 41 56 44 57 55 58 71 59 42 60 43 61 54 63 72 64 45 65
REMARK SMILES IDX 32 66 33 67 38 68 34 69 35 70 37 71 39 72 36 73 58 74 59 75
REMARK SMILES IDX 64 76 60 77 61 78 63 79 65 80 62 81 46 82 47 83 52 84 48 85
REMARK SMILES IDX 49 86 51 87 53 88 50 89
REMARK H PARENT 10 15 70 51 44 62
REMARK Flexibility Score: inf
ROOT
ATOM      1  C   UNL A   1      31.467  29.014  25.230  1.00  0.00     0.274 C 
ENDROOT
BRANCH   1   2
ATOM      2  O   UNL A   1      31.078  29.117  23.850  1.00  0.00    -0.462 OA
BRANCH   2   3
ATOM      3  C   UNL A   1      31.365  28.072  23.040  1.00  0.00     0.306 C 
ATOM      4  O   UNL A   1      30.751  27.770  22.025  1.00  0.00    -0.252 OA
BRANCH   3   5
ATOM      5  C   UNL A   1      32.561  27.310  23.550  1.00  0.00     0.135 C 
BRANCH   5   6
ATOM      6  C   UNL A   1      33.414  26.784  22.409  1.00  0.00     0.139 C 
BRANCH   6   7
ATOM      7  C   UNL A   1      33.310  25.285  22.208  1.00  0.00     0.308 C 
ATOM      8  N   UNL A   1      34.513  22.390  24.108  1.00  0.00    -0.217 N 
ATOM      9  C   UNL A   1      33.782  23.289  23.325  1.00  0.00     0.319 C 
ATOM     10  C   UNL A   1      34.126  20.997  23.915  1.00  0.00     0.212 C 
ATOM     11  N   UNL A   1      34.061  24.526  23.078  1.00  0.00    -0.204 N 
ATOM     12  S   UNL A   1      32.320  22.420  22.719  1.00  0.00    -0.029 SA
ATOM     13  C   UNL A   1      32.601  21.052  23.850  1.00  0.00     0.120 C 
ATOM     14  C   UNL A   1      34.407  19.972  24.993  1.00  0.00     0.188 C 
ATOM     15  H   UNL A   1      34.833  24.939  23.526  1.00  0.00     0.316 HD
ATOM     16  C   UNL A   1      32.161  19.653  23.510  1.00  0.00     0.156 C 
ATOM     17  S   UNL A   1      33.218  18.680  24.597  1.00  0.00     0.155 S 
ATOM     18  O   UNL A   1      32.670  24.866  21.245  1.00  0.00    -0.247 OA
ATOM     19  O   UNL A   1      32.479  18.365  25.800  1.00  0.00    -0.229 OA
ATOM     20  O   UNL A   1      33.886  17.670  23.805  1.00  0.00    -0.229 OA
BRANCH   8  21
ATOM     21  C   UNL A   1      35.648  22.655  24.875  1.00  0.00     0.128 A 
ATOM     22  C   UNL A   1      38.076  23.392  26.139  1.00  0.00     0.018 A 
ATOM     23  C   UNL A   1      36.873  24.029  26.470  1.00  0.00     0.016 A 
ATOM     24  C   UNL A   1      38.061  22.380  25.177  1.00  0.00     0.016 A 
ATOM     25  C   UNL A   1      35.673  23.668  25.838  1.00  0.00     0.052 A 
ATOM     26  C   UNL A   1      36.856  22.015  24.559  1.00  0.00     0.052 A 
BRANCH  22  27
ATOM     27  C   UNL A   1      39.332  23.820  26.828  1.00  0.00     0.159 C 
ATOM     28  C   UNL A   1      39.313  25.056  27.690  1.00  0.00     0.093 C 
ATOM     29  O   UNL A   1      40.357  23.157  26.689  1.00  0.00    -0.295 OA
ENDBRANCH  22  27
ENDBRANCH   8  21
ENDBRANCH   6   7
ENDBRANCH   5   6
ENDBRANCH   3   5
ENDBRANCH   2   3
ENDBRANCH   1   2
BRANCH   1  30
ATOM     30  C   UNL A   1      31.713  30.410  25.802  1.00  0.00     0.275 C 
BRANCH  30  31
ATOM     31  O   UNL A   1      32.938  30.376  26.554  1.00  0.00    -0.458 OA
BRANCH  31  32
ATOM     32  C   UNL A   1      33.326  31.532  27.133  1.00  0.00     0.338 C 
ATOM     33  O   UNL A   1      32.714  32.578  27.223  1.00  0.00    -0.246 OA
BRANCH  32  34
ATOM     34  C   UNL A   1      34.601  31.262  27.808  1.00  0.00     0.060 A 
ATOM     35  C   UNL A   1      34.865  29.961  28.245  1.00  0.00     0.016 A 
ATOM     36  C   UNL A   1      35.532  32.285  27.987  1.00  0.00     0.016 A 
ATOM     37  C   UNL A   1      36.074  29.674  28.866  1.00  0.00     0.010 A 
ATOM     38  C   UNL A   1      36.747  31.995  28.607  1.00  0.00     0.010 A 
ATOM     39  C   UNL A   1      37.020  30.691  29.055  1.00  0.00    -0.014 A 
BRANCH  39  40
ATOM     40  C   UNL A   1      38.281  30.394  29.768  1.00  0.00     0.031 A 
ATOM     41  C   UNL A   1      38.465  30.881  31.174  1.00  0.00     0.074 A 
ATOM     42  C   UNL A   1      39.241  29.681  29.154  1.00  0.00     0.049 A 
ATOM     43  N   UNL A   1      39.500  30.759  31.962  1.00  0.00    -0.248 NA
ATOM     44  C   UNL A   1      37.332  31.605  31.772  1.00  0.00     0.031 C 
ATOM     45  C   UNL A   1      39.155  29.141  27.798  1.00  0.00     0.029 A 
ATOM     46  N   UNL A   1      40.479  29.289  29.595  1.00  0.00    -0.354 N 
ATOM     47  C   UNL A   1      39.150  31.397  33.145  1.00  0.00     0.074 A 
ATOM     48  C   UNL A   1      37.817  31.930  32.960  1.00  0.00     0.031 C 
ATOM     49  C   UNL A   1      40.292  28.482  27.517  1.00  0.00     0.029 A 
ATOM     50  C   UNL A   1      41.195  28.583  28.659  1.00  0.00     0.049 A 
ATOM     51  H   UNL A   1      40.822  29.494  30.495  1.00  0.00     0.167 HD
ATOM     52  C   UNL A   1      39.873  31.517  34.283  1.00  0.00     0.037 A 
ATOM     53  C   UNL A   1      42.446  28.089  28.718  1.00  0.00     0.037 A 
ATOM     54  C   UNL A   1      41.198  30.982  34.456  1.00  0.00     0.049 A 
ATOM     55  C   UNL A   1      43.246  28.280  29.977  1.00  0.00     0.074 A 
ATOM     56  C   UNL A   1      42.014  31.037  35.571  1.00  0.00     0.029 A 
ATOM     57  N   UNL A   1      41.904  30.297  33.477  1.00  0.00    -0.354 N 
ATOM     58  N   UNL A   1      42.899  28.869  31.097  1.00  0.00    -0.248 NA
ATOM     59  C   UNL A   1      44.611  27.736  29.981  1.00  0.00     0.031 C 
ATOM     60  C   UNL A   1      43.230  30.420  35.255  1.00  0.00     0.029 A 
ATOM     61  C   UNL A   1      43.154  29.941  33.956  1.00  0.00     0.049 A 
ATOM     62  H   UNL A   1      41.566  30.091  32.576  1.00  0.00     0.167 HD
ATOM     63  C   UNL A   1      43.993  28.753  31.943  1.00  0.00     0.074 A 
ATOM     64  C   UNL A   1      45.007  28.017  31.214  1.00  0.00     0.031 C 
ATOM     65  C   UNL A   1      44.149  29.215  33.209  1.00  0.00     0.037 A 
BRANCH  52  66
ATOM     66  C   UNL A   1      39.250  32.278  35.417  1.00  0.00     0.057 A 
ATOM     67  C   UNL A   1      38.423  31.654  36.359  1.00  0.00     0.134 A 
ATOM     68  C   UNL A   1      39.493  33.647  35.576  1.00  0.00     0.134 A 
ATOM     69  F   UNL A   1      38.136  30.347  36.254  1.00  0.00    -0.206 F 
ATOM     70  C   UNL A   1      37.842  32.370  37.408  1.00  0.00     0.040 A 
ATOM     71  C   UNL A   1      38.938  34.369  36.634  1.00  0.00     0.040 A 
ATOM     72  F   UNL A   1      40.277  34.305  34.709  1.00  0.00    -0.206 F 
ATOM     73  C   UNL A   1      38.103  33.731  37.549  1.00  0.00     0.006 A 
ENDBRANCH  52  66
BRANCH  53  74
ATOM     74  C   UNL A   1      43.018  27.373  27.551  1.00  0.00     0.057 A 
ATOM     75  C   UNL A   1      42.978  25.976  27.468  1.00  0.00     0.134 A 
ATOM     76  C   UNL A   1      43.622  28.065  26.494  1.00  0.00     0.134 A 
ATOM     77  F   UNL A   1      42.432  25.257  28.459  1.00  0.00    -0.206 F 
ATOM     78  C   UNL A   1      43.530  25.293  26.383  1.00  0.00     0.040 A 
ATOM     79  C   UNL A   1      44.156  27.396  25.392  1.00  0.00     0.040 A 
ATOM     80  F   UNL A   1      43.691  29.405  26.513  1.00  0.00    -0.206 F 
ATOM     81  C   UNL A   1      44.116  26.004  25.338  1.00  0.00     0.006 A 
ENDBRANCH  53  74
BRANCH  65  82
ATOM     82  C   UNL A   1      45.456  28.917  33.882  1.00  0.00     0.057 A 
ATOM     83  C   UNL A   1      46.539  29.802  33.811  1.00  0.00     0.134 A 
ATOM     84  C   UNL A   1      45.626  27.742  34.625  1.00  0.00     0.134 A 
ATOM     85  F   UNL A   1      46.443  30.939  33.103  1.00  0.00    -0.206 F 
ATOM     86  C   UNL A   1      47.756  29.516  34.432  1.00  0.00     0.040 A 
ATOM     87  C   UNL A   1      46.829  27.457  35.271  1.00  0.00     0.040 A 
ATOM     88  F   UNL A   1      44.624  26.857  34.739  1.00  0.00    -0.206 F 
ATOM     89  C   UNL A   1      47.901  28.342  35.169  1.00  0.00     0.006 A 
ENDBRANCH  65  82
ENDBRANCH  39  40
ENDBRANCH  32  34
ENDBRANCH  31  32
ENDBRANCH  30  31
ENDBRANCH   1  30
TORSDOF 15
ENDMDL
