MODEL 1
REMARK VINA RESULT:     -12.0      0.000      0.000
REMARK SMILES CN1N[C@H](C(=O)N[C@@H](CC2=c3ccccc3=NC2)C(=O)OCCOC(=O)c2ccc(-c3c4nc(c(-c5c(F)cccc5F)c5ccc([nH]5)c(-c5c(F)cccc5F)c5nc(c(-c6c(F)cccc6F)c6ccc3[nH]6)C=C5)C=C4)cc2)c2ccccc2C1=O
REMARK SMILES IDX 22 1 21 2 19 3 20 4 8 5 7 6 5 7 6 8 4 10 1 11 2 12 3 13
REMARK SMILES IDX 87 14 86 16 88 17 81 18 85 19 82 20 84 21 83 22 9 23 10 24
REMARK SMILES IDX 11 25 18 26 12 27 16 28 17 29 13 30 15 31 14 32 23 33 24 34
REMARK SMILES IDX 25 35 26 36 27 37 28 38 80 39 29 40 79 41 30 42 31 43 32 44
REMARK SMILES IDX 73 45 33 46 78 47 72 48 74 49 34 50 77 51 71 52 70 53 35 55
REMARK SMILES IDX 61 56 44 57 60 58 45 59 48 60 59 61 75 62 46 63 47 64 58 66
REMARK SMILES IDX 76 67 49 68 36 69 37 70 42 71 38 72 39 73 41 74 43 75 40 76
REMARK SMILES IDX 62 77 63 78 68 79 64 80 65 81 67 82 69 83 66 84 50 85 51 86
REMARK SMILES IDX 56 87 52 88 53 89 55 90 57 91 54 92
REMARK H PARENT 7 9 3 15 74 54 48 65
REMARK Flexibility Score: inf
ROOT
ATOM      1  C   UNL A   1      38.417  20.962  25.566  1.00  0.00     0.274 C 
ENDROOT
BRANCH   1   2
ATOM      2  O   UNL A   1      37.338  21.047  24.613  1.00  0.00    -0.461 OA
BRANCH   2   3
ATOM      3  C   UNL A   1      36.255  20.279  24.900  1.00  0.00     0.329 C 
ATOM      4  O   UNL A   1      36.238  19.053  24.818  1.00  0.00    -0.250 OA
BRANCH   3   5
ATOM      5  C   UNL A   1      35.004  21.083  25.270  1.00  0.00     0.196 C 
BRANCH   5   6
ATOM      6  N   UNL A   1      34.853  21.512  26.668  1.00  0.00    -0.341 N 
ATOM      7  C   UNL A   1      34.071  22.465  27.250  1.00  0.00     0.244 C 
ATOM      8  O   UNL A   1      34.396  22.835  28.386  1.00  0.00    -0.273 OA
ATOM      9  H   UNL A   1      35.423  21.018  27.302  1.00  0.00     0.164 HD
BRANCH   7  10
ATOM     10  C   UNL A   1      32.755  22.979  26.621  1.00  0.00     0.195 C 
ATOM     11  C   UNL A   1      29.152  22.389  27.056  1.00  0.00     0.169 C 
ATOM     12  N   UNL A   1      30.379  23.170  27.018  1.00  0.00    -0.276 N 
ATOM     13  N   UNL A   1      31.594  22.544  27.426  1.00  0.00    -0.215 NA
ATOM     14  C   UNL A   1      30.322  24.542  26.762  1.00  0.00     0.268 C 
ATOM     15  H   UNL A   1      31.490  21.534  27.331  1.00  0.00     0.149 HD
ATOM     16  C   UNL A   1      31.610  25.210  26.443  1.00  0.00     0.046 A 
ATOM     17  O   UNL A   1      29.279  25.190  26.742  1.00  0.00    -0.268 OA
ATOM     18  C   UNL A   1      32.793  24.469  26.374  1.00  0.00    -0.007 A 
ATOM     19  C   UNL A   1      31.612  26.576  26.132  1.00  0.00     0.014 A 
ATOM     20  C   UNL A   1      33.970  25.118  25.961  1.00  0.00     0.007 A 
ATOM     21  C   UNL A   1      32.797  27.216  25.773  1.00  0.00     0.001 A 
ATOM     22  C   UNL A   1      33.973  26.484  25.680  1.00  0.00     0.000 A 
ENDBRANCH   7  10
ENDBRANCH   5   6
BRANCH   5  23
ATOM     23  C   UNL A   1      34.946  22.278  24.272  1.00  0.00     0.070 C 
BRANCH  23  24
ATOM     24  C   UNL A   1      33.739  22.455  23.382  1.00  0.00    -0.037 C 
ATOM     25  C   UNL A   1      33.223  23.517  22.759  1.00  0.00     0.001 A 
ATOM     26  C   UNL A   1      32.731  21.339  23.327  1.00  0.00     0.174 C 
ATOM     27  C   UNL A   1      33.650  24.800  22.301  1.00  0.00     0.010 A 
ATOM     28  C   UNL A   1      31.785  23.240  22.982  1.00  0.00     0.065 A 
ATOM     29  N   UNL A   1      31.428  22.023  23.262  1.00  0.00    -0.280 NA
ATOM     30  C   UNL A   1      32.761  25.805  22.243  1.00  0.00     0.001 A 
ATOM     31  C   UNL A   1      30.899  24.424  23.040  1.00  0.00     0.028 A 
ATOM     32  C   UNL A   1      31.405  25.630  22.730  1.00  0.00     0.002 A 
ENDBRANCH  23  24
ENDBRANCH   5  23
ENDBRANCH   3   5
ENDBRANCH   2   3
ENDBRANCH   1   2
BRANCH   1  33
ATOM     33  C   UNL A   1      39.347  19.785  25.277  1.00  0.00     0.275 C 
BRANCH  33  34
ATOM     34  O   UNL A   1      40.206  19.488  26.395  1.00  0.00    -0.458 OA
BRANCH  34  35
ATOM     35  C   UNL A   1      41.528  19.605  26.125  1.00  0.00     0.338 C 
ATOM     36  O   UNL A   1      42.225  18.794  25.544  1.00  0.00    -0.246 OA
BRANCH  35  37
ATOM     37  C   UNL A   1      42.028  20.910  26.578  1.00  0.00     0.060 A 
ATOM     38  C   UNL A   1      42.485  21.853  25.655  1.00  0.00     0.016 A 
ATOM     39  C   UNL A   1      41.880  21.250  27.922  1.00  0.00     0.016 A 
ATOM     40  C   UNL A   1      42.789  23.153  26.084  1.00  0.00     0.010 A 
ATOM     41  C   UNL A   1      42.144  22.554  28.338  1.00  0.00     0.010 A 
ATOM     42  C   UNL A   1      42.598  23.523  27.425  1.00  0.00    -0.014 A 
BRANCH  42  43
ATOM     43  C   UNL A   1      42.851  24.905  27.916  1.00  0.00     0.031 A 
ATOM     44  C   UNL A   1      44.222  25.278  28.417  1.00  0.00     0.074 A 
ATOM     45  C   UNL A   1      41.840  25.788  28.043  1.00  0.00     0.049 A 
ATOM     46  N   UNL A   1      44.634  26.397  28.956  1.00  0.00    -0.248 NA
ATOM     47  C   UNL A   1      45.261  24.242  28.314  1.00  0.00     0.031 C 
ATOM     48  C   UNL A   1      40.448  25.548  27.666  1.00  0.00     0.029 A 
ATOM     49  N   UNL A   1      41.821  27.055  28.575  1.00  0.00    -0.354 N 
ATOM     50  C   UNL A   1      45.973  26.195  29.263  1.00  0.00     0.074 A 
ATOM     51  C   UNL A   1      46.281  24.823  28.924  1.00  0.00     0.031 C 
ATOM     52  C   UNL A   1      39.699  26.602  28.032  1.00  0.00     0.029 A 
ATOM     53  C   UNL A   1      40.563  27.607  28.641  1.00  0.00     0.049 A 
ATOM     54  H   UNL A   1      42.630  27.523  28.880  1.00  0.00     0.167 HD
ATOM     55  C   UNL A   1      46.882  27.082  29.735  1.00  0.00     0.037 A 
ATOM     56  C   UNL A   1      40.154  28.794  29.127  1.00  0.00     0.037 A 
ATOM     57  C   UNL A   1      46.586  28.452  30.050  1.00  0.00     0.049 A 
ATOM     58  C   UNL A   1      41.174  29.775  29.631  1.00  0.00     0.074 A 
ATOM     59  C   UNL A   1      47.450  29.459  30.444  1.00  0.00     0.029 A 
ATOM     60  N   UNL A   1      45.315  29.006  30.012  1.00  0.00    -0.354 N 
ATOM     61  N   UNL A   1      42.467  29.622  29.774  1.00  0.00    -0.248 NA
ATOM     62  C   UNL A   1      40.684  31.113  29.993  1.00  0.00     0.031 C 
ATOM     63  C   UNL A   1      46.698  30.621  30.655  1.00  0.00     0.029 A 
ATOM     64  C   UNL A   1      45.371  30.343  30.370  1.00  0.00     0.049 A 
ATOM     65  H   UNL A   1      44.494  28.521  29.766  1.00  0.00     0.167 HD
ATOM     66  C   UNL A   1      42.954  30.857  30.178  1.00  0.00     0.074 A 
ATOM     67  C   UNL A   1      41.815  31.746  30.277  1.00  0.00     0.031 C 
ATOM     68  C   UNL A   1      44.235  31.225  30.424  1.00  0.00     0.037 A 
BRANCH  55  69
ATOM     69  C   UNL A   1      48.287  26.582  29.890  1.00  0.00     0.057 A 
ATOM     70  C   UNL A   1      49.229  26.731  28.866  1.00  0.00     0.134 A 
ATOM     71  C   UNL A   1      48.718  25.983  31.084  1.00  0.00     0.134 A 
ATOM     72  F   UNL A   1      48.882  27.285  27.695  1.00  0.00    -0.206 F 
ATOM     73  C   UNL A   1      50.555  26.327  29.033  1.00  0.00     0.040 A 
ATOM     74  C   UNL A   1      50.047  25.602  31.273  1.00  0.00     0.040 A 
ATOM     75  F   UNL A   1      47.867  25.820  32.108  1.00  0.00    -0.206 F 
ATOM     76  C   UNL A   1      50.970  25.775  30.244  1.00  0.00     0.006 A 
ENDBRANCH  55  69
BRANCH  56  77
ATOM     77  C   UNL A   1      38.719  29.167  29.072  1.00  0.00     0.057 A 
ATOM     78  C   UNL A   1      38.124  29.622  27.892  1.00  0.00     0.134 A 
ATOM     79  C   UNL A   1      37.907  29.052  30.207  1.00  0.00     0.134 A 
ATOM     80  F   UNL A   1      38.850  29.757  26.773  1.00  0.00    -0.206 F 
ATOM     81  C   UNL A   1      36.765  29.941  27.838  1.00  0.00     0.040 A 
ATOM     82  C   UNL A   1      36.546  29.354  30.164  1.00  0.00     0.040 A 
ATOM     83  F   UNL A   1      38.423  28.606  31.361  1.00  0.00    -0.206 F 
ATOM     84  C   UNL A   1      35.971  29.799  28.976  1.00  0.00     0.006 A 
ENDBRANCH  56  77
BRANCH  68  85
ATOM     85  C   UNL A   1      44.487  32.667  30.738  1.00  0.00     0.057 A 
ATOM     86  C   UNL A   1      44.486  33.107  32.069  1.00  0.00     0.134 A 
ATOM     87  C   UNL A   1      44.684  33.624  29.736  1.00  0.00     0.134 A 
ATOM     88  F   UNL A   1      44.302  32.238  33.074  1.00  0.00    -0.206 F 
ATOM     89  C   UNL A   1      44.662  34.453  32.390  1.00  0.00     0.040 A 
ATOM     90  C   UNL A   1      44.881  34.971  30.048  1.00  0.00     0.040 A 
ATOM     91  F   UNL A   1      44.713  33.260  28.446  1.00  0.00    -0.206 F 
ATOM     92  C   UNL A   1      44.863  35.389  31.378  1.00  0.00     0.006 A 
ENDBRANCH  68  85
ENDBRANCH  42  43
ENDBRANCH  35  37
ENDBRANCH  34  35
ENDBRANCH  33  34
ENDBRANCH   1  33
TORSDOF 15
ENDMDL
MODEL 2
REMARK VINA RESULT:     -11.9      1.411      2.060
REMARK SMILES CN1N[C@H](C(=O)N[C@@H](CC2=c3ccccc3=NC2)C(=O)OCCOC(=O)c2ccc(-c3c4nc(c(-c5c(F)cccc5F)c5ccc([nH]5)c(-c5c(F)cccc5F)c5nc(c(-c6c(F)cccc6F)c6ccc3[nH]6)C=C5)C=C4)cc2)c2ccccc2C1=O
REMARK SMILES IDX 22 1 21 2 19 3 20 4 8 5 7 6 5 7 6 8 4 10 1 11 2 12 3 13
REMARK SMILES IDX 87 14 86 16 88 17 81 18 85 19 82 20 84 21 83 22 9 23 10 24
REMARK SMILES IDX 11 25 18 26 12 27 16 28 17 29 13 30 15 31 14 32 23 33 24 34
REMARK SMILES IDX 25 35 26 36 27 37 28 38 80 39 29 40 79 41 30 42 31 43 32 44
REMARK SMILES IDX 73 45 33 46 78 47 72 48 74 49 34 50 77 51 71 52 70 53 35 55
REMARK SMILES IDX 61 56 44 57 60 58 45 59 48 60 59 61 75 62 46 63 47 64 58 66
REMARK SMILES IDX 76 67 49 68 36 69 37 70 42 71 38 72 39 73 41 74 43 75 40 76
REMARK SMILES IDX 62 77 63 78 68 79 64 80 65 81 67 82 69 83 66 84 50 85 51 86
REMARK SMILES IDX 56 87 52 88 53 89 55 90 57 91 54 92
REMARK H PARENT 7 9 3 15 74 54 48 65
REMARK Flexibility Score: inf
ROOT
ATOM      1  C   UNL A   1      38.418  20.954  25.670  1.00  0.00     0.274 C 
ENDROOT
BRANCH   1   2
ATOM      2  O   UNL A   1      37.355  20.997  24.697  1.00  0.00    -0.461 OA
BRANCH   2   3
ATOM      3  C   UNL A   1      36.266  20.243  25.001  1.00  0.00     0.329 C 
ATOM      4  O   UNL A   1      36.242  19.015  24.954  1.00  0.00    -0.250 OA
BRANCH   3   5
ATOM      5  C   UNL A   1      35.018  21.064  25.342  1.00  0.00     0.196 C 
BRANCH   5   6
ATOM      6  N   UNL A   1      34.872  21.549  26.722  1.00  0.00    -0.341 N 
ATOM      7  C   UNL A   1      34.098  22.531  27.267  1.00  0.00     0.244 C 
ATOM      8  O   UNL A   1      34.427  22.943  28.387  1.00  0.00    -0.273 OA
ATOM      9  H   UNL A   1      35.439  21.076  27.374  1.00  0.00     0.164 HD
BRANCH   7  10
ATOM     10  C   UNL A   1      32.785  23.029  26.620  1.00  0.00     0.195 C 
ATOM     11  C   UNL A   1      29.183  22.402  27.007  1.00  0.00     0.169 C 
ATOM     12  N   UNL A   1      30.402  23.196  26.984  1.00  0.00    -0.276 N 
ATOM     13  N   UNL A   1      31.618  22.583  27.410  1.00  0.00    -0.215 NA
ATOM     14  C   UNL A   1      30.334  24.567  26.725  1.00  0.00     0.268 C 
ATOM     15  H   UNL A   1      31.526  21.572  27.315  1.00  0.00     0.149 HD
ATOM     16  C   UNL A   1      31.619  25.247  26.422  1.00  0.00     0.046 A 
ATOM     17  O   UNL A   1      29.285  25.203  26.690  1.00  0.00    -0.268 OA
ATOM     18  C   UNL A   1      32.810  24.519  26.370  1.00  0.00    -0.007 A 
ATOM     19  C   UNL A   1      31.611  26.613  26.108  1.00  0.00     0.014 A 
ATOM     20  C   UNL A   1      33.986  25.180  25.972  1.00  0.00     0.007 A 
ATOM     21  C   UNL A   1      32.793  27.265  25.764  1.00  0.00     0.001 A 
ATOM     22  C   UNL A   1      33.978  26.545  25.687  1.00  0.00     0.000 A 
ENDBRANCH   7  10
ENDBRANCH   5   6
BRANCH   5  23
ATOM     23  C   UNL A   1      34.960  22.219  24.297  1.00  0.00     0.070 C 
BRANCH  23  24
ATOM     24  C   UNL A   1      33.737  22.384  23.428  1.00  0.00    -0.037 C 
ATOM     25  C   UNL A   1      33.216  23.435  22.790  1.00  0.00     0.001 A 
ATOM     26  C   UNL A   1      32.718  21.276  23.422  1.00  0.00     0.174 C 
ATOM     27  C   UNL A   1      33.643  24.703  22.292  1.00  0.00     0.010 A 
ATOM     28  C   UNL A   1      31.780  23.176  23.049  1.00  0.00     0.065 A 
ATOM     29  N   UNL A   1      31.420  21.970  23.367  1.00  0.00    -0.280 NA
ATOM     30  C   UNL A   1      32.761  25.714  22.229  1.00  0.00     0.001 A 
ATOM     31  C   UNL A   1      30.906  24.369  23.097  1.00  0.00     0.028 A 
ATOM     32  C   UNL A   1      31.414  25.563  22.748  1.00  0.00     0.002 A 
ENDBRANCH  23  24
ENDBRANCH   5  23
ENDBRANCH   3   5
ENDBRANCH   2   3
ENDBRANCH   1   2
BRANCH   1  33
ATOM     33  C   UNL A   1      39.374  19.787  25.426  1.00  0.00     0.275 C 
BRANCH  33  34
ATOM     34  O   UNL A   1      40.263  19.576  26.539  1.00  0.00    -0.458 OA
BRANCH  34  35
ATOM     35  C   UNL A   1      41.578  19.636  26.218  1.00  0.00     0.338 C 
ATOM     36  O   UNL A   1      42.257  18.736  25.760  1.00  0.00    -0.246 OA
BRANCH  35  37
ATOM     37  C   UNL A   1      42.094  20.995  26.437  1.00  0.00     0.060 A 
ATOM     38  C   UNL A   1      42.279  21.864  25.359  1.00  0.00     0.016 A 
ATOM     39  C   UNL A   1      42.235  21.452  27.745  1.00  0.00     0.016 A 
ATOM     40  C   UNL A   1      42.599  23.207  25.599  1.00  0.00     0.010 A 
ATOM     41  C   UNL A   1      42.513  22.797  27.982  1.00  0.00     0.010 A 
ATOM     42  C   UNL A   1      42.695  23.692  26.913  1.00  0.00    -0.014 A 
BRANCH  42  43
ATOM     43  C   UNL A   1      42.976  25.123  27.219  1.00  0.00     0.031 A 
ATOM     44  C   UNL A   1      44.379  25.651  27.082  1.00  0.00     0.074 A 
ATOM     45  C   UNL A   1      42.020  25.917  27.742  1.00  0.00     0.049 A 
ATOM     46  N   UNL A   1      44.852  26.837  27.369  1.00  0.00    -0.248 NA
ATOM     47  C   UNL A   1      45.387  24.709  26.572  1.00  0.00     0.031 C 
ATOM     48  C   UNL A   1      40.635  25.526  27.997  1.00  0.00     0.029 A 
ATOM     49  N   UNL A   1      42.085  27.209  28.202  1.00  0.00    -0.354 N 
ATOM     50  C   UNL A   1      46.210  26.779  27.083  1.00  0.00     0.074 A 
ATOM     51  C   UNL A   1      46.498  25.420  26.678  1.00  0.00     0.031 C 
ATOM     52  C   UNL A   1      39.996  26.530  28.622  1.00  0.00     0.029 A 
ATOM     53  C   UNL A   1      40.918  27.648  28.783  1.00  0.00     0.049 A 
ATOM     54  H   UNL A   1      42.891  27.768  28.125  1.00  0.00     0.167 HD
ATOM     55  C   UNL A   1      47.129  27.774  27.106  1.00  0.00     0.037 A 
ATOM     56  C   UNL A   1      40.622  28.823  29.369  1.00  0.00     0.037 A 
ATOM     57  C   UNL A   1      46.842  29.131  27.485  1.00  0.00     0.049 A 
ATOM     58  C   UNL A   1      41.644  29.924  29.370  1.00  0.00     0.074 A 
ATOM     59  C   UNL A   1      47.674  30.236  27.451  1.00  0.00     0.029 A 
ATOM     60  N   UNL A   1      45.620  29.563  27.976  1.00  0.00    -0.354 N 
ATOM     61  N   UNL A   1      42.885  29.900  28.954  1.00  0.00    -0.248 NA
ATOM     62  C   UNL A   1      41.205  31.234  29.875  1.00  0.00     0.031 C 
ATOM     63  C   UNL A   1      46.956  31.337  27.934  1.00  0.00     0.029 A 
ATOM     64  C   UNL A   1      45.671  30.920  28.246  1.00  0.00     0.049 A 
ATOM     65  H   UNL A   1      44.831  28.989  28.113  1.00  0.00     0.167 HD
ATOM     66  C   UNL A   1      43.356  31.199  29.085  1.00  0.00     0.074 A 
ATOM     67  C   UNL A   1      42.272  31.985  29.638  1.00  0.00     0.031 C 
ATOM     68  C   UNL A   1      44.572  31.697  28.756  1.00  0.00     0.037 A 
BRANCH  55  69
ATOM     69  C   UNL A   1      48.515  27.416  26.661  1.00  0.00     0.057 A 
ATOM     70  C   UNL A   1      49.488  27.001  27.577  1.00  0.00     0.134 A 
ATOM     71  C   UNL A   1      48.874  27.448  25.304  1.00  0.00     0.134 A 
ATOM     72  F   UNL A   1      49.216  26.958  28.889  1.00  0.00    -0.206 F 
ATOM     73  C   UNL A   1      50.759  26.603  27.157  1.00  0.00     0.040 A 
ATOM     74  C   UNL A   1      50.131  27.025  24.870  1.00  0.00     0.040 A 
ATOM     75  F   UNL A   1      47.984  27.827  24.375  1.00  0.00    -0.206 F 
ATOM     76  C   UNL A   1      51.078  26.600  25.800  1.00  0.00     0.006 A 
ENDBRANCH  55  69
BRANCH  56  77
ATOM     77  C   UNL A   1      39.265  29.060  29.919  1.00  0.00     0.057 A 
ATOM     78  C   UNL A   1      38.224  29.547  29.123  1.00  0.00     0.134 A 
ATOM     79  C   UNL A   1      38.979  28.779  31.261  1.00  0.00     0.134 A 
ATOM     80  F   UNL A   1      38.437  29.838  27.831  1.00  0.00    -0.206 F 
ATOM     81  C   UNL A   1      36.940  29.737  29.638  1.00  0.00     0.040 A 
ATOM     82  C   UNL A   1      37.697  28.950  31.786  1.00  0.00     0.040 A 
ATOM     83  F   UNL A   1      39.935  28.295  32.066  1.00  0.00    -0.206 F 
ATOM     84  C   UNL A   1      36.673  29.430  30.973  1.00  0.00     0.006 A 
ENDBRANCH  56  77
BRANCH  68  85
ATOM     85  C   UNL A   1      44.772  33.174  28.901  1.00  0.00     0.057 A 
ATOM     86  C   UNL A   1      44.467  34.033  27.836  1.00  0.00     0.134 A 
ATOM     87  C   UNL A   1      45.304  33.743  30.063  1.00  0.00     0.134 A 
ATOM     88  F   UNL A   1      43.954  33.548  26.695  1.00  0.00    -0.206 F 
ATOM     89  C   UNL A   1      44.694  35.406  27.921  1.00  0.00     0.040 A 
ATOM     90  C   UNL A   1      45.518  35.119  30.166  1.00  0.00     0.040 A 
ATOM     91  F   UNL A   1      45.600  32.974  31.122  1.00  0.00    -0.206 F 
ATOM     92  C   UNL A   1      45.220  35.953  29.089  1.00  0.00     0.006 A 
ENDBRANCH  68  85
ENDBRANCH  42  43
ENDBRANCH  35  37
ENDBRANCH  34  35
ENDBRANCH  33  34
ENDBRANCH   1  33
TORSDOF 15
ENDMDL
MODEL 3
REMARK VINA RESULT:     -11.9      1.455      5.918
REMARK SMILES CN1N[C@H](C(=O)N[C@@H](CC2=c3ccccc3=NC2)C(=O)OCCOC(=O)c2ccc(-c3c4nc(c(-c5c(F)cccc5F)c5ccc([nH]5)c(-c5c(F)cccc5F)c5nc(c(-c6c(F)cccc6F)c6ccc3[nH]6)C=C5)C=C4)cc2)c2ccccc2C1=O
REMARK SMILES IDX 22 1 21 2 19 3 20 4 8 5 7 6 5 7 6 8 4 10 1 11 2 12 3 13
REMARK SMILES IDX 87 14 86 16 88 17 81 18 85 19 82 20 84 21 83 22 9 23 10 24
REMARK SMILES IDX 11 25 18 26 12 27 16 28 17 29 13 30 15 31 14 32 23 33 24 34
REMARK SMILES IDX 25 35 26 36 27 37 28 38 80 39 29 40 79 41 30 42 31 43 32 44
REMARK SMILES IDX 73 45 33 46 78 47 72 48 74 49 34 50 77 51 71 52 70 53 35 55
REMARK SMILES IDX 61 56 44 57 60 58 45 59 48 60 59 61 75 62 46 63 47 64 58 66
REMARK SMILES IDX 76 67 49 68 36 69 37 70 42 71 38 72 39 73 41 74 43 75 40 76
REMARK SMILES IDX 62 77 63 78 68 79 64 80 65 81 67 82 69 83 66 84 50 85 51 86
REMARK SMILES IDX 56 87 52 88 53 89 55 90 57 91 54 92
REMARK H PARENT 7 9 3 15 74 54 48 65
REMARK Flexibility Score: inf
ROOT
ATOM      1  C   UNL A   1      38.388  20.994  25.586  1.00  0.00     0.274 C 
ENDROOT
BRANCH   1   2
ATOM      2  O   UNL A   1      37.331  21.020  24.605  1.00  0.00    -0.461 OA
BRANCH   2   3
ATOM      3  C   UNL A   1      36.246  20.260  24.908  1.00  0.00     0.329 C 
ATOM      4  O   UNL A   1      36.223  19.034  24.842  1.00  0.00    -0.250 OA
BRANCH   3   5
ATOM      5  C   UNL A   1      35.000  21.075  25.274  1.00  0.00     0.196 C 
BRANCH   5   6
ATOM      6  N   UNL A   1      34.849  21.506  26.671  1.00  0.00    -0.341 N 
ATOM      7  C   UNL A   1      34.071  22.464  27.251  1.00  0.00     0.244 C 
ATOM      8  O   UNL A   1      34.396  22.834  28.386  1.00  0.00    -0.273 OA
ATOM      9  H   UNL A   1      35.416  21.011  27.306  1.00  0.00     0.164 HD
BRANCH   7  10
ATOM     10  C   UNL A   1      32.758  22.982  26.619  1.00  0.00     0.195 C 
ATOM     11  C   UNL A   1      29.152  22.403  27.046  1.00  0.00     0.169 C 
ATOM     12  N   UNL A   1      30.381  23.180  27.011  1.00  0.00    -0.276 N 
ATOM     13  N   UNL A   1      31.594  22.550  27.422  1.00  0.00    -0.215 NA
ATOM     14  C   UNL A   1      30.329  24.553  26.755  1.00  0.00     0.268 C 
ATOM     15  H   UNL A   1      31.487  21.540  27.325  1.00  0.00     0.149 HD
ATOM     16  C   UNL A   1      31.620  25.217  26.440  1.00  0.00     0.046 A 
ATOM     17  O   UNL A   1      29.288  25.204  26.734  1.00  0.00    -0.268 OA
ATOM     18  C   UNL A   1      32.800  24.472  26.373  1.00  0.00    -0.007 A 
ATOM     19  C   UNL A   1      31.627  26.583  26.130  1.00  0.00     0.014 A 
ATOM     20  C   UNL A   1      33.981  25.117  25.963  1.00  0.00     0.007 A 
ATOM     21  C   UNL A   1      32.815  27.219  25.774  1.00  0.00     0.001 A 
ATOM     22  C   UNL A   1      33.989  26.484  25.682  1.00  0.00     0.000 A 
ENDBRANCH   7  10
ENDBRANCH   5   6
BRANCH   5  23
ATOM     23  C   UNL A   1      34.955  22.269  24.274  1.00  0.00     0.070 C 
BRANCH  23  24
ATOM     24  C   UNL A   1      33.750  22.457  23.384  1.00  0.00    -0.037 C 
ATOM     25  C   UNL A   1      33.244  23.524  22.761  1.00  0.00     0.001 A 
ATOM     26  C   UNL A   1      32.732  21.350  23.328  1.00  0.00     0.174 C 
ATOM     27  C   UNL A   1      33.681  24.804  22.305  1.00  0.00     0.010 A 
ATOM     28  C   UNL A   1      31.803  23.259  22.983  1.00  0.00     0.065 A 
ATOM     29  N   UNL A   1      31.435  22.046  23.262  1.00  0.00    -0.280 NA
ATOM     30  C   UNL A   1      32.801  25.817  22.248  1.00  0.00     0.001 A 
ATOM     31  C   UNL A   1      30.927  24.451  23.042  1.00  0.00     0.028 A 
ATOM     32  C   UNL A   1      31.443  25.653  22.734  1.00  0.00     0.002 A 
ENDBRANCH  23  24
ENDBRANCH   5  23
ENDBRANCH   3   5
ENDBRANCH   2   3
ENDBRANCH   1   2
BRANCH   1  33
ATOM     33  C   UNL A   1      39.347  19.825  25.367  1.00  0.00     0.275 C 
BRANCH  33  34
ATOM     34  O   UNL A   1      40.187  19.594  26.513  1.00  0.00    -0.458 OA
BRANCH  34  35
ATOM     35  C   UNL A   1      41.508  19.519  26.227  1.00  0.00     0.338 C 
ATOM     36  O   UNL A   1      42.098  18.563  25.757  1.00  0.00    -0.246 OA
BRANCH  35  37
ATOM     37  C   UNL A   1      42.163  20.806  26.500  1.00  0.00     0.060 A 
ATOM     38  C   UNL A   1      42.482  21.675  25.454  1.00  0.00     0.016 A 
ATOM     39  C   UNL A   1      42.306  21.212  27.825  1.00  0.00     0.016 A 
ATOM     40  C   UNL A   1      42.939  22.968  25.743  1.00  0.00     0.010 A 
ATOM     41  C   UNL A   1      42.723  22.512  28.109  1.00  0.00     0.010 A 
ATOM     42  C   UNL A   1      43.041  23.408  27.072  1.00  0.00    -0.014 A 
BRANCH  42  43
ATOM     43  C   UNL A   1      43.466  24.790  27.427  1.00  0.00     0.031 A 
ATOM     44  C   UNL A   1      42.438  25.791  27.883  1.00  0.00     0.074 A 
ATOM     45  C   UNL A   1      44.736  25.195  27.220  1.00  0.00     0.049 A 
ATOM     46  N   UNL A   1      42.583  27.061  28.165  1.00  0.00    -0.248 NA
ATOM     47  C   UNL A   1      41.059  25.298  28.018  1.00  0.00     0.031 C 
ATOM     48  C   UNL A   1      45.825  24.359  26.718  1.00  0.00     0.029 A 
ATOM     49  N   UNL A   1      45.312  26.434  27.360  1.00  0.00    -0.354 N 
ATOM     50  C   UNL A   1      41.315  27.518  28.501  1.00  0.00     0.074 A 
ATOM     51  C   UNL A   1      40.403  26.410  28.310  1.00  0.00     0.031 C 
ATOM     52  C   UNL A   1      46.919  25.117  26.532  1.00  0.00     0.029 A 
ATOM     53  C   UNL A   1      46.618  26.487  26.933  1.00  0.00     0.049 A 
ATOM     54  H   UNL A   1      44.835  27.211  27.730  1.00  0.00     0.167 HD
ATOM     55  C   UNL A   1      40.944  28.731  28.975  1.00  0.00     0.037 A 
ATOM     56  C   UNL A   1      47.480  27.519  26.883  1.00  0.00     0.037 A 
ATOM     57  C   UNL A   1      41.850  29.827  29.189  1.00  0.00     0.049 A 
ATOM     58  C   UNL A   1      47.062  28.855  27.428  1.00  0.00     0.074 A 
ATOM     59  C   UNL A   1      41.598  31.065  29.753  1.00  0.00     0.029 A 
ATOM     60  N   UNL A   1      43.191  29.811  28.836  1.00  0.00    -0.354 N 
ATOM     61  N   UNL A   1      45.895  29.232  27.888  1.00  0.00    -0.248 NA
ATOM     62  C   UNL A   1      48.099  29.896  27.497  1.00  0.00     0.031 C 
ATOM     63  C   UNL A   1      42.787  31.804  29.731  1.00  0.00     0.029 A 
ATOM     64  C   UNL A   1      43.783  31.017  29.174  1.00  0.00     0.049 A 
ATOM     65  H   UNL A   1      43.655  29.055  28.408  1.00  0.00     0.167 HD
ATOM     66  C   UNL A   1      46.071  30.525  28.359  1.00  0.00     0.074 A 
ATOM     67  C   UNL A   1      47.454  30.878  28.112  1.00  0.00     0.031 C 
ATOM     68  C   UNL A   1      45.170  31.338  28.961  1.00  0.00     0.037 A 
BRANCH  55  69
ATOM     69  C   UNL A   1      39.497  28.899  29.330  1.00  0.00     0.057 A 
ATOM     70  C   UNL A   1      39.024  28.607  30.614  1.00  0.00     0.134 A 
ATOM     71  C   UNL A   1      38.573  29.393  28.396  1.00  0.00     0.134 A 
ATOM     72  F   UNL A   1      39.851  28.121  31.552  1.00  0.00    -0.206 F 
ATOM     73  C   UNL A   1      37.691  28.826  30.965  1.00  0.00     0.040 A 
ATOM     74  C   UNL A   1      37.245  29.642  28.743  1.00  0.00     0.040 A 
ATOM     75  F   UNL A   1      38.965  29.701  27.151  1.00  0.00    -0.206 F 
ATOM     76  C   UNL A   1      36.801  29.359  30.033  1.00  0.00     0.006 A 
ENDBRANCH  55  69
BRANCH  56  77
ATOM     77  C   UNL A   1      48.862  27.313  26.383  1.00  0.00     0.057 A 
ATOM     78  C   UNL A   1      49.178  27.436  25.027  1.00  0.00     0.134 A 
ATOM     79  C   UNL A   1      49.904  27.010  27.268  1.00  0.00     0.134 A 
ATOM     80  F   UNL A   1      48.223  27.722  24.130  1.00  0.00    -0.206 F 
ATOM     81  C   UNL A   1      50.487  27.273  24.567  1.00  0.00     0.040 A 
ATOM     82  C   UNL A   1      51.218  26.858  26.824  1.00  0.00     0.040 A 
ATOM     83  F   UNL A   1      49.660  26.896  28.582  1.00  0.00    -0.206 F 
ATOM     84  C   UNL A   1      51.512  26.990  25.469  1.00  0.00     0.006 A 
ENDBRANCH  56  77
BRANCH  68  85
ATOM     85  C   UNL A   1      45.666  32.654  29.474  1.00  0.00     0.057 A 
ATOM     86  C   UNL A   1      46.173  32.755  30.777  1.00  0.00     0.134 A 
ATOM     87  C   UNL A   1      45.603  33.823  28.708  1.00  0.00     0.134 A 
ATOM     88  F   UNL A   1      46.258  31.670  31.560  1.00  0.00    -0.206 F 
ATOM     89  C   UNL A   1      46.591  33.978  31.302  1.00  0.00     0.040 A 
ATOM     90  C   UNL A   1      46.037  35.049  29.217  1.00  0.00     0.040 A 
ATOM     91  F   UNL A   1      45.144  33.787  27.448  1.00  0.00    -0.206 F 
ATOM     92  C   UNL A   1      46.525  35.129  30.521  1.00  0.00     0.006 A 
ENDBRANCH  68  85
ENDBRANCH  42  43
ENDBRANCH  35  37
ENDBRANCH  34  35
ENDBRANCH  33  34
ENDBRANCH   1  33
TORSDOF 15
ENDMDL
