MODEL 1
REMARK VINA RESULT:     -10.9      0.000      0.000
REMARK SMILES O=C(OCCOC(=O)c1cnn2c(C(F)(F)F)ccnc12)c1ccc(-c2c3nc(c(-c4c(F)cccc4F)c4ccc([nH]4)c(-c4c(F)cccc4F)c4nc(c(-c5c(F)cccc5F)c5ccc2[nH]5)C=C4)C=C3)cc1
REMARK SMILES IDX 4 1 3 2 2 3 1 4 22 5 23 6 75 7 24 8 74 9 25 10 26 11 27 12
REMARK SMILES IDX 68 13 28 14 73 15 67 16 69 17 29 18 72 19 66 20 65 21 30 23
REMARK SMILES IDX 56 24 39 25 55 26 40 27 43 28 54 29 70 30 41 31 42 32 53 34
REMARK SMILES IDX 71 35 44 36 31 37 32 38 37 39 33 40 34 41 36 42 38 43 35 44
REMARK SMILES IDX 57 45 58 46 63 47 59 48 60 49 62 50 64 51 61 52 45 53 46 54
REMARK SMILES IDX 51 55 47 56 48 57 50 58 52 59 49 60 5 61 6 62 7 63 8 64 9 65
REMARK SMILES IDX 10 66 21 67 11 68 12 69 20 70 13 71 19 72 18 73 14 74 15 75
REMARK SMILES IDX 16 76 17 77
REMARK H PARENT 69 22 43 33
REMARK Flexibility Score: inf
ROOT
ATOM      1  C   UNL A   1      34.126  34.385  27.995  1.00  0.00     0.275 C 
ENDROOT
BRANCH   1   2
ATOM      2  O   UNL A   1      33.738  33.021  28.237  1.00  0.00    -0.458 OA
BRANCH   2   3
ATOM      3  C   UNL A   1      34.281  31.861  27.800  1.00  0.00     0.338 C 
ATOM      4  O   UNL A   1      33.601  31.141  27.068  1.00  0.00    -0.246 OA
BRANCH   3   5
ATOM      5  C   UNL A   1      35.597  31.316  28.272  1.00  0.00     0.060 A 
ATOM      6  C   UNL A   1      36.822  31.987  28.280  1.00  0.00     0.016 A 
ATOM      7  C   UNL A   1      35.573  30.011  28.796  1.00  0.00     0.016 A 
ATOM      8  C   UNL A   1      37.960  31.424  28.869  1.00  0.00     0.010 A 
ATOM      9  C   UNL A   1      36.699  29.450  29.407  1.00  0.00     0.010 A 
ATOM     10  C   UNL A   1      37.902  30.164  29.458  1.00  0.00    -0.014 A 
BRANCH  10  11
ATOM     11  C   UNL A   1      39.121  29.534  30.013  1.00  0.00     0.031 A 
ATOM     12  C   UNL A   1      39.775  30.178  31.198  1.00  0.00     0.074 A 
ATOM     13  C   UNL A   1      39.617  28.387  29.509  1.00  0.00     0.049 A 
ATOM     14  N   UNL A   1      40.866  29.826  31.824  1.00  0.00    -0.248 NA
ATOM     15  C   UNL A   1      39.077  31.329  31.798  1.00  0.00     0.031 C 
ATOM     16  C   UNL A   1      38.977  27.546  28.499  1.00  0.00     0.029 A 
ATOM     17  N   UNL A   1      40.803  27.741  29.761  1.00  0.00    -0.354 N 
ATOM     18  C   UNL A   1      40.950  30.669  32.922  1.00  0.00     0.074 A 
ATOM     19  C   UNL A   1      39.852  31.604  32.837  1.00  0.00     0.031 C 
ATOM     20  C   UNL A   1      39.820  26.557  28.149  1.00  0.00     0.029 A 
ATOM     21  C   UNL A   1      41.068  26.723  28.875  1.00  0.00     0.049 A 
ATOM     22  H   UNL A   1      41.403  27.982  30.504  1.00  0.00     0.167 HD
ATOM     23  C   UNL A   1      41.840  30.625  33.938  1.00  0.00     0.037 A 
ATOM     24  C   UNL A   1      42.208  26.045  28.648  1.00  0.00     0.037 A 
ATOM     25  C   UNL A   1      42.936  29.698  33.997  1.00  0.00     0.049 A 
ATOM     26  C   UNL A   1      43.335  26.221  29.616  1.00  0.00     0.074 A 
ATOM     27  C   UNL A   1      43.878  29.536  34.996  1.00  0.00     0.029 A 
ATOM     28  N   UNL A   1      43.253  28.795  32.993  1.00  0.00    -0.354 N 
ATOM     29  N   UNL A   1      43.387  26.985  30.677  1.00  0.00    -0.248 NA
ATOM     30  C   UNL A   1      44.523  25.385  29.405  1.00  0.00     0.031 C 
ATOM     31  C   UNL A   1      44.807  28.585  34.563  1.00  0.00     0.029 A 
ATOM     32  C   UNL A   1      44.413  28.115  33.319  1.00  0.00     0.049 A 
ATOM     33  H   UNL A   1      42.731  28.658  32.169  1.00  0.00     0.167 HD
ATOM     34  C   UNL A   1      44.577  26.667  31.309  1.00  0.00     0.074 A 
ATOM     35  C   UNL A   1      45.232  25.665  30.491  1.00  0.00     0.031 C 
ATOM     36  C   UNL A   1      45.058  27.132  32.487  1.00  0.00     0.037 A 
BRANCH  23  37
ATOM     37  C   UNL A   1      41.663  31.610  35.050  1.00  0.00     0.057 A 
ATOM     38  C   UNL A   1      40.725  31.410  36.072  1.00  0.00     0.134 A 
ATOM     39  C   UNL A   1      42.455  32.761  35.112  1.00  0.00     0.134 A 
ATOM     40  F   UNL A   1      39.920  30.336  36.056  1.00  0.00    -0.206 F 
ATOM     41  C   UNL A   1      40.573  32.329  37.111  1.00  0.00     0.040 A 
ATOM     42  C   UNL A   1      42.327  33.676  36.157  1.00  0.00     0.040 A 
ATOM     43  F   UNL A   1      43.366  33.012  34.160  1.00  0.00    -0.206 F 
ATOM     44  C   UNL A   1      41.383  33.462  37.159  1.00  0.00     0.006 A 
ENDBRANCH  23  37
BRANCH  24  45
ATOM     45  C   UNL A   1      42.377  25.167  27.463  1.00  0.00     0.057 A 
ATOM     46  C   UNL A   1      42.078  23.804  27.496  1.00  0.00     0.134 A 
ATOM     47  C   UNL A   1      42.946  25.670  26.285  1.00  0.00     0.134 A 
ATOM     48  F   UNL A   1      41.590  23.249  28.614  1.00  0.00    -0.206 F 
ATOM     49  C   UNL A   1      42.329  22.975  26.397  1.00  0.00     0.040 A 
ATOM     50  C   UNL A   1      43.175  24.862  25.170  1.00  0.00     0.040 A 
ATOM     51  F   UNL A   1      43.308  26.957  26.209  1.00  0.00    -0.206 F 
ATOM     52  C   UNL A   1      42.870  23.506  25.228  1.00  0.00     0.006 A 
ENDBRANCH  24  45
BRANCH  36  53
ATOM     53  C   UNL A   1      46.334  26.526  32.977  1.00  0.00     0.057 A 
ATOM     54  C   UNL A   1      46.349  25.355  33.742  1.00  0.00     0.134 A 
ATOM     55  C   UNL A   1      47.564  27.115  32.659  1.00  0.00     0.134 A 
ATOM     56  F   UNL A   1      45.200  24.761  34.100  1.00  0.00    -0.206 F 
ATOM     57  C   UNL A   1      47.546  24.798  34.190  1.00  0.00     0.040 A 
ATOM     58  C   UNL A   1      48.768  26.550  33.073  1.00  0.00     0.040 A 
ATOM     59  F   UNL A   1      47.614  28.240  31.930  1.00  0.00    -0.206 F 
ATOM     60  C   UNL A   1      48.760  25.390  33.847  1.00  0.00     0.006 A 
ENDBRANCH  36  53
ENDBRANCH  10  11
ENDBRANCH   3   5
ENDBRANCH   2   3
ENDBRANCH   1   2
BRANCH   1  61
ATOM     61  C   UNL A   1      33.298  35.429  28.758  1.00  0.00     0.275 C 
BRANCH  61  62
ATOM     62  O   UNL A   1      32.664  34.912  29.937  1.00  0.00    -0.458 OA
BRANCH  62  63
ATOM     63  C   UNL A   1      32.725  35.725  31.041  1.00  0.00     0.343 C 
ATOM     64  O   UNL A   1      31.861  36.519  31.365  1.00  0.00    -0.246 OA
BRANCH  63  65
ATOM     65  C   UNL A   1      33.845  35.391  31.886  1.00  0.00     0.124 A 
ATOM     66  C   UNL A   1      34.565  36.268  32.714  1.00  0.00     0.153 A 
ATOM     67  C   UNL A   1      34.463  34.171  32.059  1.00  0.00     0.170 A 
ATOM     68  N   UNL A   1      35.440  35.640  33.500  1.00  0.00    -0.174 NA
ATOM     69  N   UNL A   1      35.365  34.341  33.127  1.00  0.00    -0.209 N 
ATOM     70  N   UNL A   1      34.327  32.976  31.406  1.00  0.00    -0.236 NA
ATOM     71  C   UNL A   1      36.071  33.257  33.633  1.00  0.00     0.150 A 
ATOM     72  C   UNL A   1      35.107  32.022  31.811  1.00  0.00     0.116 A 
ATOM     73  C   UNL A   1      36.030  32.088  32.972  1.00  0.00     0.053 A 
BRANCH  71  74
ATOM     74  C   UNL A   1      36.777  33.449  34.922  1.00  0.00     0.433 C 
ATOM     75  F   UNL A   1      37.344  32.310  35.385  1.00  0.00    -0.165 F 
ATOM     76  F   UNL A   1      37.749  34.397  34.855  1.00  0.00    -0.165 F 
ATOM     77  F   UNL A   1      35.925  33.868  35.899  1.00  0.00    -0.165 F 
ENDBRANCH  71  74
ENDBRANCH  63  65
ENDBRANCH  62  63
ENDBRANCH  61  62
ENDBRANCH   1  61
TORSDOF 12
ENDMDL
MODEL 2
REMARK VINA RESULT:     -10.6      5.009     11.655
REMARK SMILES O=C(OCCOC(=O)c1cnn2c(C(F)(F)F)ccnc12)c1ccc(-c2c3nc(c(-c4c(F)cccc4F)c4ccc([nH]4)c(-c4c(F)cccc4F)c4nc(c(-c5c(F)cccc5F)c5ccc2[nH]5)C=C4)C=C3)cc1
REMARK SMILES IDX 4 1 3 2 2 3 1 4 22 5 23 6 75 7 24 8 74 9 25 10 26 11 27 12
REMARK SMILES IDX 68 13 28 14 73 15 67 16 69 17 29 18 72 19 66 20 65 21 30 23
REMARK SMILES IDX 56 24 39 25 55 26 40 27 43 28 54 29 70 30 41 31 42 32 53 34
REMARK SMILES IDX 71 35 44 36 31 37 32 38 37 39 33 40 34 41 36 42 38 43 35 44
REMARK SMILES IDX 57 45 58 46 63 47 59 48 60 49 62 50 64 51 61 52 45 53 46 54
REMARK SMILES IDX 51 55 47 56 48 57 50 58 52 59 49 60 5 61 6 62 7 63 8 64 9 65
REMARK SMILES IDX 10 66 21 67 11 68 12 69 20 70 13 71 19 72 18 73 14 74 15 75
REMARK SMILES IDX 16 76 17 77
REMARK H PARENT 69 22 43 33
REMARK Flexibility Score: inf
ROOT
ATOM      1  C   UNL A   1      40.755  19.515  26.661  1.00  0.00     0.275 C 
ENDROOT
BRANCH   1   2
ATOM      2  O   UNL A   1      40.407  20.777  27.256  1.00  0.00    -0.458 OA
BRANCH   2   3
ATOM      3  C   UNL A   1      39.739  21.838  26.745  1.00  0.00     0.338 C 
ATOM      4  O   UNL A   1      38.841  21.621  25.932  1.00  0.00    -0.246 OA
BRANCH   3   5
ATOM      5  C   UNL A   1      40.124  23.269  26.982  1.00  0.00     0.060 A 
ATOM      6  C   UNL A   1      39.668  24.383  26.274  1.00  0.00     0.016 A 
ATOM      7  C   UNL A   1      41.003  23.503  28.056  1.00  0.00     0.016 A 
ATOM      8  C   UNL A   1      39.993  25.685  26.670  1.00  0.00     0.010 A 
ATOM      9  C   UNL A   1      41.314  24.801  28.472  1.00  0.00     0.010 A 
ATOM     10  C   UNL A   1      40.797  25.905  27.786  1.00  0.00    -0.014 A 
BRANCH  10  11
ATOM     11  C   UNL A   1      41.205  27.277  28.162  1.00  0.00     0.031 A 
ATOM     12  C   UNL A   1      42.670  27.593  28.209  1.00  0.00     0.074 A 
ATOM     13  C   UNL A   1      40.298  28.241  28.413  1.00  0.00     0.049 A 
ATOM     14  N   UNL A   1      43.257  28.710  28.546  1.00  0.00    -0.248 NA
ATOM     15  C   UNL A   1      43.592  26.537  27.754  1.00  0.00     0.031 C 
ATOM     16  C   UNL A   1      38.855  28.136  28.209  1.00  0.00     0.029 A 
ATOM     17  N   UNL A   1      40.459  29.504  28.930  1.00  0.00    -0.354 N 
ATOM     18  C   UNL A   1      44.605  28.512  28.286  1.00  0.00     0.074 A 
ATOM     19  C   UNL A   1      44.765  27.146  27.843  1.00  0.00     0.031 C 
ATOM     20  C   UNL A   1      38.259  29.243  28.689  1.00  0.00     0.029 A 
ATOM     21  C   UNL A   1      39.271  30.109  29.270  1.00  0.00     0.049 A 
ATOM     22  H   UNL A   1      41.337  29.935  29.044  1.00  0.00     0.167 HD
ATOM     23  C   UNL A   1      45.607  29.415  28.363  1.00  0.00     0.037 A 
ATOM     24  C   UNL A   1      39.037  31.207  30.011  1.00  0.00     0.037 A 
ATOM     25  C   UNL A   1      45.430  30.765  28.823  1.00  0.00     0.049 A 
ATOM     26  C   UNL A   1      40.203  32.074  30.369  1.00  0.00     0.074 A 
ATOM     27  C   UNL A   1      46.367  31.778  28.905  1.00  0.00     0.029 A 
ATOM     28  N   UNL A   1      44.237  31.276  29.309  1.00  0.00    -0.354 N 
ATOM     29  N   UNL A   1      41.467  31.903  30.078  1.00  0.00    -0.248 NA
ATOM     30  C   UNL A   1      39.903  33.322  31.081  1.00  0.00     0.031 C 
ATOM     31  C   UNL A   1      45.756  32.881  29.510  1.00  0.00     0.029 A 
ATOM     32  C   UNL A   1      44.425  32.574  29.752  1.00  0.00     0.049 A 
ATOM     33  H   UNL A   1      43.381  30.790  29.335  1.00  0.00     0.167 HD
ATOM     34  C   UNL A   1      42.108  33.055  30.499  1.00  0.00     0.074 A 
ATOM     35  C   UNL A   1      41.095  33.904  31.096  1.00  0.00     0.031 C 
ATOM     36  C   UNL A   1      43.411  33.397  30.357  1.00  0.00     0.037 A 
BRANCH  23  37
ATOM     37  C   UNL A   1      46.973  28.962  27.950  1.00  0.00     0.057 A 
ATOM     38  C   UNL A   1      47.912  28.505  28.885  1.00  0.00     0.134 A 
ATOM     39  C   UNL A   1      47.344  28.962  26.603  1.00  0.00     0.134 A 
ATOM     40  F   UNL A   1      47.623  28.502  30.196  1.00  0.00    -0.206 F 
ATOM     41  C   UNL A   1      49.180  28.075  28.491  1.00  0.00     0.040 A 
ATOM     42  C   UNL A   1      48.601  28.515  26.195  1.00  0.00     0.040 A 
ATOM     43  F   UNL A   1      46.492  29.395  25.661  1.00  0.00    -0.206 F 
ATOM     44  C   UNL A   1      49.524  28.072  27.141  1.00  0.00     0.006 A 
ENDBRANCH  23  37
BRANCH  24  45
ATOM     45  C   UNL A   1      37.677  31.552  30.496  1.00  0.00     0.057 A 
ATOM     46  C   UNL A   1      36.801  32.348  29.756  1.00  0.00     0.134 A 
ATOM     47  C   UNL A   1      37.264  31.165  31.778  1.00  0.00     0.134 A 
ATOM     48  F   UNL A   1      37.162  32.803  28.549  1.00  0.00    -0.206 F 
ATOM     49  C   UNL A   1      35.559  32.737  30.270  1.00  0.00     0.040 A 
ATOM     50  C   UNL A   1      36.017  31.521  32.293  1.00  0.00     0.040 A 
ATOM     51  F   UNL A   1      38.083  30.449  32.561  1.00  0.00    -0.206 F 
ATOM     52  C   UNL A   1      35.161  32.316  31.538  1.00  0.00     0.006 A 
ENDBRANCH  24  45
BRANCH  36  53
ATOM     53  C   UNL A   1      43.801  34.764  30.821  1.00  0.00     0.057 A 
ATOM     54  C   UNL A   1      44.297  34.994  32.109  1.00  0.00     0.134 A 
ATOM     55  C   UNL A   1      43.697  35.860  29.955  1.00  0.00     0.134 A 
ATOM     56  F   UNL A   1      44.394  33.986  32.990  1.00  0.00    -0.206 F 
ATOM     57  C   UNL A   1      44.661  36.273  32.527  1.00  0.00     0.040 A 
ATOM     58  C   UNL A   1      44.087  37.137  30.351  1.00  0.00     0.040 A 
ATOM     59  F   UNL A   1      43.226  35.703  28.709  1.00  0.00    -0.206 F 
ATOM     60  C   UNL A   1      44.565  37.347  31.643  1.00  0.00     0.006 A 
ENDBRANCH  36  53
ENDBRANCH  10  11
ENDBRANCH   3   5
ENDBRANCH   2   3
ENDBRANCH   1   2
BRANCH   1  61
ATOM     61  C   UNL A   1      42.257  19.321  26.409  1.00  0.00     0.275 C 
BRANCH  61  62
ATOM     62  O   UNL A   1      42.641  19.502  25.038  1.00  0.00    -0.458 OA
BRANCH  62  63
ATOM     63  C   UNL A   1      43.981  19.366  24.780  1.00  0.00     0.343 C 
ATOM     64  O   UNL A   1      44.487  18.401  24.237  1.00  0.00    -0.246 OA
BRANCH  63  65
ATOM     65  C   UNL A   1      44.702  20.585  25.051  1.00  0.00     0.124 A 
ATOM     66  C   UNL A   1      46.049  20.700  25.433  1.00  0.00     0.153 A 
ATOM     67  C   UNL A   1      44.243  21.884  25.017  1.00  0.00     0.170 A 
ATOM     68  N   UNL A   1      46.478  21.962  25.452  1.00  0.00    -0.174 NA
ATOM     69  N   UNL A   1      45.381  22.701  25.167  1.00  0.00    -0.209 N 
ATOM     70  N   UNL A   1      42.986  22.408  24.877  1.00  0.00    -0.236 NA
ATOM     71  C   UNL A   1      45.276  24.082  25.061  1.00  0.00     0.150 A 
ATOM     72  C   UNL A   1      42.907  23.702  24.926  1.00  0.00     0.116 A 
ATOM     73  C   UNL A   1      44.055  24.640  25.005  1.00  0.00     0.053 A 
BRANCH  71  74
ATOM     74  C   UNL A   1      46.538  24.851  24.946  1.00  0.00     0.433 C 
ATOM     75  F   UNL A   1      47.359  24.373  23.981  1.00  0.00    -0.165 F 
ATOM     76  F   UNL A   1      46.331  26.171  24.696  1.00  0.00    -0.165 F 
ATOM     77  F   UNL A   1      47.255  24.807  26.104  1.00  0.00    -0.165 F 
ENDBRANCH  71  74
ENDBRANCH  63  65
ENDBRANCH  62  63
ENDBRANCH  61  62
ENDBRANCH   1  61
TORSDOF 12
ENDMDL
MODEL 3
REMARK VINA RESULT:     -10.4      4.060      8.800
REMARK SMILES O=C(OCCOC(=O)c1cnn2c(C(F)(F)F)ccnc12)c1ccc(-c2c3nc(c(-c4c(F)cccc4F)c4ccc([nH]4)c(-c4c(F)cccc4F)c4nc(c(-c5c(F)cccc5F)c5ccc2[nH]5)C=C4)C=C3)cc1
REMARK SMILES IDX 4 1 3 2 2 3 1 4 22 5 23 6 75 7 24 8 74 9 25 10 26 11 27 12
REMARK SMILES IDX 68 13 28 14 73 15 67 16 69 17 29 18 72 19 66 20 65 21 30 23
REMARK SMILES IDX 56 24 39 25 55 26 40 27 43 28 54 29 70 30 41 31 42 32 53 34
REMARK SMILES IDX 71 35 44 36 31 37 32 38 37 39 33 40 34 41 36 42 38 43 35 44
REMARK SMILES IDX 57 45 58 46 63 47 59 48 60 49 62 50 64 51 61 52 45 53 46 54
REMARK SMILES IDX 51 55 47 56 48 57 50 58 52 59 49 60 5 61 6 62 7 63 8 64 9 65
REMARK SMILES IDX 10 66 21 67 11 68 12 69 20 70 13 71 19 72 18 73 14 74 15 75
REMARK SMILES IDX 16 76 17 77
REMARK H PARENT 69 22 43 33
REMARK Flexibility Score: inf
ROOT
ATOM      1  C   UNL A   1      31.545  32.286  27.168  1.00  0.00     0.275 C 
ENDROOT
BRANCH   1   2
ATOM      2  O   UNL A   1      32.152  33.590  27.202  1.00  0.00    -0.458 OA
BRANCH   2   3
ATOM      3  C   UNL A   1      32.904  34.186  28.157  1.00  0.00     0.338 C 
ATOM      4  O   UNL A   1      32.594  35.322  28.516  1.00  0.00    -0.246 OA
BRANCH   3   5
ATOM      5  C   UNL A   1      34.186  33.619  28.695  1.00  0.00     0.060 A 
ATOM      6  C   UNL A   1      35.476  33.894  28.236  1.00  0.00     0.016 A 
ATOM      7  C   UNL A   1      34.064  32.757  29.800  1.00  0.00     0.016 A 
ATOM      8  C   UNL A   1      36.607  33.409  28.902  1.00  0.00     0.010 A 
ATOM      9  C   UNL A   1      35.189  32.287  30.484  1.00  0.00     0.010 A 
ATOM     10  C   UNL A   1      36.474  32.624  30.044  1.00  0.00    -0.014 A 
BRANCH  10  11
ATOM     11  C   UNL A   1      37.665  32.047  30.706  1.00  0.00     0.031 A 
ATOM     12  C   UNL A   1      38.316  30.851  30.079  1.00  0.00     0.074 A 
ATOM     13  C   UNL A   1      38.193  32.597  31.817  1.00  0.00     0.049 A 
ATOM     14  N   UNL A   1      39.341  30.160  30.500  1.00  0.00    -0.248 NA
ATOM     15  C   UNL A   1      37.785  30.415  28.774  1.00  0.00     0.031 C 
ATOM     16  C   UNL A   1      37.794  33.869  32.419  1.00  0.00     0.029 A 
ATOM     17  N   UNL A   1      39.170  32.133  32.664  1.00  0.00    -0.354 N 
ATOM     18  C   UNL A   1      39.616  29.253  29.488  1.00  0.00     0.074 A 
ATOM     19  C   UNL A   1      38.604  29.419  28.469  1.00  0.00     0.031 C 
ATOM     20  C   UNL A   1      38.447  34.030  33.584  1.00  0.00     0.029 A 
ATOM     21  C   UNL A   1      39.271  32.858  33.829  1.00  0.00     0.049 A 
ATOM     22  H   UNL A   1      39.743  31.359  32.458  1.00  0.00     0.167 HD
ATOM     23  C   UNL A   1      40.656  28.395  29.400  1.00  0.00     0.037 A 
ATOM     24  C   UNL A   1      39.915  32.574  34.976  1.00  0.00     0.037 A 
ATOM     25  C   UNL A   1      41.643  28.232  30.432  1.00  0.00     0.049 A 
ATOM     26  C   UNL A   1      40.862  31.416  34.981  1.00  0.00     0.074 A 
ATOM     27  C   UNL A   1      42.762  27.421  30.435  1.00  0.00     0.029 A 
ATOM     28  N   UNL A   1      41.605  28.875  31.660  1.00  0.00    -0.354 N 
ATOM     29  N   UNL A   1      41.150  30.593  34.004  1.00  0.00    -0.248 NA
ATOM     30  C   UNL A   1      41.633  31.198  36.211  1.00  0.00     0.031 C 
ATOM     31  C   UNL A   1      43.361  27.519  31.695  1.00  0.00     0.029 A 
ATOM     32  C   UNL A   1      42.648  28.432  32.456  1.00  0.00     0.049 A 
ATOM     33  H   UNL A   1      40.936  29.546  31.928  1.00  0.00     0.167 HD
ATOM     34  C   UNL A   1      42.191  29.808  34.471  1.00  0.00     0.074 A 
ATOM     35  C   UNL A   1      42.459  30.233  35.831  1.00  0.00     0.031 C 
ATOM     36  C   UNL A   1      42.891  28.854  33.811  1.00  0.00     0.037 A 
BRANCH  23  37
ATOM     37  C   UNL A   1      40.764  27.571  28.156  1.00  0.00     0.057 A 
ATOM     38  C   UNL A   1      41.488  28.012  27.040  1.00  0.00     0.134 A 
ATOM     39  C   UNL A   1      40.158  26.313  28.082  1.00  0.00     0.134 A 
ATOM     40  F   UNL A   1      42.074  29.219  27.041  1.00  0.00    -0.206 F 
ATOM     41  C   UNL A   1      41.593  27.232  25.886  1.00  0.00     0.040 A 
ATOM     42  C   UNL A   1      40.273  25.517  26.943  1.00  0.00     0.040 A 
ATOM     43  F   UNL A   1      39.446  25.839  29.115  1.00  0.00    -0.206 F 
ATOM     44  C   UNL A   1      40.990  25.977  25.840  1.00  0.00     0.006 A 
ENDBRANCH  23  37
BRANCH  24  45
ATOM     45  C   UNL A   1      39.685  33.351  36.219  1.00  0.00     0.057 A 
ATOM     46  C   UNL A   1      38.672  33.028  37.124  1.00  0.00     0.134 A 
ATOM     47  C   UNL A   1      40.427  34.512  36.475  1.00  0.00     0.134 A 
ATOM     48  F   UNL A   1      37.887  31.966  36.903  1.00  0.00    -0.206 F 
ATOM     49  C   UNL A   1      38.413  33.826  38.244  1.00  0.00     0.040 A 
ATOM     50  C   UNL A   1      40.200  35.302  37.603  1.00  0.00     0.040 A 
ATOM     51  F   UNL A   1      41.375  34.908  35.615  1.00  0.00    -0.206 F 
ATOM     52  C   UNL A   1      39.184  34.961  38.490  1.00  0.00     0.006 A 
ENDBRANCH  24  45
BRANCH  36  53
ATOM     53  C   UNL A   1      44.041  28.239  34.542  1.00  0.00     0.057 A 
ATOM     54  C   UNL A   1      43.904  27.051  35.267  1.00  0.00     0.134 A 
ATOM     55  C   UNL A   1      45.306  28.836  34.498  1.00  0.00     0.134 A 
ATOM     56  F   UNL A   1      42.709  26.448  35.366  1.00  0.00    -0.206 F 
ATOM     57  C   UNL A   1      44.985  26.485  35.941  1.00  0.00     0.040 A 
ATOM     58  C   UNL A   1      46.402  28.264  35.141  1.00  0.00     0.040 A 
ATOM     59  F   UNL A   1      45.500  29.979  33.821  1.00  0.00    -0.206 F 
ATOM     60  C   UNL A   1      46.241  27.087  35.871  1.00  0.00     0.006 A 
ENDBRANCH  36  53
ENDBRANCH  10  11
ENDBRANCH   3   5
ENDBRANCH   2   3
ENDBRANCH   1   2
BRANCH   1  61
ATOM     61  C   UNL A   1      32.417  31.193  26.535  1.00  0.00     0.275 C 
BRANCH  61  62
ATOM     62  O   UNL A   1      33.070  30.349  27.494  1.00  0.00    -0.458 OA
BRANCH  62  63
ATOM     63  C   UNL A   1      33.844  29.347  26.965  1.00  0.00     0.343 C 
ATOM     64  O   UNL A   1      35.061  29.337  26.967  1.00  0.00    -0.246 OA
BRANCH  63  65
ATOM     65  C   UNL A   1      33.049  28.209  26.576  1.00  0.00     0.124 A 
ATOM     66  C   UNL A   1      32.105  27.532  27.366  1.00  0.00     0.153 A 
ATOM     67  C   UNL A   1      33.044  27.528  25.377  1.00  0.00     0.170 A 
ATOM     68  N   UNL A   1      31.411  26.623  26.681  1.00  0.00    -0.174 NA
ATOM     69  N   UNL A   1      31.959  26.633  25.444  1.00  0.00    -0.209 N 
ATOM     70  N   UNL A   1      33.857  27.604  24.278  1.00  0.00    -0.236 NA
ATOM     71  C   UNL A   1      31.606  25.869  24.338  1.00  0.00     0.150 A 
ATOM     72  C   UNL A   1      33.585  26.774  23.319  1.00  0.00     0.116 A 
ATOM     73  C   UNL A   1      32.422  25.853  23.271  1.00  0.00     0.053 A 
BRANCH  71  74
ATOM     74  C   UNL A   1      30.300  25.170  24.387  1.00  0.00     0.433 C 
ATOM     75  F   UNL A   1      30.030  24.483  23.250  1.00  0.00    -0.165 F 
ATOM     76  F   UNL A   1      30.205  24.301  25.427  1.00  0.00    -0.165 F 
ATOM     77  F   UNL A   1      29.271  26.047  24.548  1.00  0.00    -0.165 F 
ENDBRANCH  71  74
ENDBRANCH  63  65
ENDBRANCH  62  63
ENDBRANCH  61  62
ENDBRANCH   1  61
TORSDOF 12
ENDMDL
