MODEL 1
REMARK VINA RESULT:     -11.5      0.000      0.000
REMARK SMILES COc1ccc(/C=C(\Sc2nc(C)n[nH]2)C(=O)OCCOC(=O)c2ccc(-c3c4nc(c(-c5c(F)cccc5F)c5ccc([nH]5)c(-c5c(F)cccc5F)c5nc(c(-c6c(F)cccc6F)c6ccc3[nH]6)C=C5)C=C4)cc2)c(OC)c1
REMARK SMILES IDX 19 1 18 2 16 3 17 4 8 5 7 6 6 7 3 8 4 9 81 10 5 11 78 12
REMARK SMILES IDX 2 13 1 14 79 15 80 16 9 17 10 18 11 19 15 20 12 21 14 22
REMARK SMILES IDX 13 24 20 25 21 26 22 27 23 28 24 29 25 30 77 31 26 32 76 33
REMARK SMILES IDX 27 34 28 35 29 36 70 37 30 38 75 39 69 40 71 41 31 42 74 43
REMARK SMILES IDX 68 44 67 45 32 47 58 48 41 49 57 50 42 51 45 52 56 53 72 54
REMARK SMILES IDX 43 55 44 56 55 58 73 59 46 60 33 61 34 62 39 63 35 64 36 65
REMARK SMILES IDX 38 66 40 67 37 68 59 69 60 70 65 71 61 72 62 73 64 74 66 75
REMARK SMILES IDX 63 76 47 77 48 78 53 79 49 80 50 81 52 82 54 83 51 84
REMARK H PARENT 15 23 71 46 45 57
REMARK Flexibility Score: inf
ROOT
ATOM      1  C   UNL A   1      34.314  31.117  27.251  1.00  0.00     0.275 C 
ENDROOT
BRANCH   1   2
ATOM      2  O   UNL A   1      33.225  30.192  27.387  1.00  0.00    -0.458 OA
BRANCH   2   3
ATOM      3  C   UNL A   1      32.389  30.038  26.320  1.00  0.00     0.345 C 
ATOM      4  O   UNL A   1      31.569  30.866  25.955  1.00  0.00    -0.246 OA
BRANCH   3   5
ATOM      5  C   UNL A   1      32.673  28.736  25.590  1.00  0.00     0.101 C 
ATOM      6  C   UNL A   1      32.610  27.644  26.390  1.00  0.00     0.035 C 
BRANCH   6   7
ATOM      7  C   UNL A   1      32.809  26.205  26.126  1.00  0.00     0.018 A 
ATOM      8  C   UNL A   1      33.348  23.463  26.224  1.00  0.00     0.122 A 
ATOM      9  C   UNL A   1      34.308  24.345  25.743  1.00  0.00     0.047 A 
ATOM     10  C   UNL A   1      32.057  23.911  26.469  1.00  0.00     0.093 A 
ATOM     11  C   UNL A   1      34.032  25.713  25.672  1.00  0.00     0.016 A 
ATOM     12  C   UNL A   1      31.770  25.278  26.346  1.00  0.00     0.129 A 
BRANCH   8  13
ATOM     13  O   UNL A   1      33.776  22.227  26.620  1.00  0.00    -0.497 OA
ATOM     14  C   UNL A   1      35.130  21.964  26.287  1.00  0.00     0.278 C 
ENDBRANCH   8  13
BRANCH  12  15
ATOM     15  O   UNL A   1      30.484  25.741  26.501  1.00  0.00    -0.496 OA
ATOM     16  C   UNL A   1      29.725  25.629  25.290  1.00  0.00     0.278 C 
ENDBRANCH  12  15
ENDBRANCH   6   7
BRANCH   5  17
ATOM     17  S   UNL A   1      32.932  28.949  23.886  1.00  0.00    -0.043 SA
BRANCH  17  18
ATOM     18  C   UNL A   1      31.414  29.059  23.121  1.00  0.00     0.188 A 
ATOM     19  N   UNL A   1      30.259  28.756  23.667  1.00  0.00    -0.206 NA
ATOM     20  N   UNL A   1      31.213  29.640  21.911  1.00  0.00    -0.254 N 
ATOM     21  C   UNL A   1      29.361  29.119  22.700  1.00  0.00     0.148 A 
ATOM     22  N   UNL A   1      29.898  29.710  21.622  1.00  0.00    -0.158 NA
ATOM     23  H   UNL A   1      31.931  29.967  21.322  1.00  0.00     0.192 HD
ATOM     24  C   UNL A   1      27.922  28.814  22.830  1.00  0.00     0.092 C 
ENDBRANCH  17  18
ENDBRANCH   5  17
ENDBRANCH   3   5
ENDBRANCH   2   3
ENDBRANCH   1   2
BRANCH   1  25
ATOM     25  C   UNL A   1      34.154  32.280  28.222  1.00  0.00     0.275 C 
BRANCH  25  26
ATOM     26  O   UNL A   1      35.402  32.656  28.811  1.00  0.00    -0.458 OA
BRANCH  26  27
ATOM     27  C   UNL A   1      35.752  31.950  29.904  1.00  0.00     0.338 C 
ATOM     28  O   UNL A   1      35.314  32.068  31.042  1.00  0.00    -0.246 OA
BRANCH  27  29
ATOM     29  C   UNL A   1      36.896  31.093  29.594  1.00  0.00     0.060 A 
ATOM     30  C   UNL A   1      36.710  29.707  29.629  1.00  0.00     0.016 A 
ATOM     31  C   UNL A   1      38.172  31.662  29.501  1.00  0.00     0.016 A 
ATOM     32  C   UNL A   1      37.821  28.888  29.679  1.00  0.00     0.010 A 
ATOM     33  C   UNL A   1      39.278  30.843  29.555  1.00  0.00     0.010 A 
ATOM     34  C   UNL A   1      39.094  29.467  29.701  1.00  0.00    -0.014 A 
BRANCH  34  35
ATOM     35  C   UNL A   1      40.245  28.590  29.811  1.00  0.00     0.031 A 
ATOM     36  C   UNL A   1      40.807  28.449  31.179  1.00  0.00     0.074 A 
ATOM     37  C   UNL A   1      40.658  27.818  28.787  1.00  0.00     0.049 A 
ATOM     38  N   UNL A   1      42.026  28.620  31.573  1.00  0.00    -0.248 NA
ATOM     39  C   UNL A   1      39.860  28.140  32.265  1.00  0.00     0.031 C 
ATOM     40  C   UNL A   1      40.001  27.609  27.494  1.00  0.00     0.029 A 
ATOM     41  N   UNL A   1      41.703  26.948  28.750  1.00  0.00    -0.354 N 
ATOM     42  C   UNL A   1      42.039  28.282  32.924  1.00  0.00     0.074 A 
ATOM     43  C   UNL A   1      40.668  28.104  33.323  1.00  0.00     0.031 C 
ATOM     44  C   UNL A   1      40.532  26.515  26.904  1.00  0.00     0.029 A 
ATOM     45  C   UNL A   1      41.634  26.028  27.717  1.00  0.00     0.049 A 
ATOM     46  H   UNL A   1      42.441  26.969  29.401  1.00  0.00     0.167 HD
ATOM     47  C   UNL A   1      43.189  27.984  33.586  1.00  0.00     0.037 A 
ATOM     48  C   UNL A   1      42.374  24.900  27.595  1.00  0.00     0.037 A 
ATOM     49  C   UNL A   1      44.349  28.501  32.918  1.00  0.00     0.049 A 
ATOM     50  C   UNL A   1      43.552  25.024  28.490  1.00  0.00     0.074 A 
ATOM     51  C   UNL A   1      44.768  29.764  32.549  1.00  0.00     0.029 A 
ATOM     52  N   UNL A   1      45.149  27.631  32.222  1.00  0.00    -0.354 N 
ATOM     53  N   UNL A   1      44.548  25.841  28.292  1.00  0.00    -0.248 NA
ATOM     54  C   UNL A   1      43.424  24.514  29.848  1.00  0.00     0.031 C 
ATOM     55  C   UNL A   1      45.433  29.584  31.301  1.00  0.00     0.029 A 
ATOM     56  C   UNL A   1      45.404  28.220  31.009  1.00  0.00     0.049 A 
ATOM     57  H   UNL A   1      45.477  26.755  32.531  1.00  0.00     0.167 HD
ATOM     58  C   UNL A   1      44.909  26.272  29.560  1.00  0.00     0.074 A 
ATOM     59  C   UNL A   1      44.258  25.343  30.479  1.00  0.00     0.031 C 
ATOM     60  C   UNL A   1      45.472  27.500  29.761  1.00  0.00     0.037 A 
BRANCH  47  61
ATOM     61  C   UNL A   1      43.266  26.958  34.684  1.00  0.00     0.057 A 
ATOM     62  C   UNL A   1      43.264  25.590  34.368  1.00  0.00     0.134 A 
ATOM     63  C   UNL A   1      43.066  27.265  36.045  1.00  0.00     0.134 A 
ATOM     64  F   UNL A   1      43.407  25.177  33.099  1.00  0.00    -0.206 F 
ATOM     65  C   UNL A   1      43.038  24.601  35.332  1.00  0.00     0.040 A 
ATOM     66  C   UNL A   1      42.892  26.284  37.024  1.00  0.00     0.040 A 
ATOM     67  F   UNL A   1      42.932  28.524  36.480  1.00  0.00    -0.206 F 
ATOM     68  C   UNL A   1      42.851  24.946  36.665  1.00  0.00     0.006 A 
ENDBRANCH  47  61
BRANCH  48  69
ATOM     69  C   UNL A   1      41.983  23.614  26.978  1.00  0.00     0.057 A 
ATOM     70  C   UNL A   1      42.866  22.909  26.148  1.00  0.00     0.134 A 
ATOM     71  C   UNL A   1      40.830  22.919  27.385  1.00  0.00     0.134 A 
ATOM     72  F   UNL A   1      44.014  23.469  25.745  1.00  0.00    -0.206 F 
ATOM     73  C   UNL A   1      42.622  21.586  25.757  1.00  0.00     0.040 A 
ATOM     74  C   UNL A   1      40.569  21.603  26.991  1.00  0.00     0.040 A 
ATOM     75  F   UNL A   1      39.960  23.460  28.249  1.00  0.00    -0.206 F 
ATOM     76  C   UNL A   1      41.474  20.926  26.184  1.00  0.00     0.006 A 
ENDBRANCH  48  69
BRANCH  60  77
ATOM     77  C   UNL A   1      45.926  28.275  28.556  1.00  0.00     0.057 A 
ATOM     78  C   UNL A   1      47.193  28.133  27.970  1.00  0.00     0.134 A 
ATOM     79  C   UNL A   1      45.000  29.073  27.874  1.00  0.00     0.134 A 
ATOM     80  F   UNL A   1      48.109  27.304  28.487  1.00  0.00    -0.206 F 
ATOM     81  C   UNL A   1      47.538  28.796  26.788  1.00  0.00     0.040 A 
ATOM     82  C   UNL A   1      45.321  29.713  26.674  1.00  0.00     0.040 A 
ATOM     83  F   UNL A   1      43.748  29.206  28.340  1.00  0.00    -0.206 F 
ATOM     84  C   UNL A   1      46.598  29.585  26.133  1.00  0.00     0.006 A 
ENDBRANCH  60  77
ENDBRANCH  34  35
ENDBRANCH  27  29
ENDBRANCH  26  27
ENDBRANCH  25  26
ENDBRANCH   1  25
TORSDOF 16
ENDMDL
MODEL 2
REMARK VINA RESULT:     -11.5      5.344     10.694
REMARK SMILES COc1ccc(/C=C(\Sc2nc(C)n[nH]2)C(=O)OCCOC(=O)c2ccc(-c3c4nc(c(-c5c(F)cccc5F)c5ccc([nH]5)c(-c5c(F)cccc5F)c5nc(c(-c6c(F)cccc6F)c6ccc3[nH]6)C=C5)C=C4)cc2)c(OC)c1
REMARK SMILES IDX 19 1 18 2 16 3 17 4 8 5 7 6 6 7 3 8 4 9 81 10 5 11 78 12
REMARK SMILES IDX 2 13 1 14 79 15 80 16 9 17 10 18 11 19 15 20 12 21 14 22
REMARK SMILES IDX 13 24 20 25 21 26 22 27 23 28 24 29 25 30 77 31 26 32 76 33
REMARK SMILES IDX 27 34 28 35 29 36 70 37 30 38 75 39 69 40 71 41 31 42 74 43
REMARK SMILES IDX 68 44 67 45 32 47 58 48 41 49 57 50 42 51 45 52 56 53 72 54
REMARK SMILES IDX 43 55 44 56 55 58 73 59 46 60 33 61 34 62 39 63 35 64 36 65
REMARK SMILES IDX 38 66 40 67 37 68 59 69 60 70 65 71 61 72 62 73 64 74 66 75
REMARK SMILES IDX 63 76 47 77 48 78 53 79 49 80 50 81 52 82 54 83 51 84
REMARK H PARENT 15 23 71 46 45 57
REMARK Flexibility Score: inf
ROOT
ATOM      1  C   UNL A   1      34.415  35.778  33.657  1.00  0.00     0.275 C 
ENDROOT
BRANCH   1   2
ATOM      2  O   UNL A   1      35.758  35.274  33.651  1.00  0.00    -0.458 OA
BRANCH   2   3
ATOM      3  C   UNL A   1      35.980  34.053  34.215  1.00  0.00     0.345 C 
ATOM      4  O   UNL A   1      35.110  33.230  34.455  1.00  0.00    -0.246 OA
BRANCH   3   5
ATOM      5  C   UNL A   1      37.466  33.811  34.423  1.00  0.00     0.101 C 
ATOM      6  C   UNL A   1      38.207  34.945  34.386  1.00  0.00     0.035 C 
BRANCH   6   7
ATOM      7  C   UNL A   1      39.655  35.191  34.534  1.00  0.00     0.018 A 
ATOM      8  C   UNL A   1      42.267  36.190  34.525  1.00  0.00     0.122 A 
ATOM      9  C   UNL A   1      41.864  35.284  33.551  1.00  0.00     0.047 A 
ATOM     10  C   UNL A   1      41.444  36.448  35.614  1.00  0.00     0.093 A 
ATOM     11  C   UNL A   1      40.566  34.766  33.568  1.00  0.00     0.016 A 
ATOM     12  C   UNL A   1      40.161  35.884  35.653  1.00  0.00     0.129 A 
BRANCH   8  13
ATOM     13  O   UNL A   1      43.381  36.936  34.263  1.00  0.00    -0.497 OA
ATOM     14  C   UNL A   1      43.816  36.850  32.915  1.00  0.00     0.278 C 
ENDBRANCH   8  13
BRANCH  12  15
ATOM     15  O   UNL A   1      39.354  36.054  36.754  1.00  0.00    -0.496 OA
ATOM     16  C   UNL A   1      40.100  36.472  37.904  1.00  0.00     0.278 C 
ENDBRANCH  12  15
ENDBRANCH   6   7
BRANCH   5  17
ATOM     17  S   UNL A   1      37.851  32.148  34.741  1.00  0.00    -0.043 SA
BRANCH  17  18
ATOM     18  C   UNL A   1      37.694  31.870  36.414  1.00  0.00     0.188 A 
ATOM     19  N   UNL A   1      37.377  32.772  37.313  1.00  0.00    -0.206 NA
ATOM     20  N   UNL A   1      37.711  30.638  36.985  1.00  0.00    -0.254 N 
ATOM     21  C   UNL A   1      37.272  32.034  38.462  1.00  0.00     0.148 A 
ATOM     22  N   UNL A   1      37.422  30.711  38.300  1.00  0.00    -0.158 NA
ATOM     23  H   UNL A   1      37.906  29.802  36.503  1.00  0.00     0.192 HD
ATOM     24  C   UNL A   1      37.071  32.678  39.775  1.00  0.00     0.092 C 
ENDBRANCH  17  18
ENDBRANCH   5  17
ENDBRANCH   3   5
ENDBRANCH   2   3
ENDBRANCH   1   2
BRANCH   1  25
ATOM     25  C   UNL A   1      33.980  36.163  32.249  1.00  0.00     0.275 C 
BRANCH  25  26
ATOM     26  O   UNL A   1      33.136  35.167  31.663  1.00  0.00    -0.458 OA
BRANCH  26  27
ATOM     27  C   UNL A   1      33.256  35.032  30.328  1.00  0.00     0.338 C 
ATOM     28  O   UNL A   1      32.476  35.415  29.465  1.00  0.00    -0.246 OA
BRANCH  27  29
ATOM     29  C   UNL A   1      34.406  34.183  30.018  1.00  0.00     0.060 A 
ATOM     30  C   UNL A   1      34.749  33.181  30.932  1.00  0.00     0.016 A 
ATOM     31  C   UNL A   1      35.253  34.536  28.960  1.00  0.00     0.016 A 
ATOM     32  C   UNL A   1      36.001  32.602  30.845  1.00  0.00     0.010 A 
ATOM     33  C   UNL A   1      36.501  33.960  28.878  1.00  0.00     0.010 A 
ATOM     34  C   UNL A   1      36.886  33.039  29.854  1.00  0.00    -0.014 A 
BRANCH  34  35
ATOM     35  C   UNL A   1      38.215  32.457  29.816  1.00  0.00     0.031 A 
ATOM     36  C   UNL A   1      38.282  31.060  29.312  1.00  0.00     0.074 A 
ATOM     37  C   UNL A   1      39.324  33.187  30.045  1.00  0.00     0.049 A 
ATOM     38  N   UNL A   1      38.821  30.026  29.869  1.00  0.00    -0.248 NA
ATOM     39  C   UNL A   1      37.594  30.771  28.042  1.00  0.00     0.031 C 
ATOM     40  C   UNL A   1      39.427  34.638  30.224  1.00  0.00     0.029 A 
ATOM     41  N   UNL A   1      40.622  32.782  30.031  1.00  0.00    -0.354 N 
ATOM     42  C   UNL A   1      38.686  28.987  28.952  1.00  0.00     0.074 A 
ATOM     43  C   UNL A   1      37.830  29.469  27.900  1.00  0.00     0.031 C 
ATOM     44  C   UNL A   1      40.717  35.009  30.073  1.00  0.00     0.029 A 
ATOM     45  C   UNL A   1      41.535  33.818  29.910  1.00  0.00     0.049 A 
ATOM     46  H   UNL A   1      40.890  31.837  30.100  1.00  0.00     0.167 HD
ATOM     47  C   UNL A   1      39.441  27.858  29.018  1.00  0.00     0.037 A 
ATOM     48  C   UNL A   1      42.850  33.698  29.605  1.00  0.00     0.037 A 
ATOM     49  C   UNL A   1      39.996  27.653  30.326  1.00  0.00     0.049 A 
ATOM     50  C   UNL A   1      43.252  32.291  29.850  1.00  0.00     0.074 A 
ATOM     51  C   UNL A   1      39.459  27.492  31.588  1.00  0.00     0.029 A 
ATOM     52  N   UNL A   1      41.327  27.918  30.523  1.00  0.00    -0.354 N 
ATOM     53  N   UNL A   1      43.353  31.746  31.030  1.00  0.00    -0.248 NA
ATOM     54  C   UNL A   1      43.150  31.356  28.738  1.00  0.00     0.031 C 
ATOM     55  C   UNL A   1      40.367  28.157  32.463  1.00  0.00     0.029 A 
ATOM     56  C   UNL A   1      41.412  28.650  31.681  1.00  0.00     0.049 A 
ATOM     57  H   UNL A   1      42.076  27.639  29.948  1.00  0.00     0.167 HD
ATOM     58  C   UNL A   1      42.911  30.442  30.856  1.00  0.00     0.074 A 
ATOM     59  C   UNL A   1      42.902  30.231  29.412  1.00  0.00     0.031 C 
ATOM     60  C   UNL A   1      42.329  29.747  31.877  1.00  0.00     0.037 A 
BRANCH  47  61
ATOM     61  C   UNL A   1      39.913  27.110  27.802  1.00  0.00     0.057 A 
ATOM     62  C   UNL A   1      39.751  25.717  27.728  1.00  0.00     0.134 A 
ATOM     63  C   UNL A   1      40.764  27.672  26.829  1.00  0.00     0.134 A 
ATOM     64  F   UNL A   1      38.994  25.064  28.623  1.00  0.00    -0.206 F 
ATOM     65  C   UNL A   1      40.420  24.937  26.778  1.00  0.00     0.040 A 
ATOM     66  C   UNL A   1      41.396  26.910  25.844  1.00  0.00     0.040 A 
ATOM     67  F   UNL A   1      41.103  28.968  26.842  1.00  0.00    -0.206 F 
ATOM     68  C   UNL A   1      41.247  25.532  25.832  1.00  0.00     0.006 A 
ENDBRANCH  47  61
BRANCH  48  69
ATOM     69  C   UNL A   1      43.701  34.644  28.852  1.00  0.00     0.057 A 
ATOM     70  C   UNL A   1      43.283  35.176  27.625  1.00  0.00     0.134 A 
ATOM     71  C   UNL A   1      44.833  35.243  29.432  1.00  0.00     0.134 A 
ATOM     72  F   UNL A   1      42.187  34.703  27.015  1.00  0.00    -0.206 F 
ATOM     73  C   UNL A   1      43.945  36.251  27.016  1.00  0.00     0.040 A 
ATOM     74  C   UNL A   1      45.510  36.308  28.829  1.00  0.00     0.040 A 
ATOM     75  F   UNL A   1      45.270  34.876  30.645  1.00  0.00    -0.206 F 
ATOM     76  C   UNL A   1      45.058  36.825  27.623  1.00  0.00     0.006 A 
ENDBRANCH  48  69
BRANCH  60  77
ATOM     77  C   UNL A   1      42.404  30.327  33.261  1.00  0.00     0.057 A 
ATOM     78  C   UNL A   1      41.479  31.250  33.771  1.00  0.00     0.134 A 
ATOM     79  C   UNL A   1      43.349  29.817  34.160  1.00  0.00     0.134 A 
ATOM     80  F   UNL A   1      40.471  31.710  33.020  1.00  0.00    -0.206 F 
ATOM     81  C   UNL A   1      41.526  31.685  35.100  1.00  0.00     0.040 A 
ATOM     82  C   UNL A   1      43.385  30.217  35.498  1.00  0.00     0.040 A 
ATOM     83  F   UNL A   1      44.227  28.882  33.761  1.00  0.00    -0.206 F 
ATOM     84  C   UNL A   1      42.478  31.163  35.970  1.00  0.00     0.006 A 
ENDBRANCH  60  77
ENDBRANCH  34  35
ENDBRANCH  27  29
ENDBRANCH  26  27
ENDBRANCH  25  26
ENDBRANCH   1  25
TORSDOF 16
ENDMDL
MODEL 3
REMARK VINA RESULT:     -11.4      2.152      3.044
REMARK SMILES COc1ccc(/C=C(\Sc2nc(C)n[nH]2)C(=O)OCCOC(=O)c2ccc(-c3c4nc(c(-c5c(F)cccc5F)c5ccc([nH]5)c(-c5c(F)cccc5F)c5nc(c(-c6c(F)cccc6F)c6ccc3[nH]6)C=C5)C=C4)cc2)c(OC)c1
REMARK SMILES IDX 19 1 18 2 16 3 17 4 8 5 7 6 6 7 3 8 4 9 81 10 5 11 78 12
REMARK SMILES IDX 2 13 1 14 79 15 80 16 9 17 10 18 11 19 15 20 12 21 14 22
REMARK SMILES IDX 13 24 20 25 21 26 22 27 23 28 24 29 25 30 77 31 26 32 76 33
REMARK SMILES IDX 27 34 28 35 29 36 70 37 30 38 75 39 69 40 71 41 31 42 74 43
REMARK SMILES IDX 68 44 67 45 32 47 58 48 41 49 57 50 42 51 45 52 56 53 72 54
REMARK SMILES IDX 43 55 44 56 55 58 73 59 46 60 33 61 34 62 39 63 35 64 36 65
REMARK SMILES IDX 38 66 40 67 37 68 59 69 60 70 65 71 61 72 62 73 64 74 66 75
REMARK SMILES IDX 63 76 47 77 48 78 53 79 49 80 50 81 52 82 54 83 51 84
REMARK H PARENT 15 23 71 46 45 57
REMARK Flexibility Score: inf
ROOT
ATOM      1  C   UNL A   1      32.472  29.734  27.147  1.00  0.00     0.275 C 
ENDROOT
BRANCH   1   2
ATOM      2  O   UNL A   1      33.430  29.089  26.297  1.00  0.00    -0.458 OA
BRANCH   2   3
ATOM      3  C   UNL A   1      33.055  28.814  25.015  1.00  0.00     0.345 C 
ATOM      4  O   UNL A   1      32.963  29.644  24.124  1.00  0.00    -0.246 OA
BRANCH   3   5
ATOM      5  C   UNL A   1      32.852  27.320  24.816  1.00  0.00     0.101 C 
ATOM      6  C   UNL A   1      34.012  26.627  24.719  1.00  0.00     0.035 C 
BRANCH   6   7
ATOM      7  C   UNL A   1      34.298  25.191  24.525  1.00  0.00     0.018 A 
ATOM      8  C   UNL A   1      34.239  22.405  24.296  1.00  0.00     0.122 A 
ATOM      9  C   UNL A   1      34.687  22.998  25.470  1.00  0.00     0.047 A 
ATOM     10  C   UNL A   1      34.009  23.185  23.170  1.00  0.00     0.093 A 
ATOM     11  C   UNL A   1      34.740  24.391  25.578  1.00  0.00     0.016 A 
ATOM     12  C   UNL A   1      34.114  24.579  23.268  1.00  0.00     0.129 A 
BRANCH   8  13
ATOM     13  O   UNL A   1      33.858  21.095  24.363  1.00  0.00    -0.497 OA
ATOM     14  C   UNL A   1      34.866  20.237  24.875  1.00  0.00     0.278 C 
ENDBRANCH   8  13
BRANCH  12  15
ATOM     15  O   UNL A   1      33.973  25.373  22.155  1.00  0.00    -0.496 OA
ATOM     16  C   UNL A   1      32.681  25.224  21.551  1.00  0.00     0.278 C 
ENDBRANCH  12  15
ENDBRANCH   6   7
BRANCH   5  17
ATOM     17  S   UNL A   1      31.181  26.848  24.842  1.00  0.00    -0.043 SA
BRANCH  17  18
ATOM     18  C   UNL A   1      31.064  25.327  25.601  1.00  0.00     0.188 A 
ATOM     19  N   UNL A   1      30.967  24.172  24.986  1.00  0.00    -0.206 NA
ATOM     20  N   UNL A   1      31.234  25.127  26.933  1.00  0.00    -0.254 N 
ATOM     21  C   UNL A   1      31.016  23.273  26.018  1.00  0.00     0.148 A 
ATOM     22  N   UNL A   1      31.227  23.812  27.228  1.00  0.00    -0.158 NA
ATOM     23  H   UNL A   1      31.347  25.846  27.595  1.00  0.00     0.192 HD
ATOM     24  C   UNL A   1      30.789  21.831  25.796  1.00  0.00     0.092 C 
ENDBRANCH  17  18
ENDBRANCH   5  17
ENDBRANCH   3   5
ENDBRANCH   2   3
ENDBRANCH   1   2
BRANCH   1  25
ATOM     25  C   UNL A   1      32.856  31.189  27.382  1.00  0.00     0.275 C 
BRANCH  25  26
ATOM     26  O   UNL A   1      34.268  31.389  27.271  1.00  0.00    -0.458 OA
BRANCH  26  27
ATOM     27  C   UNL A   1      34.903  31.635  28.434  1.00  0.00     0.338 C 
ATOM     28  O   UNL A   1      34.487  32.276  29.391  1.00  0.00    -0.246 OA
BRANCH  27  29
ATOM     29  C   UNL A   1      36.285  31.164  28.352  1.00  0.00     0.060 A 
ATOM     30  C   UNL A   1      36.512  29.868  27.875  1.00  0.00     0.016 A 
ATOM     31  C   UNL A   1      37.302  31.914  28.956  1.00  0.00     0.016 A 
ATOM     32  C   UNL A   1      37.741  29.281  28.103  1.00  0.00     0.010 A 
ATOM     33  C   UNL A   1      38.525  31.325  29.185  1.00  0.00     0.010 A 
ATOM     34  C   UNL A   1      38.717  29.995  28.807  1.00  0.00    -0.014 A 
BRANCH  34  35
ATOM     35  C   UNL A   1      39.981  29.338  29.085  1.00  0.00     0.031 A 
ATOM     36  C   UNL A   1      40.262  29.084  30.521  1.00  0.00     0.074 A 
ATOM     37  C   UNL A   1      40.754  28.830  28.106  1.00  0.00     0.049 A 
ATOM     38  N   UNL A   1      41.307  29.410  31.210  1.00  0.00    -0.248 NA
ATOM     39  C   UNL A   1      39.200  28.436  31.309  1.00  0.00     0.031 C 
ATOM     40  C   UNL A   1      40.442  28.714  26.678  1.00  0.00     0.029 A 
ATOM     41  N   UNL A   1      41.946  28.184  28.217  1.00  0.00    -0.354 N 
ATOM     42  C   UNL A   1      41.111  28.868  32.477  1.00  0.00     0.074 A 
ATOM     43  C   UNL A   1      39.758  28.380  32.517  1.00  0.00     0.031 C 
ATOM     44  C   UNL A   1      41.306  27.846  26.108  1.00  0.00     0.029 A 
ATOM     45  C   UNL A   1      42.294  27.445  27.097  1.00  0.00     0.049 A 
ATOM     46  H   UNL A   1      42.510  28.235  29.021  1.00  0.00     0.167 HD
ATOM     47  C   UNL A   1      42.134  28.684  33.353  1.00  0.00     0.037 A 
ATOM     48  C   UNL A   1      43.268  26.507  27.024  1.00  0.00     0.037 A 
ATOM     49  C   UNL A   1      43.269  29.506  33.043  1.00  0.00     0.049 A 
ATOM     50  C   UNL A   1      44.178  26.700  28.181  1.00  0.00     0.074 A 
ATOM     51  C   UNL A   1      43.474  30.868  32.931  1.00  0.00     0.029 A 
ATOM     52  N   UNL A   1      44.365  28.921  32.460  1.00  0.00    -0.354 N 
ATOM     53  N   UNL A   1      44.994  27.707  28.320  1.00  0.00    -0.248 NA
ATOM     54  C   UNL A   1      43.884  25.963  29.402  1.00  0.00     0.031 C 
ATOM     55  C   UNL A   1      44.406  31.015  31.864  1.00  0.00     0.029 A 
ATOM     56  C   UNL A   1      44.733  29.735  31.418  1.00  0.00     0.049 A 
ATOM     57  H   UNL A   1      44.801  28.083  32.734  1.00  0.00     0.167 HD
ATOM     58  C   UNL A   1      44.982  27.987  29.678  1.00  0.00     0.074 A 
ATOM     59  C   UNL A   1      44.369  26.820  30.304  1.00  0.00     0.031 C 
ATOM     60  C   UNL A   1      45.213  29.249  30.146  1.00  0.00     0.037 A 
BRANCH  47  61
ATOM     61  C   UNL A   1      42.200  27.527  34.312  1.00  0.00     0.057 A 
ATOM     62  C   UNL A   1      41.762  27.686  35.636  1.00  0.00     0.134 A 
ATOM     63  C   UNL A   1      42.931  26.348  34.054  1.00  0.00     0.134 A 
ATOM     64  F   UNL A   1      41.089  28.786  36.010  1.00  0.00    -0.206 F 
ATOM     65  C   UNL A   1      42.065  26.759  36.640  1.00  0.00     0.040 A 
ATOM     66  C   UNL A   1      43.193  25.391  35.037  1.00  0.00     0.040 A 
ATOM     67  F   UNL A   1      43.508  26.113  32.869  1.00  0.00    -0.206 F 
ATOM     68  C   UNL A   1      42.783  25.607  36.342  1.00  0.00     0.006 A 
ENDBRANCH  47  61
BRANCH  48  69
ATOM     69  C   UNL A   1      43.300  25.288  26.189  1.00  0.00     0.057 A 
ATOM     70  C   UNL A   1      44.319  25.078  25.250  1.00  0.00     0.134 A 
ATOM     71  C   UNL A   1      42.476  24.181  26.463  1.00  0.00     0.134 A 
ATOM     72  F   UNL A   1      45.185  26.058  24.956  1.00  0.00    -0.206 F 
ATOM     73  C   UNL A   1      44.516  23.837  24.630  1.00  0.00     0.040 A 
ATOM     74  C   UNL A   1      42.653  22.941  25.842  1.00  0.00     0.040 A 
ATOM     75  F   UNL A   1      41.526  24.239  27.407  1.00  0.00    -0.206 F 
ATOM     76  C   UNL A   1      43.685  22.762  24.930  1.00  0.00     0.006 A 
ENDBRANCH  48  69
BRANCH  60  77
ATOM     77  C   UNL A   1      45.730  30.278  29.181  1.00  0.00     0.057 A 
ATOM     78  C   UNL A   1      44.906  31.059  28.357  1.00  0.00     0.134 A 
ATOM     79  C   UNL A   1      47.093  30.599  29.197  1.00  0.00     0.134 A 
ATOM     80  F   UNL A   1      43.576  30.902  28.357  1.00  0.00    -0.206 F 
ATOM     81  C   UNL A   1      45.421  32.078  27.550  1.00  0.00     0.040 A 
ATOM     82  C   UNL A   1      47.615  31.637  28.422  1.00  0.00     0.040 A 
ATOM     83  F   UNL A   1      47.935  29.937  30.007  1.00  0.00    -0.206 F 
ATOM     84  C   UNL A   1      46.780  32.374  27.585  1.00  0.00     0.006 A 
ENDBRANCH  60  77
ENDBRANCH  34  35
ENDBRANCH  27  29
ENDBRANCH  26  27
ENDBRANCH  25  26
ENDBRANCH   1  25
TORSDOF 16
ENDMDL
