MODEL 1
REMARK VINA RESULT:     -11.7      0.000      0.000
REMARK SMILES O=C(OCCOC(=O)c1ccc(-c2c3nc(c(-c4c(F)cccc4F)c4ccc([nH]4)c(-c4c(F)cccc4F)c4nc(c(-c5c(F)cccc5F)c5ccc2[nH]5)C=C4)C=C3)cc1)C1=Cc2cc(S(F)(F)(F)(F)F)cc(Br)c2O[C@H]1C(F)(F)F
REMARK SMILES IDX 5 1 4 2 3 3 2 4 1 5 63 6 64 7 79 8 65 9 78 10 66 11 77 12
REMARK SMILES IDX 67 13 75 14 74 15 76 16 80 17 81 18 82 19 83 20 68 21 69 22
REMARK SMILES IDX 70 23 71 24 72 25 73 26 6 27 7 28 8 29 9 30 10 31 62 32
REMARK SMILES IDX 11 33 61 34 12 35 13 36 14 37 55 38 15 39 60 40 54 41 56 42
REMARK SMILES IDX 16 43 59 44 53 45 52 46 17 48 43 49 26 50 42 51 27 52 30 53
REMARK SMILES IDX 41 54 57 55 28 56 29 57 40 59 58 60 31 61 18 62 19 63 24 64
REMARK SMILES IDX 20 65 21 66 23 67 25 68 22 69 44 70 45 71 50 72 46 73 47 74
REMARK SMILES IDX 49 75 51 76 48 77 32 78 33 79 38 80 34 81 35 82 37 83 39 84
REMARK SMILES IDX 36 85
REMARK H PARENT 56 47 30 58
REMARK Flexibility Score: inf
ROOT
ATOM      1  C   UNL A   1      32.484  29.657  27.118  1.00  0.00     0.275 C 
ENDROOT
BRANCH   1   2
ATOM      2  C   UNL A   1      32.182  28.168  27.142  1.00  0.00     0.275 C 
BRANCH   2   3
ATOM      3  O   UNL A   1      32.759  27.550  26.001  1.00  0.00    -0.459 OA
BRANCH   3   4
ATOM      4  C   UNL A   1      31.924  26.990  24.998  1.00  0.00     0.338 C 
ATOM      5  O   UNL A   1      30.717  26.698  25.266  1.00  0.00    -0.246 OA
BRANCH   4   6
ATOM      6  C   UNL A   1      32.475  26.741  23.603  1.00  0.00     0.087 C 
ATOM      7  C   UNL A   1      33.333  25.709  23.385  1.00  0.00     0.027 C 
ATOM      8  C   UNL A   1      32.065  27.644  22.451  1.00  0.00     0.316 C 
ATOM      9  C   UNL A   1      33.743  24.805  24.537  1.00  0.00     0.020 A 
ATOM     10  O   UNL A   1      31.518  24.705  25.368  1.00  0.00    -0.474 OA
ATOM     11  C   UNL A   1      35.103  24.572  24.653  1.00  0.00     0.036 A 
ATOM     12  C   UNL A   1      32.883  24.317  25.423  1.00  0.00     0.142 A 
ATOM     13  C   UNL A   1      35.435  23.563  25.587  1.00  0.00     0.109 A 
ATOM     14  C   UNL A   1      33.302  23.439  26.394  1.00  0.00     0.062 A 
ATOM     15  C   UNL A   1      34.625  23.118  26.529  1.00  0.00     0.044 A 
ATOM     16  Br  UNL A   1      31.985  22.635  27.602  1.00  0.00    -0.047 Br
BRANCH   8  17
ATOM     17  C   UNL A   1      31.106  28.709  22.959  1.00  0.00     0.430 C 
ATOM     18  F   UNL A   1      29.961  28.148  23.338  1.00  0.00    -0.167 F 
ATOM     19  F   UNL A   1      31.651  29.345  23.992  1.00  0.00    -0.167 F 
ATOM     20  F   UNL A   1      30.872  29.576  21.978  1.00  0.00    -0.167 F 
ENDBRANCH   8  17
BRANCH  13  21
ATOM     21  S   UNL A   1      37.087  22.829  25.482  1.00  0.00     0.310 S 
ATOM     22  F   UNL A   1      37.449  23.704  24.210  1.00  0.00    -0.094 F 
ATOM     23  F   UNL A   1      36.519  21.745  24.490  1.00  0.00    -0.094 F 
ATOM     24  F   UNL A   1      38.511  22.212  25.387  1.00  0.00    -0.094 F 
ATOM     25  F   UNL A   1      37.664  24.004  26.365  1.00  0.00    -0.094 F 
ATOM     26  F   UNL A   1      35.671  23.533  25.498  1.00  0.00    -0.094 F 
ENDBRANCH  13  21
ENDBRANCH   4   6
ENDBRANCH   3   4
ENDBRANCH   2   3
ENDBRANCH   1   2
BRANCH   1  27
ATOM     27  O   UNL A   1      33.883  29.855  26.987  1.00  0.00    -0.458 OA
BRANCH  27  28
ATOM     28  C   UNL A   1      34.583  30.632  27.947  1.00  0.00     0.338 C 
ATOM     29  O   UNL A   1      34.018  31.633  28.489  1.00  0.00    -0.246 OA
BRANCH  28  30
ATOM     30  C   UNL A   1      36.010  30.268  28.328  1.00  0.00     0.060 A 
ATOM     31  C   UNL A   1      36.990  30.445  27.366  1.00  0.00     0.016 A 
ATOM     32  C   UNL A   1      36.277  29.669  29.482  1.00  0.00     0.016 A 
ATOM     33  C   UNL A   1      38.166  29.694  27.601  1.00  0.00     0.010 A 
ATOM     34  C   UNL A   1      37.496  29.071  29.695  1.00  0.00     0.010 A 
ATOM     35  C   UNL A   1      38.492  29.157  28.762  1.00  0.00    -0.014 A 
BRANCH  35  36
ATOM     36  C   UNL A   1      39.900  28.661  29.048  1.00  0.00     0.031 A 
ATOM     37  C   UNL A   1      40.328  27.393  28.649  1.00  0.00     0.074 A 
ATOM     38  C   UNL A   1      40.723  29.605  29.639  1.00  0.00     0.049 A 
ATOM     39  N   UNL A   1      41.561  26.889  28.726  1.00  0.00    -0.248 NA
ATOM     40  C   UNL A   1      39.449  26.377  28.053  1.00  0.00     0.031 C 
ATOM     41  C   UNL A   1      40.301  30.889  30.038  1.00  0.00     0.029 A 
ATOM     42  N   UNL A   1      42.060  29.486  29.946  1.00  0.00    -0.354 N 
ATOM     43  C   UNL A   1      41.584  25.651  28.227  1.00  0.00     0.074 A 
ATOM     44  C   UNL A   1      40.225  25.302  27.792  1.00  0.00     0.031 C 
ATOM     45  C   UNL A   1      41.366  31.531  30.586  1.00  0.00     0.029 A 
ATOM     46  C   UNL A   1      42.471  30.659  30.540  1.00  0.00     0.049 A 
ATOM     47  H   UNL A   1      42.626  28.700  29.771  1.00  0.00     0.167 HD
ATOM     48  C   UNL A   1      42.686  24.802  28.116  1.00  0.00     0.037 A 
ATOM     49  C   UNL A   1      43.733  30.970  31.023  1.00  0.00     0.037 A 
ATOM     50  C   UNL A   1      43.957  25.129  28.559  1.00  0.00     0.049 A 
ATOM     51  C   UNL A   1      44.822  30.098  30.964  1.00  0.00     0.074 A 
ATOM     52  C   UNL A   1      45.080  24.287  28.447  1.00  0.00     0.029 A 
ATOM     53  N   UNL A   1      44.362  26.293  29.175  1.00  0.00    -0.354 N 
ATOM     54  N   UNL A   1      44.854  28.877  30.428  1.00  0.00    -0.248 NA
ATOM     55  C   UNL A   1      46.154  30.404  31.501  1.00  0.00     0.031 C 
ATOM     56  C   UNL A   1      46.145  24.930  28.996  1.00  0.00     0.029 A 
ATOM     57  C   UNL A   1      45.705  26.184  29.461  1.00  0.00     0.049 A 
ATOM     58  H   UNL A   1      43.790  27.069  29.376  1.00  0.00     0.167 HD
ATOM     59  C   UNL A   1      46.077  28.356  30.544  1.00  0.00     0.074 A 
ATOM     60  C   UNL A   1      46.930  29.329  31.242  1.00  0.00     0.031 C 
ATOM     61  C   UNL A   1      46.519  27.112  30.092  1.00  0.00     0.037 A 
BRANCH  48  62
ATOM     62  C   UNL A   1      42.480  23.441  27.471  1.00  0.00     0.057 A 
ATOM     63  C   UNL A   1      42.669  23.366  26.100  1.00  0.00     0.134 A 
ATOM     64  C   UNL A   1      42.225  22.355  28.191  1.00  0.00     0.134 A 
ATOM     65  F   UNL A   1      43.171  24.367  25.383  1.00  0.00    -0.206 F 
ATOM     66  C   UNL A   1      42.282  22.128  25.535  1.00  0.00     0.040 A 
ATOM     67  C   UNL A   1      41.990  21.148  27.578  1.00  0.00     0.040 A 
ATOM     68  F   UNL A   1      42.197  22.436  29.518  1.00  0.00    -0.206 F 
ATOM     69  C   UNL A   1      42.102  21.014  26.221  1.00  0.00     0.006 A 
ENDBRANCH  48  62
BRANCH  49  70
ATOM     70  C   UNL A   1      43.942  32.339  31.652  1.00  0.00     0.057 A 
ATOM     71  C   UNL A   1      43.727  32.537  33.005  1.00  0.00     0.134 A 
ATOM     72  C   UNL A   1      44.237  33.352  30.845  1.00  0.00     0.134 A 
ATOM     73  F   UNL A   1      43.682  31.543  33.887  1.00  0.00    -0.206 F 
ATOM     74  C   UNL A   1      43.562  33.896  33.365  1.00  0.00     0.040 A 
ATOM     75  C   UNL A   1      44.186  34.647  31.300  1.00  0.00     0.040 A 
ATOM     76  F   UNL A   1      44.584  33.110  29.584  1.00  0.00    -0.206 F 
ATOM     77  C   UNL A   1      43.922  34.920  32.614  1.00  0.00     0.006 A 
ENDBRANCH  49  70
BRANCH  61  78
ATOM     78  C   UNL A   1      47.980  26.752  30.305  1.00  0.00     0.057 A 
ATOM     79  C   UNL A   1      48.857  27.097  29.290  1.00  0.00     0.134 A 
ATOM     80  C   UNL A   1      48.384  26.050  31.357  1.00  0.00     0.134 A 
ATOM     81  F   UNL A   1      48.570  27.998  28.357  1.00  0.00    -0.206 F 
ATOM     82  C   UNL A   1      50.089  26.400  29.337  1.00  0.00     0.040 A 
ATOM     83  C   UNL A   1      49.649  25.513  31.395  1.00  0.00     0.040 A 
ATOM     84  F   UNL A   1      47.558  25.865  32.382  1.00  0.00    -0.206 F 
ATOM     85  C   UNL A   1      50.550  25.763  30.398  1.00  0.00     0.006 A 
ENDBRANCH  61  78
ENDBRANCH  35  36
ENDBRANCH  28  30
ENDBRANCH  27  28
ENDBRANCH   1  27
TORSDOF 13
ENDMDL
MODEL 2
REMARK VINA RESULT:     -11.5      1.763      6.174
REMARK SMILES O=C(OCCOC(=O)c1ccc(-c2c3nc(c(-c4c(F)cccc4F)c4ccc([nH]4)c(-c4c(F)cccc4F)c4nc(c(-c5c(F)cccc5F)c5ccc2[nH]5)C=C4)C=C3)cc1)C1=Cc2cc(S(F)(F)(F)(F)F)cc(Br)c2O[C@H]1C(F)(F)F
REMARK SMILES IDX 5 1 4 2 3 3 2 4 1 5 63 6 64 7 79 8 65 9 78 10 66 11 77 12
REMARK SMILES IDX 67 13 75 14 74 15 76 16 80 17 81 18 82 19 83 20 68 21 69 22
REMARK SMILES IDX 70 23 71 24 72 25 73 26 6 27 7 28 8 29 9 30 10 31 62 32
REMARK SMILES IDX 11 33 61 34 12 35 13 36 14 37 55 38 15 39 60 40 54 41 56 42
REMARK SMILES IDX 16 43 59 44 53 45 52 46 17 48 43 49 26 50 42 51 27 52 30 53
REMARK SMILES IDX 41 54 57 55 28 56 29 57 40 59 58 60 31 61 18 62 19 63 24 64
REMARK SMILES IDX 20 65 21 66 23 67 25 68 22 69 44 70 45 71 50 72 46 73 47 74
REMARK SMILES IDX 49 75 51 76 48 77 32 78 33 79 38 80 34 81 35 82 37 83 39 84
REMARK SMILES IDX 36 85
REMARK H PARENT 56 47 30 58
REMARK Flexibility Score: inf
ROOT
ATOM      1  C   UNL A   1      32.275  29.684  27.259  1.00  0.00     0.275 C 
ENDROOT
BRANCH   1   2
ATOM      2  C   UNL A   1      32.037  28.183  27.223  1.00  0.00     0.275 C 
BRANCH   2   3
ATOM      3  O   UNL A   1      32.689  27.629  26.090  1.00  0.00    -0.459 OA
BRANCH   3   4
ATOM      4  C   UNL A   1      31.924  27.052  25.042  1.00  0.00     0.338 C 
ATOM      5  O   UNL A   1      30.717  26.713  25.250  1.00  0.00    -0.246 OA
BRANCH   4   6
ATOM      6  C   UNL A   1      32.548  26.842  23.672  1.00  0.00     0.087 C 
ATOM      7  C   UNL A   1      33.444  25.836  23.480  1.00  0.00     0.027 C 
ATOM      8  C   UNL A   1      32.170  27.754  22.517  1.00  0.00     0.316 C 
ATOM      9  C   UNL A   1      33.821  24.923  24.636  1.00  0.00     0.020 A 
ATOM     10  O   UNL A   1      31.562  24.751  25.355  1.00  0.00    -0.474 OA
ATOM     11  C   UNL A   1      35.180  24.724  24.814  1.00  0.00     0.036 A 
ATOM     12  C   UNL A   1      32.933  24.397  25.471  1.00  0.00     0.142 A 
ATOM     13  C   UNL A   1      35.493  23.708  25.747  1.00  0.00     0.109 A 
ATOM     14  C   UNL A   1      33.327  23.514  26.446  1.00  0.00     0.062 A 
ATOM     15  C   UNL A   1      34.650  23.225  26.640  1.00  0.00     0.044 A 
ATOM     16  Br  UNL A   1      31.975  22.655  27.576  1.00  0.00    -0.047 Br
BRANCH   8  17
ATOM     17  C   UNL A   1      31.160  28.785  22.995  1.00  0.00     0.430 C 
ATOM     18  F   UNL A   1      31.635  29.428  24.057  1.00  0.00    -0.167 F 
ATOM     19  F   UNL A   1      30.915  29.657  22.021  1.00  0.00    -0.167 F 
ATOM     20  F   UNL A   1      30.033  28.159  23.322  1.00  0.00    -0.167 F 
ENDBRANCH   8  17
BRANCH  13  21
ATOM     21  S   UNL A   1      37.167  23.019  25.711  1.00  0.00     0.310 S 
ATOM     22  F   UNL A   1      37.519  23.815  24.385  1.00  0.00    -0.094 F 
ATOM     23  F   UNL A   1      36.645  21.852  24.790  1.00  0.00    -0.094 F 
ATOM     24  F   UNL A   1      38.610  22.440  25.674  1.00  0.00    -0.094 F 
ATOM     25  F   UNL A   1      37.698  24.269  26.517  1.00  0.00    -0.094 F 
ATOM     26  F   UNL A   1      35.731  23.679  25.663  1.00  0.00    -0.094 F 
ENDBRANCH  13  21
ENDBRANCH   4   6
ENDBRANCH   3   4
ENDBRANCH   2   3
ENDBRANCH   1   2
BRANCH   1  27
ATOM     27  O   UNL A   1      33.636  29.956  26.960  1.00  0.00    -0.458 OA
BRANCH  27  28
ATOM     28  C   UNL A   1      34.345  30.935  27.705  1.00  0.00     0.338 C 
ATOM     29  O   UNL A   1      33.877  32.111  27.817  1.00  0.00    -0.246 OA
BRANCH  28  30
ATOM     30  C   UNL A   1      35.663  30.576  28.371  1.00  0.00     0.060 A 
ATOM     31  C   UNL A   1      36.823  31.063  27.792  1.00  0.00     0.016 A 
ATOM     32  C   UNL A   1      35.706  29.712  29.379  1.00  0.00     0.016 A 
ATOM     33  C   UNL A   1      37.990  30.354  28.162  1.00  0.00     0.010 A 
ATOM     34  C   UNL A   1      36.901  29.160  29.777  1.00  0.00     0.010 A 
ATOM     35  C   UNL A   1      38.080  29.552  29.207  1.00  0.00    -0.014 A 
BRANCH  35  36
ATOM     36  C   UNL A   1      39.423  29.090  29.749  1.00  0.00     0.031 A 
ATOM     37  C   UNL A   1      39.995  29.666  30.886  1.00  0.00     0.074 A 
ATOM     38  C   UNL A   1      39.959  28.004  29.080  1.00  0.00     0.049 A 
ATOM     39  N   UNL A   1      41.095  29.275  31.530  1.00  0.00    -0.248 NA
ATOM     40  C   UNL A   1      39.446  30.841  31.578  1.00  0.00     0.031 C 
ATOM     41  C   UNL A   1      39.385  27.412  27.937  1.00  0.00     0.029 A 
ATOM     42  N   UNL A   1      41.112  27.312  29.378  1.00  0.00    -0.354 N 
ATOM     43  C   UNL A   1      41.315  30.062  32.585  1.00  0.00     0.074 A 
ATOM     44  C   UNL A   1      40.261  31.085  32.627  1.00  0.00     0.031 C 
ATOM     45  C   UNL A   1      40.185  26.385  27.547  1.00  0.00     0.029 A 
ATOM     46  C   UNL A   1      41.273  26.318  28.438  1.00  0.00     0.049 A 
ATOM     47  H   UNL A   1      41.717  27.495  30.133  1.00  0.00     0.167 HD
ATOM     48  C   UNL A   1      42.353  29.966  33.514  1.00  0.00     0.037 A 
ATOM     49  C   UNL A   1      42.304  25.397  28.345  1.00  0.00     0.037 A 
ATOM     50  C   UNL A   1      43.360  29.018  33.445  1.00  0.00     0.049 A 
ATOM     51  C   UNL A   1      43.374  25.337  29.241  1.00  0.00     0.074 A 
ATOM     52  C   UNL A   1      44.409  28.902  34.378  1.00  0.00     0.029 A 
ATOM     53  N   UNL A   1      43.535  28.039  32.491  1.00  0.00    -0.354 N 
ATOM     54  N   UNL A   1      43.572  26.099  30.318  1.00  0.00    -0.248 NA
ATOM     55  C   UNL A   1      44.489  24.387  29.134  1.00  0.00     0.031 C 
ATOM     56  C   UNL A   1      45.210  27.875  33.987  1.00  0.00     0.029 A 
ATOM     57  C   UNL A   1      44.675  27.332  32.803  1.00  0.00     0.049 A 
ATOM     58  H   UNL A   1      42.945  27.874  31.720  1.00  0.00     0.167 HD
ATOM     59  C   UNL A   1      44.696  25.734  30.938  1.00  0.00     0.074 A 
ATOM     60  C   UNL A   1      45.305  24.631  30.182  1.00  0.00     0.031 C 
ATOM     61  C   UNL A   1      45.236  26.272  32.108  1.00  0.00     0.037 A 
BRANCH  48  62
ATOM     62  C   UNL A   1      42.379  30.958  34.665  1.00  0.00     0.057 A 
ATOM     63  C   UNL A   1      41.721  30.582  35.825  1.00  0.00     0.134 A 
ATOM     64  C   UNL A   1      43.075  32.087  34.603  1.00  0.00     0.134 A 
ATOM     65  F   UNL A   1      41.231  29.361  36.017  1.00  0.00    -0.206 F 
ATOM     66  C   UNL A   1      41.619  31.615  36.786  1.00  0.00     0.040 A 
ATOM     67  C   UNL A   1      43.036  32.990  35.638  1.00  0.00     0.040 A 
ATOM     68  F   UNL A   1      43.816  32.347  33.530  1.00  0.00    -0.206 F 
ATOM     69  C   UNL A   1      42.357  32.710  36.792  1.00  0.00     0.006 A 
ENDBRANCH  48  62
BRANCH  49  70
ATOM     70  C   UNL A   1      42.269  24.393  27.203  1.00  0.00     0.057 A 
ATOM     71  C   UNL A   1      41.599  23.188  27.339  1.00  0.00     0.134 A 
ATOM     72  C   UNL A   1      42.982  24.666  26.117  1.00  0.00     0.134 A 
ATOM     73  F   UNL A   1      40.680  22.970  28.274  1.00  0.00    -0.206 F 
ATOM     74  C   UNL A   1      41.982  22.211  26.390  1.00  0.00     0.040 A 
ATOM     75  C   UNL A   1      43.203  23.702  25.164  1.00  0.00     0.040 A 
ATOM     76  F   UNL A   1      43.488  25.885  25.951  1.00  0.00    -0.206 F 
ATOM     77  C   UNL A   1      42.621  22.469  25.264  1.00  0.00     0.006 A 
ENDBRANCH  49  70
BRANCH  61  78
ATOM     78  C   UNL A   1      46.516  25.659  32.652  1.00  0.00     0.057 A 
ATOM     79  C   UNL A   1      46.370  24.659  33.599  1.00  0.00     0.134 A 
ATOM     80  C   UNL A   1      47.714  26.126  32.320  1.00  0.00     0.134 A 
ATOM     81  F   UNL A   1      45.236  23.990  33.780  1.00  0.00    -0.206 F 
ATOM     82  C   UNL A   1      47.540  24.414  34.357  1.00  0.00     0.040 A 
ATOM     83  C   UNL A   1      48.833  25.739  33.018  1.00  0.00     0.040 A 
ATOM     84  F   UNL A   1      47.832  26.975  31.304  1.00  0.00    -0.206 F 
ATOM     85  C   UNL A   1      48.755  24.798  34.007  1.00  0.00     0.006 A 
ENDBRANCH  61  78
ENDBRANCH  35  36
ENDBRANCH  28  30
ENDBRANCH  27  28
ENDBRANCH   1  27
TORSDOF 13
ENDMDL
MODEL 3
REMARK VINA RESULT:     -11.5      3.292      7.483
REMARK SMILES O=C(OCCOC(=O)c1ccc(-c2c3nc(c(-c4c(F)cccc4F)c4ccc([nH]4)c(-c4c(F)cccc4F)c4nc(c(-c5c(F)cccc5F)c5ccc2[nH]5)C=C4)C=C3)cc1)C1=Cc2cc(S(F)(F)(F)(F)F)cc(Br)c2O[C@H]1C(F)(F)F
REMARK SMILES IDX 5 1 4 2 3 3 2 4 1 5 63 6 64 7 79 8 65 9 78 10 66 11 77 12
REMARK SMILES IDX 67 13 75 14 74 15 76 16 80 17 81 18 82 19 83 20 68 21 69 22
REMARK SMILES IDX 70 23 71 24 72 25 73 26 6 27 7 28 8 29 9 30 10 31 62 32
REMARK SMILES IDX 11 33 61 34 12 35 13 36 14 37 55 38 15 39 60 40 54 41 56 42
REMARK SMILES IDX 16 43 59 44 53 45 52 46 17 48 43 49 26 50 42 51 27 52 30 53
REMARK SMILES IDX 41 54 57 55 28 56 29 57 40 59 58 60 31 61 18 62 19 63 24 64
REMARK SMILES IDX 20 65 21 66 23 67 25 68 22 69 44 70 45 71 50 72 46 73 47 74
REMARK SMILES IDX 49 75 51 76 48 77 32 78 33 79 38 80 34 81 35 82 37 83 39 84
REMARK SMILES IDX 36 85
REMARK H PARENT 56 47 30 58
REMARK Flexibility Score: inf
ROOT
ATOM      1  C   UNL A   1      37.277  21.950  24.431  1.00  0.00     0.275 C 
ENDROOT
BRANCH   1   2
ATOM      2  C   UNL A   1      36.444  23.003  23.719  1.00  0.00     0.275 C 
BRANCH   2   3
ATOM      3  O   UNL A   1      35.419  23.462  24.589  1.00  0.00    -0.459 OA
BRANCH   3   4
ATOM      4  C   UNL A   1      34.066  23.108  24.339  1.00  0.00     0.338 C 
ATOM      5  O   UNL A   1      33.701  22.775  23.168  1.00  0.00    -0.246 OA
BRANCH   4   6
ATOM      6  C   UNL A   1      33.054  23.127  25.474  1.00  0.00     0.087 C 
ATOM      7  C   UNL A   1      32.578  24.312  25.941  1.00  0.00     0.027 C 
ATOM      8  C   UNL A   1      32.573  21.821  26.085  1.00  0.00     0.316 C 
ATOM      9  C   UNL A   1      33.058  25.618  25.329  1.00  0.00     0.020 A 
ATOM     10  O   UNL A   1      32.900  24.747  23.123  1.00  0.00    -0.474 OA
ATOM     11  C   UNL A   1      33.455  26.587  26.236  1.00  0.00     0.036 A 
ATOM     12  C   UNL A   1      33.164  25.816  24.020  1.00  0.00     0.142 A 
ATOM     13  C   UNL A   1      33.686  27.856  25.655  1.00  0.00     0.109 A 
ATOM     14  C   UNL A   1      33.526  27.046  23.525  1.00  0.00     0.062 A 
ATOM     15  C   UNL A   1      33.874  28.067  24.366  1.00  0.00     0.044 A 
ATOM     16  Br  UNL A   1      33.544  27.340  21.588  1.00  0.00    -0.047 Br
BRANCH   8  17
ATOM     17  C   UNL A   1      33.254  20.654  25.387  1.00  0.00     0.430 C 
ATOM     18  F   UNL A   1      32.900  20.621  24.105  1.00  0.00    -0.167 F 
ATOM     19  F   UNL A   1      34.574  20.786  25.479  1.00  0.00    -0.167 F 
ATOM     20  F   UNL A   1      32.879  19.524  25.980  1.00  0.00    -0.167 F 
ENDBRANCH   8  17
BRANCH  13  21
ATOM     21  S   UNL A   1      33.724  29.291  26.757  1.00  0.00     0.310 S 
ATOM     22  F   UNL A   1      33.366  28.397  28.016  1.00  0.00    -0.094 F 
ATOM     23  F   UNL A   1      32.175  29.477  26.535  1.00  0.00    -0.094 F 
ATOM     24  F   UNL A   1      33.762  30.516  27.715  1.00  0.00    -0.094 F 
ATOM     25  F   UNL A   1      35.244  29.006  27.076  1.00  0.00    -0.094 F 
ATOM     26  F   UNL A   1      33.677  27.979  25.876  1.00  0.00    -0.094 F 
ENDBRANCH  13  21
ENDBRANCH   4   6
ENDBRANCH   3   4
ENDBRANCH   2   3
ENDBRANCH   1   2
BRANCH   1  27
ATOM     27  O   UNL A   1      37.525  22.364  25.766  1.00  0.00    -0.458 OA
BRANCH  27  28
ATOM     28  C   UNL A   1      38.853  22.629  26.193  1.00  0.00     0.338 C 
ATOM     29  O   UNL A   1      39.737  21.719  26.119  1.00  0.00    -0.246 OA
BRANCH  28  30
ATOM     30  C   UNL A   1      39.218  24.001  26.737  1.00  0.00     0.060 A 
ATOM     31  C   UNL A   1      39.792  24.903  25.857  1.00  0.00     0.016 A 
ATOM     32  C   UNL A   1      39.122  24.269  28.033  1.00  0.00     0.016 A 
ATOM     33  C   UNL A   1      40.503  25.949  26.491  1.00  0.00     0.010 A 
ATOM     34  C   UNL A   1      39.728  25.383  28.565  1.00  0.00     0.010 A 
ATOM     35  C   UNL A   1      40.365  26.286  27.760  1.00  0.00    -0.014 A 
BRANCH  35  36
ATOM     36  C   UNL A   1      40.885  27.609  28.298  1.00  0.00     0.031 A 
ATOM     37  C   UNL A   1      42.247  27.917  28.302  1.00  0.00     0.074 A 
ATOM     38  C   UNL A   1      39.891  28.493  28.682  1.00  0.00     0.049 A 
ATOM     39  N   UNL A   1      42.818  29.078  28.627  1.00  0.00    -0.248 NA
ATOM     40  C   UNL A   1      43.307  26.969  27.928  1.00  0.00     0.031 C 
ATOM     41  C   UNL A   1      38.514  28.193  28.674  1.00  0.00     0.029 A 
ATOM     42  N   UNL A   1      40.038  29.787  29.131  1.00  0.00    -0.354 N 
ATOM     43  C   UNL A   1      44.143  28.994  28.488  1.00  0.00     0.074 A 
ATOM     44  C   UNL A   1      44.476  27.634  28.043  1.00  0.00     0.031 C 
ATOM     45  C   UNL A   1      37.842  29.286  29.122  1.00  0.00     0.029 A 
ATOM     46  C   UNL A   1      38.787  30.288  29.417  1.00  0.00     0.049 A 
ATOM     47  H   UNL A   1      40.890  30.271  29.230  1.00  0.00     0.167 HD
ATOM     48  C   UNL A   1      45.085  29.999  28.715  1.00  0.00     0.037 A 
ATOM     49  C   UNL A   1      38.468  31.543  29.910  1.00  0.00     0.037 A 
ATOM     50  C   UNL A   1      44.761  31.268  29.167  1.00  0.00     0.049 A 
ATOM     51  C   UNL A   1      39.415  32.530  30.192  1.00  0.00     0.074 A 
ATOM     52  C   UNL A   1      45.698  32.295  29.392  1.00  0.00     0.029 A 
ATOM     53  N   UNL A   1      43.513  31.761  29.476  1.00  0.00    -0.354 N 
ATOM     54  N   UNL A   1      40.735  32.459  30.016  1.00  0.00    -0.248 NA
ATOM     55  C   UNL A   1      39.092  33.851  30.745  1.00  0.00     0.031 C 
ATOM     56  C   UNL A   1      45.025  33.389  29.840  1.00  0.00     0.029 A 
ATOM     57  C   UNL A   1      43.657  33.063  29.903  1.00  0.00     0.049 A 
ATOM     58  H   UNL A   1      42.663  31.267  29.404  1.00  0.00     0.167 HD
ATOM     59  C   UNL A   1      41.310  33.606  30.381  1.00  0.00     0.074 A 
ATOM     60  C   UNL A   1      40.262  34.516  30.862  1.00  0.00     0.031 C 
ATOM     61  C   UNL A   1      42.666  33.934  30.328  1.00  0.00     0.037 A 
BRANCH  48  62
ATOM     62  C   UNL A   1      46.548  29.683  28.451  1.00  0.00     0.057 A 
ATOM     63  C   UNL A   1      47.019  29.939  27.173  1.00  0.00     0.134 A 
ATOM     64  C   UNL A   1      47.362  29.273  29.416  1.00  0.00     0.134 A 
ATOM     65  F   UNL A   1      46.306  30.584  26.254  1.00  0.00    -0.206 F 
ATOM     66  C   UNL A   1      48.326  29.452  26.936  1.00  0.00     0.040 A 
ATOM     67  C   UNL A   1      48.666  28.943  29.136  1.00  0.00     0.040 A 
ATOM     68  F   UNL A   1      46.912  29.180  30.663  1.00  0.00    -0.206 F 
ATOM     69  C   UNL A   1      49.183  29.115  27.881  1.00  0.00     0.006 A 
ENDBRANCH  48  62
BRANCH  49  70
ATOM     70  C   UNL A   1      37.002  31.865  30.158  1.00  0.00     0.057 A 
ATOM     71  C   UNL A   1      36.210  32.382  29.147  1.00  0.00     0.134 A 
ATOM     72  C   UNL A   1      36.540  31.730  31.395  1.00  0.00     0.134 A 
ATOM     73  F   UNL A   1      36.532  32.302  27.859  1.00  0.00    -0.206 F 
ATOM     74  C   UNL A   1      35.024  33.001  29.609  1.00  0.00     0.040 A 
ATOM     75  C   UNL A   1      35.313  32.241  31.744  1.00  0.00     0.040 A 
ATOM     76  F   UNL A   1      37.271  31.094  32.306  1.00  0.00    -0.206 F 
ATOM     77  C   UNL A   1      34.501  32.819  30.807  1.00  0.00     0.006 A 
ENDBRANCH  49  70
BRANCH  61  78
ATOM     78  C   UNL A   1      43.082  35.329  30.765  1.00  0.00     0.057 A 
ATOM     79  C   UNL A   1      43.176  36.287  29.769  1.00  0.00     0.134 A 
ATOM     80  C   UNL A   1      43.440  35.597  32.015  1.00  0.00     0.134 A 
ATOM     81  F   UNL A   1      42.603  36.154  28.577  1.00  0.00    -0.206 F 
ATOM     82  C   UNL A   1      43.939  37.421  30.136  1.00  0.00     0.040 A 
ATOM     83  C   UNL A   1      44.059  36.783  32.326  1.00  0.00     0.040 A 
ATOM     84  F   UNL A   1      43.197  34.708  32.974  1.00  0.00    -0.206 F 
ATOM     85  C   UNL A   1      44.239  37.753  31.380  1.00  0.00     0.006 A 
ENDBRANCH  61  78
ENDBRANCH  35  36
ENDBRANCH  28  30
ENDBRANCH  27  28
ENDBRANCH   1  27
TORSDOF 13
ENDMDL
