MODEL 1
REMARK VINA RESULT:     -13.1      0.000      0.000
REMARK SMILES O=C(OCCOC(=O)c1ccccc1-c1ccccc1C(=O)N1CC[NH+](Cc2ccc3c(c2)OCO3)CC1)c1ccc(-c2c3nc(c(-c4c(F)cccc4F)c4ccc([nH]4)c(-c4c(F)cccc4F)c4nc(c(-c5c(F)cccc5F)c5ccc2[nH]5)C=C4)C=C3)cc1
REMARK SMILES IDX 5 1 4 2 3 3 2 4 1 5 39 6 40 7 92 8 41 9 91 10 42 11 43 12
REMARK SMILES IDX 44 13 85 14 45 15 90 16 84 17 86 18 46 19 89 20 83 21 82 22
REMARK SMILES IDX 47 24 73 25 56 26 72 27 57 28 60 29 71 30 87 31 58 32 59 33
REMARK SMILES IDX 70 35 88 36 61 37 48 38 49 39 54 40 50 41 51 42 53 43 55 44
REMARK SMILES IDX 52 45 74 46 75 47 80 48 76 49 77 50 79 51 81 52 78 53 62 54
REMARK SMILES IDX 63 55 68 56 64 57 65 58 67 59 69 60 66 61 6 62 7 63 8 64
REMARK SMILES IDX 9 65 10 66 14 67 11 68 13 69 12 70 15 71 16 72 20 73 17 74
REMARK SMILES IDX 19 75 18 76 21 77 22 78 23 79 24 80 38 81 25 82 37 83 26 84
REMARK SMILES IDX 27 86 28 87 29 88 33 89 30 90 32 91 31 92 34 93 36 94 35 95
REMARK H PARENT 86 23 60 34 26 85
REMARK Flexibility Score: inf
ROOT
ATOM      1  C   UNL A   1      32.458  29.161  26.786  1.00  0.00     0.275 C 
ENDROOT
BRANCH   1   2
ATOM      2  C   UNL A   1      33.782  28.549  27.251  1.00  0.00     0.275 C 
BRANCH   2   3
ATOM      3  O   UNL A   1      34.953  29.391  27.151  1.00  0.00    -0.458 OA
BRANCH   3   4
ATOM      4  C   UNL A   1      35.722  29.929  28.128  1.00  0.00     0.338 C 
ATOM      5  O   UNL A   1      35.266  30.784  28.886  1.00  0.00    -0.246 OA
BRANCH   4   6
ATOM      6  C   UNL A   1      37.164  29.600  28.236  1.00  0.00     0.060 A 
ATOM      7  C   UNL A   1      38.021  29.530  27.142  1.00  0.00     0.016 A 
ATOM      8  C   UNL A   1      37.674  29.331  29.519  1.00  0.00     0.016 A 
ATOM      9  C   UNL A   1      39.388  29.329  27.332  1.00  0.00     0.010 A 
ATOM     10  C   UNL A   1      39.041  29.093  29.712  1.00  0.00     0.010 A 
ATOM     11  C   UNL A   1      39.907  29.104  28.615  1.00  0.00    -0.014 A 
BRANCH  11  12
ATOM     12  C   UNL A   1      41.312  28.637  28.697  1.00  0.00     0.031 A 
ATOM     13  C   UNL A   1      41.561  27.217  28.360  1.00  0.00     0.074 A 
ATOM     14  C   UNL A   1      42.344  29.470  28.908  1.00  0.00     0.049 A 
ATOM     15  N   UNL A   1      42.681  26.651  28.016  1.00  0.00    -0.248 NA
ATOM     16  C   UNL A   1      40.397  26.323  28.414  1.00  0.00     0.031 C 
ATOM     17  C   UNL A   1      42.178  30.827  29.359  1.00  0.00     0.029 A 
ATOM     18  N   UNL A   1      43.701  29.354  28.747  1.00  0.00    -0.354 N 
ATOM     19  C   UNL A   1      42.353  25.329  27.790  1.00  0.00     0.074 A 
ATOM     20  C   UNL A   1      40.942  25.171  28.068  1.00  0.00     0.031 C 
ATOM     21  C   UNL A   1      43.353  31.471  29.364  1.00  0.00     0.029 A 
ATOM     22  C   UNL A   1      44.368  30.556  28.887  1.00  0.00     0.049 A 
ATOM     23  H   UNL A   1      44.152  28.501  28.552  1.00  0.00     0.167 HD
ATOM     24  C   UNL A   1      43.173  24.339  27.383  1.00  0.00     0.037 A 
ATOM     25  C   UNL A   1      45.640  30.892  28.599  1.00  0.00     0.037 A 
ATOM     26  C   UNL A   1      44.584  24.513  27.201  1.00  0.00     0.049 A 
ATOM     27  C   UNL A   1      46.514  29.797  28.064  1.00  0.00     0.074 A 
ATOM     28  C   UNL A   1      45.549  23.568  26.922  1.00  0.00     0.029 A 
ATOM     29  N   UNL A   1      45.236  25.739  27.307  1.00  0.00    -0.354 N 
ATOM     30  N   UNL A   1      46.187  28.554  27.799  1.00  0.00    -0.248 NA
ATOM     31  C   UNL A   1      47.918  30.128  27.801  1.00  0.00     0.031 C 
ATOM     32  C   UNL A   1      46.789  24.219  26.877  1.00  0.00     0.029 A 
ATOM     33  C   UNL A   1      46.592  25.575  27.097  1.00  0.00     0.049 A 
ATOM     34  H   UNL A   1      44.794  26.597  27.504  1.00  0.00     0.167 HD
ATOM     35  C   UNL A   1      47.351  27.939  27.379  1.00  0.00     0.074 A 
ATOM     36  C   UNL A   1      48.374  28.969  27.346  1.00  0.00     0.031 C 
ATOM     37  C   UNL A   1      47.571  26.634  27.093  1.00  0.00     0.037 A 
BRANCH  24  38
ATOM     38  C   UNL A   1      42.511  23.014  27.197  1.00  0.00     0.057 A 
ATOM     39  C   UNL A   1      42.150  22.560  25.920  1.00  0.00     0.134 A 
ATOM     40  C   UNL A   1      42.060  22.286  28.302  1.00  0.00     0.134 A 
ATOM     41  F   UNL A   1      42.501  23.255  24.827  1.00  0.00    -0.206 F 
ATOM     42  C   UNL A   1      41.328  21.447  25.752  1.00  0.00     0.040 A 
ATOM     43  C   UNL A   1      41.254  21.159  28.144  1.00  0.00     0.040 A 
ATOM     44  F   UNL A   1      42.340  22.696  29.548  1.00  0.00    -0.206 F 
ATOM     45  C   UNL A   1      40.874  20.745  26.868  1.00  0.00     0.006 A 
ENDBRANCH  24  38
BRANCH  25  46
ATOM     46  C   UNL A   1      46.143  32.287  28.745  1.00  0.00     0.057 A 
ATOM     47  C   UNL A   1      46.074  33.199  27.681  1.00  0.00     0.134 A 
ATOM     48  C   UNL A   1      46.733  32.746  29.930  1.00  0.00     0.134 A 
ATOM     49  F   UNL A   1      45.525  32.831  26.514  1.00  0.00    -0.206 F 
ATOM     50  C   UNL A   1      46.599  34.492  27.776  1.00  0.00     0.040 A 
ATOM     51  C   UNL A   1      47.242  34.044  30.048  1.00  0.00     0.040 A 
ATOM     52  F   UNL A   1      46.823  31.940  30.997  1.00  0.00    -0.206 F 
ATOM     53  C   UNL A   1      47.186  34.918  28.965  1.00  0.00     0.006 A 
ENDBRANCH  25  46
BRANCH  37  54
ATOM     54  C   UNL A   1      48.983  26.270  26.773  1.00  0.00     0.057 A 
ATOM     55  C   UNL A   1      49.469  26.348  25.462  1.00  0.00     0.134 A 
ATOM     56  C   UNL A   1      49.863  25.860  27.779  1.00  0.00     0.134 A 
ATOM     57  F   UNL A   1      48.659  26.715  24.457  1.00  0.00    -0.206 F 
ATOM     58  C   UNL A   1      50.786  26.012  25.157  1.00  0.00     0.040 A 
ATOM     59  C   UNL A   1      51.188  25.541  27.489  1.00  0.00     0.040 A 
ATOM     60  F   UNL A   1      49.448  25.764  29.050  1.00  0.00    -0.206 F 
ATOM     61  C   UNL A   1      51.650  25.613  26.175  1.00  0.00     0.006 A 
ENDBRANCH  37  54
ENDBRANCH  11  12
ENDBRANCH   4   6
ENDBRANCH   3   4
ENDBRANCH   2   3
ENDBRANCH   1   2
BRANCH   1  62
ATOM     62  O   UNL A   1      31.883  28.591  25.597  1.00  0.00    -0.458 OA
BRANCH  62  63
ATOM     63  C   UNL A   1      32.615  28.797  24.476  1.00  0.00     0.338 C 
ATOM     64  O   UNL A   1      33.298  29.791  24.281  1.00  0.00    -0.246 OA
BRANCH  63  65
ATOM     65  C   UNL A   1      32.523  27.697  23.469  1.00  0.00     0.067 A 
ATOM     66  C   UNL A   1      33.657  26.865  23.347  1.00  0.00     0.016 A 
ATOM     67  C   UNL A   1      31.460  27.542  22.560  1.00  0.00    -0.003 A 
ATOM     68  C   UNL A   1      33.734  25.864  22.380  1.00  0.00     0.001 A 
ATOM     69  C   UNL A   1      31.576  26.546  21.556  1.00  0.00     0.009 A 
ATOM     70  C   UNL A   1      32.689  25.703  21.481  1.00  0.00     0.001 A 
BRANCH  67  71
ATOM     71  C   UNL A   1      30.222  28.329  22.602  1.00  0.00    -0.005 A 
ATOM     72  C   UNL A   1      30.217  29.564  21.905  1.00  0.00     0.009 A 
ATOM     73  C   UNL A   1      29.050  27.935  23.271  1.00  0.00     0.047 A 
ATOM     74  C   UNL A   1      29.118  30.416  21.897  1.00  0.00     0.001 A 
ATOM     75  C   UNL A   1      27.945  28.818  23.262  1.00  0.00     0.014 A 
ATOM     76  C   UNL A   1      27.981  30.047  22.593  1.00  0.00     0.001 A 
BRANCH  73  77
ATOM     77  C   UNL A   1      28.815  26.584  23.901  1.00  0.00     0.254 C 
ATOM     78  O   UNL A   1      27.684  26.099  23.864  1.00  0.00    -0.269 OA
ATOM     79  N   UNL A   1      29.897  25.850  24.396  1.00  0.00    -0.327 N 
ATOM     80  C   UNL A   1      30.005  24.478  23.920  1.00  0.00     0.181 C 
ATOM     81  C   UNL A   1      30.201  25.954  25.819  1.00  0.00     0.181 C 
ATOM     82  C   UNL A   1      31.383  23.850  24.213  1.00  0.00     0.284 C 
ATOM     83  C   UNL A   1      31.499  25.218  26.257  1.00  0.00     0.284 C 
ATOM     84  N   UNL A   1      31.887  23.968  25.588  1.00  0.00    -0.328 N 
ATOM     85  H   UNL A   1      32.897  24.079  25.498  1.00  0.00     0.348 HD
BRANCH  84  86
ATOM     86  C   UNL A   1      31.818  22.734  26.378  1.00  0.00     0.299 C 
BRANCH  86  87
ATOM     87  C   UNL A   1      33.117  21.960  26.338  1.00  0.00     0.010 A 
ATOM     88  C   UNL A   1      33.179  20.772  25.578  1.00  0.00     0.013 A 
ATOM     89  C   UNL A   1      34.295  22.603  26.754  1.00  0.00     0.060 A 
ATOM     90  C   UNL A   1      34.394  20.343  25.046  1.00  0.00     0.051 A 
ATOM     91  C   UNL A   1      35.460  22.205  26.146  1.00  0.00     0.166 A 
ATOM     92  C   UNL A   1      35.500  21.128  25.289  1.00  0.00     0.165 A 
ATOM     93  O   UNL A   1      36.611  22.933  26.116  1.00  0.00    -0.454 OA
ATOM     94  O   UNL A   1      36.688  21.053  24.628  1.00  0.00    -0.454 OA
ATOM     95  C   UNL A   1      37.229  22.353  24.948  1.00  0.00     0.468 C 
ENDBRANCH  86  87
ENDBRANCH  84  86
ENDBRANCH  73  77
ENDBRANCH  67  71
ENDBRANCH  63  65
ENDBRANCH  62  63
ENDBRANCH   1  62
TORSDOF 15
ENDMDL
MODEL 2
REMARK VINA RESULT:     -12.6      4.164      7.292
REMARK SMILES O=C(OCCOC(=O)c1ccccc1-c1ccccc1C(=O)N1CC[NH+](Cc2ccc3c(c2)OCO3)CC1)c1ccc(-c2c3nc(c(-c4c(F)cccc4F)c4ccc([nH]4)c(-c4c(F)cccc4F)c4nc(c(-c5c(F)cccc5F)c5ccc2[nH]5)C=C4)C=C3)cc1
REMARK SMILES IDX 5 1 4 2 3 3 2 4 1 5 39 6 40 7 92 8 41 9 91 10 42 11 43 12
REMARK SMILES IDX 44 13 85 14 45 15 90 16 84 17 86 18 46 19 89 20 83 21 82 22
REMARK SMILES IDX 47 24 73 25 56 26 72 27 57 28 60 29 71 30 87 31 58 32 59 33
REMARK SMILES IDX 70 35 88 36 61 37 48 38 49 39 54 40 50 41 51 42 53 43 55 44
REMARK SMILES IDX 52 45 74 46 75 47 80 48 76 49 77 50 79 51 81 52 78 53 62 54
REMARK SMILES IDX 63 55 68 56 64 57 65 58 67 59 69 60 66 61 6 62 7 63 8 64
REMARK SMILES IDX 9 65 10 66 14 67 11 68 13 69 12 70 15 71 16 72 20 73 17 74
REMARK SMILES IDX 19 75 18 76 21 77 22 78 23 79 24 80 38 81 25 82 37 83 26 84
REMARK SMILES IDX 27 86 28 87 29 88 33 89 30 90 32 91 31 92 34 93 36 94 35 95
REMARK H PARENT 86 23 60 34 26 85
REMARK Flexibility Score: inf
ROOT
ATOM      1  C   UNL A   1      33.174  28.527  27.226  1.00  0.00     0.275 C 
ENDROOT
BRANCH   1   2
ATOM      2  C   UNL A   1      33.144  29.923  26.601  1.00  0.00     0.275 C 
BRANCH   2   3
ATOM      3  O   UNL A   1      33.022  31.037  27.515  1.00  0.00    -0.458 OA
BRANCH   3   4
ATOM      4  C   UNL A   1      33.939  31.966  27.879  1.00  0.00     0.338 C 
ATOM      5  O   UNL A   1      33.740  33.161  27.669  1.00  0.00    -0.246 OA
BRANCH   4   6
ATOM      6  C   UNL A   1      35.259  31.566  28.425  1.00  0.00     0.060 A 
ATOM      7  C   UNL A   1      35.514  30.317  28.983  1.00  0.00     0.016 A 
ATOM      8  C   UNL A   1      36.293  32.519  28.386  1.00  0.00     0.016 A 
ATOM      9  C   UNL A   1      36.809  29.973  29.371  1.00  0.00     0.010 A 
ATOM     10  C   UNL A   1      37.588  32.190  28.808  1.00  0.00     0.010 A 
ATOM     11  C   UNL A   1      37.853  30.905  29.292  1.00  0.00    -0.014 A 
BRANCH  11  12
ATOM     12  C   UNL A   1      39.123  30.549  29.968  1.00  0.00     0.031 A 
ATOM     13  C   UNL A   1      39.254  30.946  31.388  1.00  0.00     0.074 A 
ATOM     14  C   UNL A   1      40.057  29.771  29.398  1.00  0.00     0.049 A 
ATOM     15  N   UNL A   1      40.066  30.476  32.289  1.00  0.00    -0.248 NA
ATOM     16  C   UNL A   1      38.349  32.006  31.852  1.00  0.00     0.031 C 
ATOM     17  C   UNL A   1      40.061  29.449  27.995  1.00  0.00     0.029 A 
ATOM     18  N   UNL A   1      41.137  29.080  29.884  1.00  0.00    -0.354 N 
ATOM     19  C   UNL A   1      39.757  31.171  33.440  1.00  0.00     0.074 A 
ATOM     20  C   UNL A   1      38.710  32.116  33.118  1.00  0.00     0.031 C 
ATOM     21  C   UNL A   1      41.022  28.558  27.716  1.00  0.00     0.029 A 
ATOM     22  C   UNL A   1      41.699  28.228  28.952  1.00  0.00     0.049 A 
ATOM     23  H   UNL A   1      41.477  29.181  30.802  1.00  0.00     0.167 HD
ATOM     24  C   UNL A   1      40.309  31.022  34.662  1.00  0.00     0.037 A 
ATOM     25  C   UNL A   1      42.610  27.247  29.098  1.00  0.00     0.037 A 
ATOM     26  C   UNL A   1      41.406  30.137  34.925  1.00  0.00     0.049 A 
ATOM     27  C   UNL A   1      43.150  27.038  30.481  1.00  0.00     0.074 A 
ATOM     28  C   UNL A   1      42.145  29.986  36.080  1.00  0.00     0.029 A 
ATOM     29  N   UNL A   1      41.935  29.255  33.986  1.00  0.00    -0.354 N 
ATOM     30  N   UNL A   1      42.816  27.663  31.586  1.00  0.00    -0.248 NA
ATOM     31  C   UNL A   1      44.187  26.016  30.650  1.00  0.00     0.031 C 
ATOM     32  C   UNL A   1      43.136  29.026  35.833  1.00  0.00     0.029 A 
ATOM     33  C   UNL A   1      42.993  28.555  34.536  1.00  0.00     0.049 A 
ATOM     34  H   UNL A   1      41.604  29.148  33.064  1.00  0.00     0.167 HD
ATOM     35  C   UNL A   1      43.630  27.145  32.574  1.00  0.00     0.074 A 
ATOM     36  C   UNL A   1      44.416  26.094  31.953  1.00  0.00     0.031 C 
ATOM     37  C   UNL A   1      43.755  27.530  33.866  1.00  0.00     0.037 A 
BRANCH  24  38
ATOM     38  C   UNL A   1      39.737  31.905  35.720  1.00  0.00     0.057 A 
ATOM     39  C   UNL A   1      38.570  31.542  36.409  1.00  0.00     0.134 A 
ATOM     40  C   UNL A   1      40.234  33.197  35.912  1.00  0.00     0.134 A 
ATOM     41  F   UNL A   1      38.013  30.336  36.215  1.00  0.00    -0.206 F 
ATOM     42  C   UNL A   1      37.896  32.451  37.224  1.00  0.00     0.040 A 
ATOM     43  C   UNL A   1      39.579  34.108  36.740  1.00  0.00     0.040 A 
ATOM     44  F   UNL A   1      41.322  33.613  35.248  1.00  0.00    -0.206 F 
ATOM     45  C   UNL A   1      38.399  33.741  37.387  1.00  0.00     0.006 A 
ENDBRANCH  24  38
BRANCH  25  46
ATOM     46  C   UNL A   1      43.024  26.374  27.962  1.00  0.00     0.057 A 
ATOM     47  C   UNL A   1      44.047  26.760  27.085  1.00  0.00     0.134 A 
ATOM     48  C   UNL A   1      42.397  25.149  27.699  1.00  0.00     0.134 A 
ATOM     49  F   UNL A   1      44.691  27.922  27.271  1.00  0.00    -0.206 F 
ATOM     50  C   UNL A   1      44.405  25.987  25.976  1.00  0.00     0.040 A 
ATOM     51  C   UNL A   1      42.760  24.352  26.607  1.00  0.00     0.040 A 
ATOM     52  F   UNL A   1      41.420  24.702  28.501  1.00  0.00    -0.206 F 
ATOM     53  C   UNL A   1      43.760  24.777  25.735  1.00  0.00     0.006 A 
ENDBRANCH  25  46
BRANCH  37  54
ATOM     54  C   UNL A   1      44.816  26.833  34.651  1.00  0.00     0.057 A 
ATOM     55  C   UNL A   1      44.524  25.684  35.396  1.00  0.00     0.134 A 
ATOM     56  C   UNL A   1      46.134  27.298  34.646  1.00  0.00     0.134 A 
ATOM     57  F   UNL A   1      43.270  25.208  35.451  1.00  0.00    -0.206 F 
ATOM     58  C   UNL A   1      45.509  25.026  36.129  1.00  0.00     0.040 A 
ATOM     59  C   UNL A   1      47.132  26.637  35.359  1.00  0.00     0.040 A 
ATOM     60  F   UNL A   1      46.466  28.397  33.953  1.00  0.00    -0.206 F 
ATOM     61  C   UNL A   1      46.819  25.501  36.105  1.00  0.00     0.006 A 
ENDBRANCH  37  54
ENDBRANCH  11  12
ENDBRANCH   4   6
ENDBRANCH   3   4
ENDBRANCH   2   3
ENDBRANCH   1   2
BRANCH   1  62
ATOM     62  O   UNL A   1      32.743  27.447  26.378  1.00  0.00    -0.458 OA
BRANCH  62  63
ATOM     63  C   UNL A   1      31.559  26.899  26.740  1.00  0.00     0.338 C 
ATOM     64  O   UNL A   1      30.780  27.418  27.526  1.00  0.00    -0.246 OA
BRANCH  63  65
ATOM     65  C   UNL A   1      31.266  25.583  26.098  1.00  0.00     0.067 A 
ATOM     66  C   UNL A   1      31.688  24.435  26.803  1.00  0.00     0.016 A 
ATOM     67  C   UNL A   1      30.743  25.433  24.799  1.00  0.00    -0.003 A 
ATOM     68  C   UNL A   1      31.559  23.154  26.268  1.00  0.00     0.001 A 
ATOM     69  C   UNL A   1      30.660  24.125  24.256  1.00  0.00     0.009 A 
ATOM     70  C   UNL A   1      31.043  22.998  24.990  1.00  0.00     0.001 A 
BRANCH  67  71
ATOM     71  C   UNL A   1      30.250  26.546  23.980  1.00  0.00    -0.005 A 
ATOM     72  C   UNL A   1      28.890  26.915  24.141  1.00  0.00     0.009 A 
ATOM     73  C   UNL A   1      31.034  27.268  23.063  1.00  0.00     0.047 A 
ATOM     74  C   UNL A   1      28.295  27.929  23.398  1.00  0.00     0.001 A 
ATOM     75  C   UNL A   1      30.411  28.290  22.309  1.00  0.00     0.014 A 
ATOM     76  C   UNL A   1      29.058  28.610  22.466  1.00  0.00     0.001 A 
BRANCH  73  77
ATOM     77  C   UNL A   1      32.528  27.138  22.897  1.00  0.00     0.254 C 
ATOM     78  O   UNL A   1      33.183  28.138  22.602  1.00  0.00    -0.269 OA
ATOM     79  N   UNL A   1      33.159  25.930  23.208  1.00  0.00    -0.327 N 
ATOM     80  C   UNL A   1      34.290  26.020  24.120  1.00  0.00     0.181 C 
ATOM     81  C   UNL A   1      33.415  24.993  22.119  1.00  0.00     0.181 C 
ATOM     82  C   UNL A   1      34.709  24.649  24.691  1.00  0.00     0.284 C 
ATOM     83  C   UNL A   1      33.991  23.621  22.571  1.00  0.00     0.284 C 
ATOM     84  N   UNL A   1      34.901  23.559  23.724  1.00  0.00    -0.328 N 
ATOM     85  H   UNL A   1      34.583  22.715  24.201  1.00  0.00     0.348 HD
BRANCH  84  86
ATOM     86  C   UNL A   1      36.301  23.210  23.458  1.00  0.00     0.299 C 
BRANCH  86  87
ATOM     87  C   UNL A   1      36.874  22.305  24.525  1.00  0.00     0.010 A 
ATOM     88  C   UNL A   1      36.820  20.907  24.334  1.00  0.00     0.013 A 
ATOM     89  C   UNL A   1      37.738  22.861  25.484  1.00  0.00     0.060 A 
ATOM     90  C   UNL A   1      37.770  20.080  24.932  1.00  0.00     0.051 A 
ATOM     91  C   UNL A   1      38.710  22.034  25.989  1.00  0.00     0.166 A 
ATOM     92  C   UNL A   1      38.744  20.689  25.692  1.00  0.00     0.165 A 
ATOM     93  O   UNL A   1      39.846  22.456  26.610  1.00  0.00    -0.454 OA
ATOM     94  O   UNL A   1      39.907  20.112  26.102  1.00  0.00    -0.454 OA
ATOM     95  C   UNL A   1      40.679  21.297  26.396  1.00  0.00     0.468 C 
ENDBRANCH  86  87
ENDBRANCH  84  86
ENDBRANCH  73  77
ENDBRANCH  67  71
ENDBRANCH  63  65
ENDBRANCH  62  63
ENDBRANCH   1  62
TORSDOF 15
ENDMDL
MODEL 3
REMARK VINA RESULT:     -12.1      5.917     12.297
REMARK SMILES O=C(OCCOC(=O)c1ccccc1-c1ccccc1C(=O)N1CC[NH+](Cc2ccc3c(c2)OCO3)CC1)c1ccc(-c2c3nc(c(-c4c(F)cccc4F)c4ccc([nH]4)c(-c4c(F)cccc4F)c4nc(c(-c5c(F)cccc5F)c5ccc2[nH]5)C=C4)C=C3)cc1
REMARK SMILES IDX 5 1 4 2 3 3 2 4 1 5 39 6 40 7 92 8 41 9 91 10 42 11 43 12
REMARK SMILES IDX 44 13 85 14 45 15 90 16 84 17 86 18 46 19 89 20 83 21 82 22
REMARK SMILES IDX 47 24 73 25 56 26 72 27 57 28 60 29 71 30 87 31 58 32 59 33
REMARK SMILES IDX 70 35 88 36 61 37 48 38 49 39 54 40 50 41 51 42 53 43 55 44
REMARK SMILES IDX 52 45 74 46 75 47 80 48 76 49 77 50 79 51 81 52 78 53 62 54
REMARK SMILES IDX 63 55 68 56 64 57 65 58 67 59 69 60 66 61 6 62 7 63 8 64
REMARK SMILES IDX 9 65 10 66 14 67 11 68 13 69 12 70 15 71 16 72 20 73 17 74
REMARK SMILES IDX 19 75 18 76 21 77 22 78 23 79 24 80 38 81 25 82 37 83 26 84
REMARK SMILES IDX 27 86 28 87 29 88 33 89 30 90 32 91 31 92 34 93 36 94 35 95
REMARK H PARENT 86 23 60 34 26 85
REMARK Flexibility Score: inf
ROOT
ATOM      1  C   UNL A   1      42.272  23.741  26.739  1.00  0.00     0.275 C 
ENDROOT
BRANCH   1   2
ATOM      2  C   UNL A   1      41.191  22.668  26.590  1.00  0.00     0.275 C 
BRANCH   2   3
ATOM      3  O   UNL A   1      39.876  23.003  27.088  1.00  0.00    -0.458 OA
BRANCH   3   4
ATOM      4  C   UNL A   1      39.120  24.106  26.872  1.00  0.00     0.338 C 
ATOM      5  O   UNL A   1      38.351  24.163  25.913  1.00  0.00    -0.246 OA
BRANCH   4   6
ATOM      6  C   UNL A   1      39.285  25.323  27.704  1.00  0.00     0.060 A 
ATOM      7  C   UNL A   1      39.843  26.508  27.233  1.00  0.00     0.016 A 
ATOM      8  C   UNL A   1      38.865  25.255  29.044  1.00  0.00     0.016 A 
ATOM      9  C   UNL A   1      39.860  27.645  28.039  1.00  0.00     0.010 A 
ATOM     10  C   UNL A   1      38.913  26.385  29.870  1.00  0.00     0.010 A 
ATOM     11  C   UNL A   1      39.401  27.593  29.362  1.00  0.00    -0.014 A 
BRANCH  11  12
ATOM     12  C   UNL A   1      39.701  28.762  30.224  1.00  0.00     0.031 A 
ATOM     13  C   UNL A   1      38.761  29.904  30.146  1.00  0.00     0.074 A 
ATOM     14  C   UNL A   1      40.672  28.751  31.151  1.00  0.00     0.049 A 
ATOM     15  N   UNL A   1      38.582  30.865  31.004  1.00  0.00    -0.248 NA
ATOM     16  C   UNL A   1      37.913  29.966  28.947  1.00  0.00     0.031 C 
ATOM     17  C   UNL A   1      41.693  27.738  31.206  1.00  0.00     0.029 A 
ATOM     18  N   UNL A   1      40.959  29.549  32.229  1.00  0.00    -0.354 N 
ATOM     19  C   UNL A   1      37.580  31.642  30.458  1.00  0.00     0.074 A 
ATOM     20  C   UNL A   1      37.216  31.062  29.184  1.00  0.00     0.031 C 
ATOM     21  C   UNL A   1      42.455  27.893  32.298  1.00  0.00     0.029 A 
ATOM     22  C   UNL A   1      41.948  29.028  33.041  1.00  0.00     0.049 A 
ATOM     23  H   UNL A   1      40.506  30.405  32.405  1.00  0.00     0.167 HD
ATOM     24  C   UNL A   1      37.018  32.747  30.990  1.00  0.00     0.037 A 
ATOM     25  C   UNL A   1      42.352  29.389  34.273  1.00  0.00     0.037 A 
ATOM     26  C   UNL A   1      37.465  33.344  32.215  1.00  0.00     0.049 A 
ATOM     27  C   UNL A   1      41.655  30.568  34.884  1.00  0.00     0.074 A 
ATOM     28  C   UNL A   1      37.076  34.532  32.797  1.00  0.00     0.029 A 
ATOM     29  N   UNL A   1      38.436  32.785  33.042  1.00  0.00    -0.354 N 
ATOM     30  N   UNL A   1      40.666  31.273  34.388  1.00  0.00    -0.248 NA
ATOM     31  C   UNL A   1      42.121  31.014  36.201  1.00  0.00     0.031 C 
ATOM     32  C   UNL A   1      37.827  34.703  33.968  1.00  0.00     0.029 A 
ATOM     33  C   UNL A   1      38.659  33.605  34.132  1.00  0.00     0.049 A 
ATOM     34  H   UNL A   1      38.897  31.931  32.873  1.00  0.00     0.167 HD
ATOM     35  C   UNL A   1      40.418  32.274  35.307  1.00  0.00     0.074 A 
ATOM     36  C   UNL A   1      41.306  32.034  36.431  1.00  0.00     0.031 C 
ATOM     37  C   UNL A   1      39.569  33.326  35.215  1.00  0.00     0.037 A 
BRANCH  24  38
ATOM     38  C   UNL A   1      35.930  33.353  30.169  1.00  0.00     0.057 A 
ATOM     39  C   UNL A   1      36.225  34.203  29.092  1.00  0.00     0.134 A 
ATOM     40  C   UNL A   1      34.595  33.248  30.572  1.00  0.00     0.134 A 
ATOM     41  F   UNL A   1      37.496  34.391  28.704  1.00  0.00    -0.206 F 
ATOM     42  C   UNL A   1      35.232  34.956  28.469  1.00  0.00     0.040 A 
ATOM     43  C   UNL A   1      33.591  33.983  29.943  1.00  0.00     0.040 A 
ATOM     44  F   UNL A   1      34.259  32.484  31.621  1.00  0.00    -0.206 F 
ATOM     45  C   UNL A   1      33.909  34.850  28.898  1.00  0.00     0.006 A 
ENDBRANCH  24  38
BRANCH  25  46
ATOM     46  C   UNL A   1      43.394  28.629  35.021  1.00  0.00     0.057 A 
ATOM     47  C   UNL A   1      44.757  28.909  34.853  1.00  0.00     0.134 A 
ATOM     48  C   UNL A   1      43.069  27.585  35.897  1.00  0.00     0.134 A 
ATOM     49  F   UNL A   1      45.146  29.892  34.027  1.00  0.00    -0.206 F 
ATOM     50  C   UNL A   1      45.753  28.165  35.494  1.00  0.00     0.040 A 
ATOM     51  C   UNL A   1      44.053  26.847  36.565  1.00  0.00     0.040 A 
ATOM     52  F   UNL A   1      41.787  27.266  36.124  1.00  0.00    -0.206 F 
ATOM     53  C   UNL A   1      45.401  27.129  36.355  1.00  0.00     0.006 A 
ENDBRANCH  25  46
BRANCH  37  54
ATOM     54  C   UNL A   1      39.620  34.300  36.345  1.00  0.00     0.057 A 
ATOM     55  C   UNL A   1      40.371  35.478  36.248  1.00  0.00     0.134 A 
ATOM     56  C   UNL A   1      38.902  34.071  37.522  1.00  0.00     0.134 A 
ATOM     57  F   UNL A   1      41.095  35.736  35.148  1.00  0.00    -0.206 F 
ATOM     58  C   UNL A   1      40.420  36.393  37.298  1.00  0.00     0.040 A 
ATOM     59  C   UNL A   1      38.928  34.988  38.570  1.00  0.00     0.040 A 
ATOM     60  F   UNL A   1      38.171  32.956  37.668  1.00  0.00    -0.206 F 
ATOM     61  C   UNL A   1      39.691  36.150  38.460  1.00  0.00     0.006 A 
ENDBRANCH  37  54
ENDBRANCH  11  12
ENDBRANCH   4   6
ENDBRANCH   3   4
ENDBRANCH   2   3
ENDBRANCH   1   2
BRANCH   1  62
ATOM     62  O   UNL A   1      42.623  24.101  28.087  1.00  0.00    -0.458 OA
BRANCH  62  63
ATOM     63  C   UNL A   1      43.159  25.338  28.208  1.00  0.00     0.338 C 
ATOM     64  O   UNL A   1      42.919  26.262  27.444  1.00  0.00    -0.246 OA
BRANCH  63  65
ATOM     65  C   UNL A   1      44.090  25.497  29.365  1.00  0.00     0.067 A 
ATOM     66  C   UNL A   1      44.132  24.427  30.285  1.00  0.00     0.016 A 
ATOM     67  C   UNL A   1      44.795  26.680  29.658  1.00  0.00    -0.003 A 
ATOM     68  C   UNL A   1      44.888  24.492  31.454  1.00  0.00     0.001 A 
ATOM     69  C   UNL A   1      45.523  26.742  30.874  1.00  0.00     0.009 A 
ATOM     70  C   UNL A   1      45.587  25.654  31.751  1.00  0.00     0.001 A 
BRANCH  67  71
ATOM     71  C   UNL A   1      44.847  27.846  28.770  1.00  0.00    -0.005 A 
ATOM     72  C   UNL A   1      44.083  28.981  29.147  1.00  0.00     0.009 A 
ATOM     73  C   UNL A   1      45.607  27.915  27.589  1.00  0.00     0.047 A 
ATOM     74  C   UNL A   1      44.023  30.134  28.373  1.00  0.00     0.001 A 
ATOM     75  C   UNL A   1      45.525  29.092  26.808  1.00  0.00     0.014 A 
ATOM     76  C   UNL A   1      44.737  30.183  27.189  1.00  0.00     0.001 A 
BRANCH  73  77
ATOM     77  C   UNL A   1      46.612  26.885  27.134  1.00  0.00     0.254 C 
ATOM     78  O   UNL A   1      47.805  27.074  27.371  1.00  0.00    -0.269 OA
ATOM     79  N   UNL A   1      46.169  25.682  26.576  1.00  0.00    -0.327 N 
ATOM     80  C   UNL A   1      46.714  24.469  27.168  1.00  0.00     0.181 C 
ATOM     81  C   UNL A   1      46.098  25.589  25.121  1.00  0.00     0.181 C 
ATOM     82  C   UNL A   1      45.936  23.201  26.757  1.00  0.00     0.284 C 
ATOM     83  C   UNL A   1      45.467  24.271  24.590  1.00  0.00     0.284 C 
ATOM     84  N   UNL A   1      45.681  23.015  25.322  1.00  0.00    -0.328 N 
ATOM     85  H   UNL A   1      44.763  22.575  25.265  1.00  0.00     0.348 HD
BRANCH  84  86
ATOM     86  C   UNL A   1      46.513  21.994  24.676  1.00  0.00     0.299 C 
BRANCH  86  87
ATOM     87  C   UNL A   1      45.829  20.646  24.634  1.00  0.00     0.010 A 
ATOM     88  C   UNL A   1      46.518  19.516  25.125  1.00  0.00     0.013 A 
ATOM     89  C   UNL A   1      44.437  20.605  24.441  1.00  0.00     0.060 A 
ATOM     90  C   UNL A   1      45.808  18.428  25.631  1.00  0.00     0.051 A 
ATOM     91  C   UNL A   1      43.767  19.559  25.024  1.00  0.00     0.166 A 
ATOM     92  C   UNL A   1      44.433  18.519  25.632  1.00  0.00     0.165 A 
ATOM     93  O   UNL A   1      42.430  19.538  25.283  1.00  0.00    -0.454 OA
ATOM     94  O   UNL A   1      43.586  17.720  26.338  1.00  0.00    -0.454 OA
ATOM     95  C   UNL A   1      42.406  18.554  26.338  1.00  0.00     0.468 C 
ENDBRANCH  86  87
ENDBRANCH  84  86
ENDBRANCH  73  77
ENDBRANCH  67  71
ENDBRANCH  63  65
ENDBRANCH  62  63
ENDBRANCH   1  62
TORSDOF 15
ENDMDL
