MODEL 1
REMARK VINA RESULT:      -9.7      0.000      0.000
REMARK SMILES CCC[N@H+]1CCC[C@H](CC(=O)OCCOC(=O)c2ccc(-c3c4nc(c(-c5c(F)cccc5F)c5ccc([nH]5)c(-c5c(F)cccc5F)c5nc(c(-c6c(F)cccc6F)c6ccc3[nH]6)C=C5)C=C4)cc2)C1
REMARK SMILES IDX 13 1 12 2 10 3 11 4 9 5 8 6 4 7 5 8 72 9 6 11 7 12 3 13 2 14
REMARK SMILES IDX 1 15 14 16 15 17 16 18 17 19 18 20 19 21 71 22 20 23 70 24
REMARK SMILES IDX 21 25 22 26 23 27 64 28 24 29 69 30 63 31 65 32 25 33 68 34
REMARK SMILES IDX 62 35 61 36 26 38 52 39 35 40 51 41 36 42 39 43 50 44 66 45
REMARK SMILES IDX 37 46 38 47 49 49 67 50 40 51 27 52 28 53 33 54 29 55 30 56
REMARK SMILES IDX 32 57 34 58 31 59 53 60 54 61 59 62 55 63 56 64 58 65 60 66
REMARK SMILES IDX 57 67 41 68 42 69 47 70 43 71 44 72 46 73 48 74 45 75
REMARK H PARENT 4 10 65 37 39 48
REMARK Flexibility Score: inf
ROOT
ATOM      1  C   UNL A   1      44.460  21.705  25.236  1.00  0.00     0.274 C 
ENDROOT
BRANCH   1   2
ATOM      2  O   UNL A   1      43.148  21.136  25.072  1.00  0.00    -0.462 OA
BRANCH   2   3
ATOM      3  C   UNL A   1      42.294  21.243  26.120  1.00  0.00     0.306 C 
ATOM      4  O   UNL A   1      42.389  20.614  27.166  1.00  0.00    -0.252 OA
BRANCH   3   5
ATOM      5  C   UNL A   1      41.156  22.199  25.840  1.00  0.00     0.132 C 
BRANCH   5   6
ATOM      6  C   UNL A   1      39.959  22.085  26.808  1.00  0.00     0.055 C 
ATOM      7  N   UNL A   1      38.197  22.618  25.126  1.00  0.00    -0.335 N 
ATOM      8  C   UNL A   1      37.928  23.919  25.747  1.00  0.00     0.262 C 
ATOM      9  C   UNL A   1      38.691  21.613  26.071  1.00  0.00     0.266 C 
ATOM     10  H   UNL A   1      38.970  22.778  24.481  1.00  0.00     0.348 HD
ATOM     11  C   UNL A   1      39.105  24.449  26.567  1.00  0.00     0.062 C 
ATOM     12  C   UNL A   1      39.624  23.395  27.538  1.00  0.00     0.016 C 
BRANCH   7  13
ATOM     13  C   UNL A   1      37.077  22.137  24.303  1.00  0.00     0.261 C 
BRANCH  13  14
ATOM     14  C   UNL A   1      36.252  23.136  23.471  1.00  0.00     0.058 C 
ATOM     15  C   UNL A   1      34.753  22.883  23.431  1.00  0.00     0.010 C 
ENDBRANCH  13  14
ENDBRANCH   7  13
ENDBRANCH   5   6
ENDBRANCH   3   5
ENDBRANCH   2   3
ENDBRANCH   1   2
BRANCH   1  16
ATOM     16  C   UNL A   1      44.636  22.947  24.361  1.00  0.00     0.275 C 
BRANCH  16  17
ATOM     17  O   UNL A   1      43.862  24.048  24.873  1.00  0.00    -0.458 OA
BRANCH  17  18
ATOM     18  C   UNL A   1      44.573  25.141  25.232  1.00  0.00     0.338 C 
ATOM     19  O   UNL A   1      45.588  25.574  24.718  1.00  0.00    -0.246 OA
BRANCH  18  20
ATOM     20  C   UNL A   1      43.868  25.838  26.320  1.00  0.00     0.060 A 
ATOM     21  C   UNL A   1      44.179  27.179  26.564  1.00  0.00     0.016 A 
ATOM     22  C   UNL A   1      42.969  25.152  27.136  1.00  0.00     0.016 A 
ATOM     23  C   UNL A   1      43.591  27.843  27.638  1.00  0.00     0.010 A 
ATOM     24  C   UNL A   1      42.380  25.820  28.213  1.00  0.00     0.010 A 
ATOM     25  C   UNL A   1      42.697  27.165  28.478  1.00  0.00    -0.014 A 
BRANCH  25  26
ATOM     26  C   UNL A   1      42.139  27.842  29.671  1.00  0.00     0.031 A 
ATOM     27  C   UNL A   1      40.880  28.650  29.548  1.00  0.00     0.074 A 
ATOM     28  C   UNL A   1      42.757  27.732  30.861  1.00  0.00     0.049 A 
ATOM     29  N   UNL A   1      40.283  29.397  30.440  1.00  0.00    -0.248 NA
ATOM     30  C   UNL A   1      40.205  28.616  28.240  1.00  0.00     0.031 C 
ATOM     31  C   UNL A   1      43.963  26.945  31.118  1.00  0.00     0.029 A 
ATOM     32  N   UNL A   1      42.456  28.294  32.076  1.00  0.00    -0.354 N 
ATOM     33  C   UNL A   1      39.174  29.936  29.801  1.00  0.00     0.074 A 
ATOM     34  C   UNL A   1      39.189  29.443  28.440  1.00  0.00     0.031 C 
ATOM     35  C   UNL A   1      44.304  27.080  32.410  1.00  0.00     0.029 A 
ATOM     36  C   UNL A   1      43.364  27.991  33.060  1.00  0.00     0.049 A 
ATOM     37  H   UNL A   1      41.665  28.861  32.227  1.00  0.00     0.167 HD
ATOM     38  C   UNL A   1      38.229  30.764  30.306  1.00  0.00     0.037 A 
ATOM     39  C   UNL A   1      43.443  28.421  34.333  1.00  0.00     0.037 A 
ATOM     40  C   UNL A   1      38.208  31.242  31.662  1.00  0.00     0.049 A 
ATOM     41  C   UNL A   1      42.410  29.380  34.855  1.00  0.00     0.074 A 
ATOM     42  C   UNL A   1      37.285  32.077  32.270  1.00  0.00     0.029 A 
ATOM     43  N   UNL A   1      39.155  30.926  32.625  1.00  0.00    -0.354 N 
ATOM     44  N   UNL A   1      41.369  29.888  34.241  1.00  0.00    -0.248 NA
ATOM     45  C   UNL A   1      42.566  29.830  36.246  1.00  0.00     0.031 C 
ATOM     46  C   UNL A   1      37.692  32.291  33.592  1.00  0.00     0.029 A 
ATOM     47  C   UNL A   1      38.847  31.560  33.817  1.00  0.00     0.049 A 
ATOM     48  H   UNL A   1      39.931  30.337  32.482  1.00  0.00     0.167 HD
ATOM     49  C   UNL A   1      40.734  30.699  35.174  1.00  0.00     0.074 A 
ATOM     50  C   UNL A   1      41.502  30.606  36.399  1.00  0.00     0.031 C 
ATOM     51  C   UNL A   1      39.618  31.452  35.028  1.00  0.00     0.037 A 
BRANCH  38  52
ATOM     52  C   UNL A   1      37.151  31.226  29.373  1.00  0.00     0.057 A 
ATOM     53  C   UNL A   1      36.062  30.411  29.041  1.00  0.00     0.134 A 
ATOM     54  C   UNL A   1      37.189  32.513  28.823  1.00  0.00     0.134 A 
ATOM     55  F   UNL A   1      35.975  29.162  29.523  1.00  0.00    -0.206 F 
ATOM     56  C   UNL A   1      35.056  30.854  28.180  1.00  0.00     0.040 A 
ATOM     57  C   UNL A   1      36.179  32.975  27.977  1.00  0.00     0.040 A 
ATOM     58  F   UNL A   1      38.204  33.344  29.103  1.00  0.00    -0.206 F 
ATOM     59  C   UNL A   1      35.111  32.142  27.650  1.00  0.00     0.006 A 
ENDBRANCH  38  52
BRANCH  39  60
ATOM     60  C   UNL A   1      44.556  27.963  35.200  1.00  0.00     0.057 A 
ATOM     61  C   UNL A   1      45.738  28.704  35.311  1.00  0.00     0.134 A 
ATOM     62  C   UNL A   1      44.469  26.771  35.928  1.00  0.00     0.134 A 
ATOM     63  F   UNL A   1      45.889  29.843  34.617  1.00  0.00    -0.206 F 
ATOM     64  C   UNL A   1      46.798  28.270  36.108  1.00  0.00     0.040 A 
ATOM     65  C   UNL A   1      45.512  26.336  36.745  1.00  0.00     0.040 A 
ATOM     66  F   UNL A   1      43.362  26.017  35.861  1.00  0.00    -0.206 F 
ATOM     67  C   UNL A   1      46.685  27.085  36.832  1.00  0.00     0.006 A 
ENDBRANCH  39  60
BRANCH  51  68
ATOM     68  C   UNL A   1      39.142  32.209  36.231  1.00  0.00     0.057 A 
ATOM     69  C   UNL A   1      39.586  33.508  36.508  1.00  0.00     0.134 A 
ATOM     70  C   UNL A   1      38.202  31.644  37.103  1.00  0.00     0.134 A 
ATOM     71  F   UNL A   1      40.497  34.097  35.717  1.00  0.00    -0.206 F 
ATOM     72  C   UNL A   1      39.125  34.214  37.620  1.00  0.00     0.040 A 
ATOM     73  C   UNL A   1      37.717  32.348  38.206  1.00  0.00     0.040 A 
ATOM     74  F   UNL A   1      37.733  30.406  36.890  1.00  0.00    -0.206 F 
ATOM     75  C   UNL A   1      38.182  33.636  38.469  1.00  0.00     0.006 A 
ENDBRANCH  51  68
ENDBRANCH  25  26
ENDBRANCH  18  20
ENDBRANCH  17  18
ENDBRANCH  16  17
ENDBRANCH   1  16
TORSDOF 14
ENDMDL
MODEL 2
REMARK VINA RESULT:      -9.6      0.569      6.629
REMARK SMILES CCC[N@H+]1CCC[C@H](CC(=O)OCCOC(=O)c2ccc(-c3c4nc(c(-c5c(F)cccc5F)c5ccc([nH]5)c(-c5c(F)cccc5F)c5nc(c(-c6c(F)cccc6F)c6ccc3[nH]6)C=C5)C=C4)cc2)C1
REMARK SMILES IDX 13 1 12 2 10 3 11 4 9 5 8 6 4 7 5 8 72 9 6 11 7 12 3 13 2 14
REMARK SMILES IDX 1 15 14 16 15 17 16 18 17 19 18 20 19 21 71 22 20 23 70 24
REMARK SMILES IDX 21 25 22 26 23 27 64 28 24 29 69 30 63 31 65 32 25 33 68 34
REMARK SMILES IDX 62 35 61 36 26 38 52 39 35 40 51 41 36 42 39 43 50 44 66 45
REMARK SMILES IDX 37 46 38 47 49 49 67 50 40 51 27 52 28 53 33 54 29 55 30 56
REMARK SMILES IDX 32 57 34 58 31 59 53 60 54 61 59 62 55 63 56 64 58 65 60 66
REMARK SMILES IDX 57 67 41 68 42 69 47 70 43 71 44 72 46 73 48 74 45 75
REMARK H PARENT 4 10 65 37 39 48
REMARK Flexibility Score: inf
ROOT
ATOM      1  C   UNL A   1      44.407  21.691  25.238  1.00  0.00     0.274 C 
ENDROOT
BRANCH   1   2
ATOM      2  O   UNL A   1      43.235  20.862  25.123  1.00  0.00    -0.462 OA
BRANCH   2   3
ATOM      3  C   UNL A   1      42.338  20.920  26.138  1.00  0.00     0.306 C 
ATOM      4  O   UNL A   1      42.305  20.147  27.087  1.00  0.00    -0.252 OA
BRANCH   3   5
ATOM      5  C   UNL A   1      41.324  22.026  25.948  1.00  0.00     0.132 C 
BRANCH   5   6
ATOM      6  C   UNL A   1      40.141  22.002  26.939  1.00  0.00     0.055 C 
ATOM      7  N   UNL A   1      38.378  22.579  25.273  1.00  0.00    -0.335 N 
ATOM      8  C   UNL A   1      38.188  23.909  25.861  1.00  0.00     0.262 C 
ATOM      9  C   UNL A   1      38.837  21.576  26.238  1.00  0.00     0.266 C 
ATOM     10  H   UNL A   1      39.146  22.681  24.611  1.00  0.00     0.348 HD
ATOM     11  C   UNL A   1      39.406  24.400  26.646  1.00  0.00     0.062 C 
ATOM     12  C   UNL A   1      39.888  23.347  27.637  1.00  0.00     0.016 C 
BRANCH   7  13
ATOM     13  C   UNL A   1      37.220  22.135  24.484  1.00  0.00     0.261 C 
BRANCH  13  14
ATOM     14  C   UNL A   1      36.105  21.311  25.156  1.00  0.00     0.058 C 
ATOM     15  C   UNL A   1      35.280  22.046  26.200  1.00  0.00     0.010 C 
ENDBRANCH  13  14
ENDBRANCH   7  13
ENDBRANCH   5   6
ENDBRANCH   3   5
ENDBRANCH   2   3
ENDBRANCH   1   2
BRANCH   1  16
ATOM     16  C   UNL A   1      44.417  22.782  24.167  1.00  0.00     0.275 C 
BRANCH  16  17
ATOM     17  O   UNL A   1      43.792  23.985  24.653  1.00  0.00    -0.458 OA
BRANCH  17  18
ATOM     18  C   UNL A   1      44.639  24.934  25.113  1.00  0.00     0.338 C 
ATOM     19  O   UNL A   1      45.765  25.183  24.722  1.00  0.00    -0.246 OA
BRANCH  18  20
ATOM     20  C   UNL A   1      43.950  25.741  26.132  1.00  0.00     0.060 A 
ATOM     21  C   UNL A   1      44.216  27.113  26.189  1.00  0.00     0.016 A 
ATOM     22  C   UNL A   1      43.111  25.136  27.068  1.00  0.00     0.016 A 
ATOM     23  C   UNL A   1      43.644  27.889  27.194  1.00  0.00     0.010 A 
ATOM     24  C   UNL A   1      42.538  25.917  28.075  1.00  0.00     0.010 A 
ATOM     25  C   UNL A   1      42.811  27.295  28.151  1.00  0.00    -0.014 A 
BRANCH  25  26
ATOM     26  C   UNL A   1      42.273  28.101  29.272  1.00  0.00     0.031 A 
ATOM     27  C   UNL A   1      42.988  28.111  30.592  1.00  0.00     0.074 A 
ATOM     28  C   UNL A   1      41.149  28.821  29.107  1.00  0.00     0.049 A 
ATOM     29  N   UNL A   1      42.634  28.666  31.722  1.00  0.00    -0.248 NA
ATOM     30  C   UNL A   1      44.272  27.394  30.647  1.00  0.00     0.031 C 
ATOM     31  C   UNL A   1      40.386  28.925  27.864  1.00  0.00     0.029 A 
ATOM     32  N   UNL A   1      40.450  29.598  29.997  1.00  0.00    -0.354 N 
ATOM     33  C   UNL A   1      43.640  28.353  32.628  1.00  0.00     0.074 A 
ATOM     34  C   UNL A   1      44.610  27.545  31.919  1.00  0.00     0.031 C 
ATOM     35  C   UNL A   1      39.319  29.715  28.072  1.00  0.00     0.029 A 
ATOM     36  C   UNL A   1      39.305  30.139  29.469  1.00  0.00     0.049 A 
ATOM     37  H   UNL A   1      40.742  29.751  30.925  1.00  0.00     0.167 HD
ATOM     38  C   UNL A   1      43.743  28.710  33.929  1.00  0.00     0.037 A 
ATOM     39  C   UNL A   1      38.339  30.873  30.055  1.00  0.00     0.037 A 
ATOM     40  C   UNL A   1      42.785  29.524  34.629  1.00  0.00     0.049 A 
ATOM     41  C   UNL A   1      38.453  31.214  31.515  1.00  0.00     0.074 A 
ATOM     42  C   UNL A   1      42.809  29.948  35.947  1.00  0.00     0.029 A 
ATOM     43  N   UNL A   1      41.628  30.040  34.065  1.00  0.00    -0.354 N 
ATOM     44  N   UNL A   1      39.404  30.908  32.363  1.00  0.00    -0.248 NA
ATOM     45  C   UNL A   1      37.355  31.997  32.100  1.00  0.00     0.031 C 
ATOM     46  C   UNL A   1      41.650  30.694  36.188  1.00  0.00     0.029 A 
ATOM     47  C   UNL A   1      40.924  30.765  35.010  1.00  0.00     0.049 A 
ATOM     48  H   UNL A   1      41.349  29.910  33.129  1.00  0.00     0.167 HD
ATOM     49  C   UNL A   1      39.032  31.478  33.575  1.00  0.00     0.074 A 
ATOM     50  C   UNL A   1      37.773  32.156  33.348  1.00  0.00     0.031 C 
ATOM     51  C   UNL A   1      39.676  31.441  34.766  1.00  0.00     0.037 A 
BRANCH  38  52
ATOM     52  C   UNL A   1      44.928  28.197  34.691  1.00  0.00     0.057 A 
ATOM     53  C   UNL A   1      46.107  28.944  34.814  1.00  0.00     0.134 A 
ATOM     54  C   UNL A   1      44.879  26.953  35.330  1.00  0.00     0.134 A 
ATOM     55  F   UNL A   1      46.222  30.136  34.211  1.00  0.00    -0.206 F 
ATOM     56  C   UNL A   1      47.202  28.462  35.535  1.00  0.00     0.040 A 
ATOM     57  C   UNL A   1      45.960  26.469  36.070  1.00  0.00     0.040 A 
ATOM     58  F   UNL A   1      43.779  26.189  35.253  1.00  0.00    -0.206 F 
ATOM     59  C   UNL A   1      47.127  27.224  36.170  1.00  0.00     0.006 A 
ENDBRANCH  38  52
BRANCH  39  60
ATOM     60  C   UNL A   1      37.167  31.320  29.264  1.00  0.00     0.057 A 
ATOM     61  C   UNL A   1      37.110  32.608  28.723  1.00  0.00     0.134 A 
ATOM     62  C   UNL A   1      36.075  30.475  29.040  1.00  0.00     0.134 A 
ATOM     63  F   UNL A   1      38.117  33.472  28.926  1.00  0.00    -0.206 F 
ATOM     64  C   UNL A   1      36.002  33.046  27.995  1.00  0.00     0.040 A 
ATOM     65  C   UNL A   1      34.970  30.891  28.297  1.00  0.00     0.040 A 
ATOM     66  F   UNL A   1      36.070  29.228  29.535  1.00  0.00    -0.206 F 
ATOM     67  C   UNL A   1      34.930  32.183  27.776  1.00  0.00     0.006 A 
ENDBRANCH  39  60
BRANCH  51  68
ATOM     68  C   UNL A   1      39.045  32.181  35.907  1.00  0.00     0.057 A 
ATOM     69  C   UNL A   1      38.202  31.542  36.824  1.00  0.00     0.134 A 
ATOM     70  C   UNL A   1      39.314  33.540  36.110  1.00  0.00     0.134 A 
ATOM     71  F   UNL A   1      37.895  30.244  36.674  1.00  0.00    -0.206 F 
ATOM     72  C   UNL A   1      37.633  32.233  37.894  1.00  0.00     0.040 A 
ATOM     73  C   UNL A   1      38.768  34.237  37.188  1.00  0.00     0.040 A 
ATOM     74  F   UNL A   1      40.119  34.208  35.271  1.00  0.00    -0.206 F 
ATOM     75  C   UNL A   1      37.921  33.584  38.082  1.00  0.00     0.006 A 
ENDBRANCH  51  68
ENDBRANCH  25  26
ENDBRANCH  18  20
ENDBRANCH  17  18
ENDBRANCH  16  17
ENDBRANCH   1  16
TORSDOF 14
ENDMDL
MODEL 3
REMARK VINA RESULT:      -9.6      4.589     10.627
REMARK SMILES CCC[N@H+]1CCC[C@H](CC(=O)OCCOC(=O)c2ccc(-c3c4nc(c(-c5c(F)cccc5F)c5ccc([nH]5)c(-c5c(F)cccc5F)c5nc(c(-c6c(F)cccc6F)c6ccc3[nH]6)C=C5)C=C4)cc2)C1
REMARK SMILES IDX 13 1 12 2 10 3 11 4 9 5 8 6 4 7 5 8 72 9 6 11 7 12 3 13 2 14
REMARK SMILES IDX 1 15 14 16 15 17 16 18 17 19 18 20 19 21 71 22 20 23 70 24
REMARK SMILES IDX 21 25 22 26 23 27 64 28 24 29 69 30 63 31 65 32 25 33 68 34
REMARK SMILES IDX 62 35 61 36 26 38 52 39 35 40 51 41 36 42 39 43 50 44 66 45
REMARK SMILES IDX 37 46 38 47 49 49 67 50 40 51 27 52 28 53 33 54 29 55 30 56
REMARK SMILES IDX 32 57 34 58 31 59 53 60 54 61 59 62 55 63 56 64 58 65 60 66
REMARK SMILES IDX 57 67 41 68 42 69 47 70 43 71 44 72 46 73 48 74 45 75
REMARK H PARENT 4 10 65 37 39 48
REMARK Flexibility Score: inf
ROOT
ATOM      1  C   UNL A   1      33.585  34.985  29.234  1.00  0.00     0.274 C 
ENDROOT
BRANCH   1   2
ATOM      2  O   UNL A   1      32.472  35.057  30.143  1.00  0.00    -0.462 OA
BRANCH   2   3
ATOM      3  C   UNL A   1      32.675  35.703  31.317  1.00  0.00     0.306 C 
ATOM      4  O   UNL A   1      31.792  36.206  32.000  1.00  0.00    -0.252 OA
BRANCH   3   5
ATOM      5  C   UNL A   1      34.141  35.790  31.680  1.00  0.00     0.132 C 
BRANCH   5   6
ATOM      6  C   UNL A   1      34.563  34.928  32.888  1.00  0.00     0.055 C 
ATOM      7  N   UNL A   1      36.797  34.278  31.991  1.00  0.00    -0.335 N 
ATOM      8  C   UNL A   1      36.369  32.890  31.791  1.00  0.00     0.262 C 
ATOM      9  C   UNL A   1      36.092  34.954  33.083  1.00  0.00     0.266 C 
ATOM     10  H   UNL A   1      36.517  34.774  31.147  1.00  0.00     0.348 HD
ATOM     11  C   UNL A   1      34.852  32.742  31.657  1.00  0.00     0.062 C 
ATOM     12  C   UNL A   1      34.123  33.459  32.787  1.00  0.00     0.016 C 
BRANCH   7  13
ATOM     13  C   UNL A   1      38.259  34.416  32.075  1.00  0.00     0.261 C 
BRANCH  13  14
ATOM     14  C   UNL A   1      39.128  34.133  30.835  1.00  0.00     0.058 C 
ATOM     15  C   UNL A   1      38.542  34.576  29.504  1.00  0.00     0.010 C 
ENDBRANCH  13  14
ENDBRANCH   7  13
ENDBRANCH   5   6
ENDBRANCH   3   5
ENDBRANCH   2   3
ENDBRANCH   1   2
BRANCH   1  16
ATOM     16  C   UNL A   1      33.425  33.820  28.257  1.00  0.00     0.275 C 
BRANCH  16  17
ATOM     17  O   UNL A   1      34.636  33.045  28.178  1.00  0.00    -0.458 OA
BRANCH  17  18
ATOM     18  C   UNL A   1      34.465  31.711  28.041  1.00  0.00     0.338 C 
ATOM     19  O   UNL A   1      33.493  31.124  27.600  1.00  0.00    -0.246 OA
BRANCH  18  20
ATOM     20  C   UNL A   1      35.710  31.024  28.418  1.00  0.00     0.060 A 
ATOM     21  C   UNL A   1      35.625  29.870  29.202  1.00  0.00     0.016 A 
ATOM     22  C   UNL A   1      36.950  31.559  28.067  1.00  0.00     0.016 A 
ATOM     23  C   UNL A   1      36.787  29.244  29.645  1.00  0.00     0.010 A 
ATOM     24  C   UNL A   1      38.115  30.929  28.512  1.00  0.00     0.010 A 
ATOM     25  C   UNL A   1      38.041  29.776  29.314  1.00  0.00    -0.014 A 
BRANCH  25  26
ATOM     26  C   UNL A   1      39.276  29.164  29.857  1.00  0.00     0.031 A 
ATOM     27  C   UNL A   1      39.887  29.712  31.114  1.00  0.00     0.074 A 
ATOM     28  C   UNL A   1      39.847  28.122  29.226  1.00  0.00     0.049 A 
ATOM     29  N   UNL A   1      41.011  29.387  31.698  1.00  0.00    -0.248 NA
ATOM     30  C   UNL A   1      39.131  30.770  31.803  1.00  0.00     0.031 C 
ATOM     31  C   UNL A   1      39.328  27.476  28.021  1.00  0.00     0.029 A 
ATOM     32  N   UNL A   1      40.996  27.429  29.512  1.00  0.00    -0.354 N 
ATOM     33  C   UNL A   1      41.109  30.212  32.812  1.00  0.00     0.074 A 
ATOM     34  C   UNL A   1      39.938  31.062  32.813  1.00  0.00     0.031 C 
ATOM     35  C   UNL A   1      40.161  26.484  27.666  1.00  0.00     0.029 A 
ATOM     36  C   UNL A   1      41.288  26.451  28.595  1.00  0.00     0.049 A 
ATOM     37  H   UNL A   1      41.557  27.617  30.299  1.00  0.00     0.167 HD
ATOM     38  C   UNL A   1      42.087  30.252  33.748  1.00  0.00     0.037 A 
ATOM     39  C   UNL A   1      42.358  25.639  28.500  1.00  0.00     0.037 A 
ATOM     40  C   UNL A   1      43.244  29.397  33.753  1.00  0.00     0.049 A 
ATOM     41  C   UNL A   1      43.454  25.738  29.525  1.00  0.00     0.074 A 
ATOM     42  C   UNL A   1      44.284  29.356  34.666  1.00  0.00     0.029 A 
ATOM     43  N   UNL A   1      43.514  28.429  32.797  1.00  0.00    -0.354 N 
ATOM     44  N   UNL A   1      43.540  26.523  30.570  1.00  0.00    -0.248 NA
ATOM     45  C   UNL A   1      44.605  24.840  29.352  1.00  0.00     0.031 C 
ATOM     46  C   UNL A   1      45.199  28.385  34.245  1.00  0.00     0.029 A 
ATOM     47  C   UNL A   1      44.709  27.796  33.089  1.00  0.00     0.049 A 
ATOM     48  H   UNL A   1      42.938  28.223  32.025  1.00  0.00     0.167 HD
ATOM     49  C   UNL A   1      44.740  26.202  31.191  1.00  0.00     0.074 A 
ATOM     50  C   UNL A   1      45.343  25.141  30.411  1.00  0.00     0.031 C 
ATOM     51  C   UNL A   1      45.292  26.738  32.307  1.00  0.00     0.037 A 
BRANCH  38  52
ATOM     52  C   UNL A   1      41.956  31.276  34.834  1.00  0.00     0.057 A 
ATOM     53  C   UNL A   1      42.560  32.536  34.739  1.00  0.00     0.134 A 
ATOM     54  C   UNL A   1      41.194  31.008  35.978  1.00  0.00     0.134 A 
ATOM     55  F   UNL A   1      43.316  32.849  33.675  1.00  0.00    -0.206 F 
ATOM     56  C   UNL A   1      42.423  33.488  35.751  1.00  0.00     0.040 A 
ATOM     57  C   UNL A   1      41.034  31.958  36.987  1.00  0.00     0.040 A 
ATOM     58  F   UNL A   1      40.587  29.821  36.129  1.00  0.00    -0.206 F 
ATOM     59  C   UNL A   1      41.654  33.201  36.877  1.00  0.00     0.006 A 
ENDBRANCH  38  52
BRANCH  39  60
ATOM     60  C   UNL A   1      42.455  24.671  27.381  1.00  0.00     0.057 A 
ATOM     61  C   UNL A   1      41.973  23.364  27.511  1.00  0.00     0.134 A 
ATOM     62  C   UNL A   1      43.041  25.026  26.161  1.00  0.00     0.134 A 
ATOM     63  F   UNL A   1      41.424  22.959  28.667  1.00  0.00    -0.206 F 
ATOM     64  C   UNL A   1      42.080  22.440  26.471  1.00  0.00     0.040 A 
ATOM     65  C   UNL A   1      43.135  24.119  25.104  1.00  0.00     0.040 A 
ATOM     66  F   UNL A   1      43.523  26.264  25.975  1.00  0.00    -0.206 F 
ATOM     67  C   UNL A   1      42.657  22.819  25.260  1.00  0.00     0.006 A 
ENDBRANCH  39  60
BRANCH  51  68
ATOM     68  C   UNL A   1      46.598  26.164  32.767  1.00  0.00     0.057 A 
ATOM     69  C   UNL A   1      46.656  25.075  33.646  1.00  0.00     0.134 A 
ATOM     70  C   UNL A   1      47.811  26.684  32.296  1.00  0.00     0.134 A 
ATOM     71  F   UNL A   1      45.529  24.542  34.142  1.00  0.00    -0.206 F 
ATOM     72  C   UNL A   1      47.875  24.534  34.055  1.00  0.00     0.040 A 
ATOM     73  C   UNL A   1      49.035  26.138  32.682  1.00  0.00     0.040 A 
ATOM     74  F   UNL A   1      47.822  27.722  31.447  1.00  0.00    -0.206 F 
ATOM     75  C   UNL A   1      49.070  25.062  33.567  1.00  0.00     0.006 A 
ENDBRANCH  51  68
ENDBRANCH  25  26
ENDBRANCH  18  20
ENDBRANCH  17  18
ENDBRANCH  16  17
ENDBRANCH   1  16
TORSDOF 14
ENDMDL
