MODEL 1
REMARK VINA RESULT:     -11.0      0.000      0.000
REMARK SMILES Cc1ccc2nc(CC3(CC(=O)OCCOC(=O)c4ccc(-c5c6nc(c(-c7c(F)cccc7F)c7ccc([nH]7)c(-c7c(F)cccc7F)c7nc(c(-c8c(F)cccc8F)c8ccc5[nH]8)C=C7)C=C6)cc4)CCCCC3)sc2c1
REMARK SMILES IDX 14 1 13 2 11 3 12 4 10 5 9 6 73 7 77 8 74 9 76 10 75 11 8 12
REMARK SMILES IDX 7 13 1 14 2 15 3 16 80 17 4 18 79 19 5 20 78 21 6 22 15 23
REMARK SMILES IDX 16 24 17 25 18 26 19 27 20 28 72 29 21 30 71 31 22 32 23 33
REMARK SMILES IDX 24 34 65 35 25 36 70 37 64 38 66 39 26 40 69 41 63 42 62 43
REMARK SMILES IDX 27 45 53 46 36 47 52 48 37 49 40 50 51 51 67 52 38 53 39 54
REMARK SMILES IDX 50 56 68 57 41 58 28 59 29 60 34 61 30 62 31 63 33 64 35 65
REMARK SMILES IDX 32 66 54 67 55 68 60 69 56 70 57 71 59 72 61 73 58 74 42 75
REMARK SMILES IDX 43 76 48 77 44 78 45 79 47 80 49 81 46 82
REMARK H PARENT 66 44 40 55
REMARK Flexibility Score: inf
ROOT
ATOM      1  C   UNL A   1      32.062  29.828  27.034  1.00  0.00     0.274 C 
ENDROOT
BRANCH   1   2
ATOM      2  O   UNL A   1      31.481  29.086  25.944  1.00  0.00    -0.462 OA
BRANCH   2   3
ATOM      3  C   UNL A   1      31.279  27.769  26.162  1.00  0.00     0.306 C 
ATOM      4  O   UNL A   1      31.035  27.272  27.259  1.00  0.00    -0.252 OA
BRANCH   3   5
ATOM      5  C   UNL A   1      31.382  26.901  24.923  1.00  0.00     0.130 C 
BRANCH   5   6
ATOM      6  C   UNL A   1      32.643  26.026  24.630  1.00  0.00    -0.013 C 
ATOM      7  C   UNL A   1      33.875  26.988  24.612  1.00  0.00     0.008 C 
ATOM      8  C   UNL A   1      32.574  25.351  23.236  1.00  0.00     0.008 C 
ATOM      9  C   UNL A   1      33.854  27.996  23.457  1.00  0.00     0.001 C 
ATOM     10  C   UNL A   1      32.469  26.355  22.089  1.00  0.00     0.001 C 
ATOM     11  C   UNL A   1      33.646  27.327  22.101  1.00  0.00     0.000 C 
BRANCH   6  12
ATOM     12  C   UNL A   1      32.811  24.988  25.791  1.00  0.00     0.075 C 
BRANCH  12  13
ATOM     13  C   UNL A   1      33.955  24.021  25.628  1.00  0.00     0.094 A 
ATOM     14  C   UNL A   1      38.235  19.589  24.994  1.00  0.00     0.044 C 
ATOM     15  C   UNL A   1      37.468  20.862  25.210  1.00  0.00    -0.050 A 
ATOM     16  C   UNL A   1      38.138  22.045  25.530  1.00  0.00     0.006 A 
ATOM     17  C   UNL A   1      36.068  20.862  25.074  1.00  0.00     0.024 A 
ATOM     18  C   UNL A   1      37.432  23.238  25.722  1.00  0.00     0.030 A 
ATOM     19  C   UNL A   1      35.369  22.067  25.277  1.00  0.00     0.055 A 
ATOM     20  C   UNL A   1      36.030  23.253  25.595  1.00  0.00     0.082 A 
ATOM     21  S   UNL A   1      33.675  22.378  25.203  1.00  0.00    -0.119 S 
ATOM     22  N   UNL A   1      35.218  24.358  25.765  1.00  0.00    -0.241 NA
ENDBRANCH  12  13
ENDBRANCH   6  12
ENDBRANCH   5   6
ENDBRANCH   3   5
ENDBRANCH   2   3
ENDBRANCH   1   2
BRANCH   1  23
ATOM     23  C   UNL A   1      33.530  30.126  26.749  1.00  0.00     0.275 C 
BRANCH  23  24
ATOM     24  O   UNL A   1      34.346  29.536  27.775  1.00  0.00    -0.458 OA
BRANCH  24  25
ATOM     25  C   UNL A   1      35.175  30.384  28.425  1.00  0.00     0.338 C 
ATOM     26  O   UNL A   1      34.908  31.469  28.906  1.00  0.00    -0.246 OA
BRANCH  25  27
ATOM     27  C   UNL A   1      36.527  29.802  28.472  1.00  0.00     0.060 A 
ATOM     28  C   UNL A   1      37.059  29.334  29.675  1.00  0.00     0.016 A 
ATOM     29  C   UNL A   1      37.300  29.809  27.312  1.00  0.00     0.016 A 
ATOM     30  C   UNL A   1      38.384  28.904  29.731  1.00  0.00     0.010 A 
ATOM     31  C   UNL A   1      38.606  29.322  27.354  1.00  0.00     0.010 A 
ATOM     32  C   UNL A   1      39.165  28.883  28.567  1.00  0.00    -0.014 A 
BRANCH  32  33
ATOM     33  C   UNL A   1      40.572  28.412  28.598  1.00  0.00     0.031 A 
ATOM     34  C   UNL A   1      41.682  29.385  28.878  1.00  0.00     0.074 A 
ATOM     35  C   UNL A   1      40.854  27.125  28.327  1.00  0.00     0.049 A 
ATOM     36  N   UNL A   1      42.973  29.224  28.751  1.00  0.00    -0.248 NA
ATOM     37  C   UNL A   1      41.283  30.720  29.351  1.00  0.00     0.031 C 
ATOM     38  C   UNL A   1      39.866  26.077  28.067  1.00  0.00     0.029 A 
ATOM     39  N   UNL A   1      42.061  26.485  28.203  1.00  0.00    -0.354 N 
ATOM     40  C   UNL A   1      43.540  30.446  29.089  1.00  0.00     0.074 A 
ATOM     41  C   UNL A   1      42.452  31.341  29.424  1.00  0.00     0.031 C 
ATOM     42  C   UNL A   1      40.506  24.926  27.814  1.00  0.00     0.029 A 
ATOM     43  C   UNL A   1      41.944  25.168  27.832  1.00  0.00     0.049 A 
ATOM     44  H   UNL A   1      42.926  26.926  28.366  1.00  0.00     0.167 HD
ATOM     45  C   UNL A   1      44.850  30.789  29.110  1.00  0.00     0.037 A 
ATOM     46  C   UNL A   1      42.888  24.268  27.498  1.00  0.00     0.037 A 
ATOM     47  C   UNL A   1      45.931  29.887  28.805  1.00  0.00     0.049 A 
ATOM     48  C   UNL A   1      44.331  24.680  27.502  1.00  0.00     0.074 A 
ATOM     49  C   UNL A   1      47.293  30.134  28.822  1.00  0.00     0.029 A 
ATOM     50  N   UNL A   1      45.768  28.562  28.434  1.00  0.00    -0.354 N 
ATOM     51  N   UNL A   1      44.856  25.845  27.796  1.00  0.00    -0.248 NA
ATOM     52  C   UNL A   1      45.312  23.658  27.113  1.00  0.00     0.031 C 
ATOM     53  C   UNL A   1      47.954  28.963  28.433  1.00  0.00     0.029 A 
ATOM     54  C   UNL A   1      47.004  27.980  28.207  1.00  0.00     0.049 A 
ATOM     55  H   UNL A   1      44.902  28.102  28.344  1.00  0.00     0.167 HD
ATOM     56  C   UNL A   1      46.226  25.694  27.638  1.00  0.00     0.074 A 
ATOM     57  C   UNL A   1      46.454  24.320  27.237  1.00  0.00     0.031 C 
ATOM     58  C   UNL A   1      47.209  26.612  27.807  1.00  0.00     0.037 A 
BRANCH  45  59
ATOM     59  C   UNL A   1      45.186  32.210  29.449  1.00  0.00     0.057 A 
ATOM     60  C   UNL A   1      45.466  32.613  30.760  1.00  0.00     0.134 A 
ATOM     61  C   UNL A   1      45.264  33.181  28.441  1.00  0.00     0.134 A 
ATOM     62  F   UNL A   1      45.395  31.735  31.771  1.00  0.00    -0.206 F 
ATOM     63  C   UNL A   1      45.797  33.936  31.060  1.00  0.00     0.040 A 
ATOM     64  C   UNL A   1      45.611  34.502  28.726  1.00  0.00     0.040 A 
ATOM     65  F   UNL A   1      45.009  32.858  27.164  1.00  0.00    -0.206 F 
ATOM     66  C   UNL A   1      45.876  34.883  30.040  1.00  0.00     0.006 A 
ENDBRANCH  45  59
BRANCH  46  67
ATOM     67  C   UNL A   1      42.487  22.899  27.101  1.00  0.00     0.057 A 
ATOM     68  C   UNL A   1      42.165  21.934  28.062  1.00  0.00     0.134 A 
ATOM     69  C   UNL A   1      42.395  22.527  25.754  1.00  0.00     0.134 A 
ATOM     70  F   UNL A   1      42.257  22.226  29.367  1.00  0.00    -0.206 F 
ATOM     71  C   UNL A   1      41.770  20.646  27.698  1.00  0.00     0.040 A 
ATOM     72  C   UNL A   1      41.980  21.250  25.376  1.00  0.00     0.040 A 
ATOM     73  F   UNL A   1      42.687  23.409  24.787  1.00  0.00    -0.206 F 
ATOM     74  C   UNL A   1      41.669  20.305  26.351  1.00  0.00     0.006 A 
ENDBRANCH  46  67
BRANCH  58  75
ATOM     75  C   UNL A   1      48.615  26.148  27.583  1.00  0.00     0.057 A 
ATOM     76  C   UNL A   1      49.231  26.254  26.330  1.00  0.00     0.134 A 
ATOM     77  C   UNL A   1      49.368  25.617  28.636  1.00  0.00     0.134 A 
ATOM     78  F   UNL A   1      48.555  26.743  25.280  1.00  0.00    -0.206 F 
ATOM     79  C   UNL A   1      50.545  25.831  26.129  1.00  0.00     0.040 A 
ATOM     80  C   UNL A   1      50.689  25.205  28.452  1.00  0.00     0.040 A 
ATOM     81  F   UNL A   1      48.834  25.494  29.861  1.00  0.00    -0.206 F 
ATOM     82  C   UNL A   1      51.278  25.309  27.193  1.00  0.00     0.006 A 
ENDBRANCH  58  75
ENDBRANCH  32  33
ENDBRANCH  25  27
ENDBRANCH  24  25
ENDBRANCH  23  24
ENDBRANCH   1  23
TORSDOF 14
ENDMDL
MODEL 2
REMARK VINA RESULT:     -10.8      1.416      2.181
REMARK SMILES Cc1ccc2nc(CC3(CC(=O)OCCOC(=O)c4ccc(-c5c6nc(c(-c7c(F)cccc7F)c7ccc([nH]7)c(-c7c(F)cccc7F)c7nc(c(-c8c(F)cccc8F)c8ccc5[nH]8)C=C7)C=C6)cc4)CCCCC3)sc2c1
REMARK SMILES IDX 14 1 13 2 11 3 12 4 10 5 9 6 73 7 77 8 74 9 76 10 75 11 8 12
REMARK SMILES IDX 7 13 1 14 2 15 3 16 80 17 4 18 79 19 5 20 78 21 6 22 15 23
REMARK SMILES IDX 16 24 17 25 18 26 19 27 20 28 72 29 21 30 71 31 22 32 23 33
REMARK SMILES IDX 24 34 65 35 25 36 70 37 64 38 66 39 26 40 69 41 63 42 62 43
REMARK SMILES IDX 27 45 53 46 36 47 52 48 37 49 40 50 51 51 67 52 38 53 39 54
REMARK SMILES IDX 50 56 68 57 41 58 28 59 29 60 34 61 30 62 31 63 33 64 35 65
REMARK SMILES IDX 32 66 54 67 55 68 60 69 56 70 57 71 59 72 61 73 58 74 42 75
REMARK SMILES IDX 43 76 48 77 44 78 45 79 47 80 49 81 46 82
REMARK H PARENT 66 44 40 55
REMARK Flexibility Score: inf
ROOT
ATOM      1  C   UNL A   1      31.935  29.125  27.266  1.00  0.00     0.274 C 
ENDROOT
BRANCH   1   2
ATOM      2  O   UNL A   1      31.452  28.589  26.018  1.00  0.00    -0.462 OA
BRANCH   2   3
ATOM      3  C   UNL A   1      31.287  27.250  25.971  1.00  0.00     0.306 C 
ATOM      4  O   UNL A   1      30.784  26.577  26.867  1.00  0.00    -0.252 OA
BRANCH   3   5
ATOM      5  C   UNL A   1      31.783  26.598  24.696  1.00  0.00     0.130 C 
BRANCH   5   6
ATOM      6  C   UNL A   1      33.291  26.250  24.478  1.00  0.00    -0.013 C 
ATOM      7  C   UNL A   1      34.072  27.603  24.438  1.00  0.00     0.008 C 
ATOM      8  C   UNL A   1      33.536  25.543  23.120  1.00  0.00     0.008 C 
ATOM      9  C   UNL A   1      33.723  28.482  23.232  1.00  0.00     0.001 C 
ATOM     10  C   UNL A   1      33.111  26.388  21.920  1.00  0.00     0.001 C 
ATOM     11  C   UNL A   1      33.837  27.731  21.909  1.00  0.00     0.000 C 
BRANCH   6  12
ATOM     12  C   UNL A   1      33.786  25.398  25.695  1.00  0.00     0.075 C 
BRANCH  12  13
ATOM     13  C   UNL A   1      33.821  23.909  25.466  1.00  0.00     0.094 A 
ATOM     14  C   UNL A   1      34.566  17.858  24.372  1.00  0.00     0.044 C 
ATOM     15  C   UNL A   1      34.053  19.247  24.623  1.00  0.00    -0.050 A 
ATOM     16  C   UNL A   1      32.680  19.499  24.653  1.00  0.00     0.006 A 
ATOM     17  C   UNL A   1      34.965  20.295  24.845  1.00  0.00     0.024 A 
ATOM     18  C   UNL A   1      32.194  20.788  24.897  1.00  0.00     0.030 A 
ATOM     19  C   UNL A   1      34.463  21.588  25.082  1.00  0.00     0.055 A 
ATOM     20  C   UNL A   1      33.093  21.848  25.115  1.00  0.00     0.082 A 
ATOM     21  S   UNL A   1      35.314  23.061  25.365  1.00  0.00    -0.119 S 
ATOM     22  N   UNL A   1      32.744  23.164  25.360  1.00  0.00    -0.241 NA
ENDBRANCH  12  13
ENDBRANCH   6  12
ENDBRANCH   5   6
ENDBRANCH   3   5
ENDBRANCH   2   3
ENDBRANCH   1   2
BRANCH   1  23
ATOM     23  C   UNL A   1      33.418  28.812  27.438  1.00  0.00     0.275 C 
BRANCH  23  24
ATOM     24  O   UNL A   1      34.196  29.968  27.085  1.00  0.00    -0.458 OA
BRANCH  24  25
ATOM     25  C   UNL A   1      34.769  30.627  28.117  1.00  0.00     0.338 C 
ATOM     26  O   UNL A   1      34.303  31.541  28.772  1.00  0.00    -0.246 OA
BRANCH  25  27
ATOM     27  C   UNL A   1      36.114  30.080  28.357  1.00  0.00     0.060 A 
ATOM     28  C   UNL A   1      36.470  29.593  29.617  1.00  0.00     0.016 A 
ATOM     29  C   UNL A   1      37.055  30.138  27.330  1.00  0.00     0.016 A 
ATOM     30  C   UNL A   1      37.783  29.196  29.865  1.00  0.00     0.010 A 
ATOM     31  C   UNL A   1      38.352  29.683  27.560  1.00  0.00     0.010 A 
ATOM     32  C   UNL A   1      38.732  29.226  28.835  1.00  0.00    -0.014 A 
BRANCH  32  33
ATOM     33  C   UNL A   1      40.131  28.791  29.070  1.00  0.00     0.031 A 
ATOM     34  C   UNL A   1      41.138  29.764  29.615  1.00  0.00     0.074 A 
ATOM     35  C   UNL A   1      40.507  27.540  28.750  1.00  0.00     0.049 A 
ATOM     36  N   UNL A   1      42.437  29.648  29.701  1.00  0.00    -0.248 NA
ATOM     37  C   UNL A   1      40.611  31.043  30.117  1.00  0.00     0.031 C 
ATOM     38  C   UNL A   1      39.620  26.492  28.241  1.00  0.00     0.029 A 
ATOM     39  N   UNL A   1      41.743  26.944  28.786  1.00  0.00    -0.354 N 
ATOM     40  C   UNL A   1      42.889  30.851  30.228  1.00  0.00     0.074 A 
ATOM     41  C   UNL A   1      41.725  31.685  30.440  1.00  0.00     0.031 C 
ATOM     42  C   UNL A   1      40.339  25.384  28.010  1.00  0.00     0.029 A 
ATOM     43  C   UNL A   1      41.743  25.661  28.295  1.00  0.00     0.049 A 
ATOM     44  H   UNL A   1      42.548  27.391  29.130  1.00  0.00     0.167 HD
ATOM     45  C   UNL A   1      44.162  31.225  30.503  1.00  0.00     0.037 A 
ATOM     46  C   UNL A   1      42.765  24.817  28.059  1.00  0.00     0.037 A 
ATOM     47  C   UNL A   1      45.314  30.380  30.317  1.00  0.00     0.049 A 
ATOM     48  C   UNL A   1      44.169  25.265  28.345  1.00  0.00     0.074 A 
ATOM     49  C   UNL A   1      46.642  30.660  30.588  1.00  0.00     0.029 A 
ATOM     50  N   UNL A   1      45.270  29.087  29.819  1.00  0.00    -0.354 N 
ATOM     51  N   UNL A   1      44.589  26.413  28.817  1.00  0.00    -0.248 NA
ATOM     52  C   UNL A   1      45.241  24.305  28.050  1.00  0.00     0.031 C 
ATOM     53  C   UNL A   1      47.406  29.543  30.227  1.00  0.00     0.029 A 
ATOM     54  C   UNL A   1      46.549  28.559  29.763  1.00  0.00     0.049 A 
ATOM     55  H   UNL A   1      44.451  28.615  29.544  1.00  0.00     0.167 HD
ATOM     56  C   UNL A   1      45.971  26.312  28.887  1.00  0.00     0.074 A 
ATOM     57  C   UNL A   1      46.318  24.983  28.423  1.00  0.00     0.031 C 
ATOM     58  C   UNL A   1      46.873  27.236  29.296  1.00  0.00     0.037 A 
BRANCH  45  59
ATOM     59  C   UNL A   1      44.378  32.619  31.007  1.00  0.00     0.057 A 
ATOM     60  C   UNL A   1      44.580  33.698  30.138  1.00  0.00     0.134 A 
ATOM     61  C   UNL A   1      44.350  32.890  32.381  1.00  0.00     0.134 A 
ATOM     62  F   UNL A   1      44.632  33.502  28.812  1.00  0.00    -0.206 F 
ATOM     63  C   UNL A   1      44.761  34.996  30.619  1.00  0.00     0.040 A 
ATOM     64  C   UNL A   1      44.512  34.186  32.873  1.00  0.00     0.040 A 
ATOM     65  F   UNL A   1      44.158  31.900  33.266  1.00  0.00    -0.206 F 
ATOM     66  C   UNL A   1      44.722  35.243  31.991  1.00  0.00     0.006 A 
ENDBRANCH  45  59
BRANCH  46  67
ATOM     67  C   UNL A   1      42.492  23.477  27.491  1.00  0.00     0.057 A 
ATOM     68  C   UNL A   1      42.196  22.389  28.318  1.00  0.00     0.134 A 
ATOM     69  C   UNL A   1      42.500  23.256  26.108  1.00  0.00     0.134 A 
ATOM     70  F   UNL A   1      42.196  22.536  29.651  1.00  0.00    -0.206 F 
ATOM     71  C   UNL A   1      41.921  21.126  27.792  1.00  0.00     0.040 A 
ATOM     72  C   UNL A   1      42.205  22.004  25.567  1.00  0.00     0.040 A 
ATOM     73  F   UNL A   1      42.774  24.261  25.263  1.00  0.00    -0.206 F 
ATOM     74  C   UNL A   1      41.918  20.934  26.412  1.00  0.00     0.006 A 
ENDBRANCH  46  67
BRANCH  58  75
ATOM     75  C   UNL A   1      48.314  26.830  29.282  1.00  0.00     0.057 A 
ATOM     76  C   UNL A   1      48.890  26.132  30.350  1.00  0.00     0.134 A 
ATOM     77  C   UNL A   1      49.125  27.116  28.178  1.00  0.00     0.134 A 
ATOM     78  F   UNL A   1      48.165  25.842  31.442  1.00  0.00    -0.206 F 
ATOM     79  C   UNL A   1      50.230  25.747  30.328  1.00  0.00     0.040 A 
ATOM     80  C   UNL A   1      50.463  26.720  28.136  1.00  0.00     0.040 A 
ATOM     81  F   UNL A   1      48.630  27.777  27.122  1.00  0.00    -0.206 F 
ATOM     82  C   UNL A   1      51.019  26.037  29.216  1.00  0.00     0.006 A 
ENDBRANCH  58  75
ENDBRANCH  32  33
ENDBRANCH  25  27
ENDBRANCH  24  25
ENDBRANCH  23  24
ENDBRANCH   1  23
TORSDOF 14
ENDMDL
MODEL 3
REMARK VINA RESULT:     -10.8      3.954      8.877
REMARK SMILES Cc1ccc2nc(CC3(CC(=O)OCCOC(=O)c4ccc(-c5c6nc(c(-c7c(F)cccc7F)c7ccc([nH]7)c(-c7c(F)cccc7F)c7nc(c(-c8c(F)cccc8F)c8ccc5[nH]8)C=C7)C=C6)cc4)CCCCC3)sc2c1
REMARK SMILES IDX 14 1 13 2 11 3 12 4 10 5 9 6 73 7 77 8 74 9 76 10 75 11 8 12
REMARK SMILES IDX 7 13 1 14 2 15 3 16 80 17 4 18 79 19 5 20 78 21 6 22 15 23
REMARK SMILES IDX 16 24 17 25 18 26 19 27 20 28 72 29 21 30 71 31 22 32 23 33
REMARK SMILES IDX 24 34 65 35 25 36 70 37 64 38 66 39 26 40 69 41 63 42 62 43
REMARK SMILES IDX 27 45 53 46 36 47 52 48 37 49 40 50 51 51 67 52 38 53 39 54
REMARK SMILES IDX 50 56 68 57 41 58 28 59 29 60 34 61 30 62 31 63 33 64 35 65
REMARK SMILES IDX 32 66 54 67 55 68 60 69 56 70 57 71 59 72 61 73 58 74 42 75
REMARK SMILES IDX 43 76 48 77 44 78 45 79 47 80 49 81 46 82
REMARK H PARENT 66 44 40 55
REMARK Flexibility Score: inf
ROOT
ATOM      1  C   UNL A   1      36.866  22.458  23.827  1.00  0.00     0.274 C 
ENDROOT
BRANCH   1   2
ATOM      2  O   UNL A   1      35.513  21.960  23.852  1.00  0.00    -0.462 OA
BRANCH   2   3
ATOM      3  C   UNL A   1      34.551  22.836  23.493  1.00  0.00     0.306 C 
ATOM      4  O   UNL A   1      34.510  23.426  22.416  1.00  0.00    -0.252 OA
BRANCH   3   5
ATOM      5  C   UNL A   1      33.481  23.063  24.543  1.00  0.00     0.130 C 
BRANCH   5   6
ATOM      6  C   UNL A   1      33.688  24.057  25.731  1.00  0.00    -0.013 C 
ATOM      7  C   UNL A   1      34.724  23.402  26.701  1.00  0.00     0.008 C 
ATOM      8  C   UNL A   1      32.384  24.276  26.541  1.00  0.00     0.008 C 
ATOM      9  C   UNL A   1      34.216  22.124  27.378  1.00  0.00     0.001 C 
ATOM     10  C   UNL A   1      31.832  22.987  27.148  1.00  0.00     0.001 C 
ATOM     11  C   UNL A   1      32.862  22.321  28.055  1.00  0.00     0.000 C 
BRANCH   6  12
ATOM     12  C   UNL A   1      34.275  25.394  25.167  1.00  0.00     0.075 C 
BRANCH  12  13
ATOM     13  C   UNL A   1      33.252  26.412  24.732  1.00  0.00     0.094 A 
ATOM     14  C   UNL A   1      29.104  30.847  23.511  1.00  0.00     0.044 C 
ATOM     15  C   UNL A   1      29.980  29.627  23.526  1.00  0.00    -0.050 A 
ATOM     16  C   UNL A   1      29.839  28.644  22.545  1.00  0.00     0.006 A 
ATOM     17  C   UNL A   1      30.957  29.485  24.528  1.00  0.00     0.024 A 
ATOM     18  C   UNL A   1      30.659  27.510  22.545  1.00  0.00     0.030 A 
ATOM     19  C   UNL A   1      31.770  28.336  24.522  1.00  0.00     0.055 A 
ATOM     20  C   UNL A   1      31.637  27.350  23.544  1.00  0.00     0.082 A 
ATOM     21  S   UNL A   1      33.023  27.872  25.611  1.00  0.00    -0.119 S 
ATOM     22  N   UNL A   1      32.502  26.278  23.661  1.00  0.00    -0.241 NA
ENDBRANCH  12  13
ENDBRANCH   6  12
ENDBRANCH   5   6
ENDBRANCH   3   5
ENDBRANCH   2   3
ENDBRANCH   1   2
BRANCH   1  23
ATOM     23  C   UNL A   1      37.663  21.884  24.994  1.00  0.00     0.275 C 
BRANCH  23  24
ATOM     24  O   UNL A   1      38.005  22.941  25.906  1.00  0.00    -0.458 OA
BRANCH  24  25
ATOM     25  C   UNL A   1      39.312  23.031  26.235  1.00  0.00     0.338 C 
ATOM     26  O   UNL A   1      40.185  22.201  26.068  1.00  0.00    -0.246 OA
BRANCH  25  27
ATOM     27  C   UNL A   1      39.565  24.334  26.873  1.00  0.00     0.060 A 
ATOM     28  C   UNL A   1      40.282  25.328  26.203  1.00  0.00     0.016 A 
ATOM     29  C   UNL A   1      39.152  24.527  28.191  1.00  0.00     0.016 A 
ATOM     30  C   UNL A   1      40.623  26.507  26.864  1.00  0.00     0.010 A 
ATOM     31  C   UNL A   1      39.440  25.731  28.832  1.00  0.00     0.010 A 
ATOM     32  C   UNL A   1      40.195  26.723  28.180  1.00  0.00    -0.014 A 
BRANCH  32  33
ATOM     33  C   UNL A   1      40.530  27.978  28.898  1.00  0.00     0.031 A 
ATOM     34  C   UNL A   1      41.854  28.114  29.593  1.00  0.00     0.074 A 
ATOM     35  C   UNL A   1      39.626  28.973  28.965  1.00  0.00     0.049 A 
ATOM     36  N   UNL A   1      42.256  29.031  30.434  1.00  0.00    -0.248 NA
ATOM     37  C   UNL A   1      42.853  27.071  29.312  1.00  0.00     0.031 C 
ATOM     38  C   UNL A   1      38.317  28.976  28.310  1.00  0.00     0.029 A 
ATOM     39  N   UNL A   1      39.667  30.168  29.638  1.00  0.00    -0.354 N 
ATOM     40  C   UNL A   1      43.538  28.656  30.816  1.00  0.00     0.074 A 
ATOM     41  C   UNL A   1      43.847  27.426  30.116  1.00  0.00     0.031 C 
ATOM     42  C   UNL A   1      37.679  30.116  28.614  1.00  0.00     0.029 A 
ATOM     43  C   UNL A   1      38.505  30.893  29.532  1.00  0.00     0.049 A 
ATOM     44  H   UNL A   1      40.452  30.477  30.145  1.00  0.00     0.167 HD
ATOM     45  C   UNL A   1      44.377  29.280  31.677  1.00  0.00     0.037 A 
ATOM     46  C   UNL A   1      38.128  32.032  30.141  1.00  0.00     0.037 A 
ATOM     47  C   UNL A   1      44.077  30.519  32.347  1.00  0.00     0.049 A 
ATOM     48  C   UNL A   1      39.063  32.691  31.113  1.00  0.00     0.074 A 
ATOM     49  C   UNL A   1      44.870  31.242  33.220  1.00  0.00     0.029 A 
ATOM     50  N   UNL A   1      42.888  31.219  32.211  1.00  0.00    -0.354 N 
ATOM     51  N   UNL A   1      40.262  32.314  31.489  1.00  0.00    -0.248 NA
ATOM     52  C   UNL A   1      38.588  33.922  31.757  1.00  0.00     0.031 C 
ATOM     53  C   UNL A   1      44.150  32.369  33.635  1.00  0.00     0.029 A 
ATOM     54  C   UNL A   1      42.922  32.362  32.994  1.00  0.00     0.049 A 
ATOM     55  H   UNL A   1      42.132  30.946  31.644  1.00  0.00     0.167 HD
ATOM     56  C   UNL A   1      40.689  33.266  32.404  1.00  0.00     0.074 A 
ATOM     57  C   UNL A   1      39.627  34.247  32.515  1.00  0.00     0.031 C 
ATOM     58  C   UNL A   1      41.854  33.323  33.092  1.00  0.00     0.037 A 
BRANCH  45  59
ATOM     59  C   UNL A   1      45.689  28.617  31.965  1.00  0.00     0.057 A 
ATOM     60  C   UNL A   1      45.838  27.688  33.003  1.00  0.00     0.134 A 
ATOM     61  C   UNL A   1      46.811  28.887  31.170  1.00  0.00     0.134 A 
ATOM     62  F   UNL A   1      44.805  27.398  33.808  1.00  0.00    -0.206 F 
ATOM     63  C   UNL A   1      47.062  27.063  33.250  1.00  0.00     0.040 A 
ATOM     64  C   UNL A   1      48.034  28.254  31.397  1.00  0.00     0.040 A 
ATOM     65  F   UNL A   1      46.734  29.765  30.159  1.00  0.00    -0.206 F 
ATOM     66  C   UNL A   1      48.163  27.342  32.441  1.00  0.00     0.006 A 
ENDBRANCH  45  59
BRANCH  46  67
ATOM     67  C   UNL A   1      36.787  32.600  29.869  1.00  0.00     0.057 A 
ATOM     68  C   UNL A   1      35.690  32.274  30.673  1.00  0.00     0.134 A 
ATOM     69  C   UNL A   1      36.576  33.497  28.815  1.00  0.00     0.134 A 
ATOM     70  F   UNL A   1      35.828  31.403  31.682  1.00  0.00    -0.206 F 
ATOM     71  C   UNL A   1      34.426  32.817  30.436  1.00  0.00     0.040 A 
ATOM     72  C   UNL A   1      35.323  34.065  28.580  1.00  0.00     0.040 A 
ATOM     73  F   UNL A   1      37.590  33.851  28.013  1.00  0.00    -0.206 F 
ATOM     74  C   UNL A   1      34.243  33.721  29.391  1.00  0.00     0.006 A 
ENDBRANCH  46  67
BRANCH  58  75
ATOM     75  C   UNL A   1      42.047  34.496  34.004  1.00  0.00     0.057 A 
ATOM     76  C   UNL A   1      41.725  34.426  35.365  1.00  0.00     0.134 A 
ATOM     77  C   UNL A   1      42.584  35.694  33.522  1.00  0.00     0.134 A 
ATOM     78  F   UNL A   1      41.194  33.307  35.882  1.00  0.00    -0.206 F 
ATOM     79  C   UNL A   1      41.916  35.517  36.213  1.00  0.00     0.040 A 
ATOM     80  C   UNL A   1      42.795  36.788  34.363  1.00  0.00     0.040 A 
ATOM     81  F   UNL A   1      42.916  35.820  32.229  1.00  0.00    -0.206 F 
ATOM     82  C   UNL A   1      42.457  36.701  35.712  1.00  0.00     0.006 A 
ENDBRANCH  58  75
ENDBRANCH  32  33
ENDBRANCH  25  27
ENDBRANCH  24  25
ENDBRANCH  23  24
ENDBRANCH   1  23
TORSDOF 14
ENDMDL
