MODEL 1
REMARK VINA RESULT:     -12.8      0.000      0.000
REMARK SMILES CCc1cccc(C)c1Nc1ccccc1CC(=O)OCCOC(=O)c1ccc(-c2c3nc(c(-c4c(F)cccc4F)c4ccc([nH]4)c(-c4c(F)cccc4F)c4nc(c(-c5c(F)cccc5F)c5ccc2[nH]5)C=C4)C=C3)cc1
REMARK SMILES IDX 21 1 20 2 18 3 19 4 17 5 16 6 11 7 12 8 13 9 15 10 14 11
REMARK SMILES IDX 10 12 9 14 3 15 4 16 5 17 7 18 6 19 8 20 2 21 1 22 22 23
REMARK SMILES IDX 23 24 24 25 25 26 26 27 27 28 79 29 28 30 78 31 29 32 30 33
REMARK SMILES IDX 31 34 72 35 32 36 77 37 71 38 73 39 33 40 76 41 70 42 69 43
REMARK SMILES IDX 34 45 60 46 43 47 59 48 44 49 47 50 58 51 74 52 45 53 46 54
REMARK SMILES IDX 57 56 75 57 48 58 35 59 36 60 41 61 37 62 38 63 40 64 42 65
REMARK SMILES IDX 39 66 61 67 62 68 67 69 63 70 64 71 66 72 68 73 65 74 49 75
REMARK SMILES IDX 50 76 55 77 51 78 52 79 54 80 56 81 53 82
REMARK H PARENT 10 13 73 44 47 55
REMARK Flexibility Score: inf
ROOT
ATOM      1  C   UNL A   1      33.740  28.252  24.498  1.00  0.00     0.274 C 
ENDROOT
BRANCH   1   2
ATOM      2  O   UNL A   1      33.280  26.836  24.014  1.00  0.00    -0.462 OA
BRANCH   2   3
ATOM      3  C   UNL A   1      34.017  25.693  23.799  1.00  0.00     0.310 C 
ATOM      4  O   UNL A   1      34.168  25.297  22.638  1.00  0.00    -0.252 OA
BRANCH   3   5
ATOM      5  C   UNL A   1      34.812  24.922  25.006  1.00  0.00     0.160 C 
BRANCH   5   6
ATOM      6  C   UNL A   1      35.708  23.602  25.050  1.00  0.00    -0.013 A 
ATOM      7  C   UNL A   1      35.523  22.203  24.588  1.00  0.00     0.042 A 
ATOM      8  C   UNL A   1      36.633  21.327  24.662  1.00  0.00     0.026 A 
ATOM      9  C   UNL A   1      37.847  21.705  25.224  1.00  0.00     0.002 A 
ATOM     10  C   UNL A   1      36.941  23.885  25.702  1.00  0.00     0.006 A 
ATOM     11  C   UNL A   1      37.983  22.961  25.791  1.00  0.00     0.000 A 
BRANCH   7  12
ATOM     12  N   UNL A   1      34.390  21.487  23.944  1.00  0.00    -0.355 N 
ATOM     13  H   UNL A   1      34.574  20.941  23.147  1.00  0.00     0.167 HD
BRANCH  12  14
ATOM     14  C   UNL A   1      32.995  21.559  24.446  1.00  0.00     0.045 A 
ATOM     15  C   UNL A   1      32.444  21.939  26.120  1.00  0.00    -0.024 A 
ATOM     16  C   UNL A   1      31.204  23.244  26.402  1.00  0.00     0.006 A 
ATOM     17  C   UNL A   1      30.534  24.178  25.026  1.00  0.00     0.001 A 
ATOM     18  C   UNL A   1      32.231  22.323  23.057  1.00  0.00    -0.027 A 
ATOM     19  C   UNL A   1      31.071  23.748  23.327  1.00  0.00     0.005 A 
ATOM     20  C   UNL A   1      31.931  20.818  22.299  1.00  0.00     0.046 C 
BRANCH  15  21
ATOM     21  C   UNL A   1      33.210  21.581  27.369  1.00  0.00     0.034 C 
ATOM     22  C   UNL A   1      34.102  22.672  27.920  1.00  0.00     0.009 C 
ENDBRANCH  15  21
ENDBRANCH  12  14
ENDBRANCH   7  12
ENDBRANCH   5   6
ENDBRANCH   3   5
ENDBRANCH   2   3
ENDBRANCH   1   2
BRANCH   1  23
ATOM     23  C   UNL A   1      32.805  29.150  25.778  1.00  0.00     0.275 C 
BRANCH  23  24
ATOM     24  O   UNL A   1      33.557  30.446  26.817  1.00  0.00    -0.458 OA
BRANCH  24  25
ATOM     25  C   UNL A   1      35.181  30.948  27.691  1.00  0.00     0.338 C 
ATOM     26  O   UNL A   1      35.689  32.106  27.702  1.00  0.00    -0.246 OA
BRANCH  25  27
ATOM     27  C   UNL A   1      36.244  30.215  28.525  1.00  0.00     0.060 A 
ATOM     28  C   UNL A   1      36.181  29.714  29.845  1.00  0.00     0.016 A 
ATOM     29  C   UNL A   1      37.492  30.237  28.029  1.00  0.00     0.016 A 
ATOM     30  C   UNL A   1      37.320  29.048  30.356  1.00  0.00     0.010 A 
ATOM     31  C   UNL A   1      38.069  29.034  28.115  1.00  0.00     0.010 A 
ATOM     32  C   UNL A   1      38.302  28.729  29.425  1.00  0.00    -0.014 A 
BRANCH  32  33
ATOM     33  C   UNL A   1      39.705  28.344  29.504  1.00  0.00     0.031 A 
ATOM     34  C   UNL A   1      40.101  27.042  28.971  1.00  0.00     0.074 A 
ATOM     35  C   UNL A   1      40.530  29.440  29.505  1.00  0.00     0.049 A 
ATOM     36  N   UNL A   1      41.137  26.388  29.346  1.00  0.00    -0.248 NA
ATOM     37  C   UNL A   1      39.345  26.368  27.914  1.00  0.00     0.031 C 
ATOM     38  C   UNL A   1      41.880  29.692  29.028  1.00  0.00     0.029 A 
ATOM     39  N   UNL A   1      40.135  30.747  29.881  1.00  0.00    -0.354 N 
ATOM     40  C   UNL A   1      41.407  25.500  28.326  1.00  0.00     0.074 A 
ATOM     41  C   UNL A   1      40.181  25.381  27.574  1.00  0.00     0.031 C 
ATOM     42  C   UNL A   1      42.295  30.883  29.530  1.00  0.00     0.029 A 
ATOM     43  C   UNL A   1      41.234  31.417  30.389  1.00  0.00     0.049 A 
ATOM     44  H   UNL A   1      39.227  31.119  29.794  1.00  0.00     0.167 HD
ATOM     45  C   UNL A   1      42.707  25.192  28.046  1.00  0.00     0.037 A 
ATOM     46  C   UNL A   1      41.191  31.598  31.740  1.00  0.00     0.037 A 
ATOM     47  C   UNL A   1      43.593  26.098  28.798  1.00  0.00     0.049 A 
ATOM     48  C   UNL A   1      42.106  30.580  32.367  1.00  0.00     0.074 A 
ATOM     49  C   UNL A   1      44.290  27.232  28.407  1.00  0.00     0.029 A 
ATOM     50  N   UNL A   1      43.523  26.156  30.189  1.00  0.00    -0.354 N 
ATOM     51  N   UNL A   1      42.545  29.529  31.732  1.00  0.00    -0.248 NA
ATOM     52  C   UNL A   1      42.645  30.683  33.712  1.00  0.00     0.031 C 
ATOM     53  C   UNL A   1      44.548  28.014  29.568  1.00  0.00     0.029 A 
ATOM     54  C   UNL A   1      44.005  27.366  30.666  1.00  0.00     0.049 A 
ATOM     55  H   UNL A   1      43.179  25.431  30.759  1.00  0.00     0.167 HD
ATOM     56  C   UNL A   1      43.393  28.825  32.516  1.00  0.00     0.074 A 
ATOM     57  C   UNL A   1      43.436  29.595  33.749  1.00  0.00     0.031 C 
ATOM     58  C   UNL A   1      43.967  27.661  32.098  1.00  0.00     0.037 A 
BRANCH  45  59
ATOM     59  C   UNL A   1      43.174  24.348  26.875  1.00  0.00     0.057 A 
ATOM     60  C   UNL A   1      43.005  22.949  26.879  1.00  0.00     0.134 A 
ATOM     61  C   UNL A   1      43.735  24.852  25.684  1.00  0.00     0.134 A 
ATOM     62  F   UNL A   1      42.400  22.314  27.891  1.00  0.00    -0.206 F 
ATOM     63  C   UNL A   1      43.422  22.118  25.829  1.00  0.00     0.040 A 
ATOM     64  C   UNL A   1      44.190  24.028  24.639  1.00  0.00     0.040 A 
ATOM     65  F   UNL A   1      43.809  26.168  25.441  1.00  0.00    -0.206 F 
ATOM     66  C   UNL A   1      44.036  22.653  24.710  1.00  0.00     0.006 A 
ENDBRANCH  45  59
BRANCH  46  67
ATOM     67  C   UNL A   1      39.795  31.972  32.212  1.00  0.00     0.057 A 
ATOM     68  C   UNL A   1      39.034  31.001  32.905  1.00  0.00     0.134 A 
ATOM     69  C   UNL A   1      39.353  33.297  32.350  1.00  0.00     0.134 A 
ATOM     70  F   UNL A   1      39.399  29.709  32.865  1.00  0.00    -0.206 F 
ATOM     71  C   UNL A   1      37.957  31.330  33.744  1.00  0.00     0.040 A 
ATOM     72  C   UNL A   1      38.268  33.638  33.182  1.00  0.00     0.040 A 
ATOM     73  F   UNL A   1      40.020  34.302  31.765  1.00  0.00    -0.206 F 
ATOM     74  C   UNL A   1      37.586  32.659  33.903  1.00  0.00     0.006 A 
ENDBRANCH  46  67
BRANCH  58  75
ATOM     75  C   UNL A   1      44.608  26.708  33.052  1.00  0.00     0.057 A 
ATOM     76  C   UNL A   1      45.992  26.498  33.104  1.00  0.00     0.134 A 
ATOM     77  C   UNL A   1      43.848  26.083  34.057  1.00  0.00     0.134 A 
ATOM     78  F   UNL A   1      46.838  27.159  32.299  1.00  0.00    -0.206 F 
ATOM     79  C   UNL A   1      46.572  25.629  34.025  1.00  0.00     0.040 A 
ATOM     80  C   UNL A   1      44.427  25.276  35.031  1.00  0.00     0.040 A 
ATOM     81  F   UNL A   1      42.520  26.252  34.151  1.00  0.00    -0.206 F 
ATOM     82  C   UNL A   1      45.790  25.020  34.998  1.00  0.00     0.006 A 
ENDBRANCH  58  75
ENDBRANCH  32  33
ENDBRANCH  25  27
ENDBRANCH  24  25
ENDBRANCH  23  24
ENDBRANCH   1  23
TORSDOF 15
ENDMDL
MODEL 2
REMARK VINA RESULT:     -12.7      1.274      2.723
REMARK SMILES CCc1cccc(C)c1Nc1ccccc1CC(=O)OCCOC(=O)c1ccc(-c2c3nc(c(-c4c(F)cccc4F)c4ccc([nH]4)c(-c4c(F)cccc4F)c4nc(c(-c5c(F)cccc5F)c5ccc2[nH]5)C=C4)C=C3)cc1
REMARK SMILES IDX 21 1 20 2 18 3 19 4 17 5 16 6 11 7 12 8 13 9 15 10 14 11
REMARK SMILES IDX 10 12 9 14 3 15 4 16 5 17 7 18 6 19 8 20 2 21 1 22 22 23
REMARK SMILES IDX 23 24 24 25 25 26 26 27 27 28 79 29 28 30 78 31 29 32 30 33
REMARK SMILES IDX 31 34 72 35 32 36 77 37 71 38 73 39 33 40 76 41 70 42 69 43
REMARK SMILES IDX 34 45 60 46 43 47 59 48 44 49 47 50 58 51 74 52 45 53 46 54
REMARK SMILES IDX 57 56 75 57 48 58 35 59 36 60 41 61 37 62 38 63 40 64 42 65
REMARK SMILES IDX 39 66 61 67 62 68 67 69 63 70 64 71 66 72 68 73 65 74 49 75
REMARK SMILES IDX 50 76 55 77 51 78 52 79 54 80 56 81 53 82
REMARK H PARENT 10 13 73 44 47 55
REMARK Flexibility Score: inf
ROOT
ATOM      1  C   UNL A   1      31.618  29.458  24.889  1.00  0.00     0.274 C 
ENDROOT
BRANCH   1   2
ATOM      2  O   UNL A   1      31.629  28.972  23.402  1.00  0.00    -0.462 OA
BRANCH   2   3
ATOM      3  C   UNL A   1      30.697  28.233  22.707  1.00  0.00     0.310 C 
ATOM      4  O   UNL A   1      29.878  28.831  22.001  1.00  0.00    -0.252 OA
BRANCH   3   5
ATOM      5  C   UNL A   1      30.722  26.596  22.675  1.00  0.00     0.160 C 
BRANCH   5   6
ATOM      6  C   UNL A   1      30.681  25.485  23.821  1.00  0.00    -0.013 A 
ATOM      7  C   UNL A   1      30.955  24.026  23.865  1.00  0.00     0.042 A 
ATOM      8  C   UNL A   1      30.967  23.391  25.131  1.00  0.00     0.026 A 
ATOM      9  C   UNL A   1      30.653  24.062  26.307  1.00  0.00     0.002 A 
ATOM     10  C   UNL A   1      30.272  26.080  25.048  1.00  0.00     0.006 A 
ATOM     11  C   UNL A   1      30.254  25.387  26.259  1.00  0.00     0.000 A 
BRANCH   7  12
ATOM     12  N   UNL A   1      31.325  23.030  22.826  1.00  0.00    -0.355 N 
ATOM     13  H   UNL A   1      30.658  22.798  22.141  1.00  0.00     0.167 HD
BRANCH  12  14
ATOM     14  C   UNL A   1      32.652  22.367  22.773  1.00  0.00     0.045 A 
ATOM     15  C   UNL A   1      34.217  22.980  23.427  1.00  0.00    -0.024 A 
ATOM     16  C   UNL A   1      35.220  21.936  24.533  1.00  0.00     0.006 A 
ATOM     17  C   UNL A   1      34.656  20.300  25.001  1.00  0.00     0.001 A 
ATOM     18  C   UNL A   1      32.153  20.705  23.060  1.00  0.00    -0.027 A 
ATOM     19  C   UNL A   1      33.086  19.674  24.292  1.00  0.00     0.005 A 
ATOM     20  C   UNL A   1      31.890  20.417  21.393  1.00  0.00     0.046 C 
BRANCH  15  21
ATOM     21  C   UNL A   1      34.595  24.439  23.499  1.00  0.00     0.034 C 
ATOM     22  C   UNL A   1      34.242  25.139  24.793  1.00  0.00     0.009 C 
ENDBRANCH  15  21
ENDBRANCH  12  14
ENDBRANCH   7  12
ENDBRANCH   5   6
ENDBRANCH   3   5
ENDBRANCH   2   3
ENDBRANCH   1   2
BRANCH   1  23
ATOM     23  C   UNL A   1      33.068  29.210  25.964  1.00  0.00     0.275 C 
BRANCH  23  24
ATOM     24  O   UNL A   1      34.005  30.596  26.687  1.00  0.00    -0.458 OA
BRANCH  24  25
ATOM     25  C   UNL A   1      35.332  31.023  27.996  1.00  0.00     0.338 C 
ATOM     26  O   UNL A   1      35.597  32.180  28.432  1.00  0.00    -0.246 OA
BRANCH  25  27
ATOM     27  C   UNL A   1      36.360  30.222  28.809  1.00  0.00     0.060 A 
ATOM     28  C   UNL A   1      36.278  29.694  30.118  1.00  0.00     0.016 A 
ATOM     29  C   UNL A   1      37.606  30.194  28.308  1.00  0.00     0.016 A 
ATOM     30  C   UNL A   1      37.385  28.962  30.609  1.00  0.00     0.010 A 
ATOM     31  C   UNL A   1      38.126  28.963  28.365  1.00  0.00     0.010 A 
ATOM     32  C   UNL A   1      38.348  28.618  29.667  1.00  0.00    -0.014 A 
BRANCH  32  33
ATOM     33  C   UNL A   1      39.730  28.165  29.731  1.00  0.00     0.031 A 
ATOM     34  C   UNL A   1      40.070  26.878  29.126  1.00  0.00     0.074 A 
ATOM     35  C   UNL A   1      40.605  29.219  29.801  1.00  0.00     0.049 A 
ATOM     36  N   UNL A   1      41.072  26.157  29.468  1.00  0.00    -0.248 NA
ATOM     37  C   UNL A   1      39.294  26.303  28.026  1.00  0.00     0.031 C 
ATOM     38  C   UNL A   1      41.969  29.435  29.346  1.00  0.00     0.029 A 
ATOM     39  N   UNL A   1      40.267  30.519  30.250  1.00  0.00    -0.354 N 
ATOM     40  C   UNL A   1      41.310  25.318  28.399  1.00  0.00     0.074 A 
ATOM     41  C   UNL A   1      40.086  25.299  27.634  1.00  0.00     0.031 C 
ATOM     42  C   UNL A   1      42.434  30.575  29.920  1.00  0.00     0.029 A 
ATOM     43  C   UNL A   1      41.392  31.107  30.803  1.00  0.00     0.049 A 
ATOM     44  H   UNL A   1      39.378  30.937  30.180  1.00  0.00     0.167 HD
ATOM     45  C   UNL A   1      42.597  24.966  28.109  1.00  0.00     0.037 A 
ATOM     46  C   UNL A   1      41.346  31.211  32.162  1.00  0.00     0.037 A 
ATOM     47  C   UNL A   1      43.517  25.785  28.918  1.00  0.00     0.049 A 
ATOM     48  C   UNL A   1      42.208  30.117  32.733  1.00  0.00     0.074 A 
ATOM     49  C   UNL A   1      44.268  26.906  28.597  1.00  0.00     0.029 A 
ATOM     50  N   UNL A   1      43.439  25.765  30.309  1.00  0.00    -0.354 N 
ATOM     51  N   UNL A   1      42.603  29.085  32.041  1.00  0.00    -0.248 NA
ATOM     52  C   UNL A   1      42.739  30.116  34.085  1.00  0.00     0.031 C 
ATOM     53  C   UNL A   1      44.553  27.607  29.804  1.00  0.00     0.029 A 
ATOM     54  C   UNL A   1      43.971  26.922  30.859  1.00  0.00     0.049 A 
ATOM     55  H   UNL A   1      43.056  25.025  30.834  1.00  0.00     0.167 HD
ATOM     56  C   UNL A   1      43.412  28.299  32.787  1.00  0.00     0.074 A 
ATOM     57  C   UNL A   1      43.479  28.993  34.063  1.00  0.00     0.031 C 
ATOM     58  C   UNL A   1      43.935  27.135  32.305  1.00  0.00     0.037 A 
BRANCH  45  59
ATOM     59  C   UNL A   1      43.035  24.171  26.893  1.00  0.00     0.057 A 
ATOM     60  C   UNL A   1      42.866  22.772  26.845  1.00  0.00     0.134 A 
ATOM     61  C   UNL A   1      43.564  24.724  25.710  1.00  0.00     0.134 A 
ATOM     62  F   UNL A   1      42.287  22.096  27.846  1.00  0.00    -0.206 F 
ATOM     63  C   UNL A   1      43.256  21.985  25.752  1.00  0.00     0.040 A 
ATOM     64  C   UNL A   1      43.994  23.943  24.622  1.00  0.00     0.040 A 
ATOM     65  F   UNL A   1      43.632  26.048  25.519  1.00  0.00    -0.206 F 
ATOM     66  C   UNL A   1      43.841  22.566  24.641  1.00  0.00     0.006 A 
ENDBRANCH  45  59
BRANCH  46  67
ATOM     67  C   UNL A   1      39.965  31.621  32.646  1.00  0.00     0.057 A 
ATOM     68  C   UNL A   1      39.159  30.652  33.288  1.00  0.00     0.134 A 
ATOM     69  C   UNL A   1      39.579  32.956  32.848  1.00  0.00     0.134 A 
ATOM     70  F   UNL A   1      39.468  29.348  33.186  1.00  0.00    -0.206 F 
ATOM     71  C   UNL A   1      38.092  30.985  34.138  1.00  0.00     0.040 A 
ATOM     72  C   UNL A   1      38.506  33.302  33.692  1.00  0.00     0.040 A 
ATOM     73  F   UNL A   1      40.292  33.959  32.315  1.00  0.00    -0.206 F 
ATOM     74  C   UNL A   1      37.778  32.319  34.362  1.00  0.00     0.006 A 
ENDBRANCH  46  67
BRANCH  58  75
ATOM     75  C   UNL A   1      44.523  26.100  33.205  1.00  0.00     0.057 A 
ATOM     76  C   UNL A   1      43.778  25.425  34.181  1.00  0.00     0.134 A 
ATOM     77  C   UNL A   1      45.839  25.643  33.005  1.00  0.00     0.134 A 
ATOM     78  F   UNL A   1      42.470  25.662  34.359  1.00  0.00    -0.206 F 
ATOM     79  C   UNL A   1      44.340  24.438  34.987  1.00  0.00     0.040 A 
ATOM     80  C   UNL A   1      46.385  24.603  33.751  1.00  0.00     0.040 A 
ATOM     81  F   UNL A   1      46.635  26.168  32.061  1.00  0.00    -0.206 F 
ATOM     82  C   UNL A   1      45.646  24.019  34.768  1.00  0.00     0.006 A 
ENDBRANCH  58  75
ENDBRANCH  32  33
ENDBRANCH  25  27
ENDBRANCH  24  25
ENDBRANCH  23  24
ENDBRANCH   1  23
TORSDOF 15
ENDMDL
MODEL 3
REMARK VINA RESULT:     -12.6      2.773      7.928
REMARK SMILES CCc1cccc(C)c1Nc1ccccc1CC(=O)OCCOC(=O)c1ccc(-c2c3nc(c(-c4c(F)cccc4F)c4ccc([nH]4)c(-c4c(F)cccc4F)c4nc(c(-c5c(F)cccc5F)c5ccc2[nH]5)C=C4)C=C3)cc1
REMARK SMILES IDX 21 1 20 2 18 3 19 4 17 5 16 6 11 7 12 8 13 9 15 10 14 11
REMARK SMILES IDX 10 12 9 14 3 15 4 16 5 17 7 18 6 19 8 20 2 21 1 22 22 23
REMARK SMILES IDX 23 24 24 25 25 26 26 27 27 28 79 29 28 30 78 31 29 32 30 33
REMARK SMILES IDX 31 34 72 35 32 36 77 37 71 38 73 39 33 40 76 41 70 42 69 43
REMARK SMILES IDX 34 45 60 46 43 47 59 48 44 49 47 50 58 51 74 52 45 53 46 54
REMARK SMILES IDX 57 56 75 57 48 58 35 59 36 60 41 61 37 62 38 63 40 64 42 65
REMARK SMILES IDX 39 66 61 67 62 68 67 69 63 70 64 71 66 72 68 73 65 74 49 75
REMARK SMILES IDX 50 76 55 77 51 78 52 79 54 80 56 81 53 82
REMARK H PARENT 10 13 73 44 47 55
REMARK Flexibility Score: inf
ROOT
ATOM      1  C   UNL A   1      36.649  22.633  23.905  1.00  0.00     0.274 C 
ENDROOT
BRANCH   1   2
ATOM      2  O   UNL A   1      36.277  23.875  24.781  1.00  0.00    -0.462 OA
BRANCH   2   3
ATOM      3  C   UNL A   1      35.188  24.087  25.597  1.00  0.00     0.310 C 
ATOM      4  O   UNL A   1      35.200  23.604  26.734  1.00  0.00    -0.252 OA
BRANCH   3   5
ATOM      5  C   UNL A   1      33.947  25.065  25.167  1.00  0.00     0.160 C 
BRANCH   5   6
ATOM      6  C   UNL A   1      33.173  26.238  25.923  1.00  0.00    -0.013 A 
ATOM      7  C   UNL A   1      31.806  26.391  26.483  1.00  0.00     0.042 A 
ATOM      8  C   UNL A   1      31.526  27.552  27.243  1.00  0.00     0.026 A 
ATOM      9  C   UNL A   1      32.449  28.579  27.408  1.00  0.00     0.002 A 
ATOM     10  C   UNL A   1      34.028  27.370  26.048  1.00  0.00     0.006 A 
ATOM     11  C   UNL A   1      33.675  28.512  26.768  1.00  0.00     0.000 A 
BRANCH   7  12
ATOM     12  N   UNL A   1      30.611  25.507  26.501  1.00  0.00    -0.355 N 
ATOM     13  H   UNL A   1      29.919  25.669  27.181  1.00  0.00     0.167 HD
BRANCH  12  14
ATOM     14  C   UNL A   1      30.412  24.391  25.543  1.00  0.00     0.045 A 
ATOM     15  C   UNL A   1      30.656  24.415  23.756  1.00  0.00    -0.024 A 
ATOM     16  C   UNL A   1      31.702  23.155  22.957  1.00  0.00     0.006 A 
ATOM     17  C   UNL A   1      32.516  21.893  23.935  1.00  0.00     0.001 A 
ATOM     18  C   UNL A   1      31.043  23.066  26.514  1.00  0.00    -0.027 A 
ATOM     19  C   UNL A   1      32.221  21.854  25.744  1.00  0.00     0.005 A 
ATOM     20  C   UNL A   1      29.520  22.775  27.241  1.00  0.00     0.046 C 
BRANCH  15  21
ATOM     21  C   UNL A   1      30.428  25.624  22.884  1.00  0.00     0.034 C 
ATOM     22  C   UNL A   1      31.582  26.600  22.809  1.00  0.00     0.009 C 
ENDBRANCH  15  21
ENDBRANCH  12  14
ENDBRANCH   7  12
ENDBRANCH   5   6
ENDBRANCH   3   5
ENDBRANCH   2   3
ENDBRANCH   1   2
BRANCH   1  23
ATOM     23  C   UNL A   1      37.346  21.130  24.663  1.00  0.00     0.275 C 
BRANCH  23  24
ATOM     24  O   UNL A   1      38.814  21.164  25.743  1.00  0.00    -0.458 OA
BRANCH  24  25
ATOM     25  C   UNL A   1      39.846  22.305  26.878  1.00  0.00     0.338 C 
ATOM     26  O   UNL A   1      40.429  21.956  27.945  1.00  0.00    -0.246 OA
BRANCH  25  27
ATOM     27  C   UNL A   1      40.232  23.792  26.871  1.00  0.00     0.060 A 
ATOM     28  C   UNL A   1      40.698  24.608  25.815  1.00  0.00     0.016 A 
ATOM     29  C   UNL A   1      40.364  24.367  28.078  1.00  0.00     0.016 A 
ATOM     30  C   UNL A   1      40.953  25.972  26.094  1.00  0.00     0.010 A 
ATOM     31  C   UNL A   1      39.784  25.571  28.108  1.00  0.00     0.010 A 
ATOM     32  C   UNL A   1      40.481  26.437  27.317  1.00  0.00    -0.014 A 
BRANCH  32  33
ATOM     33  C   UNL A   1      40.748  27.607  28.141  1.00  0.00     0.031 A 
ATOM     34  C   UNL A   1      39.684  28.594  28.315  1.00  0.00     0.074 A 
ATOM     35  C   UNL A   1      41.697  27.346  29.097  1.00  0.00     0.049 A 
ATOM     36  N   UNL A   1      39.877  29.827  28.606  1.00  0.00    -0.248 NA
ATOM     37  C   UNL A   1      38.267  28.244  28.199  1.00  0.00     0.031 C 
ATOM     38  C   UNL A   1      41.946  27.846  30.440  1.00  0.00     0.029 A 
ATOM     39  N   UNL A   1      42.652  26.303  29.023  1.00  0.00    -0.354 N 
ATOM     40  C   UNL A   1      38.683  30.279  29.128  1.00  0.00     0.074 A 
ATOM     41  C   UNL A   1      37.679  29.347  28.674  1.00  0.00     0.031 C 
ATOM     42  C   UNL A   1      43.180  27.431  30.827  1.00  0.00     0.029 A 
ATOM     43  C   UNL A   1      43.785  26.684  29.720  1.00  0.00     0.049 A 
ATOM     44  H   UNL A   1      42.530  25.447  28.552  1.00  0.00     0.167 HD
ATOM     45  C   UNL A   1      38.708  31.210  30.125  1.00  0.00     0.037 A 
ATOM     46  C   UNL A   1      44.848  26.986  28.921  1.00  0.00     0.037 A 
ATOM     47  C   UNL A   1      40.094  31.374  30.600  1.00  0.00     0.049 A 
ATOM     48  C   UNL A   1      44.954  28.486  28.848  1.00  0.00     0.074 A 
ATOM     49  C   UNL A   1      40.745  30.874  31.718  1.00  0.00     0.029 A 
ATOM     50  N   UNL A   1      41.100  31.759  29.715  1.00  0.00    -0.354 N 
ATOM     51  N   UNL A   1      43.987  29.287  29.200  1.00  0.00    -0.248 NA
ATOM     52  C   UNL A   1      46.151  29.202  28.442  1.00  0.00     0.031 C 
ATOM     53  C   UNL A   1      42.143  30.873  31.452  1.00  0.00     0.029 A 
ATOM     54  C   UNL A   1      42.349  31.364  30.173  1.00  0.00     0.049 A 
ATOM     55  H   UNL A   1      40.944  32.250  28.876  1.00  0.00     0.167 HD
ATOM     56  C   UNL A   1      44.381  30.576  29.088  1.00  0.00     0.074 A 
ATOM     57  C   UNL A   1      45.754  30.475  28.619  1.00  0.00     0.031 C 
ATOM     58  C   UNL A   1      43.542  31.615  29.364  1.00  0.00     0.037 A 
BRANCH  45  59
ATOM     59  C   UNL A   1      37.497  31.702  30.895  1.00  0.00     0.057 A 
ATOM     60  C   UNL A   1      36.732  32.787  30.423  1.00  0.00     0.134 A 
ATOM     61  C   UNL A   1      36.988  31.112  32.070  1.00  0.00     0.134 A 
ATOM     62  F   UNL A   1      37.018  33.403  29.269  1.00  0.00    -0.206 F 
ATOM     63  C   UNL A   1      35.607  33.289  31.094  1.00  0.00     0.040 A 
ATOM     64  C   UNL A   1      35.884  31.626  32.773  1.00  0.00     0.040 A 
ATOM     65  F   UNL A   1      37.490  29.970  32.560  1.00  0.00    -0.206 F 
ATOM     66  C   UNL A   1      35.189  32.722  32.285  1.00  0.00     0.006 A 
ENDBRANCH  45  59
BRANCH  46  67
ATOM     67  C   UNL A   1      44.969  26.013  27.759  1.00  0.00     0.057 A 
ATOM     68  C   UNL A   1      44.628  26.464  26.462  1.00  0.00     0.134 A 
ATOM     69  C   UNL A   1      45.739  24.841  27.808  1.00  0.00     0.134 A 
ATOM     70  F   UNL A   1      43.924  27.598  26.310  1.00  0.00    -0.206 F 
ATOM     71  C   UNL A   1      45.089  25.842  25.291  1.00  0.00     0.040 A 
ATOM     72  C   UNL A   1      46.200  24.203  26.638  1.00  0.00     0.040 A 
ATOM     73  F   UNL A   1      46.149  24.342  28.983  1.00  0.00    -0.206 F 
ATOM     74  C   UNL A   1      45.901  24.718  25.378  1.00  0.00     0.006 A 
ENDBRANCH  46  67
BRANCH  58  75
ATOM     75  C   UNL A   1      43.834  33.009  28.918  1.00  0.00     0.057 A 
ATOM     76  C   UNL A   1      43.940  33.370  27.569  1.00  0.00     0.134 A 
ATOM     77  C   UNL A   1      43.867  34.066  29.846  1.00  0.00     0.134 A 
ATOM     78  F   UNL A   1      43.769  32.477  26.582  1.00  0.00    -0.206 F 
ATOM     79  C   UNL A   1      44.179  34.684  27.173  1.00  0.00     0.040 A 
ATOM     80  C   UNL A   1      44.026  35.392  29.456  1.00  0.00     0.040 A 
ATOM     81  F   UNL A   1      43.718  33.856  31.163  1.00  0.00    -0.206 F 
ATOM     82  C   UNL A   1      44.216  35.701  28.118  1.00  0.00     0.006 A 
ENDBRANCH  58  75
ENDBRANCH  32  33
ENDBRANCH  25  27
ENDBRANCH  24  25
ENDBRANCH  23  24
ENDBRANCH   1  23
TORSDOF 15
ENDMDL
