MODEL 1
REMARK VINA RESULT:     -11.8      0.000      0.000
REMARK SMILES O=C(Cn1cnc(-c2ccccc2)c1-c1ccccc1)OCCOC(=O)c1ccc(-c2c3nc(c(-c4c(F)cccc4F)c4ccc([nH]4)c(-c4c(F)cccc4F)c4nc(c(-c5c(F)cccc5F)c5ccc2[nH]5)C=C4)C=C3)cc1
REMARK SMILES IDX 22 1 21 2 2 3 1 4 3 5 4 6 5 7 14 8 6 9 7 10 15 11 16 12
REMARK SMILES IDX 20 13 17 14 19 15 18 16 8 17 9 18 13 19 10 20 12 21 11 22
REMARK SMILES IDX 23 23 24 24 25 25 26 26 27 27 28 28 80 29 29 30 79 31 30 32
REMARK SMILES IDX 31 33 32 34 73 35 33 36 78 37 72 38 74 39 34 40 77 41 71 42
REMARK SMILES IDX 70 43 35 45 61 46 44 47 60 48 45 49 48 50 59 51 75 52 46 53
REMARK SMILES IDX 47 54 58 56 76 57 49 58 36 59 37 60 42 61 38 62 39 63 41 64
REMARK SMILES IDX 43 65 40 66 62 67 63 68 68 69 64 70 65 71 67 72 69 73 66 74
REMARK SMILES IDX 50 75 51 76 56 77 52 78 53 79 55 80 57 81 54 82
REMARK H PARENT 74 44 48 55
REMARK Flexibility Score: inf
ROOT
ATOM      1  C   UNL A   1      36.346  21.491  25.796  1.00  0.00     0.274 C 
ENDROOT
BRANCH   1   2
ATOM      2  O   UNL A   1      35.666  22.765  25.936  1.00  0.00    -0.461 OA
BRANCH   2   3
ATOM      3  C   UNL A   1      34.730  23.323  25.129  1.00  0.00     0.326 C 
ATOM      4  O   UNL A   1      35.046  23.686  23.994  1.00  0.00    -0.250 OA
BRANCH   3   5
ATOM      5  C   UNL A   1      33.339  23.598  25.625  1.00  0.00     0.246 C 
BRANCH   5   6
ATOM      6  N   UNL A   1      32.390  24.210  24.716  1.00  0.00    -0.319 N 
ATOM      7  C   UNL A   1      31.702  23.502  23.764  1.00  0.00     0.201 A 
ATOM      8  C   UNL A   1      31.936  25.505  24.701  1.00  0.00     0.076 A 
ATOM      9  N   UNL A   1      30.838  24.259  23.133  1.00  0.00    -0.236 NA
ATOM     10  C   UNL A   1      30.977  25.499  23.702  1.00  0.00     0.096 A 
BRANCH   8  11
ATOM     11  C   UNL A   1      32.382  26.552  25.611  1.00  0.00     0.000 A 
ATOM     12  C   UNL A   1      33.610  27.184  25.418  1.00  0.00     0.010 A 
ATOM     13  C   UNL A   1      31.541  26.988  26.641  1.00  0.00     0.010 A 
ATOM     14  C   UNL A   1      33.953  28.290  26.197  1.00  0.00     0.001 A 
ATOM     15  C   UNL A   1      31.855  28.126  27.379  1.00  0.00     0.001 A 
ATOM     16  C   UNL A   1      33.061  28.780  27.153  1.00  0.00     0.000 A 
ENDBRANCH   8  11
BRANCH  10  17
ATOM     17  C   UNL A   1      30.173  26.644  23.359  1.00  0.00     0.002 A 
ATOM     18  C   UNL A   1      28.823  26.672  23.717  1.00  0.00     0.010 A 
ATOM     19  C   UNL A   1      30.767  27.764  22.769  1.00  0.00     0.010 A 
ATOM     20  C   UNL A   1      28.086  27.841  23.533  1.00  0.00     0.001 A 
ATOM     21  C   UNL A   1      30.030  28.930  22.588  1.00  0.00     0.001 A 
ATOM     22  C   UNL A   1      28.694  28.970  22.981  1.00  0.00     0.000 A 
ENDBRANCH  10  17
ENDBRANCH   5   6
ENDBRANCH   3   5
ENDBRANCH   2   3
ENDBRANCH   1   2
BRANCH   1  23
ATOM     23  C   UNL A   1      37.622  21.649  24.987  1.00  0.00     0.275 C 
BRANCH  23  24
ATOM     24  O   UNL A   1      38.692  21.698  25.913  1.00  0.00    -0.458 OA
BRANCH  24  25
ATOM     25  C   UNL A   1      39.571  20.668  25.859  1.00  0.00     0.338 C 
ATOM     26  O   UNL A   1      39.378  19.543  25.475  1.00  0.00    -0.246 OA
BRANCH  25  27
ATOM     27  C   UNL A   1      40.832  21.192  26.402  1.00  0.00     0.060 A 
ATOM     28  C   UNL A   1      41.088  20.935  27.746  1.00  0.00     0.016 A 
ATOM     29  C   UNL A   1      41.524  22.170  25.669  1.00  0.00     0.016 A 
ATOM     30  C   UNL A   1      41.709  21.933  28.449  1.00  0.00     0.010 A 
ATOM     31  C   UNL A   1      42.131  23.163  26.364  1.00  0.00     0.010 A 
ATOM     32  C   UNL A   1      42.052  23.091  27.748  1.00  0.00    -0.014 A 
BRANCH  32  33
ATOM     33  C   UNL A   1      42.273  24.312  28.471  1.00  0.00     0.031 A 
ATOM     34  C   UNL A   1      41.198  25.280  28.213  1.00  0.00     0.074 A 
ATOM     35  C   UNL A   1      43.287  24.398  29.354  1.00  0.00     0.049 A 
ATOM     36  N   UNL A   1      41.263  26.339  27.481  1.00  0.00    -0.248 NA
ATOM     37  C   UNL A   1      39.826  24.880  28.577  1.00  0.00     0.031 C 
ATOM     38  C   UNL A   1      44.213  23.349  29.806  1.00  0.00     0.029 A 
ATOM     39  N   UNL A   1      43.644  25.462  30.119  1.00  0.00    -0.354 N 
ATOM     40  C   UNL A   1      39.984  26.874  27.533  1.00  0.00     0.074 A 
ATOM     41  C   UNL A   1      39.114  25.808  27.941  1.00  0.00     0.031 C 
ATOM     42  C   UNL A   1      44.858  23.765  30.922  1.00  0.00     0.029 A 
ATOM     43  C   UNL A   1      44.494  25.144  31.180  1.00  0.00     0.049 A 
ATOM     44  H   UNL A   1      43.330  26.378  29.942  1.00  0.00     0.167 HD
ATOM     45  C   UNL A   1      39.812  28.218  27.617  1.00  0.00     0.037 A 
ATOM     46  C   UNL A   1      44.761  25.975  32.221  1.00  0.00     0.037 A 
ATOM     47  C   UNL A   1      40.997  28.914  27.173  1.00  0.00     0.049 A 
ATOM     48  C   UNL A   1      44.399  27.351  31.768  1.00  0.00     0.074 A 
ATOM     49  C   UNL A   1      41.710  28.946  25.989  1.00  0.00     0.029 A 
ATOM     50  N   UNL A   1      41.852  29.391  28.139  1.00  0.00    -0.354 N 
ATOM     51  N   UNL A   1      45.029  27.976  30.811  1.00  0.00    -0.248 NA
ATOM     52  C   UNL A   1      43.025  27.781  31.999  1.00  0.00     0.031 C 
ATOM     53  C   UNL A   1      43.080  28.990  26.381  1.00  0.00     0.029 A 
ATOM     54  C   UNL A   1      43.134  29.066  27.773  1.00  0.00     0.049 A 
ATOM     55  H   UNL A   1      41.589  29.881  28.951  1.00  0.00     0.167 HD
ATOM     56  C   UNL A   1      44.027  28.566  30.049  1.00  0.00     0.074 A 
ATOM     57  C   UNL A   1      42.814  28.443  30.857  1.00  0.00     0.031 C 
ATOM     58  C   UNL A   1      44.202  28.819  28.717  1.00  0.00     0.037 A 
BRANCH  45  59
ATOM     59  C   UNL A   1      38.773  28.857  28.508  1.00  0.00     0.057 A 
ATOM     60  C   UNL A   1      38.795  28.552  29.876  1.00  0.00     0.134 A 
ATOM     61  C   UNL A   1      37.603  29.513  28.061  1.00  0.00     0.134 A 
ATOM     62  F   UNL A   1      39.848  27.928  30.425  1.00  0.00    -0.206 F 
ATOM     63  C   UNL A   1      37.702  28.800  30.715  1.00  0.00     0.040 A 
ATOM     64  C   UNL A   1      36.530  29.812  28.901  1.00  0.00     0.040 A 
ATOM     65  F   UNL A   1      37.376  29.820  26.780  1.00  0.00    -0.206 F 
ATOM     66  C   UNL A   1      36.561  29.421  30.226  1.00  0.00     0.006 A 
ENDBRANCH  45  59
BRANCH  46  67
ATOM     67  C   UNL A   1      44.897  25.618  33.654  1.00  0.00     0.057 A 
ATOM     68  C   UNL A   1      45.783  26.300  34.500  1.00  0.00     0.134 A 
ATOM     69  C   UNL A   1      43.960  24.785  34.293  1.00  0.00     0.134 A 
ATOM     70  F   UNL A   1      46.682  27.158  33.994  1.00  0.00    -0.206 F 
ATOM     71  C   UNL A   1      45.734  26.170  35.898  1.00  0.00     0.040 A 
ATOM     72  C   UNL A   1      43.901  24.644  35.684  1.00  0.00     0.040 A 
ATOM     73  F   UNL A   1      43.010  24.150  33.593  1.00  0.00    -0.206 F 
ATOM     74  C   UNL A   1      44.783  25.347  36.494  1.00  0.00     0.006 A 
ENDBRANCH  46  67
BRANCH  58  75
ATOM     75  C   UNL A   1      45.578  28.616  28.138  1.00  0.00     0.057 A 
ATOM     76  C   UNL A   1      46.020  27.415  27.558  1.00  0.00     0.134 A 
ATOM     77  C   UNL A   1      46.422  29.722  28.007  1.00  0.00     0.134 A 
ATOM     78  F   UNL A   1      45.243  26.326  27.548  1.00  0.00    -0.206 F 
ATOM     79  C   UNL A   1      47.256  27.314  26.910  1.00  0.00     0.040 A 
ATOM     80  C   UNL A   1      47.644  29.644  27.334  1.00  0.00     0.040 A 
ATOM     81  F   UNL A   1      46.041  30.918  28.481  1.00  0.00    -0.206 F 
ATOM     82  C   UNL A   1      48.070  28.435  26.789  1.00  0.00     0.006 A 
ENDBRANCH  58  75
ENDBRANCH  32  33
ENDBRANCH  25  27
ENDBRANCH  24  25
ENDBRANCH  23  24
ENDBRANCH   1  23
TORSDOF 14
ENDMDL
MODEL 2
REMARK VINA RESULT:     -11.6      3.988      8.434
REMARK SMILES O=C(Cn1cnc(-c2ccccc2)c1-c1ccccc1)OCCOC(=O)c1ccc(-c2c3nc(c(-c4c(F)cccc4F)c4ccc([nH]4)c(-c4c(F)cccc4F)c4nc(c(-c5c(F)cccc5F)c5ccc2[nH]5)C=C4)C=C3)cc1
REMARK SMILES IDX 22 1 21 2 2 3 1 4 3 5 4 6 5 7 14 8 6 9 7 10 15 11 16 12
REMARK SMILES IDX 20 13 17 14 19 15 18 16 8 17 9 18 13 19 10 20 12 21 11 22
REMARK SMILES IDX 23 23 24 24 25 25 26 26 27 27 28 28 80 29 29 30 79 31 30 32
REMARK SMILES IDX 31 33 32 34 73 35 33 36 78 37 72 38 74 39 34 40 77 41 71 42
REMARK SMILES IDX 70 43 35 45 61 46 44 47 60 48 45 49 48 50 59 51 75 52 46 53
REMARK SMILES IDX 47 54 58 56 76 57 49 58 36 59 37 60 42 61 38 62 39 63 41 64
REMARK SMILES IDX 43 65 40 66 62 67 63 68 68 69 64 70 65 71 67 72 69 73 66 74
REMARK SMILES IDX 50 75 51 76 56 77 52 78 53 79 55 80 57 81 54 82
REMARK H PARENT 74 44 48 55
REMARK Flexibility Score: inf
ROOT
ATOM      1  C   UNL A   1      32.748  29.823  26.477  1.00  0.00     0.274 C 
ENDROOT
BRANCH   1   2
ATOM      2  O   UNL A   1      31.628  28.962  26.149  1.00  0.00    -0.461 OA
BRANCH   2   3
ATOM      3  C   UNL A   1      31.219  27.825  26.766  1.00  0.00     0.326 C 
ATOM      4  O   UNL A   1      31.037  27.828  27.985  1.00  0.00    -0.250 OA
BRANCH   3   5
ATOM      5  C   UNL A   1      31.077  26.536  26.006  1.00  0.00     0.246 C 
BRANCH   5   6
ATOM      6  N   UNL A   1      32.153  25.568  26.083  1.00  0.00    -0.319 N 
ATOM      7  C   UNL A   1      32.143  24.506  26.950  1.00  0.00     0.201 A 
ATOM      8  C   UNL A   1      33.263  25.460  25.283  1.00  0.00     0.076 A 
ATOM      9  N   UNL A   1      33.179  23.724  26.764  1.00  0.00    -0.236 NA
ATOM     10  C   UNL A   1      33.878  24.307  25.738  1.00  0.00     0.096 A 
BRANCH   8  11
ATOM     11  C   UNL A   1      33.593  26.371  24.195  1.00  0.00     0.000 A 
ATOM     12  C   UNL A   1      33.251  26.059  22.879  1.00  0.00     0.010 A 
ATOM     13  C   UNL A   1      34.185  27.608  24.474  1.00  0.00     0.010 A 
ATOM     14  C   UNL A   1      33.428  27.007  21.871  1.00  0.00     0.001 A 
ATOM     15  C   UNL A   1      34.308  28.575  23.480  1.00  0.00     0.001 A 
ATOM     16  C   UNL A   1      33.924  28.275  22.179  1.00  0.00     0.000 A 
ENDBRANCH   8  11
BRANCH  10  17
ATOM     17  C   UNL A   1      35.070  23.751  25.151  1.00  0.00     0.002 A 
ATOM     18  C   UNL A   1      36.277  23.810  25.851  1.00  0.00     0.010 A 
ATOM     19  C   UNL A   1      34.994  23.060  23.937  1.00  0.00     0.010 A 
ATOM     20  C   UNL A   1      37.392  23.131  25.361  1.00  0.00     0.001 A 
ATOM     21  C   UNL A   1      36.107  22.382  23.451  1.00  0.00     0.001 A 
ATOM     22  C   UNL A   1      37.301  22.409  24.169  1.00  0.00     0.000 A 
ENDBRANCH  10  17
ENDBRANCH   5   6
ENDBRANCH   3   5
ENDBRANCH   2   3
ENDBRANCH   1   2
BRANCH   1  23
ATOM     23  C   UNL A   1      32.262  31.169  26.984  1.00  0.00     0.275 C 
BRANCH  23  24
ATOM     24  O   UNL A   1      33.353  31.776  27.653  1.00  0.00    -0.458 OA
BRANCH  24  25
ATOM     25  C   UNL A   1      33.178  33.069  28.020  1.00  0.00     0.338 C 
ATOM     26  O   UNL A   1      32.327  33.839  27.655  1.00  0.00    -0.246 OA
BRANCH  25  27
ATOM     27  C   UNL A   1      34.276  33.370  28.949  1.00  0.00     0.060 A 
ATOM     28  C   UNL A   1      35.232  34.283  28.512  1.00  0.00     0.016 A 
ATOM     29  C   UNL A   1      34.488  32.510  30.039  1.00  0.00     0.016 A 
ATOM     30  C   UNL A   1      36.527  34.032  28.879  1.00  0.00     0.010 A 
ATOM     31  C   UNL A   1      35.770  32.254  30.396  1.00  0.00     0.010 A 
ATOM     32  C   UNL A   1      36.759  32.909  29.677  1.00  0.00    -0.014 A 
BRANCH  32  33
ATOM     33  C   UNL A   1      38.075  32.336  29.719  1.00  0.00     0.031 A 
ATOM     34  C   UNL A   1      38.067  30.960  29.205  1.00  0.00     0.074 A 
ATOM     35  C   UNL A   1      39.131  33.097  30.066  1.00  0.00     0.049 A 
ATOM     36  N   UNL A   1      38.163  29.872  29.890  1.00  0.00    -0.248 NA
ATOM     37  C   UNL A   1      37.623  30.760  27.813  1.00  0.00     0.031 C 
ATOM     38  C   UNL A   1      39.183  34.542  30.334  1.00  0.00     0.029 A 
ATOM     39  N   UNL A   1      40.435  32.728  30.160  1.00  0.00    -0.354 N 
ATOM     40  C   UNL A   1      38.061  28.859  28.947  1.00  0.00     0.074 A 
ATOM     41  C   UNL A   1      37.441  29.441  27.791  1.00  0.00     0.031 C 
ATOM     42  C   UNL A   1      40.472  34.958  30.327  1.00  0.00     0.029 A 
ATOM     43  C   UNL A   1      41.331  33.799  30.189  1.00  0.00     0.049 A 
ATOM     44  H   UNL A   1      40.724  31.789  30.203  1.00  0.00     0.167 HD
ATOM     45  C   UNL A   1      38.840  27.751  29.052  1.00  0.00     0.037 A 
ATOM     46  C   UNL A   1      42.673  33.678  30.008  1.00  0.00     0.037 A 
ATOM     47  C   UNL A   1      39.331  27.598  30.402  1.00  0.00     0.049 A 
ATOM     48  C   UNL A   1      43.007  32.246  30.264  1.00  0.00     0.074 A 
ATOM     49  C   UNL A   1      38.727  27.452  31.637  1.00  0.00     0.029 A 
ATOM     50  N   UNL A   1      40.618  28.007  30.660  1.00  0.00    -0.354 N 
ATOM     51  N   UNL A   1      42.883  31.682  31.435  1.00  0.00    -0.248 NA
ATOM     52  C   UNL A   1      42.943  31.339  29.123  1.00  0.00     0.031 C 
ATOM     53  C   UNL A   1      39.522  28.226  32.533  1.00  0.00     0.029 A 
ATOM     54  C   UNL A   1      40.610  28.734  31.824  1.00  0.00     0.049 A 
ATOM     55  H   UNL A   1      41.407  27.813  30.105  1.00  0.00     0.167 HD
ATOM     56  C   UNL A   1      42.312  30.442  31.177  1.00  0.00     0.074 A 
ATOM     57  C   UNL A   1      42.410  30.273  29.727  1.00  0.00     0.031 C 
ATOM     58  C   UNL A   1      41.538  29.807  32.108  1.00  0.00     0.037 A 
BRANCH  45  59
ATOM     59  C   UNL A   1      39.501  27.099  27.862  1.00  0.00     0.057 A 
ATOM     60  C   UNL A   1      39.466  25.700  27.767  1.00  0.00     0.134 A 
ATOM     61  C   UNL A   1      40.397  27.735  26.972  1.00  0.00     0.134 A 
ATOM     62  F   UNL A   1      38.657  24.978  28.557  1.00  0.00    -0.206 F 
ATOM     63  C   UNL A   1      40.319  24.987  26.919  1.00  0.00     0.040 A 
ATOM     64  C   UNL A   1      41.215  27.035  26.085  1.00  0.00     0.040 A 
ATOM     65  F   UNL A   1      40.615  29.054  26.966  1.00  0.00    -0.206 F 
ATOM     66  C   UNL A   1      41.206  25.653  26.083  1.00  0.00     0.006 A 
ENDBRANCH  45  59
BRANCH  46  67
ATOM     67  C   UNL A   1      43.570  34.582  29.248  1.00  0.00     0.057 A 
ATOM     68  C   UNL A   1      43.139  35.238  28.086  1.00  0.00     0.134 A 
ATOM     69  C   UNL A   1      44.782  35.041  29.796  1.00  0.00     0.134 A 
ATOM     70  F   UNL A   1      41.971  34.909  27.514  1.00  0.00    -0.206 F 
ATOM     71  C   UNL A   1      43.864  36.294  27.510  1.00  0.00     0.040 A 
ATOM     72  C   UNL A   1      45.515  36.090  29.232  1.00  0.00     0.040 A 
ATOM     73  F   UNL A   1      45.249  34.546  30.952  1.00  0.00    -0.206 F 
ATOM     74  C   UNL A   1      45.051  36.730  28.090  1.00  0.00     0.006 A 
ENDBRANCH  46  67
BRANCH  58  75
ATOM     75  C   UNL A   1      41.477  30.400  33.492  1.00  0.00     0.057 A 
ATOM     76  C   UNL A   1      40.515  31.337  33.907  1.00  0.00     0.134 A 
ATOM     77  C   UNL A   1      42.309  29.876  34.485  1.00  0.00     0.134 A 
ATOM     78  F   UNL A   1      39.611  31.824  33.050  1.00  0.00    -0.206 F 
ATOM     79  C   UNL A   1      40.412  31.755  35.238  1.00  0.00     0.040 A 
ATOM     80  C   UNL A   1      42.197  30.261  35.823  1.00  0.00     0.040 A 
ATOM     81  F   UNL A   1      43.212  28.932  34.176  1.00  0.00    -0.206 F 
ATOM     82  C   UNL A   1      41.251  31.210  36.204  1.00  0.00     0.006 A 
ENDBRANCH  58  75
ENDBRANCH  32  33
ENDBRANCH  25  27
ENDBRANCH  24  25
ENDBRANCH  23  24
ENDBRANCH   1  23
TORSDOF 14
ENDMDL
MODEL 3
REMARK VINA RESULT:     -11.2      2.621      6.413
REMARK SMILES O=C(Cn1cnc(-c2ccccc2)c1-c1ccccc1)OCCOC(=O)c1ccc(-c2c3nc(c(-c4c(F)cccc4F)c4ccc([nH]4)c(-c4c(F)cccc4F)c4nc(c(-c5c(F)cccc5F)c5ccc2[nH]5)C=C4)C=C3)cc1
REMARK SMILES IDX 22 1 21 2 2 3 1 4 3 5 4 6 5 7 14 8 6 9 7 10 15 11 16 12
REMARK SMILES IDX 20 13 17 14 19 15 18 16 8 17 9 18 13 19 10 20 12 21 11 22
REMARK SMILES IDX 23 23 24 24 25 25 26 26 27 27 28 28 80 29 29 30 79 31 30 32
REMARK SMILES IDX 31 33 32 34 73 35 33 36 78 37 72 38 74 39 34 40 77 41 71 42
REMARK SMILES IDX 70 43 35 45 61 46 44 47 60 48 45 49 48 50 59 51 75 52 46 53
REMARK SMILES IDX 47 54 58 56 76 57 49 58 36 59 37 60 42 61 38 62 39 63 41 64
REMARK SMILES IDX 43 65 40 66 62 67 63 68 68 69 64 70 65 71 67 72 69 73 66 74
REMARK SMILES IDX 50 75 51 76 56 77 52 78 53 79 55 80 57 81 54 82
REMARK H PARENT 74 44 48 55
REMARK Flexibility Score: inf
ROOT
ATOM      1  C   UNL A   1      36.607  24.066  25.626  1.00  0.00     0.274 C 
ENDROOT
BRANCH   1   2
ATOM      2  O   UNL A   1      35.531  23.346  24.972  1.00  0.00    -0.461 OA
BRANCH   2   3
ATOM      3  C   UNL A   1      34.421  22.792  25.521  1.00  0.00     0.326 C 
ATOM      4  O   UNL A   1      34.306  21.565  25.549  1.00  0.00    -0.250 OA
BRANCH   3   5
ATOM      5  C   UNL A   1      33.286  23.647  26.009  1.00  0.00     0.246 C 
BRANCH   5   6
ATOM      6  N   UNL A   1      32.364  24.192  25.032  1.00  0.00    -0.319 N 
ATOM      7  C   UNL A   1      31.720  23.422  24.098  1.00  0.00     0.201 A 
ATOM      8  C   UNL A   1      31.896  25.478  24.926  1.00  0.00     0.076 A 
ATOM      9  N   UNL A   1      30.871  24.130  23.394  1.00  0.00    -0.236 NA
ATOM     10  C   UNL A   1      30.975  25.402  23.895  1.00  0.00     0.096 A 
BRANCH   8  11
ATOM     11  C   UNL A   1      32.297  26.581  25.789  1.00  0.00     0.000 A 
ATOM     12  C   UNL A   1      33.519  27.225  25.598  1.00  0.00     0.010 A 
ATOM     13  C   UNL A   1      31.417  27.058  26.767  1.00  0.00     0.010 A 
ATOM     14  C   UNL A   1      33.819  28.378  26.324  1.00  0.00     0.001 A 
ATOM     15  C   UNL A   1      31.689  28.240  27.450  1.00  0.00     0.001 A 
ATOM     16  C   UNL A   1      32.890  28.903  27.224  1.00  0.00     0.000 A 
ENDBRANCH   8  11
BRANCH  10  17
ATOM     17  C   UNL A   1      30.170  26.514  23.457  1.00  0.00     0.002 A 
ATOM     18  C   UNL A   1      28.820  26.570  23.808  1.00  0.00     0.010 A 
ATOM     19  C   UNL A   1      30.766  27.583  22.780  1.00  0.00     0.010 A 
ATOM     20  C   UNL A   1      28.082  27.719  23.527  1.00  0.00     0.001 A 
ATOM     21  C   UNL A   1      30.028  28.730  22.502  1.00  0.00     0.001 A 
ATOM     22  C   UNL A   1      28.691  28.800  22.886  1.00  0.00     0.000 A 
ENDBRANCH  10  17
ENDBRANCH   5   6
ENDBRANCH   3   5
ENDBRANCH   2   3
ENDBRANCH   1   2
BRANCH   1  23
ATOM     23  C   UNL A   1      37.712  23.113  26.050  1.00  0.00     0.275 C 
BRANCH  23  24
ATOM     24  O   UNL A   1      38.584  23.844  26.893  1.00  0.00    -0.458 OA
BRANCH  24  25
ATOM     25  C   UNL A   1      39.821  23.317  27.066  1.00  0.00     0.338 C 
ATOM     26  O   UNL A   1      40.122  22.162  27.232  1.00  0.00    -0.246 OA
BRANCH  25  27
ATOM     27  C   UNL A   1      40.747  24.458  27.045  1.00  0.00     0.060 A 
ATOM     28  C   UNL A   1      41.735  24.479  28.025  1.00  0.00     0.016 A 
ATOM     29  C   UNL A   1      40.399  25.590  26.291  1.00  0.00     0.016 A 
ATOM     30  C   UNL A   1      42.057  25.706  28.540  1.00  0.00     0.010 A 
ATOM     31  C   UNL A   1      40.709  26.806  26.805  1.00  0.00     0.010 A 
ATOM     32  C   UNL A   1      41.389  26.815  28.014  1.00  0.00    -0.014 A 
BRANCH  32  33
ATOM     33  C   UNL A   1      41.327  28.028  28.780  1.00  0.00     0.031 A 
ATOM     34  C   UNL A   1      42.470  28.900  28.481  1.00  0.00     0.074 A 
ATOM     35  C   UNL A   1      40.243  28.293  29.536  1.00  0.00     0.049 A 
ATOM     36  N   UNL A   1      43.497  29.121  29.228  1.00  0.00    -0.248 NA
ATOM     37  C   UNL A   1      42.629  29.352  27.086  1.00  0.00     0.031 C 
ATOM     38  C   UNL A   1      38.982  27.544  29.640  1.00  0.00     0.029 A 
ATOM     39  N   UNL A   1      40.013  29.378  30.319  1.00  0.00    -0.354 N 
ATOM     40  C   UNL A   1      44.294  29.973  28.477  1.00  0.00     0.074 A 
ATOM     41  C   UNL A   1      43.874  29.825  27.113  1.00  0.00     0.031 C 
ATOM     42  C   UNL A   1      38.048  28.315  30.248  1.00  0.00     0.029 A 
ATOM     43  C   UNL A   1      38.677  29.544  30.689  1.00  0.00     0.049 A 
ATOM     44  H   UNL A   1      40.726  29.997  30.601  1.00  0.00     0.167 HD
ATOM     45  C   UNL A   1      44.951  30.998  29.078  1.00  0.00     0.037 A 
ATOM     46  C   UNL A   1      38.169  30.682  31.231  1.00  0.00     0.037 A 
ATOM     47  C   UNL A   1      45.079  30.760  30.498  1.00  0.00     0.049 A 
ATOM     48  C   UNL A   1      39.330  31.450  31.769  1.00  0.00     0.074 A 
ATOM     49  C   UNL A   1      45.661  29.765  31.260  1.00  0.00     0.029 A 
ATOM     50  N   UNL A   1      44.192  31.400  31.331  1.00  0.00    -0.354 N 
ATOM     51  N   UNL A   1      40.063  31.031  32.765  1.00  0.00    -0.248 NA
ATOM     52  C   UNL A   1      39.986  32.379  30.857  1.00  0.00     0.031 C 
ATOM     53  C   UNL A   1      44.765  29.559  32.349  1.00  0.00     0.029 A 
ATOM     54  C   UNL A   1      43.730  30.487  32.245  1.00  0.00     0.049 A 
ATOM     55  H   UNL A   1      43.933  32.348  31.280  1.00  0.00     0.167 HD
ATOM     56  C   UNL A   1      41.373  31.297  32.382  1.00  0.00     0.074 A 
ATOM     57  C   UNL A   1      41.257  32.167  31.212  1.00  0.00     0.031 C 
ATOM     58  C   UNL A   1      42.416  30.548  32.849  1.00  0.00     0.037 A 
BRANCH  45  59
ATOM     59  C   UNL A   1      45.057  32.374  28.466  1.00  0.00     0.057 A 
ATOM     60  C   UNL A   1      46.336  32.906  28.247  1.00  0.00     0.134 A 
ATOM     61  C   UNL A   1      43.996  33.302  28.349  1.00  0.00     0.134 A 
ATOM     62  F   UNL A   1      47.426  32.130  28.330  1.00  0.00    -0.206 F 
ATOM     63  C   UNL A   1      46.549  34.270  28.018  1.00  0.00     0.040 A 
ATOM     64  C   UNL A   1      44.195  34.654  28.069  1.00  0.00     0.040 A 
ATOM     65  F   UNL A   1      42.719  32.993  28.590  1.00  0.00    -0.206 F 
ATOM     66  C   UNL A   1      45.478  35.151  27.939  1.00  0.00     0.006 A 
ENDBRANCH  45  59
BRANCH  46  67
ATOM     67  C   UNL A   1      36.858  31.315  30.945  1.00  0.00     0.057 A 
ATOM     68  C   UNL A   1      36.005  31.735  31.975  1.00  0.00     0.134 A 
ATOM     69  C   UNL A   1      36.534  31.776  29.656  1.00  0.00     0.134 A 
ATOM     70  F   UNL A   1      36.256  31.391  33.247  1.00  0.00    -0.206 F 
ATOM     71  C   UNL A   1      34.902  32.572  31.739  1.00  0.00     0.040 A 
ATOM     72  C   UNL A   1      35.437  32.609  29.406  1.00  0.00     0.040 A 
ATOM     73  F   UNL A   1      37.325  31.509  28.607  1.00  0.00    -0.206 F 
ATOM     74  C   UNL A   1      34.622  33.020  30.452  1.00  0.00     0.006 A 
ENDBRANCH  46  67
BRANCH  58  75
ATOM     75  C   UNL A   1      42.130  29.546  33.938  1.00  0.00     0.057 A 
ATOM     76  C   UNL A   1      41.829  28.193  33.707  1.00  0.00     0.134 A 
ATOM     77  C   UNL A   1      42.337  29.923  35.268  1.00  0.00     0.134 A 
ATOM     78  F   UNL A   1      41.708  27.717  32.462  1.00  0.00    -0.206 F 
ATOM     79  C   UNL A   1      41.707  27.270  34.751  1.00  0.00     0.040 A 
ATOM     80  C   UNL A   1      42.249  29.005  36.318  1.00  0.00     0.040 A 
ATOM     81  F   UNL A   1      42.688  31.184  35.563  1.00  0.00    -0.206 F 
ATOM     82  C   UNL A   1      41.925  27.674  36.063  1.00  0.00     0.006 A 
ENDBRANCH  58  75
ENDBRANCH  32  33
ENDBRANCH  25  27
ENDBRANCH  24  25
ENDBRANCH  23  24
ENDBRANCH   1  23
TORSDOF 14
ENDMDL
