MODEL 1
REMARK VINA RESULT:      -9.9      0.000      0.000
REMARK SMILES CC[C@@](C)(NS(=O)(=O)c1ccc(F)c(Cl)c1)C(=O)OCCOC(=O)c1ccc(-c2c3nc(c(-c4c(F)cccc4F)c4ccc([nH]4)c(-c4c(F)cccc4F)c4nc(c(-c5c(F)cccc5F)c5ccc2[nH]5)C=C4)C=C3)cc1
REMARK SMILES IDX 20 1 19 2 17 3 18 4 3 5 4 6 2 7 1 8 5 9 6 11 7 12 8 13 9 14
REMARK SMILES IDX 10 15 16 16 11 17 14 18 12 19 15 20 13 21 21 22 22 23 23 24
REMARK SMILES IDX 24 25 25 26 26 27 78 28 27 29 77 30 28 31 29 32 30 33 71 34
REMARK SMILES IDX 31 35 76 36 70 37 72 38 32 39 75 40 69 41 68 42 33 44 59 45
REMARK SMILES IDX 42 46 58 47 43 48 46 49 57 50 73 51 44 52 45 53 56 55 74 56
REMARK SMILES IDX 47 57 34 58 35 59 40 60 36 61 37 62 39 63 41 64 38 65 60 66
REMARK SMILES IDX 61 67 66 68 62 69 63 70 65 71 67 72 64 73 48 74 49 75 54 76
REMARK SMILES IDX 50 77 51 78 53 79 55 80 52 81
REMARK H PARENT 5 10 72 43 46 54
REMARK Flexibility Score: inf
ROOT
ATOM      1  C   UNL A   1      33.127  34.503  28.397  1.00  0.00     0.274 C 
ENDROOT
BRANCH   1   2
ATOM      2  O   UNL A   1      32.585  34.952  29.659  1.00  0.00    -0.461 OA
BRANCH   2   3
ATOM      3  C   UNL A   1      33.021  36.155  30.124  1.00  0.00     0.327 C 
ATOM      4  O   UNL A   1      33.077  37.162  29.428  1.00  0.00    -0.250 OA
BRANCH   3   5
ATOM      5  C   UNL A   1      33.517  36.098  31.587  1.00  0.00     0.127 C 
ATOM      6  C   UNL A   1      33.653  37.551  32.051  1.00  0.00     0.042 C 
BRANCH   5   7
ATOM      7  C   UNL A   1      32.496  35.372  32.534  1.00  0.00     0.032 C 
ATOM      8  C   UNL A   1      31.187  36.072  32.877  1.00  0.00     0.006 C 
ENDBRANCH   5   7
BRANCH   5   9
ATOM      9  N   UNL A   1      34.771  35.305  31.761  1.00  0.00    -0.194 NA
ATOM     10  H   UNL A   1      35.513  35.945  31.483  1.00  0.00     0.142 HD
BRANCH   9  11
ATOM     11  S   UNL A   1      35.362  34.554  33.121  1.00  0.00     0.241 S 
ATOM     12  O   UNL A   1      35.043  35.324  34.296  1.00  0.00    -0.207 OA
ATOM     13  O   UNL A   1      34.940  33.172  33.002  1.00  0.00    -0.207 OA
BRANCH  11  14
ATOM     14  C   UNL A   1      37.123  34.545  32.917  1.00  0.00     0.084 A 
ATOM     15  C   UNL A   1      37.960  34.580  34.039  1.00  0.00     0.025 A 
ATOM     16  C   UNL A   1      37.655  34.407  31.628  1.00  0.00     0.045 A 
ATOM     17  C   UNL A   1      39.343  34.513  33.863  1.00  0.00     0.042 A 
ATOM     18  C   UNL A   1      39.036  34.336  31.464  1.00  0.00     0.078 A 
ATOM     19  C   UNL A   1      39.873  34.398  32.578  1.00  0.00     0.141 A 
ATOM     20  Cl  UNL A   1      39.702  34.188  29.883  1.00  0.00    -0.081 Cl
ATOM     21  F   UNL A   1      41.206  34.357  32.437  1.00  0.00    -0.205 F 
ENDBRANCH  11  14
ENDBRANCH   9  11
ENDBRANCH   5   9
ENDBRANCH   3   5
ENDBRANCH   2   3
ENDBRANCH   1   2
BRANCH   1  22
ATOM     22  C   UNL A   1      34.529  33.922  28.569  1.00  0.00     0.275 C 
BRANCH  22  23
ATOM     23  O   UNL A   1      34.466  32.615  29.161  1.00  0.00    -0.458 OA
BRANCH  23  24
ATOM     24  C   UNL A   1      34.783  31.591  28.337  1.00  0.00     0.338 C 
ATOM     25  O   UNL A   1      34.297  31.310  27.256  1.00  0.00    -0.246 OA
BRANCH  24  26
ATOM     26  C   UNL A   1      35.984  30.939  28.861  1.00  0.00     0.060 A 
ATOM     27  C   UNL A   1      37.205  31.515  28.526  1.00  0.00     0.016 A 
ATOM     28  C   UNL A   1      35.930  29.763  29.603  1.00  0.00     0.016 A 
ATOM     29  C   UNL A   1      38.394  30.905  28.896  1.00  0.00     0.010 A 
ATOM     30  C   UNL A   1      37.128  29.183  30.037  1.00  0.00     0.010 A 
ATOM     31  C   UNL A   1      38.368  29.747  29.684  1.00  0.00    -0.014 A 
BRANCH  31  32
ATOM     32  C   UNL A   1      39.649  29.161  30.153  1.00  0.00     0.031 A 
ATOM     33  C   UNL A   1      40.328  29.694  31.381  1.00  0.00     0.074 A 
ATOM     34  C   UNL A   1      40.180  28.119  29.483  1.00  0.00     0.049 A 
ATOM     35  N   UNL A   1      41.498  29.382  31.878  1.00  0.00    -0.248 NA
ATOM     36  C   UNL A   1      39.600  30.714  32.150  1.00  0.00     0.031 C 
ATOM     37  C   UNL A   1      39.592  27.485  28.299  1.00  0.00     0.029 A 
ATOM     38  N   UNL A   1      41.329  27.402  29.704  1.00  0.00    -0.354 N 
ATOM     39  C   UNL A   1      41.660  30.186  32.999  1.00  0.00     0.074 A 
ATOM     40  C   UNL A   1      40.472  31.006  33.105  1.00  0.00     0.031 C 
ATOM     41  C   UNL A   1      40.366  26.458  27.917  1.00  0.00     0.029 A 
ATOM     42  C   UNL A   1      41.541  26.407  28.779  1.00  0.00     0.049 A 
ATOM     43  H   UNL A   1      41.942  27.581  30.452  1.00  0.00     0.167 HD
ATOM     44  C   UNL A   1      42.706  30.232  33.858  1.00  0.00     0.037 A 
ATOM     45  C   UNL A   1      42.582  25.569  28.619  1.00  0.00     0.037 A 
ATOM     46  C   UNL A   1      43.877  29.399  33.755  1.00  0.00     0.049 A 
ATOM     47  C   UNL A   1      43.745  25.671  29.564  1.00  0.00     0.074 A 
ATOM     48  C   UNL A   1      45.004  29.386  34.558  1.00  0.00     0.029 A 
ATOM     49  N   UNL A   1      44.064  28.420  32.789  1.00  0.00    -0.354 N 
ATOM     50  N   UNL A   1      43.908  26.471  30.591  1.00  0.00    -0.248 NA
ATOM     51  C   UNL A   1      44.876  24.767  29.318  1.00  0.00     0.031 C 
ATOM     52  C   UNL A   1      45.885  28.419  34.063  1.00  0.00     0.029 A 
ATOM     53  C   UNL A   1      45.292  27.802  32.973  1.00  0.00     0.049 A 
ATOM     54  H   UNL A   1      43.422  28.197  32.078  1.00  0.00     0.167 HD
ATOM     55  C   UNL A   1      45.154  26.163  31.116  1.00  0.00     0.074 A 
ATOM     56  C   UNL A   1      45.691  25.081  30.314  1.00  0.00     0.031 C 
ATOM     57  C   UNL A   1      45.804  26.730  32.162  1.00  0.00     0.037 A 
BRANCH  44  58
ATOM     58  C   UNL A   1      42.644  31.236  34.970  1.00  0.00     0.057 A 
ATOM     59  C   UNL A   1      42.218  30.890  36.259  1.00  0.00     0.134 A 
ATOM     60  C   UNL A   1      43.050  32.560  34.758  1.00  0.00     0.134 A 
ATOM     61  F   UNL A   1      41.801  29.642  36.523  1.00  0.00    -0.206 F 
ATOM     62  C   UNL A   1      42.183  31.828  37.292  1.00  0.00     0.040 A 
ATOM     63  C   UNL A   1      43.039  33.502  35.787  1.00  0.00     0.040 A 
ATOM     64  F   UNL A   1      43.472  32.957  33.548  1.00  0.00    -0.206 F 
ATOM     65  C   UNL A   1      42.600  33.138  37.059  1.00  0.00     0.006 A 
ENDBRANCH  44  58
BRANCH  45  66
ATOM     66  C   UNL A   1      42.595  24.596  27.498  1.00  0.00     0.057 A 
ATOM     67  C   UNL A   1      42.174  23.274  27.679  1.00  0.00     0.134 A 
ATOM     68  C   UNL A   1      43.043  24.962  26.222  1.00  0.00     0.134 A 
ATOM     69  F   UNL A   1      41.756  22.857  28.882  1.00  0.00    -0.206 F 
ATOM     70  C   UNL A   1      42.217  22.345  26.637  1.00  0.00     0.040 A 
ATOM     71  C   UNL A   1      43.063  24.051  25.165  1.00  0.00     0.040 A 
ATOM     72  F   UNL A   1      43.456  26.215  25.982  1.00  0.00    -0.206 F 
ATOM     73  C   UNL A   1      42.657  22.736  25.373  1.00  0.00     0.006 A 
ENDBRANCH  45  66
BRANCH  57  74
ATOM     74  C   UNL A   1      47.154  26.172  32.497  1.00  0.00     0.057 A 
ATOM     75  C   UNL A   1      47.312  25.151  33.445  1.00  0.00     0.134 A 
ATOM     76  C   UNL A   1      48.305  26.655  31.865  1.00  0.00     0.134 A 
ATOM     77  F   UNL A   1      46.249  24.659  34.098  1.00  0.00    -0.206 F 
ATOM     78  C   UNL A   1      48.574  24.653  33.772  1.00  0.00     0.040 A 
ATOM     79  C   UNL A   1      49.568  26.147  32.166  1.00  0.00     0.040 A 
ATOM     80  F   UNL A   1      48.219  27.627  30.944  1.00  0.00    -0.206 F 
ATOM     81  C   UNL A   1      49.706  25.148  33.128  1.00  0.00     0.006 A 
ENDBRANCH  57  74
ENDBRANCH  31  32
ENDBRANCH  24  26
ENDBRANCH  23  24
ENDBRANCH  22  23
ENDBRANCH   1  22
TORSDOF 15
ENDMDL
MODEL 2
REMARK VINA RESULT:      -9.7      4.847      7.172
REMARK SMILES CC[C@@](C)(NS(=O)(=O)c1ccc(F)c(Cl)c1)C(=O)OCCOC(=O)c1ccc(-c2c3nc(c(-c4c(F)cccc4F)c4ccc([nH]4)c(-c4c(F)cccc4F)c4nc(c(-c5c(F)cccc5F)c5ccc2[nH]5)C=C4)C=C3)cc1
REMARK SMILES IDX 20 1 19 2 17 3 18 4 3 5 4 6 2 7 1 8 5 9 6 11 7 12 8 13 9 14
REMARK SMILES IDX 10 15 16 16 11 17 14 18 12 19 15 20 13 21 21 22 22 23 23 24
REMARK SMILES IDX 24 25 25 26 26 27 78 28 27 29 77 30 28 31 29 32 30 33 71 34
REMARK SMILES IDX 31 35 76 36 70 37 72 38 32 39 75 40 69 41 68 42 33 44 59 45
REMARK SMILES IDX 42 46 58 47 43 48 46 49 57 50 73 51 44 52 45 53 56 55 74 56
REMARK SMILES IDX 47 57 34 58 35 59 40 60 36 61 37 62 39 63 41 64 38 65 60 66
REMARK SMILES IDX 61 67 66 68 62 69 63 70 65 71 67 72 64 73 48 74 49 75 54 76
REMARK SMILES IDX 50 77 51 78 53 79 55 80 52 81
REMARK H PARENT 5 10 72 43 46 54
REMARK Flexibility Score: inf
ROOT
ATOM      1  C   UNL A   1      31.711  30.875  26.763  1.00  0.00     0.274 C 
ENDROOT
BRANCH   1   2
ATOM      2  O   UNL A   1      32.153  30.424  25.463  1.00  0.00    -0.461 OA
BRANCH   2   3
ATOM      3  C   UNL A   1      32.861  29.261  25.421  1.00  0.00     0.327 C 
ATOM      4  O   UNL A   1      33.874  29.070  26.084  1.00  0.00    -0.250 OA
BRANCH   3   5
ATOM      5  C   UNL A   1      32.308  28.249  24.391  1.00  0.00     0.127 C 
ATOM      6  C   UNL A   1      32.922  28.632  23.041  1.00  0.00     0.042 C 
BRANCH   5   7
ATOM      7  C   UNL A   1      32.730  26.774  24.723  1.00  0.00     0.032 C 
ATOM      8  C   UNL A   1      33.887  26.149  23.951  1.00  0.00     0.006 C 
ENDBRANCH   5   7
BRANCH   5   9
ATOM      9  N   UNL A   1      30.817  28.182  24.362  1.00  0.00    -0.194 NA
ATOM     10  H   UNL A   1      30.518  29.005  24.885  1.00  0.00     0.142 HD
BRANCH   9  11
ATOM     11  S   UNL A   1      29.790  28.128  23.057  1.00  0.00     0.241 S 
ATOM     12  O   UNL A   1      30.504  27.717  21.876  1.00  0.00    -0.207 OA
ATOM     13  O   UNL A   1      28.631  27.387  23.519  1.00  0.00    -0.207 OA
BRANCH  11  14
ATOM     14  C   UNL A   1      29.241  29.798  22.829  1.00  0.00     0.084 A 
ATOM     15  C   UNL A   1      29.377  30.729  23.867  1.00  0.00     0.025 A 
ATOM     16  C   UNL A   1      28.761  30.189  21.572  1.00  0.00     0.045 A 
ATOM     17  C   UNL A   1      28.994  32.054  23.651  1.00  0.00     0.042 A 
ATOM     18  C   UNL A   1      28.387  31.515  21.366  1.00  0.00     0.078 A 
ATOM     19  C   UNL A   1      28.496  32.438  22.406  1.00  0.00     0.141 A 
ATOM     20  Cl  UNL A   1      27.775  32.000  19.832  1.00  0.00    -0.081 Cl
ATOM     21  F   UNL A   1      28.115  33.712  22.234  1.00  0.00    -0.205 F 
ENDBRANCH  11  14
ENDBRANCH   9  11
ENDBRANCH   5   9
ENDBRANCH   3   5
ENDBRANCH   2   3
ENDBRANCH   1   2
BRANCH   1  22
ATOM     22  C   UNL A   1      31.564  32.395  26.803  1.00  0.00     0.275 C 
BRANCH  22  23
ATOM     23  O   UNL A   1      32.852  33.029  26.747  1.00  0.00    -0.458 OA
BRANCH  23  24
ATOM     24  C   UNL A   1      33.176  33.775  27.827  1.00  0.00     0.338 C 
ATOM     25  O   UNL A   1      32.541  34.677  28.343  1.00  0.00    -0.246 OA
BRANCH  24  26
ATOM     26  C   UNL A   1      34.373  33.195  28.438  1.00  0.00     0.060 A 
ATOM     27  C   UNL A   1      34.263  31.894  28.918  1.00  0.00     0.016 A 
ATOM     28  C   UNL A   1      35.551  33.918  28.601  1.00  0.00     0.016 A 
ATOM     29  C   UNL A   1      35.317  31.307  29.601  1.00  0.00     0.010 A 
ATOM     30  C   UNL A   1      36.640  33.302  29.229  1.00  0.00     0.010 A 
ATOM     31  C   UNL A   1      36.530  31.994  29.737  1.00  0.00    -0.014 A 
BRANCH  31  32
ATOM     32  C   UNL A   1      37.679  31.314  30.386  1.00  0.00     0.031 A 
ATOM     33  C   UNL A   1      37.993  31.560  31.834  1.00  0.00     0.074 A 
ATOM     34  C   UNL A   1      38.419  30.444  29.671  1.00  0.00     0.049 A 
ATOM     35  N   UNL A   1      39.012  31.141  32.540  1.00  0.00    -0.248 NA
ATOM     36  C   UNL A   1      37.037  32.387  32.587  1.00  0.00     0.031 C 
ATOM     37  C   UNL A   1      38.187  30.091  28.268  1.00  0.00     0.029 A 
ATOM     38  N   UNL A   1      39.511  29.692  30.024  1.00  0.00    -0.354 N 
ATOM     39  C   UNL A   1      38.839  31.677  33.810  1.00  0.00     0.074 A 
ATOM     40  C   UNL A   1      37.620  32.457  33.776  1.00  0.00     0.031 C 
ATOM     41  C   UNL A   1      39.088  29.171  27.889  1.00  0.00     0.029 A 
ATOM     42  C   UNL A   1      40.005  28.926  28.996  1.00  0.00     0.049 A 
ATOM     43  H   UNL A   1      39.902  29.700  30.927  1.00  0.00     0.167 HD
ATOM     44  C   UNL A   1      39.627  31.528  34.901  1.00  0.00     0.037 A 
ATOM     45  C   UNL A   1      41.096  28.140  28.937  1.00  0.00     0.037 A 
ATOM     46  C   UNL A   1      40.829  30.734  34.930  1.00  0.00     0.049 A 
ATOM     47  C   UNL A   1      41.973  28.027  30.151  1.00  0.00     0.074 A 
ATOM     48  C   UNL A   1      41.713  30.540  35.977  1.00  0.00     0.029 A 
ATOM     49  N   UNL A   1      41.309  29.993  33.860  1.00  0.00    -0.354 N 
ATOM     50  N   UNL A   1      41.825  28.579  31.332  1.00  0.00    -0.248 NA
ATOM     51  C   UNL A   1      43.177  27.195  30.021  1.00  0.00     0.031 C 
ATOM     52  C   UNL A   1      42.743  29.703  35.534  1.00  0.00     0.029 A 
ATOM     53  C   UNL A   1      42.481  29.345  34.221  1.00  0.00     0.049 A 
ATOM     54  H   UNL A   1      40.882  29.935  32.976  1.00  0.00     0.167 HD
ATOM     55  C   UNL A   1      42.911  28.158  32.085  1.00  0.00     0.074 A 
ATOM     56  C   UNL A   1      43.693  27.279  31.238  1.00  0.00     0.031 C 
ATOM     57  C   UNL A   1      43.241  28.477  33.360  1.00  0.00     0.037 A 
BRANCH  44  58
ATOM     58  C   UNL A   1      39.229  32.261  36.147  1.00  0.00     0.057 A 
ATOM     59  C   UNL A   1      39.746  33.524  36.461  1.00  0.00     0.134 A 
ATOM     60  C   UNL A   1      38.288  31.711  37.027  1.00  0.00     0.134 A 
ATOM     61  F   UNL A   1      40.663  34.099  35.667  1.00  0.00    -0.206 F 
ATOM     62  C   UNL A   1      39.353  34.208  37.613  1.00  0.00     0.040 A 
ATOM     63  C   UNL A   1      37.871  32.393  38.171  1.00  0.00     0.040 A 
ATOM     64  F   UNL A   1      37.751  30.506  36.784  1.00  0.00    -0.206 F 
ATOM     65  C   UNL A   1      38.408  33.645  38.469  1.00  0.00     0.006 A 
ENDBRANCH  44  58
BRANCH  45  66
ATOM     66  C   UNL A   1      41.447  27.439  27.676  1.00  0.00     0.057 A 
ATOM     67  C   UNL A   1      41.067  26.111  27.453  1.00  0.00     0.134 A 
ATOM     68  C   UNL A   1      42.185  28.077  26.670  1.00  0.00     0.134 A 
ATOM     69  F   UNL A   1      40.379  25.440  28.387  1.00  0.00    -0.206 F 
ATOM     70  C   UNL A   1      41.425  25.436  26.284  1.00  0.00     0.040 A 
ATOM     71  C   UNL A   1      42.524  27.423  25.485  1.00  0.00     0.040 A 
ATOM     72  F   UNL A   1      42.577  29.351  26.821  1.00  0.00    -0.206 F 
ATOM     73  C   UNL A   1      42.150  26.095  25.293  1.00  0.00     0.006 A 
ENDBRANCH  45  66
BRANCH  57  74
ATOM     74  C   UNL A   1      44.489  27.854  33.908  1.00  0.00     0.057 A 
ATOM     75  C   UNL A   1      44.469  26.601  34.536  1.00  0.00     0.134 A 
ATOM     76  C   UNL A   1      45.721  28.509  33.804  1.00  0.00     0.134 A 
ATOM     77  F   UNL A   1      43.317  25.932  34.682  1.00  0.00    -0.206 F 
ATOM     78  C   UNL A   1      45.630  26.036  35.066  1.00  0.00     0.040 A 
ATOM     79  C   UNL A   1      46.891  27.944  34.309  1.00  0.00     0.040 A 
ATOM     80  F   UNL A   1      45.806  29.709  33.209  1.00  0.00    -0.206 F 
ATOM     81  C   UNL A   1      46.846  26.707  34.949  1.00  0.00     0.006 A 
ENDBRANCH  57  74
ENDBRANCH  31  32
ENDBRANCH  24  26
ENDBRANCH  23  24
ENDBRANCH  22  23
ENDBRANCH   1  22
TORSDOF 15
ENDMDL
MODEL 3
REMARK VINA RESULT:      -9.5      4.414      9.652
REMARK SMILES CC[C@@](C)(NS(=O)(=O)c1ccc(F)c(Cl)c1)C(=O)OCCOC(=O)c1ccc(-c2c3nc(c(-c4c(F)cccc4F)c4ccc([nH]4)c(-c4c(F)cccc4F)c4nc(c(-c5c(F)cccc5F)c5ccc2[nH]5)C=C4)C=C3)cc1
REMARK SMILES IDX 20 1 19 2 17 3 18 4 3 5 4 6 2 7 1 8 5 9 6 11 7 12 8 13 9 14
REMARK SMILES IDX 10 15 16 16 11 17 14 18 12 19 15 20 13 21 21 22 22 23 23 24
REMARK SMILES IDX 24 25 25 26 26 27 78 28 27 29 77 30 28 31 29 32 30 33 71 34
REMARK SMILES IDX 31 35 76 36 70 37 72 38 32 39 75 40 69 41 68 42 33 44 59 45
REMARK SMILES IDX 42 46 58 47 43 48 46 49 57 50 73 51 44 52 45 53 56 55 74 56
REMARK SMILES IDX 47 57 34 58 35 59 40 60 36 61 37 62 39 63 41 64 38 65 60 66
REMARK SMILES IDX 61 67 66 68 62 69 63 70 65 71 67 72 64 73 48 74 49 75 54 76
REMARK SMILES IDX 50 77 51 78 53 79 55 80 52 81
REMARK H PARENT 5 10 72 43 46 54
REMARK Flexibility Score: inf
ROOT
ATOM      1  C   UNL A   1      31.593  28.121  26.061  1.00  0.00     0.274 C 
ENDROOT
BRANCH   1   2
ATOM      2  O   UNL A   1      32.257  27.001  25.433  1.00  0.00    -0.461 OA
BRANCH   2   3
ATOM      3  C   UNL A   1      31.862  25.756  25.817  1.00  0.00     0.327 C 
ATOM      4  O   UNL A   1      31.290  25.532  26.878  1.00  0.00    -0.250 OA
BRANCH   3   5
ATOM      5  C   UNL A   1      32.287  24.650  24.824  1.00  0.00     0.127 C 
ATOM      6  C   UNL A   1      31.041  23.792  24.580  1.00  0.00     0.042 C 
BRANCH   5   7
ATOM      7  C   UNL A   1      32.758  25.236  23.446  1.00  0.00     0.032 C 
ATOM      8  C   UNL A   1      31.715  25.513  22.369  1.00  0.00     0.006 C 
ENDBRANCH   5   7
BRANCH   5   9
ATOM      9  N   UNL A   1      33.467  23.857  25.282  1.00  0.00    -0.194 NA
ATOM     10  H   UNL A   1      33.484  23.994  26.292  1.00  0.00     0.142 HD
BRANCH   9  11
ATOM     11  S   UNL A   1      33.792  22.240  25.080  1.00  0.00     0.241 S 
ATOM     12  O   UNL A   1      33.118  21.465  26.090  1.00  0.00    -0.207 OA
ATOM     13  O   UNL A   1      33.563  21.983  23.671  1.00  0.00    -0.207 OA
BRANCH  11  14
ATOM     14  C   UNL A   1      35.540  22.084  25.326  1.00  0.00     0.084 A 
ATOM     15  C   UNL A   1      36.195  20.898  24.976  1.00  0.00     0.025 A 
ATOM     16  C   UNL A   1      36.262  23.194  25.786  1.00  0.00     0.045 A 
ATOM     17  C   UNL A   1      37.581  20.812  25.122  1.00  0.00     0.042 A 
ATOM     18  C   UNL A   1      37.645  23.100  25.922  1.00  0.00     0.078 A 
ATOM     19  C   UNL A   1      38.297  21.910  25.599  1.00  0.00     0.141 A 
ATOM     20  Cl  UNL A   1      38.538  24.451  26.506  1.00  0.00    -0.081 Cl
ATOM     21  F   UNL A   1      39.624  21.793  25.749  1.00  0.00    -0.205 F 
ENDBRANCH  11  14
ENDBRANCH   9  11
ENDBRANCH   5   9
ENDBRANCH   3   5
ENDBRANCH   2   3
ENDBRANCH   1   2
BRANCH   1  22
ATOM     22  C   UNL A   1      31.780  29.403  25.251  1.00  0.00     0.275 C 
BRANCH  22  23
ATOM     23  O   UNL A   1      33.056  29.999  25.537  1.00  0.00    -0.458 OA
BRANCH  23  24
ATOM     24  C   UNL A   1      33.059  30.902  26.543  1.00  0.00     0.338 C 
ATOM     25  O   UNL A   1      32.156  31.632  26.909  1.00  0.00    -0.246 OA
BRANCH  24  26
ATOM     26  C   UNL A   1      34.306  30.743  27.293  1.00  0.00     0.060 A 
ATOM     27  C   UNL A   1      34.617  29.458  27.725  1.00  0.00     0.016 A 
ATOM     28  C   UNL A   1      35.118  31.823  27.628  1.00  0.00     0.016 A 
ATOM     29  C   UNL A   1      35.725  29.236  28.527  1.00  0.00     0.010 A 
ATOM     30  C   UNL A   1      36.275  31.590  28.380  1.00  0.00     0.010 A 
ATOM     31  C   UNL A   1      36.585  30.296  28.839  1.00  0.00    -0.014 A 
BRANCH  31  32
ATOM     32  C   UNL A   1      37.819  30.024  29.618  1.00  0.00     0.031 A 
ATOM     33  C   UNL A   1      38.916  29.178  29.040  1.00  0.00     0.074 A 
ATOM     34  C   UNL A   1      37.960  30.574  30.840  1.00  0.00     0.049 A 
ATOM     35  N   UNL A   1      40.013  28.746  29.609  1.00  0.00    -0.248 NA
ATOM     36  C   UNL A   1      38.760  28.758  27.638  1.00  0.00     0.031 C 
ATOM     37  C   UNL A   1      36.982  31.449  31.493  1.00  0.00     0.029 A 
ATOM     38  N   UNL A   1      38.984  30.489  31.750  1.00  0.00    -0.354 N 
ATOM     39  C   UNL A   1      40.662  27.981  28.649  1.00  0.00     0.074 A 
ATOM     40  C   UNL A   1      39.834  28.001  27.462  1.00  0.00     0.031 C 
ATOM     41  C   UNL A   1      37.464  31.841  32.682  1.00  0.00     0.029 A 
ATOM     42  C   UNL A   1      38.748  31.190  32.909  1.00  0.00     0.049 A 
ATOM     43  H   UNL A   1      39.808  29.976  31.589  1.00  0.00     0.167 HD
ATOM     44  C   UNL A   1      41.843  27.325  28.753  1.00  0.00     0.037 A 
ATOM     45  C   UNL A   1      39.467  31.270  34.043  1.00  0.00     0.037 A 
ATOM     46  C   UNL A   1      42.670  27.326  29.932  1.00  0.00     0.049 A 
ATOM     47  C   UNL A   1      40.752  30.498  34.143  1.00  0.00     0.074 A 
ATOM     48  C   UNL A   1      43.869  26.671  30.149  1.00  0.00     0.029 A 
ATOM     49  N   UNL A   1      42.383  28.028  31.094  1.00  0.00    -0.354 N 
ATOM     50  N   UNL A   1      41.331  29.738  33.245  1.00  0.00    -0.248 NA
ATOM     51  C   UNL A   1      41.475  30.583  35.419  1.00  0.00     0.031 C 
ATOM     52  C   UNL A   1      44.296  26.954  31.451  1.00  0.00     0.029 A 
ATOM     53  C   UNL A   1      43.381  27.816  32.033  1.00  0.00     0.049 A 
ATOM     54  H   UNL A   1      41.589  28.592  31.232  1.00  0.00     0.167 HD
ATOM     55  C   UNL A   1      42.487  29.258  33.843  1.00  0.00     0.074 A 
ATOM     56  C   UNL A   1      42.543  29.839  35.170  1.00  0.00     0.031 C 
ATOM     57  C   UNL A   1      43.414  28.405  33.346  1.00  0.00     0.037 A 
BRANCH  44  58
ATOM     58  C   UNL A   1      42.296  26.527  27.567  1.00  0.00     0.057 A 
ATOM     59  C   UNL A   1      43.094  27.084  26.560  1.00  0.00     0.134 A 
ATOM     60  C   UNL A   1      41.960  25.172  27.449  1.00  0.00     0.134 A 
ATOM     61  F   UNL A   1      43.438  28.380  26.605  1.00  0.00    -0.206 F 
ATOM     62  C   UNL A   1      43.528  26.327  25.470  1.00  0.00     0.040 A 
ATOM     63  C   UNL A   1      42.404  24.399  26.376  1.00  0.00     0.040 A 
ATOM     64  F   UNL A   1      41.201  24.575  28.381  1.00  0.00    -0.206 F 
ATOM     65  C   UNL A   1      43.188  24.978  25.379  1.00  0.00     0.006 A 
ENDBRANCH  44  58
BRANCH  45  66
ATOM     66  C   UNL A   1      38.970  32.072  35.190  1.00  0.00     0.057 A 
ATOM     67  C   UNL A   1      39.217  33.446  35.278  1.00  0.00     0.134 A 
ATOM     68  C   UNL A   1      38.247  31.478  36.233  1.00  0.00     0.134 A 
ATOM     69  F   UNL A   1      39.923  34.068  34.322  1.00  0.00    -0.206 F 
ATOM     70  C   UNL A   1      38.782  34.198  36.371  1.00  0.00     0.040 A 
ATOM     71  C   UNL A   1      37.781  32.224  37.317  1.00  0.00     0.040 A 
ATOM     72  F   UNL A   1      37.973  30.166  36.207  1.00  0.00    -0.206 F 
ATOM     73  C   UNL A   1      38.056  33.587  37.391  1.00  0.00     0.006 A 
ENDBRANCH  45  66
BRANCH  57  74
ATOM     74  C   UNL A   1      44.570  28.071  34.241  1.00  0.00     0.057 A 
ATOM     75  C   UNL A   1      44.538  26.964  35.100  1.00  0.00     0.134 A 
ATOM     76  C   UNL A   1      45.724  28.862  34.242  1.00  0.00     0.134 A 
ATOM     77  F   UNL A   1      43.452  26.179  35.157  1.00  0.00    -0.206 F 
ATOM     78  C   UNL A   1      45.607  26.673  35.949  1.00  0.00     0.040 A 
ATOM     79  C   UNL A   1      46.808  28.566  35.068  1.00  0.00     0.040 A 
ATOM     80  F   UNL A   1      45.818  29.932  33.438  1.00  0.00    -0.206 F 
ATOM     81  C   UNL A   1      46.748  27.473  35.931  1.00  0.00     0.006 A 
ENDBRANCH  57  74
ENDBRANCH  31  32
ENDBRANCH  24  26
ENDBRANCH  23  24
ENDBRANCH  22  23
ENDBRANCH   1  22
TORSDOF 15
ENDMDL
