MODEL 1
REMARK VINA RESULT:     -13.4      0.000      0.000
REMARK SMILES Cc1cc(C(=O)OCCOC(=O)c2ccc(-c3c4nc(c(-c5c(F)cccc5F)c5ccc([nH]5)c(-c5c(F)cccc5F)c5nc(c(-c6c(F)cccc6F)c6ccc3[nH]6)C=C5)C=C4)cc2)ccc1NS(=O)(=O)c1ccc2c(c1)CCC2
REMARK SMILES IDX 8 1 7 2 5 3 6 4 4 5 1 6 2 7 3 8 69 9 68 10 67 11 70 12 71 14
REMARK SMILES IDX 72 15 73 16 74 17 75 18 79 19 76 20 78 21 77 22 80 23 82 24
REMARK SMILES IDX 81 25 9 26 10 27 11 28 12 29 13 30 14 31 66 32 15 33 65 34
REMARK SMILES IDX 16 35 17 36 18 37 59 38 19 39 64 40 58 41 60 42 20 43 63 44
REMARK SMILES IDX 57 45 56 46 21 48 47 49 30 50 46 51 31 52 34 53 45 54 61 55
REMARK SMILES IDX 32 56 33 57 44 59 62 60 35 61 22 62 23 63 28 64 24 65 25 66
REMARK SMILES IDX 27 67 29 68 26 69 48 70 49 71 54 72 50 73 51 74 53 75 55 76
REMARK SMILES IDX 52 77 36 78 37 79 42 80 38 81 39 82 41 83 43 84 40 85
REMARK H PARENT 70 13 60 47 34 58
REMARK Flexibility Score: inf
ROOT
ATOM      1  C   UNL A   1      33.725  29.562  26.440  1.00  0.00     0.275 C 
ENDROOT
BRANCH   1   2
ATOM      2  O   UNL A   1      32.481  29.722  27.153  1.00  0.00    -0.458 OA
BRANCH   2   3
ATOM      3  C   UNL A   1      31.692  28.618  27.007  1.00  0.00     0.338 C 
ATOM      4  O   UNL A   1      31.362  27.892  27.942  1.00  0.00    -0.246 OA
BRANCH   3   5
ATOM      5  C   UNL A   1      31.238  28.282  25.623  1.00  0.00     0.060 A 
ATOM      6  C   UNL A   1      30.283  29.554  22.178  1.00  0.00     0.046 C 
ATOM      7  C   UNL A   1      30.871  28.655  23.239  1.00  0.00    -0.026 A 
ATOM      8  C   UNL A   1      31.062  29.165  24.551  1.00  0.00     0.021 A 
ATOM      9  C   UNL A   1      30.990  27.267  23.027  1.00  0.00     0.052 A 
ATOM     10  C   UNL A   1      30.863  26.413  24.107  1.00  0.00     0.028 A 
ATOM     11  C   UNL A   1      30.991  26.919  25.395  1.00  0.00     0.018 A 
BRANCH   9  12
ATOM     12  N   UNL A   1      31.352  26.664  21.773  1.00  0.00    -0.279 N 
ATOM     13  H   UNL A   1      30.682  26.567  21.059  1.00  0.00     0.180 HD
BRANCH  12  14
ATOM     14  S   UNL A   1      32.983  26.106  21.527  1.00  0.00     0.261 S 
ATOM     15  O   UNL A   1      32.965  25.518  20.200  1.00  0.00    -0.201 OA
ATOM     16  O   UNL A   1      33.849  27.233  21.806  1.00  0.00    -0.201 OA
BRANCH  14  17
ATOM     17  C   UNL A   1      33.437  24.803  22.668  1.00  0.00     0.088 A 
ATOM     18  C   UNL A   1      32.838  23.538  22.585  1.00  0.00     0.022 A 
ATOM     19  C   UNL A   1      34.363  25.054  23.693  1.00  0.00     0.026 A 
ATOM     20  C   UNL A   1      33.397  22.441  23.252  1.00  0.00     0.005 A 
ATOM     21  C   UNL A   1      34.812  23.978  24.448  1.00  0.00    -0.043 A 
ATOM     22  C   UNL A   1      34.434  22.671  24.132  1.00  0.00    -0.045 A 
ATOM     23  C   UNL A   1      35.669  23.964  25.676  1.00  0.00     0.036 C 
ATOM     24  C   UNL A   1      35.261  21.673  24.884  1.00  0.00     0.036 C 
ATOM     25  C   UNL A   1      36.316  22.581  25.546  1.00  0.00     0.010 C 
ENDBRANCH  14  17
ENDBRANCH  12  14
ENDBRANCH   9  12
ENDBRANCH   3   5
ENDBRANCH   2   3
ENDBRANCH   1   2
BRANCH   1  26
ATOM     26  C   UNL A   1      35.014  29.516  27.284  1.00  0.00     0.275 C 
BRANCH  26  27
ATOM     27  O   UNL A   1      35.832  30.701  27.467  1.00  0.00    -0.458 OA
BRANCH  27  28
ATOM     28  C   UNL A   1      36.782  30.926  28.398  1.00  0.00     0.338 C 
ATOM     29  O   UNL A   1      36.787  31.932  29.103  1.00  0.00    -0.246 OA
BRANCH  28  30
ATOM     30  C   UNL A   1      37.823  29.907  28.555  1.00  0.00     0.060 A 
ATOM     31  C   UNL A   1      37.754  29.042  29.662  1.00  0.00     0.016 A 
ATOM     32  C   UNL A   1      38.782  29.743  27.560  1.00  0.00     0.016 A 
ATOM     33  C   UNL A   1      38.629  27.974  29.755  1.00  0.00     0.010 A 
ATOM     34  C   UNL A   1      39.529  28.597  27.557  1.00  0.00     0.010 A 
ATOM     35  C   UNL A   1      39.507  27.774  28.693  1.00  0.00    -0.014 A 
BRANCH  35  36
ATOM     36  C   UNL A   1      40.740  27.030  28.844  1.00  0.00     0.031 A 
ATOM     37  C   UNL A   1      40.793  25.598  28.547  1.00  0.00     0.074 A 
ATOM     38  C   UNL A   1      41.759  27.882  29.093  1.00  0.00     0.049 A 
ATOM     39  N   UNL A   1      41.654  24.785  29.040  1.00  0.00    -0.248 NA
ATOM     40  C   UNL A   1      39.804  24.923  27.710  1.00  0.00     0.031 C 
ATOM     41  C   UNL A   1      43.196  27.748  29.006  1.00  0.00     0.029 A 
ATOM     42  N   UNL A   1      41.581  29.169  29.638  1.00  0.00    -0.354 N 
ATOM     43  C   UNL A   1      41.582  23.624  28.291  1.00  0.00     0.074 A 
ATOM     44  C   UNL A   1      40.294  23.679  27.654  1.00  0.00     0.031 C 
ATOM     45  C   UNL A   1      43.756  28.720  29.760  1.00  0.00     0.029 A 
ATOM     46  C   UNL A   1      42.677  29.422  30.454  1.00  0.00     0.049 A 
ATOM     47  H   UNL A   1      40.822  29.775  29.473  1.00  0.00     0.167 HD
ATOM     48  C   UNL A   1      42.728  22.896  28.124  1.00  0.00     0.037 A 
ATOM     49  C   UNL A   1      42.450  29.421  31.801  1.00  0.00     0.037 A 
ATOM     50  C   UNL A   1      43.805  23.557  28.868  1.00  0.00     0.049 A 
ATOM     51  C   UNL A   1      43.110  28.207  32.408  1.00  0.00     0.074 A 
ATOM     52  C   UNL A   1      44.757  24.479  28.465  1.00  0.00     0.029 A 
ATOM     53  N   UNL A   1      43.726  23.643  30.252  1.00  0.00    -0.354 N 
ATOM     54  N   UNL A   1      43.200  27.040  31.820  1.00  0.00    -0.248 NA
ATOM     55  C   UNL A   1      43.853  28.282  33.658  1.00  0.00     0.031 C 
ATOM     56  C   UNL A   1      45.167  25.201  29.618  1.00  0.00     0.029 A 
ATOM     57  C   UNL A   1      44.464  24.719  30.711  1.00  0.00     0.049 A 
ATOM     58  H   UNL A   1      43.218  23.025  30.825  1.00  0.00     0.167 HD
ATOM     59  C   UNL A   1      44.073  26.258  32.530  1.00  0.00     0.074 A 
ATOM     60  C   UNL A   1      44.432  27.071  33.682  1.00  0.00     0.031 C 
ATOM     61  C   UNL A   1      44.509  25.026  32.131  1.00  0.00     0.037 A 
BRANCH  48  62
ATOM     62  C   UNL A   1      43.003  21.832  27.072  1.00  0.00     0.057 A 
ATOM     63  C   UNL A   1      42.292  20.610  27.104  1.00  0.00     0.134 A 
ATOM     64  C   UNL A   1      43.951  21.906  26.035  1.00  0.00     0.134 A 
ATOM     65  F   UNL A   1      41.304  20.394  27.982  1.00  0.00    -0.206 F 
ATOM     66  C   UNL A   1      42.549  19.540  26.234  1.00  0.00     0.040 A 
ATOM     67  C   UNL A   1      44.227  20.836  25.163  1.00  0.00     0.040 A 
ATOM     68  F   UNL A   1      44.638  23.019  25.773  1.00  0.00    -0.206 F 
ATOM     69  C   UNL A   1      43.532  19.643  25.266  1.00  0.00     0.006 A 
ENDBRANCH  48  62
BRANCH  49  70
ATOM     70  C   UNL A   1      41.133  30.025  32.210  1.00  0.00     0.057 A 
ATOM     71  C   UNL A   1      40.129  29.170  32.724  1.00  0.00     0.134 A 
ATOM     72  C   UNL A   1      40.902  31.395  32.366  1.00  0.00     0.134 A 
ATOM     73  F   UNL A   1      40.254  27.837  32.603  1.00  0.00    -0.206 F 
ATOM     74  C   UNL A   1      39.026  29.640  33.447  1.00  0.00     0.040 A 
ATOM     75  C   UNL A   1      39.780  31.882  33.067  1.00  0.00     0.040 A 
ATOM     76  F   UNL A   1      41.787  32.296  31.918  1.00  0.00    -0.206 F 
ATOM     77  C   UNL A   1      38.859  31.003  33.638  1.00  0.00     0.006 A 
ENDBRANCH  49  70
BRANCH  61  78
ATOM     78  C   UNL A   1      45.122  24.014  33.062  1.00  0.00     0.057 A 
ATOM     79  C   UNL A   1      46.415  24.139  33.590  1.00  0.00     0.134 A 
ATOM     80  C   UNL A   1      44.347  22.966  33.608  1.00  0.00     0.134 A 
ATOM     81  F   UNL A   1      47.209  25.171  33.272  1.00  0.00    -0.206 F 
ATOM     82  C   UNL A   1      46.933  23.238  34.523  1.00  0.00     0.040 A 
ATOM     83  C   UNL A   1      44.827  22.110  34.598  1.00  0.00     0.040 A 
ATOM     84  F   UNL A   1      43.077  22.748  33.235  1.00  0.00    -0.206 F 
ATOM     85  C   UNL A   1      46.135  22.228  35.041  1.00  0.00     0.006 A 
ENDBRANCH  61  78
ENDBRANCH  35  36
ENDBRANCH  28  30
ENDBRANCH  27  28
ENDBRANCH  26  27
ENDBRANCH   1  26
TORSDOF 14
ENDMDL
MODEL 2
REMARK VINA RESULT:     -13.2      3.471      6.008
REMARK SMILES Cc1cc(C(=O)OCCOC(=O)c2ccc(-c3c4nc(c(-c5c(F)cccc5F)c5ccc([nH]5)c(-c5c(F)cccc5F)c5nc(c(-c6c(F)cccc6F)c6ccc3[nH]6)C=C5)C=C4)cc2)ccc1NS(=O)(=O)c1ccc2c(c1)CCC2
REMARK SMILES IDX 8 1 7 2 5 3 6 4 4 5 1 6 2 7 3 8 69 9 68 10 67 11 70 12 71 14
REMARK SMILES IDX 72 15 73 16 74 17 75 18 79 19 76 20 78 21 77 22 80 23 82 24
REMARK SMILES IDX 81 25 9 26 10 27 11 28 12 29 13 30 14 31 66 32 15 33 65 34
REMARK SMILES IDX 16 35 17 36 18 37 59 38 19 39 64 40 58 41 60 42 20 43 63 44
REMARK SMILES IDX 57 45 56 46 21 48 47 49 30 50 46 51 31 52 34 53 45 54 61 55
REMARK SMILES IDX 32 56 33 57 44 59 62 60 35 61 22 62 23 63 28 64 24 65 25 66
REMARK SMILES IDX 27 67 29 68 26 69 48 70 49 71 54 72 50 73 51 74 53 75 55 76
REMARK SMILES IDX 52 77 36 78 37 79 42 80 38 81 39 82 41 83 43 84 40 85
REMARK H PARENT 70 13 60 47 34 58
REMARK Flexibility Score: inf
ROOT
ATOM      1  C   UNL A   1      32.799  36.012  30.098  1.00  0.00     0.275 C 
ENDROOT
BRANCH   1   2
ATOM      2  O   UNL A   1      32.661  34.694  29.526  1.00  0.00    -0.458 OA
BRANCH   2   3
ATOM      3  C   UNL A   1      33.759  34.370  28.783  1.00  0.00     0.338 C 
ATOM      4  O   UNL A   1      34.712  35.128  28.617  1.00  0.00    -0.246 OA
BRANCH   3   5
ATOM      5  C   UNL A   1      33.769  33.026  28.129  1.00  0.00     0.060 A 
ATOM      6  C   UNL A   1      35.629  29.770  27.550  1.00  0.00     0.046 C 
ATOM      7  C   UNL A   1      34.475  30.716  27.779  1.00  0.00    -0.026 A 
ATOM      8  C   UNL A   1      34.738  32.025  28.265  1.00  0.00     0.021 A 
ATOM      9  C   UNL A   1      33.189  30.421  27.285  1.00  0.00     0.052 A 
ATOM     10  C   UNL A   1      32.370  31.464  26.890  1.00  0.00     0.028 A 
ATOM     11  C   UNL A   1      32.659  32.755  27.313  1.00  0.00     0.018 A 
BRANCH   9  12
ATOM     12  N   UNL A   1      32.606  29.107  27.266  1.00  0.00    -0.279 N 
ATOM     13  H   UNL A   1      32.122  28.769  28.053  1.00  0.00     0.180 HD
BRANCH  12  14
ATOM     14  S   UNL A   1      32.765  28.117  25.842  1.00  0.00     0.261 S 
ATOM     15  O   UNL A   1      33.905  28.677  25.140  1.00  0.00    -0.201 OA
ATOM     16  O   UNL A   1      32.799  26.744  26.299  1.00  0.00    -0.201 OA
BRANCH  14  17
ATOM     17  C   UNL A   1      31.355  28.268  24.747  1.00  0.00     0.088 A 
ATOM     18  C   UNL A   1      30.713  27.126  24.246  1.00  0.00     0.022 A 
ATOM     19  C   UNL A   1      30.912  29.535  24.338  1.00  0.00     0.026 A 
ATOM     20  C   UNL A   1      29.446  27.223  23.657  1.00  0.00     0.005 A 
ATOM     21  C   UNL A   1      29.720  29.615  23.629  1.00  0.00    -0.043 A 
ATOM     22  C   UNL A   1      28.933  28.481  23.417  1.00  0.00    -0.045 A 
ATOM     23  C   UNL A   1      29.089  30.791  22.950  1.00  0.00     0.036 C 
ATOM     24  C   UNL A   1      27.577  28.853  22.898  1.00  0.00     0.036 C 
ATOM     25  C   UNL A   1      27.612  30.389  23.017  1.00  0.00     0.010 C 
ENDBRANCH  14  17
ENDBRANCH  12  14
ENDBRANCH   9  12
ENDBRANCH   3   5
ENDBRANCH   2   3
ENDBRANCH   1   2
BRANCH   1  26
ATOM     26  C   UNL A   1      32.992  36.094  31.625  1.00  0.00     0.275 C 
BRANCH  26  27
ATOM     27  O   UNL A   1      34.104  35.426  32.276  1.00  0.00    -0.458 OA
BRANCH  27  28
ATOM     28  C   UNL A   1      34.212  34.127  32.623  1.00  0.00     0.338 C 
ATOM     29  O   UNL A   1      33.260  33.480  33.053  1.00  0.00    -0.246 OA
BRANCH  28  30
ATOM     30  C   UNL A   1      35.522  33.493  32.456  1.00  0.00     0.060 A 
ATOM     31  C   UNL A   1      36.427  34.053  31.537  1.00  0.00     0.016 A 
ATOM     32  C   UNL A   1      35.883  32.431  33.281  1.00  0.00     0.016 A 
ATOM     33  C   UNL A   1      37.724  33.574  31.470  1.00  0.00     0.010 A 
ATOM     34  C   UNL A   1      37.203  32.074  33.342  1.00  0.00     0.010 A 
ATOM     35  C   UNL A   1      38.086  32.585  32.379  1.00  0.00    -0.014 A 
BRANCH  35  36
ATOM     36  C   UNL A   1      39.199  31.690  32.140  1.00  0.00     0.031 A 
ATOM     37  C   UNL A   1      39.034  30.491  31.317  1.00  0.00     0.074 A 
ATOM     38  C   UNL A   1      40.338  32.241  32.616  1.00  0.00     0.049 A 
ATOM     39  N   UNL A   1      39.775  29.447  31.396  1.00  0.00    -0.248 NA
ATOM     40  C   UNL A   1      37.937  30.326  30.365  1.00  0.00     0.031 C 
ATOM     41  C   UNL A   1      41.737  31.969  32.374  1.00  0.00     0.029 A 
ATOM     42  N   UNL A   1      40.363  33.227  33.622  1.00  0.00    -0.354 N 
ATOM     43  C   UNL A   1      39.517  28.687  30.270  1.00  0.00     0.074 A 
ATOM     44  C   UNL A   1      38.237  29.149  29.803  1.00  0.00     0.031 C 
ATOM     45  C   UNL A   1      42.450  32.491  33.396  1.00  0.00     0.029 A 
ATOM     46  C   UNL A   1      41.502  33.002  34.386  1.00  0.00     0.049 A 
ATOM     47  H   UNL A   1      39.699  33.941  33.759  1.00  0.00     0.167 HD
ATOM     48  C   UNL A   1      40.539  27.941  29.751  1.00  0.00     0.037 A 
ATOM     49  C   UNL A   1      41.306  32.507  35.644  1.00  0.00     0.037 A 
ATOM     50  C   UNL A   1      41.717  28.118  30.605  1.00  0.00     0.049 A 
ATOM     51  C   UNL A   1      41.793  31.079  35.690  1.00  0.00     0.074 A 
ATOM     52  C   UNL A   1      42.787  28.994  30.512  1.00  0.00     0.029 A 
ATOM     53  N   UNL A   1      41.682  27.670  31.920  1.00  0.00    -0.354 N 
ATOM     54  N   UNL A   1      41.696  30.231  34.698  1.00  0.00    -0.248 NA
ATOM     55  C   UNL A   1      42.565  30.568  36.813  1.00  0.00     0.031 C 
ATOM     56  C   UNL A   1      43.323  29.154  31.818  1.00  0.00     0.029 A 
ATOM     57  C   UNL A   1      42.580  28.380  32.695  1.00  0.00     0.049 A 
ATOM     58  H   UNL A   1      41.100  26.948  32.252  1.00  0.00     0.167 HD
ATOM     59  C   UNL A   1      42.459  29.130  34.988  1.00  0.00     0.074 A 
ATOM     60  C   UNL A   1      42.960  29.380  36.331  1.00  0.00     0.031 C 
ATOM     61  C   UNL A   1      42.701  28.104  34.117  1.00  0.00     0.037 A 
BRANCH  48  62
ATOM     62  C   UNL A   1      40.632  27.343  28.355  1.00  0.00     0.057 A 
ATOM     63  C   UNL A   1      40.010  26.103  28.079  1.00  0.00     0.134 A 
ATOM     64  C   UNL A   1      41.323  27.884  27.256  1.00  0.00     0.134 A 
ATOM     65  F   UNL A   1      39.251  25.477  28.988  1.00  0.00    -0.206 F 
ATOM     66  C   UNL A   1      40.125  25.435  26.850  1.00  0.00     0.040 A 
ATOM     67  C   UNL A   1      41.456  27.219  26.023  1.00  0.00     0.040 A 
ATOM     68  F   UNL A   1      41.876  29.098  27.288  1.00  0.00    -0.206 F 
ATOM     69  C   UNL A   1      40.864  25.984  25.819  1.00  0.00     0.006 A 
ENDBRANCH  48  62
BRANCH  49  70
ATOM     70  C   UNL A   1      40.102  33.069  36.352  1.00  0.00     0.057 A 
ATOM     71  C   UNL A   1      38.992  32.219  36.572  1.00  0.00     0.134 A 
ATOM     72  C   UNL A   1      40.080  34.286  37.039  1.00  0.00     0.134 A 
ATOM     73  F   UNL A   1      38.915  31.035  35.941  1.00  0.00    -0.206 F 
ATOM     74  C   UNL A   1      37.985  32.507  37.503  1.00  0.00     0.040 A 
ATOM     75  C   UNL A   1      39.057  34.602  37.956  1.00  0.00     0.040 A 
ATOM     76  F   UNL A   1      41.080  35.168  36.906  1.00  0.00    -0.206 F 
ATOM     77  C   UNL A   1      38.026  33.697  38.214  1.00  0.00     0.006 A 
ENDBRANCH  49  70
BRANCH  61  78
ATOM     78  C   UNL A   1      43.176  26.741  34.543  1.00  0.00     0.057 A 
ATOM     79  C   UNL A   1      42.319  25.750  35.042  1.00  0.00     0.134 A 
ATOM     80  C   UNL A   1      44.499  26.318  34.284  1.00  0.00     0.134 A 
ATOM     81  F   UNL A   1      41.006  25.967  35.199  1.00  0.00    -0.206 F 
ATOM     82  C   UNL A   1      42.762  24.461  35.347  1.00  0.00     0.040 A 
ATOM     83  C   UNL A   1      44.932  25.012  34.510  1.00  0.00     0.040 A 
ATOM     84  F   UNL A   1      45.422  27.141  33.765  1.00  0.00    -0.206 F 
ATOM     85  C   UNL A   1      44.068  24.084  35.068  1.00  0.00     0.006 A 
ENDBRANCH  61  78
ENDBRANCH  35  36
ENDBRANCH  28  30
ENDBRANCH  27  28
ENDBRANCH  26  27
ENDBRANCH   1  26
TORSDOF 14
ENDMDL
MODEL 3
REMARK VINA RESULT:     -13.1      1.497      1.881
REMARK SMILES Cc1cc(C(=O)OCCOC(=O)c2ccc(-c3c4nc(c(-c5c(F)cccc5F)c5ccc([nH]5)c(-c5c(F)cccc5F)c5nc(c(-c6c(F)cccc6F)c6ccc3[nH]6)C=C5)C=C4)cc2)ccc1NS(=O)(=O)c1ccc2c(c1)CCC2
REMARK SMILES IDX 8 1 7 2 5 3 6 4 4 5 1 6 2 7 3 8 69 9 68 10 67 11 70 12 71 14
REMARK SMILES IDX 72 15 73 16 74 17 75 18 79 19 76 20 78 21 77 22 80 23 82 24
REMARK SMILES IDX 81 25 9 26 10 27 11 28 12 29 13 30 14 31 66 32 15 33 65 34
REMARK SMILES IDX 16 35 17 36 18 37 59 38 19 39 64 40 58 41 60 42 20 43 63 44
REMARK SMILES IDX 57 45 56 46 21 48 47 49 30 50 46 51 31 52 34 53 45 54 61 55
REMARK SMILES IDX 32 56 33 57 44 59 62 60 35 61 22 62 23 63 28 64 24 65 25 66
REMARK SMILES IDX 27 67 29 68 26 69 48 70 49 71 54 72 50 73 51 74 53 75 55 76
REMARK SMILES IDX 52 77 36 78 37 79 42 80 38 81 39 82 41 83 43 84 40 85
REMARK H PARENT 70 13 60 47 34 58
REMARK Flexibility Score: inf
ROOT
ATOM      1  C   UNL A   1      32.958  30.557  27.090  1.00  0.00     0.275 C 
ENDROOT
BRANCH   1   2
ATOM      2  O   UNL A   1      33.022  29.365  26.279  1.00  0.00    -0.458 OA
BRANCH   2   3
ATOM      3  C   UNL A   1      31.961  29.302  25.424  1.00  0.00     0.338 C 
ATOM      4  O   UNL A   1      31.256  30.270  25.148  1.00  0.00    -0.246 OA
BRANCH   3   5
ATOM      5  C   UNL A   1      31.644  27.970  24.824  1.00  0.00     0.060 A 
ATOM      6  C   UNL A   1      32.927  24.917  22.973  1.00  0.00     0.046 C 
ATOM      7  C   UNL A   1      32.125  25.743  23.949  1.00  0.00    -0.026 A 
ATOM      8  C   UNL A   1      32.544  27.069  24.243  1.00  0.00     0.021 A 
ATOM      9  C   UNL A   1      30.846  25.328  24.368  1.00  0.00     0.052 A 
ATOM     10  C   UNL A   1      29.892  26.288  24.657  1.00  0.00     0.028 A 
ATOM     11  C   UNL A   1      30.293  27.598  24.886  1.00  0.00     0.018 A 
BRANCH   9  12
ATOM     12  N   UNL A   1      30.480  23.963  24.634  1.00  0.00    -0.279 N 
ATOM     13  H   UNL A   1      29.853  23.493  24.039  1.00  0.00     0.180 HD
BRANCH  12  14
ATOM     14  S   UNL A   1      31.154  23.147  26.017  1.00  0.00     0.261 S 
ATOM     15  O   UNL A   1      31.193  24.165  27.051  1.00  0.00    -0.201 OA
ATOM     16  O   UNL A   1      30.365  21.949  26.212  1.00  0.00    -0.201 OA
BRANCH  14  17
ATOM     17  C   UNL A   1      32.843  22.620  25.742  1.00  0.00     0.088 A 
ATOM     18  C   UNL A   1      33.119  21.358  25.195  1.00  0.00     0.022 A 
ATOM     19  C   UNL A   1      33.911  23.447  26.121  1.00  0.00     0.026 A 
ATOM     20  C   UNL A   1      34.393  21.064  24.692  1.00  0.00     0.005 A 
ATOM     21  C   UNL A   1      35.195  23.078  25.740  1.00  0.00    -0.043 A 
ATOM     22  C   UNL A   1      35.408  21.971  24.915  1.00  0.00    -0.045 A 
ATOM     23  C   UNL A   1      36.514  23.674  26.119  1.00  0.00     0.036 C 
ATOM     24  C   UNL A   1      36.816  21.942  24.402  1.00  0.00     0.036 C 
ATOM     25  C   UNL A   1      37.350  23.302  24.891  1.00  0.00     0.010 C 
ENDBRANCH  14  17
ENDBRANCH  12  14
ENDBRANCH   9  12
ENDBRANCH   3   5
ENDBRANCH   2   3
ENDBRANCH   1   2
BRANCH   1  26
ATOM     26  C   UNL A   1      34.296  31.239  27.437  1.00  0.00     0.275 C 
BRANCH  26  27
ATOM     27  O   UNL A   1      35.480  30.456  27.738  1.00  0.00    -0.458 OA
BRANCH  27  28
ATOM     28  C   UNL A   1      36.645  30.874  28.275  1.00  0.00     0.338 C 
ATOM     29  O   UNL A   1      36.827  32.038  28.625  1.00  0.00    -0.246 OA
BRANCH  28  30
ATOM     30  C   UNL A   1      37.704  29.876  28.445  1.00  0.00     0.060 A 
ATOM     31  C   UNL A   1      37.645  29.016  29.555  1.00  0.00     0.016 A 
ATOM     32  C   UNL A   1      38.673  29.727  27.456  1.00  0.00     0.016 A 
ATOM     33  C   UNL A   1      38.539  27.965  29.659  1.00  0.00     0.010 A 
ATOM     34  C   UNL A   1      39.441  28.594  27.464  1.00  0.00     0.010 A 
ATOM     35  C   UNL A   1      39.427  27.777  28.604  1.00  0.00    -0.014 A 
BRANCH  35  36
ATOM     36  C   UNL A   1      40.673  27.057  28.767  1.00  0.00     0.031 A 
ATOM     37  C   UNL A   1      40.758  25.627  28.469  1.00  0.00     0.074 A 
ATOM     38  C   UNL A   1      41.673  27.929  29.027  1.00  0.00     0.049 A 
ATOM     39  N   UNL A   1      41.630  24.830  28.970  1.00  0.00    -0.248 NA
ATOM     40  C   UNL A   1      39.791  24.934  27.621  1.00  0.00     0.031 C 
ATOM     41  C   UNL A   1      43.113  27.824  28.955  1.00  0.00     0.029 A 
ATOM     42  N   UNL A   1      41.464  29.212  29.572  1.00  0.00    -0.354 N 
ATOM     43  C   UNL A   1      41.588  23.669  28.219  1.00  0.00     0.074 A 
ATOM     44  C   UNL A   1      40.306  23.699  27.569  1.00  0.00     0.031 C 
ATOM     45  C   UNL A   1      43.646  28.805  29.716  1.00  0.00     0.029 A 
ATOM     46  C   UNL A   1      42.546  29.485  30.399  1.00  0.00     0.049 A 
ATOM     47  H   UNL A   1      40.695  29.803  29.400  1.00  0.00     0.167 HD
ATOM     48  C   UNL A   1      42.750  22.965  28.063  1.00  0.00     0.037 A 
ATOM     49  C   UNL A   1      42.305  29.478  31.744  1.00  0.00     0.037 A 
ATOM     50  C   UNL A   1      43.806  23.645  28.819  1.00  0.00     0.049 A 
ATOM     51  C   UNL A   1      42.983  28.276  32.356  1.00  0.00     0.074 A 
ATOM     52  C   UNL A   1      44.744  24.587  28.427  1.00  0.00     0.029 A 
ATOM     53  N   UNL A   1      43.711  23.728  30.203  1.00  0.00    -0.354 N 
ATOM     54  N   UNL A   1      43.102  27.112  31.768  1.00  0.00    -0.248 NA
ATOM     55  C   UNL A   1      43.711  28.364  33.614  1.00  0.00     0.031 C 
ATOM     56  C   UNL A   1      45.128  25.315  29.585  1.00  0.00     0.029 A 
ATOM     57  C   UNL A   1      44.423  24.818  30.670  1.00  0.00     0.049 A 
ATOM     58  H   UNL A   1      43.209  23.099  30.770  1.00  0.00     0.167 HD
ATOM     59  C   UNL A   1      43.982  26.347  32.487  1.00  0.00     0.074 A 
ATOM     60  C   UNL A   1      44.314  27.165  33.643  1.00  0.00     0.031 C 
ATOM     61  C   UNL A   1      44.448  25.124  32.091  1.00  0.00     0.037 A 
BRANCH  48  62
ATOM     62  C   UNL A   1      43.057  21.908  27.013  1.00  0.00     0.057 A 
ATOM     63  C   UNL A   1      42.372  20.670  27.038  1.00  0.00     0.134 A 
ATOM     64  C   UNL A   1      44.012  22.002  25.984  1.00  0.00     0.134 A 
ATOM     65  F   UNL A   1      41.381  20.433  27.907  1.00  0.00    -0.206 F 
ATOM     66  C   UNL A   1      42.659  19.607  26.169  1.00  0.00     0.040 A 
ATOM     67  C   UNL A   1      44.319  20.939  25.115  1.00  0.00     0.040 A 
ATOM     68  F   UNL A   1      44.678  23.130  25.729  1.00  0.00    -0.206 F 
ATOM     69  C   UNL A   1      43.648  19.732  25.210  1.00  0.00     0.006 A 
ENDBRANCH  48  62
BRANCH  49  70
ATOM     70  C   UNL A   1      40.972  30.055  32.140  1.00  0.00     0.057 A 
ATOM     71  C   UNL A   1      39.977  29.178  32.633  1.00  0.00     0.134 A 
ATOM     72  C   UNL A   1      40.715  31.419  32.304  1.00  0.00     0.134 A 
ATOM     73  F   UNL A   1      40.127  27.849  32.503  1.00  0.00    -0.206 F 
ATOM     74  C   UNL A   1      38.856  29.623  33.346  1.00  0.00     0.040 A 
ATOM     75  C   UNL A   1      39.575  31.881  32.993  1.00  0.00     0.040 A 
ATOM     76  F   UNL A   1      41.589  32.340  31.875  1.00  0.00    -0.206 F 
ATOM     77  C   UNL A   1      38.662  30.981  33.545  1.00  0.00     0.006 A 
ENDBRANCH  49  70
BRANCH  61  78
ATOM     78  C   UNL A   1      45.070  24.123  33.027  1.00  0.00     0.057 A 
ATOM     79  C   UNL A   1      46.365  24.260  33.547  1.00  0.00     0.134 A 
ATOM     80  C   UNL A   1      44.304  23.076  33.586  1.00  0.00     0.134 A 
ATOM     81  F   UNL A   1      47.152  25.293  33.216  1.00  0.00    -0.206 F 
ATOM     82  C   UNL A   1      46.893  23.369  34.484  1.00  0.00     0.040 A 
ATOM     83  C   UNL A   1      44.794  22.230  34.580  1.00  0.00     0.040 A 
ATOM     84  F   UNL A   1      43.034  22.848  33.221  1.00  0.00    -0.206 F 
ATOM     85  C   UNL A   1      46.104  22.360  35.015  1.00  0.00     0.006 A 
ENDBRANCH  61  78
ENDBRANCH  35  36
ENDBRANCH  28  30
ENDBRANCH  27  28
ENDBRANCH  26  27
ENDBRANCH   1  26
TORSDOF 14
ENDMDL
