MODEL 1
REMARK VINA RESULT:     -10.6      0.000      0.000
REMARK SMILES CC(C)C[C@H](NC(=O)CNC(=O)[C@@H](NC(=O)OCc1ccccc1)C(C)C)C(=O)OCCOC(=O)c1ccc(-c2c3nc(c(-c4c(F)cccc4F)c4ccc([nH]4)c(-c4c(F)cccc4F)c4nc(c(-c5c(F)cccc5F)c5ccc2[nH]5)C=C4)C=C3)cc1
REMARK SMILES IDX 5 1 4 2 2 3 1 4 3 5 28 6 29 7 30 8 31 9 32 10 33 11 34 12
REMARK SMILES IDX 35 13 36 14 37 15 89 16 38 17 88 18 39 19 40 20 41 21 82 22
REMARK SMILES IDX 42 23 87 24 81 25 83 26 43 27 86 28 80 29 79 30 44 32 70 33
REMARK SMILES IDX 53 34 69 35 54 36 57 37 68 38 84 39 55 40 56 41 67 43 85 44
REMARK SMILES IDX 58 45 45 46 46 47 51 48 47 49 48 50 50 51 52 52 49 53 71 54
REMARK SMILES IDX 72 55 77 56 73 57 74 58 76 59 78 60 75 61 59 62 60 63 65 64
REMARK SMILES IDX 61 65 62 66 64 67 66 68 63 69 6 70 7 71 8 73 9 74 10 75
REMARK SMILES IDX 11 76 12 78 13 79 14 80 15 81 16 83 17 84 18 85 19 86 20 87
REMARK SMILES IDX 24 88 21 89 23 90 22 91 25 92 26 93 27 94
REMARK H PARENT 83 31 57 42 6 72 10 77 14 82
REMARK Flexibility Score: inf
ROOT
ATOM      1  C   UNL A   1      31.799  29.316  25.075  1.00  0.00     0.192 C 
ENDROOT
BRANCH   1   2
ATOM      2  C   UNL A   1      31.228  29.412  23.655  1.00  0.00     0.040 C 
BRANCH   2   3
ATOM      3  C   UNL A   1      30.076  28.480  23.233  1.00  0.00    -0.015 C 
ATOM      4  C   UNL A   1      28.962  29.171  22.439  1.00  0.00     0.007 C 
ATOM      5  C   UNL A   1      30.653  27.347  22.376  1.00  0.00     0.007 C 
ENDBRANCH   2   3
ENDBRANCH   1   2
BRANCH   1   6
ATOM      6  C   UNL A   1      31.403  30.588  25.849  1.00  0.00     0.328 C 
ATOM      7  O   UNL A   1      30.668  31.449  25.373  1.00  0.00    -0.250 OA
BRANCH   6   8
ATOM      8  O   UNL A   1      31.849  30.613  27.134  1.00  0.00    -0.461 OA
BRANCH   8   9
ATOM      9  C   UNL A   1      33.270  30.832  27.251  1.00  0.00     0.274 C 
BRANCH   9  10
ATOM     10  C   UNL A   1      33.656  32.319  27.275  1.00  0.00     0.275 C 
BRANCH  10  11
ATOM     11  O   UNL A   1      32.689  33.165  27.931  1.00  0.00    -0.458 OA
BRANCH  11  12
ATOM     12  C   UNL A   1      33.216  34.229  28.582  1.00  0.00     0.338 C 
ATOM     13  O   UNL A   1      32.723  35.343  28.673  1.00  0.00    -0.246 OA
BRANCH  12  14
ATOM     14  C   UNL A   1      34.437  33.852  29.317  1.00  0.00     0.060 A 
ATOM     15  C   UNL A   1      35.662  34.252  28.786  1.00  0.00     0.016 A 
ATOM     16  C   UNL A   1      34.403  32.990  30.413  1.00  0.00     0.016 A 
ATOM     17  C   UNL A   1      36.857  33.766  29.312  1.00  0.00     0.010 A 
ATOM     18  C   UNL A   1      35.610  32.515  30.954  1.00  0.00     0.010 A 
ATOM     19  C   UNL A   1      36.848  32.881  30.391  1.00  0.00    -0.014 A 
BRANCH  19  20
ATOM     20  C   UNL A   1      38.127  32.284  30.863  1.00  0.00     0.031 A 
ATOM     21  C   UNL A   1      38.692  31.074  30.169  1.00  0.00     0.074 A 
ATOM     22  C   UNL A   1      38.822  32.853  31.866  1.00  0.00     0.049 A 
ATOM     23  N   UNL A   1      39.715  30.326  30.502  1.00  0.00    -0.248 NA
ATOM     24  C   UNL A   1      38.008  30.644  28.940  1.00  0.00     0.031 C 
ATOM     25  C   UNL A   1      38.457  34.091  32.554  1.00  0.00     0.029 A 
ATOM     26  N   UNL A   1      40.000  32.476  32.464  1.00  0.00    -0.354 N 
ATOM     27  C   UNL A   1      39.765  29.310  29.554  1.00  0.00     0.074 A 
ATOM     28  C   UNL A   1      38.671  29.537  28.635  1.00  0.00     0.031 C 
ATOM     29  C   UNL A   1      39.406  34.388  33.455  1.00  0.00     0.029 A 
ATOM     30  C   UNL A   1      40.409  33.326  33.462  1.00  0.00     0.049 A 
ATOM     31  H   UNL A   1      40.502  31.670  32.203  1.00  0.00     0.167 HD
ATOM     32  C   UNL A   1      40.641  28.280  29.466  1.00  0.00     0.037 A 
ATOM     33  C   UNL A   1      41.457  33.247  34.305  1.00  0.00     0.037 A 
ATOM     34  C   UNL A   1      41.765  28.090  30.345  1.00  0.00     0.049 A 
ATOM     35  C   UNL A   1      42.390  32.069  34.215  1.00  0.00     0.074 A 
ATOM     36  C   UNL A   1      42.708  27.077  30.333  1.00  0.00     0.029 A 
ATOM     37  N   UNL A   1      42.106  28.939  31.388  1.00  0.00    -0.354 N 
ATOM     38  N   UNL A   1      42.395  31.080  33.354  1.00  0.00    -0.248 NA
ATOM     39  C   UNL A   1      43.454  31.989  35.227  1.00  0.00     0.031 C 
ATOM     40  C   UNL A   1      43.593  27.286  31.395  1.00  0.00     0.029 A 
ATOM     41  C   UNL A   1      43.234  28.461  32.036  1.00  0.00     0.049 A 
ATOM     42  H   UNL A   1      41.619  29.759  31.631  1.00  0.00     0.167 HD
ATOM     43  C   UNL A   1      43.462  30.266  33.716  1.00  0.00     0.074 A 
ATOM     44  C   UNL A   1      44.102  30.895  34.852  1.00  0.00     0.031 C 
ATOM     45  C   UNL A   1      43.868  29.098  33.162  1.00  0.00     0.037 A 
BRANCH  32  46
ATOM     46  C   UNL A   1      40.389  27.241  28.412  1.00  0.00     0.057 A 
ATOM     47  C   UNL A   1      41.016  27.268  27.162  1.00  0.00     0.134 A 
ATOM     48  C   UNL A   1      39.529  26.166  28.681  1.00  0.00     0.134 A 
ATOM     49  F   UNL A   1      41.843  28.274  26.837  1.00  0.00    -0.206 F 
ATOM     50  C   UNL A   1      40.778  26.277  26.206  1.00  0.00     0.040 A 
ATOM     51  C   UNL A   1      39.306  25.154  27.746  1.00  0.00     0.040 A 
ATOM     52  F   UNL A   1      38.903  26.073  29.865  1.00  0.00    -0.206 F 
ATOM     53  C   UNL A   1      39.928  25.212  26.501  1.00  0.00     0.006 A 
ENDBRANCH  32  46
BRANCH  33  54
ATOM     54  C   UNL A   1      41.661  34.295  35.337  1.00  0.00     0.057 A 
ATOM     55  C   UNL A   1      41.047  34.209  36.592  1.00  0.00     0.134 A 
ATOM     56  C   UNL A   1      42.461  35.418  35.088  1.00  0.00     0.134 A 
ATOM     57  F   UNL A   1      40.247  33.172  36.882  1.00  0.00    -0.206 F 
ATOM     58  C   UNL A   1      41.210  35.205  37.556  1.00  0.00     0.040 A 
ATOM     59  C   UNL A   1      42.659  36.405  36.055  1.00  0.00     0.040 A 
ATOM     60  F   UNL A   1      43.074  35.565  33.906  1.00  0.00    -0.206 F 
ATOM     61  C   UNL A   1      42.026  36.304  37.291  1.00  0.00     0.006 A 
ENDBRANCH  33  54
BRANCH  45  62
ATOM     62  C   UNL A   1      45.078  28.435  33.757  1.00  0.00     0.057 A 
ATOM     63  C   UNL A   1      46.376  28.729  33.318  1.00  0.00     0.134 A 
ATOM     64  C   UNL A   1      44.946  27.520  34.809  1.00  0.00     0.134 A 
ATOM     65  F   UNL A   1      46.572  29.588  32.305  1.00  0.00    -0.206 F 
ATOM     66  C   UNL A   1      47.495  28.121  33.886  1.00  0.00     0.040 A 
ATOM     67  C   UNL A   1      46.060  26.925  35.405  1.00  0.00     0.040 A 
ATOM     68  F   UNL A   1      43.733  27.200  35.286  1.00  0.00    -0.206 F 
ATOM     69  C   UNL A   1      47.339  27.221  34.940  1.00  0.00     0.006 A 
ENDBRANCH  45  62
ENDBRANCH  19  20
ENDBRANCH  12  14
ENDBRANCH  11  12
ENDBRANCH  10  11
ENDBRANCH   9  10
ENDBRANCH   8   9
ENDBRANCH   6   8
ENDBRANCH   1   6
BRANCH   1  70
ATOM     70  N   UNL A   1      31.386  28.074  25.749  1.00  0.00    -0.341 N 
ATOM     71  C   UNL A   1      32.035  26.925  26.080  1.00  0.00     0.240 C 
ATOM     72  H   UNL A   1      30.439  28.075  26.019  1.00  0.00     0.164 HD
ATOM     73  O   UNL A   1      31.468  26.197  26.907  1.00  0.00    -0.273 OA
BRANCH  71  74
ATOM     74  C   UNL A   1      33.451  26.532  25.605  1.00  0.00     0.216 C 
BRANCH  74  75
ATOM     75  N   UNL A   1      33.714  26.473  24.179  1.00  0.00    -0.345 N 
ATOM     76  C   UNL A   1      33.992  25.482  23.296  1.00  0.00     0.243 C 
ATOM     77  H   UNL A   1      33.684  27.361  23.754  1.00  0.00     0.164 HD
ATOM     78  O   UNL A   1      34.028  25.838  22.110  1.00  0.00    -0.273 OA
BRANCH  76  79
ATOM     79  C   UNL A   1      34.265  23.989  23.651  1.00  0.00     0.177 C 
BRANCH  79  80
ATOM     80  N   UNL A   1      33.609  23.036  22.755  1.00  0.00    -0.309 N 
ATOM     81  C   UNL A   1      32.369  22.485  22.749  1.00  0.00     0.408 C 
ATOM     82  H   UNL A   1      34.179  22.736  22.011  1.00  0.00     0.167 HD
ATOM     83  O   UNL A   1      32.154  21.493  22.063  1.00  0.00    -0.225 OA
BRANCH  81  84
ATOM     84  O   UNL A   1      31.456  23.119  23.507  1.00  0.00    -0.445 OA
BRANCH  84  85
ATOM     85  C   UNL A   1      31.028  22.396  24.673  1.00  0.00     0.270 C 
BRANCH  85  86
ATOM     86  C   UNL A   1      32.112  22.157  25.709  1.00  0.00    -0.011 A 
ATOM     87  C   UNL A   1      32.349  23.018  26.791  1.00  0.00     0.007 A 
ATOM     88  C   UNL A   1      32.891  20.993  25.614  1.00  0.00     0.007 A 
ATOM     89  C   UNL A   1      33.337  22.738  27.734  1.00  0.00     0.000 A 
ATOM     90  C   UNL A   1      33.874  20.707  26.565  1.00  0.00     0.000 A 
ATOM     91  C   UNL A   1      34.099  21.581  27.623  1.00  0.00     0.000 A 
ENDBRANCH  85  86
ENDBRANCH  84  85
ENDBRANCH  81  84
ENDBRANCH  79  80
BRANCH  79  92
ATOM     92  C   UNL A   1      35.733  23.693  24.039  1.00  0.00     0.015 C 
ATOM     93  C   UNL A   1      36.039  24.057  25.499  1.00  0.00     0.010 C 
ATOM     94  C   UNL A   1      36.069  22.202  23.876  1.00  0.00     0.010 C 
ENDBRANCH  79  92
ENDBRANCH  76  79
ENDBRANCH  74  75
ENDBRANCH  71  74
ENDBRANCH   1  70
TORSDOF 22
ENDMDL
MODEL 2
REMARK VINA RESULT:     -10.6      1.362      2.132
REMARK SMILES CC(C)C[C@H](NC(=O)CNC(=O)[C@@H](NC(=O)OCc1ccccc1)C(C)C)C(=O)OCCOC(=O)c1ccc(-c2c3nc(c(-c4c(F)cccc4F)c4ccc([nH]4)c(-c4c(F)cccc4F)c4nc(c(-c5c(F)cccc5F)c5ccc2[nH]5)C=C4)C=C3)cc1
REMARK SMILES IDX 5 1 4 2 2 3 1 4 3 5 28 6 29 7 30 8 31 9 32 10 33 11 34 12
REMARK SMILES IDX 35 13 36 14 37 15 89 16 38 17 88 18 39 19 40 20 41 21 82 22
REMARK SMILES IDX 42 23 87 24 81 25 83 26 43 27 86 28 80 29 79 30 44 32 70 33
REMARK SMILES IDX 53 34 69 35 54 36 57 37 68 38 84 39 55 40 56 41 67 43 85 44
REMARK SMILES IDX 58 45 45 46 46 47 51 48 47 49 48 50 50 51 52 52 49 53 71 54
REMARK SMILES IDX 72 55 77 56 73 57 74 58 76 59 78 60 75 61 59 62 60 63 65 64
REMARK SMILES IDX 61 65 62 66 64 67 66 68 63 69 6 70 7 71 8 73 9 74 10 75
REMARK SMILES IDX 11 76 12 78 13 79 14 80 15 81 16 83 17 84 18 85 19 86 20 87
REMARK SMILES IDX 24 88 21 89 23 90 22 91 25 92 26 93 27 94
REMARK H PARENT 83 31 57 42 6 72 10 77 14 82
REMARK Flexibility Score: inf
ROOT
ATOM      1  C   UNL A   1      31.985  29.273  25.231  1.00  0.00     0.192 C 
ENDROOT
BRANCH   1   2
ATOM      2  C   UNL A   1      31.431  29.342  23.802  1.00  0.00     0.040 C 
BRANCH   2   3
ATOM      3  C   UNL A   1      30.097  28.647  23.468  1.00  0.00    -0.015 C 
ATOM      4  C   UNL A   1      29.005  29.589  22.949  1.00  0.00     0.007 C 
ATOM      5  C   UNL A   1      30.358  27.574  22.405  1.00  0.00     0.007 C 
ENDBRANCH   2   3
ENDBRANCH   1   2
BRANCH   1   6
ATOM      6  C   UNL A   1      31.595  30.569  25.970  1.00  0.00     0.328 C 
ATOM      7  O   UNL A   1      30.897  31.438  25.455  1.00  0.00    -0.250 OA
BRANCH   6   8
ATOM      8  O   UNL A   1      32.001  30.606  27.268  1.00  0.00    -0.461 OA
BRANCH   8   9
ATOM      9  C   UNL A   1      33.407  30.885  27.428  1.00  0.00     0.274 C 
BRANCH   9  10
ATOM     10  C   UNL A   1      33.744  32.381  27.338  1.00  0.00     0.275 C 
BRANCH  10  11
ATOM     11  O   UNL A   1      32.739  33.245  27.908  1.00  0.00    -0.458 OA
BRANCH  11  12
ATOM     12  C   UNL A   1      33.225  34.294  28.613  1.00  0.00     0.338 C 
ATOM     13  O   UNL A   1      32.700  35.388  28.743  1.00  0.00    -0.246 OA
BRANCH  12  14
ATOM     14  C   UNL A   1      34.446  33.919  29.350  1.00  0.00     0.060 A 
ATOM     15  C   UNL A   1      35.672  34.303  28.811  1.00  0.00     0.016 A 
ATOM     16  C   UNL A   1      34.408  33.074  30.459  1.00  0.00     0.016 A 
ATOM     17  C   UNL A   1      36.865  33.817  29.341  1.00  0.00     0.010 A 
ATOM     18  C   UNL A   1      35.613  32.599  31.005  1.00  0.00     0.010 A 
ATOM     19  C   UNL A   1      36.852  32.947  30.434  1.00  0.00    -0.014 A 
BRANCH  19  20
ATOM     20  C   UNL A   1      38.128  32.349  30.911  1.00  0.00     0.031 A 
ATOM     21  C   UNL A   1      38.701  31.145  30.212  1.00  0.00     0.074 A 
ATOM     22  C   UNL A   1      38.813  32.910  31.925  1.00  0.00     0.049 A 
ATOM     23  N   UNL A   1      39.723  30.396  30.548  1.00  0.00    -0.248 NA
ATOM     24  C   UNL A   1      38.029  30.725  28.974  1.00  0.00     0.031 C 
ATOM     25  C   UNL A   1      38.440  34.142  32.620  1.00  0.00     0.029 A 
ATOM     26  N   UNL A   1      39.986  32.530  32.531  1.00  0.00    -0.354 N 
ATOM     27  C   UNL A   1      39.783  29.389  29.592  1.00  0.00     0.074 A 
ATOM     28  C   UNL A   1      38.697  29.621  28.665  1.00  0.00     0.031 C 
ATOM     29  C   UNL A   1      39.381  34.433  33.532  1.00  0.00     0.029 A 
ATOM     30  C   UNL A   1      40.385  33.372  33.539  1.00  0.00     0.049 A 
ATOM     31  H   UNL A   1      40.492  31.727  32.267  1.00  0.00     0.167 HD
ATOM     32  C   UNL A   1      40.661  28.361  29.503  1.00  0.00     0.037 A 
ATOM     33  C   UNL A   1      41.426  33.288  34.390  1.00  0.00     0.037 A 
ATOM     34  C   UNL A   1      41.778  28.166  30.390  1.00  0.00     0.049 A 
ATOM     35  C   UNL A   1      42.362  32.113  34.299  1.00  0.00     0.074 A 
ATOM     36  C   UNL A   1      42.723  27.154  30.377  1.00  0.00     0.029 A 
ATOM     37  N   UNL A   1      42.108  29.006  31.443  1.00  0.00    -0.354 N 
ATOM     38  N   UNL A   1      42.377  31.131  33.430  1.00  0.00    -0.248 NA
ATOM     39  C   UNL A   1      43.417  32.026  35.319  1.00  0.00     0.031 C 
ATOM     40  C   UNL A   1      43.598  27.356  31.449  1.00  0.00     0.029 A 
ATOM     41  C   UNL A   1      43.231  28.524  32.097  1.00  0.00     0.049 A 
ATOM     42  H   UNL A   1      41.618  29.823  31.689  1.00  0.00     0.167 HD
ATOM     43  C   UNL A   1      43.442  30.316  33.794  1.00  0.00     0.074 A 
ATOM     44  C   UNL A   1      44.070  30.936  34.941  1.00  0.00     0.031 C 
ATOM     45  C   UNL A   1      43.855  29.153  33.234  1.00  0.00     0.037 A 
BRANCH  32  46
ATOM     46  C   UNL A   1      40.420  27.330  28.438  1.00  0.00     0.057 A 
ATOM     47  C   UNL A   1      41.069  27.361  27.199  1.00  0.00     0.134 A 
ATOM     48  C   UNL A   1      39.549  26.260  28.685  1.00  0.00     0.134 A 
ATOM     49  F   UNL A   1      41.909  28.363  26.895  1.00  0.00    -0.206 F 
ATOM     50  C   UNL A   1      40.841  26.377  26.233  1.00  0.00     0.040 A 
ATOM     51  C   UNL A   1      39.334  25.256  27.739  1.00  0.00     0.040 A 
ATOM     52  F   UNL A   1      38.901  26.164  29.857  1.00  0.00    -0.206 F 
ATOM     53  C   UNL A   1      39.978  25.317  26.506  1.00  0.00     0.006 A 
ENDBRANCH  32  46
BRANCH  33  54
ATOM     54  C   UNL A   1      41.619  34.328  35.433  1.00  0.00     0.057 A 
ATOM     55  C   UNL A   1      42.438  35.441  35.209  1.00  0.00     0.134 A 
ATOM     56  C   UNL A   1      41.005  34.224  36.688  1.00  0.00     0.134 A 
ATOM     57  F   UNL A   1      43.076  35.584  34.037  1.00  0.00    -0.206 F 
ATOM     58  C   UNL A   1      42.648  36.406  36.195  1.00  0.00     0.040 A 
ATOM     59  C   UNL A   1      41.180  35.198  37.672  1.00  0.00     0.040 A 
ATOM     60  F   UNL A   1      40.213  33.181  36.971  1.00  0.00    -0.206 F 
ATOM     61  C   UNL A   1      42.010  36.289  37.429  1.00  0.00     0.006 A 
ENDBRANCH  33  54
BRANCH  45  62
ATOM     62  C   UNL A   1      45.061  28.487  33.833  1.00  0.00     0.057 A 
ATOM     63  C   UNL A   1      46.363  28.817  33.437  1.00  0.00     0.134 A 
ATOM     64  C   UNL A   1      44.918  27.532  34.848  1.00  0.00     0.134 A 
ATOM     65  F   UNL A   1      46.570  29.714  32.461  1.00  0.00    -0.206 F 
ATOM     66  C   UNL A   1      47.479  28.205  34.010  1.00  0.00     0.040 A 
ATOM     67  C   UNL A   1      46.027  26.934  35.450  1.00  0.00     0.040 A 
ATOM     68  F   UNL A   1      43.700  27.178  35.284  1.00  0.00    -0.206 F 
ATOM     69  C   UNL A   1      47.311  27.265  35.026  1.00  0.00     0.006 A 
ENDBRANCH  45  62
ENDBRANCH  19  20
ENDBRANCH  12  14
ENDBRANCH  11  12
ENDBRANCH  10  11
ENDBRANCH   9  10
ENDBRANCH   8   9
ENDBRANCH   6   8
ENDBRANCH   1   6
BRANCH   1  70
ATOM     70  N   UNL A   1      31.548  28.053  25.930  1.00  0.00    -0.341 N 
ATOM     71  C   UNL A   1      32.199  26.946  26.381  1.00  0.00     0.240 C 
ATOM     72  H   UNL A   1      30.580  28.034  26.109  1.00  0.00     0.164 HD
ATOM     73  O   UNL A   1      31.579  26.242  27.190  1.00  0.00    -0.273 OA
BRANCH  71  74
ATOM     74  C   UNL A   1      33.666  26.582  26.062  1.00  0.00     0.216 C 
BRANCH  74  75
ATOM     75  N   UNL A   1      33.980  26.059  24.745  1.00  0.00    -0.345 N 
ATOM     76  C   UNL A   1      33.660  24.933  24.060  1.00  0.00     0.243 C 
ATOM     77  H   UNL A   1      34.562  26.663  24.229  1.00  0.00     0.164 HD
ATOM     78  O   UNL A   1      34.038  24.919  22.879  1.00  0.00    -0.273 OA
BRANCH  76  79
ATOM     79  C   UNL A   1      32.890  23.702  24.627  1.00  0.00     0.177 C 
BRANCH  79  80
ATOM     80  N   UNL A   1      33.564  23.046  25.747  1.00  0.00    -0.309 N 
ATOM     81  C   UNL A   1      33.862  21.747  26.008  1.00  0.00     0.408 C 
ATOM     82  H   UNL A   1      33.860  23.668  26.451  1.00  0.00     0.167 HD
ATOM     83  O   UNL A   1      34.170  21.416  27.146  1.00  0.00    -0.225 OA
BRANCH  81  84
ATOM     84  O   UNL A   1      33.810  20.924  24.945  1.00  0.00    -0.445 OA
BRANCH  84  85
ATOM     85  C   UNL A   1      32.705  20.004  24.944  1.00  0.00     0.270 C 
BRANCH  85  86
ATOM     86  C   UNL A   1      33.096  18.538  24.912  1.00  0.00    -0.011 A 
ATOM     87  C   UNL A   1      32.533  17.570  25.757  1.00  0.00     0.007 A 
ATOM     88  C   UNL A   1      34.034  18.111  23.958  1.00  0.00     0.007 A 
ATOM     89  C   UNL A   1      32.904  16.228  25.667  1.00  0.00     0.000 A 
ATOM     90  C   UNL A   1      34.398  16.765  23.860  1.00  0.00     0.000 A 
ATOM     91  C   UNL A   1      33.835  15.825  24.717  1.00  0.00     0.000 A 
ENDBRANCH  85  86
ENDBRANCH  84  85
ENDBRANCH  81  84
ENDBRANCH  79  80
BRANCH  79  92
ATOM     92  C   UNL A   1      31.364  23.920  24.755  1.00  0.00     0.015 C 
ATOM     93  C   UNL A   1      30.638  23.785  23.409  1.00  0.00     0.010 C 
ATOM     94  C   UNL A   1      30.726  22.895  25.706  1.00  0.00     0.010 C 
ENDBRANCH  79  92
ENDBRANCH  76  79
ENDBRANCH  74  75
ENDBRANCH  71  74
ENDBRANCH   1  70
TORSDOF 22
ENDMDL
MODEL 3
REMARK VINA RESULT:     -10.0      0.999      2.207
REMARK SMILES CC(C)C[C@H](NC(=O)CNC(=O)[C@@H](NC(=O)OCc1ccccc1)C(C)C)C(=O)OCCOC(=O)c1ccc(-c2c3nc(c(-c4c(F)cccc4F)c4ccc([nH]4)c(-c4c(F)cccc4F)c4nc(c(-c5c(F)cccc5F)c5ccc2[nH]5)C=C4)C=C3)cc1
REMARK SMILES IDX 5 1 4 2 2 3 1 4 3 5 28 6 29 7 30 8 31 9 32 10 33 11 34 12
REMARK SMILES IDX 35 13 36 14 37 15 89 16 38 17 88 18 39 19 40 20 41 21 82 22
REMARK SMILES IDX 42 23 87 24 81 25 83 26 43 27 86 28 80 29 79 30 44 32 70 33
REMARK SMILES IDX 53 34 69 35 54 36 57 37 68 38 84 39 55 40 56 41 67 43 85 44
REMARK SMILES IDX 58 45 45 46 46 47 51 48 47 49 48 50 50 51 52 52 49 53 71 54
REMARK SMILES IDX 72 55 77 56 73 57 74 58 76 59 78 60 75 61 59 62 60 63 65 64
REMARK SMILES IDX 61 65 62 66 64 67 66 68 63 69 6 70 7 71 8 73 9 74 10 75
REMARK SMILES IDX 11 76 12 78 13 79 14 80 15 81 16 83 17 84 18 85 19 86 20 87
REMARK SMILES IDX 24 88 21 89 23 90 22 91 25 92 26 93 27 94
REMARK H PARENT 83 31 57 42 6 72 10 77 14 82
REMARK Flexibility Score: inf
ROOT
ATOM      1  C   UNL A   1      31.529  29.809  25.116  1.00  0.00     0.192 C 
ENDROOT
BRANCH   1   2
ATOM      2  C   UNL A   1      30.801  30.026  23.784  1.00  0.00     0.040 C 
BRANCH   2   3
ATOM      3  C   UNL A   1      29.275  29.824  23.708  1.00  0.00    -0.015 C 
ATOM      4  C   UNL A   1      28.474  31.116  23.517  1.00  0.00     0.007 C 
ATOM      5  C   UNL A   1      28.964  28.881  22.540  1.00  0.00     0.007 C 
ENDBRANCH   2   3
ENDBRANCH   1   2
BRANCH   1   6
ATOM      6  C   UNL A   1      31.355  31.073  25.981  1.00  0.00     0.328 C 
ATOM      7  O   UNL A   1      30.726  32.055  25.595  1.00  0.00    -0.250 OA
BRANCH   6   8
ATOM      8  O   UNL A   1      31.863  30.956  27.237  1.00  0.00    -0.461 OA
BRANCH   8   9
ATOM      9  C   UNL A   1      33.304  30.941  27.281  1.00  0.00     0.274 C 
BRANCH   9  10
ATOM     10  C   UNL A   1      33.913  32.276  27.734  1.00  0.00     0.275 C 
BRANCH  10  11
ATOM     11  O   UNL A   1      32.940  33.315  27.968  1.00  0.00    -0.458 OA
BRANCH  11  12
ATOM     12  C   UNL A   1      33.367  34.324  28.763  1.00  0.00     0.338 C 
ATOM     13  O   UNL A   1      32.764  35.355  29.016  1.00  0.00    -0.246 OA
BRANCH  12  14
ATOM     14  C   UNL A   1      34.636  33.976  29.429  1.00  0.00     0.060 A 
ATOM     15  C   UNL A   1      35.821  34.258  28.752  1.00  0.00     0.016 A 
ATOM     16  C   UNL A   1      34.670  33.246  30.617  1.00  0.00     0.016 A 
ATOM     17  C   UNL A   1      37.040  33.779  29.226  1.00  0.00     0.010 A 
ATOM     18  C   UNL A   1      35.903  32.780  31.104  1.00  0.00     0.010 A 
ATOM     19  C   UNL A   1      37.097  33.022  30.399  1.00  0.00    -0.014 A 
BRANCH  19  20
ATOM     20  C   UNL A   1      38.391  32.423  30.825  1.00  0.00     0.031 A 
ATOM     21  C   UNL A   1      38.914  31.193  30.133  1.00  0.00     0.074 A 
ATOM     22  C   UNL A   1      39.136  33.008  31.782  1.00  0.00     0.049 A 
ATOM     23  N   UNL A   1      39.945  30.443  30.437  1.00  0.00    -0.248 NA
ATOM     24  C   UNL A   1      38.171  30.743  28.946  1.00  0.00     0.031 C 
ATOM     25  C   UNL A   1      38.813  34.265  32.458  1.00  0.00     0.029 A 
ATOM     26  N   UNL A   1      40.336  32.633  32.335  1.00  0.00    -0.354 N 
ATOM     27  C   UNL A   1      39.943  29.407  29.510  1.00  0.00     0.074 A 
ATOM     28  C   UNL A   1      38.810  29.623  28.636  1.00  0.00     0.031 C 
ATOM     29  C   UNL A   1      39.805  34.572  33.308  1.00  0.00     0.029 A 
ATOM     30  C   UNL A   1      40.798  33.501  33.294  1.00  0.00     0.049 A 
ATOM     31  H   UNL A   1      40.819  31.817  32.069  1.00  0.00     0.167 HD
ATOM     32  C   UNL A   1      40.805  28.366  29.405  1.00  0.00     0.037 A 
ATOM     33  C   UNL A   1      41.882  33.431  34.089  1.00  0.00     0.037 A 
ATOM     34  C   UNL A   1      41.966  28.185  30.237  1.00  0.00     0.049 A 
ATOM     35  C   UNL A   1      42.800  32.242  33.984  1.00  0.00     0.074 A 
ATOM     36  C   UNL A   1      42.899  27.163  30.204  1.00  0.00     0.029 A 
ATOM     37  N   UNL A   1      42.361  29.053  31.244  1.00  0.00    -0.354 N 
ATOM     38  N   UNL A   1      42.758  31.234  33.147  1.00  0.00    -0.248 NA
ATOM     39  C   UNL A   1      43.909  32.174  34.948  1.00  0.00     0.031 C 
ATOM     40  C   UNL A   1      43.833  27.387  31.221  1.00  0.00     0.029 A 
ATOM     41  C   UNL A   1      43.513  28.579  31.851  1.00  0.00     0.049 A 
ATOM     42  H   UNL A   1      41.893  29.883  31.490  1.00  0.00     0.167 HD
ATOM     43  C   UNL A   1      43.833  30.419  33.478  1.00  0.00     0.074 A 
ATOM     44  C   UNL A   1      44.530  31.066  34.569  1.00  0.00     0.031 C 
ATOM     45  C   UNL A   1      44.204  29.235  32.932  1.00  0.00     0.037 A 
BRANCH  32  46
ATOM     46  C   UNL A   1      40.496  27.306  28.388  1.00  0.00     0.057 A 
ATOM     47  C   UNL A   1      41.067  27.300  27.111  1.00  0.00     0.134 A 
ATOM     48  C   UNL A   1      39.639  26.247  28.719  1.00  0.00     0.134 A 
ATOM     49  F   UNL A   1      41.888  28.289  26.727  1.00  0.00    -0.206 F 
ATOM     50  C   UNL A   1      40.778  26.289  26.190  1.00  0.00     0.040 A 
ATOM     51  C   UNL A   1      39.365  25.217  27.818  1.00  0.00     0.040 A 
ATOM     52  F   UNL A   1      39.066  26.187  29.931  1.00  0.00    -0.206 F 
ATOM     53  C   UNL A   1      39.931  25.240  26.546  1.00  0.00     0.006 A 
ENDBRANCH  32  46
BRANCH  33  54
ATOM     54  C   UNL A   1      42.142  34.499  35.088  1.00  0.00     0.057 A 
ATOM     55  C   UNL A   1      42.959  35.595  34.786  1.00  0.00     0.134 A 
ATOM     56  C   UNL A   1      41.595  34.442  36.377  1.00  0.00     0.134 A 
ATOM     57  F   UNL A   1      43.536  35.694  33.578  1.00  0.00    -0.206 F 
ATOM     58  C   UNL A   1      43.232  36.587  35.729  1.00  0.00     0.040 A 
ATOM     59  C   UNL A   1      41.833  35.443  37.319  1.00  0.00     0.040 A 
ATOM     60  F   UNL A   1      40.807  33.417  36.734  1.00  0.00    -0.206 F 
ATOM     61  C   UNL A   1      42.660  36.516  36.998  1.00  0.00     0.006 A 
ENDBRANCH  33  54
BRANCH  45  62
ATOM     62  C   UNL A   1      45.434  28.573  33.486  1.00  0.00     0.057 A 
ATOM     63  C   UNL A   1      45.369  27.652  34.539  1.00  0.00     0.134 A 
ATOM     64  C   UNL A   1      46.694  28.831  32.932  1.00  0.00     0.134 A 
ATOM     65  F   UNL A   1      44.195  27.368  35.123  1.00  0.00    -0.206 F 
ATOM     66  C   UNL A   1      46.515  27.030  35.037  1.00  0.00     0.040 A 
ATOM     67  C   UNL A   1      47.844  28.194  33.403  1.00  0.00     0.040 A 
ATOM     68  F   UNL A   1      46.827  29.695  31.914  1.00  0.00    -0.206 F 
ATOM     69  C   UNL A   1      47.757  27.295  34.462  1.00  0.00     0.006 A 
ENDBRANCH  45  62
ENDBRANCH  19  20
ENDBRANCH  12  14
ENDBRANCH  11  12
ENDBRANCH  10  11
ENDBRANCH   9  10
ENDBRANCH   8   9
ENDBRANCH   6   8
ENDBRANCH   1   6
BRANCH   1  70
ATOM     70  N   UNL A   1      31.083  28.579  25.791  1.00  0.00    -0.341 N 
ATOM     71  C   UNL A   1      31.736  27.561  26.414  1.00  0.00     0.240 C 
ATOM     72  H   UNL A   1      30.105  28.469  25.791  1.00  0.00     0.164 HD
ATOM     73  O   UNL A   1      31.043  26.829  27.134  1.00  0.00    -0.273 OA
BRANCH  71  74
ATOM     74  C   UNL A   1      33.264  27.334  26.389  1.00  0.00     0.216 C 
BRANCH  74  75
ATOM     75  N   UNL A   1      33.858  26.739  25.206  1.00  0.00    -0.345 N 
ATOM     76  C   UNL A   1      33.570  25.668  24.424  1.00  0.00     0.243 C 
ATOM     77  H   UNL A   1      34.658  27.225  24.901  1.00  0.00     0.164 HD
ATOM     78  O   UNL A   1      34.268  25.567  23.405  1.00  0.00    -0.273 OA
BRANCH  76  79
ATOM     79  C   UNL A   1      32.473  24.597  24.706  1.00  0.00     0.177 C 
BRANCH  79  80
ATOM     80  N   UNL A   1      32.439  24.134  26.093  1.00  0.00    -0.309 N 
ATOM     81  C   UNL A   1      32.257  22.909  26.650  1.00  0.00     0.408 C 
ATOM     82  H   UNL A   1      32.575  24.852  26.754  1.00  0.00     0.167 HD
ATOM     83  O   UNL A   1      31.979  22.823  27.839  1.00  0.00    -0.225 OA
BRANCH  81  84
ATOM     84  O   UNL A   1      32.428  21.869  25.814  1.00  0.00    -0.445 OA
BRANCH  84  85
ATOM     85  C   UNL A   1      33.683  21.182  25.950  1.00  0.00     0.270 C 
BRANCH  85  86
ATOM     86  C   UNL A   1      34.885  21.937  25.412  1.00  0.00    -0.011 A 
ATOM     87  C   UNL A   1      35.908  22.442  26.229  1.00  0.00     0.007 A 
ATOM     88  C   UNL A   1      35.012  22.102  24.023  1.00  0.00     0.007 A 
ATOM     89  C   UNL A   1      37.009  23.103  25.683  1.00  0.00     0.000 A 
ATOM     90  C   UNL A   1      36.120  22.755  23.476  1.00  0.00     0.000 A 
ATOM     91  C   UNL A   1      37.116  23.257  24.307  1.00  0.00     0.000 A 
ENDBRANCH  85  86
ENDBRANCH  84  85
ENDBRANCH  81  84
ENDBRANCH  79  80
BRANCH  79  92
ATOM     92  C   UNL A   1      31.114  24.895  24.031  1.00  0.00     0.015 C 
ATOM     93  C   UNL A   1      31.213  26.015  22.984  1.00  0.00     0.010 C 
ATOM     94  C   UNL A   1      30.563  23.658  23.304  1.00  0.00     0.010 C 
ENDBRANCH  79  92
ENDBRANCH  76  79
ENDBRANCH  74  75
ENDBRANCH  71  74
ENDBRANCH   1  70
TORSDOF 22
ENDMDL
