MODEL 1
REMARK VINA RESULT:     -10.6      0.000      0.000
REMARK SMILES CC[C@@H](Nc1ccc([N+](=O)[O-])c(N)n1)C(=O)OCCOC(=O)c1ccc(-c2c3nc(c(-c4c(F)cccc4F)c4ccc([nH]4)c(-c4c(F)cccc4F)c4nc(c(-c5c(F)cccc5F)c5ccc2[nH]5)C=C4)C=C3)cc1
REMARK SMILES IDX 18 1 17 2 15 3 16 4 3 5 2 6 1 7 4 8 5 10 6 11 14 12 7 13
REMARK SMILES IDX 12 14 8 15 13 16 9 19 10 20 11 21 19 22 20 23 21 24 22 25
REMARK SMILES IDX 23 26 24 27 76 28 25 29 75 30 26 31 27 32 28 33 69 34 29 35
REMARK SMILES IDX 74 36 68 37 70 38 30 39 73 40 67 41 66 42 31 44 57 45 40 46
REMARK SMILES IDX 56 47 41 48 44 49 55 50 71 51 42 52 43 53 54 55 72 56 45 57
REMARK SMILES IDX 32 58 33 59 38 60 34 61 35 62 37 63 39 64 36 65 58 66 59 67
REMARK SMILES IDX 64 68 60 69 61 70 63 71 65 72 62 73 46 74 47 75 52 76 48 77
REMARK SMILES IDX 49 78 51 79 53 80 50 81
REMARK H PARENT 4 9 13 17 13 18 70 43 44 54
REMARK Flexibility Score: inf
ROOT
ATOM      1  C   UNL A   1      35.564  21.868  25.993  1.00  0.00     0.274 C 
ENDROOT
BRANCH   1   2
ATOM      2  O   UNL A   1      34.916  22.705  25.013  1.00  0.00    -0.461 OA
BRANCH   2   3
ATOM      3  C   UNL A   1      33.849  23.407  25.481  1.00  0.00     0.328 C 
ATOM      4  O   UNL A   1      33.874  24.621  25.672  1.00  0.00    -0.250 OA
BRANCH   3   5
ATOM      5  C   UNL A   1      32.592  22.549  25.750  1.00  0.00     0.191 C 
BRANCH   5   6
ATOM      6  C   UNL A   1      31.381  23.408  26.154  1.00  0.00     0.033 C 
ATOM      7  C   UNL A   1      30.229  22.577  26.704  1.00  0.00     0.007 C 
ENDBRANCH   5   6
BRANCH   5   8
ATOM      8  N   UNL A   1      32.241  21.668  24.635  1.00  0.00    -0.357 N 
ATOM      9  H   UNL A   1      31.835  22.096  23.845  1.00  0.00     0.162 HD
BRANCH   8  10
ATOM     10  C   UNL A   1      32.416  20.314  24.575  1.00  0.00     0.129 A 
ATOM     11  C   UNL A   1      32.881  19.534  25.624  1.00  0.00     0.054 A 
ATOM     12  N   UNL A   1      32.150  19.770  23.368  1.00  0.00    -0.208 NA
ATOM     13  C   UNL A   1      33.277  18.224  25.380  1.00  0.00     0.093 A 
ATOM     14  C   UNL A   1      32.450  18.472  23.138  1.00  0.00     0.204 A 
ATOM     15  C   UNL A   1      33.084  17.705  24.104  1.00  0.00     0.311 A 
BRANCH  14  16
ATOM     16  N   UNL A   1      32.152  18.038  21.861  1.00  0.00    -0.378 N 
ATOM     17  H   UNL A   1      32.564  18.479  21.084  1.00  0.00     0.158 HD
ATOM     18  H   UNL A   1      31.527  17.288  21.730  1.00  0.00     0.158 HD
ENDBRANCH  14  16
BRANCH  15  19
ATOM     19  N   UNL A   1      33.567  16.374  23.807  1.00  0.00     0.066 N 
ATOM     20  O   UNL A   1      34.194  16.204  22.751  1.00  0.00    -0.258 OA
ATOM     21  O   UNL A   1      33.291  15.479  24.620  1.00  0.00    -0.258 OA
ENDBRANCH  15  19
ENDBRANCH   8  10
ENDBRANCH   5   8
ENDBRANCH   3   5
ENDBRANCH   2   3
ENDBRANCH   1   2
BRANCH   1  22
ATOM     22  C   UNL A   1      36.457  20.778  25.376  1.00  0.00     0.275 C 
BRANCH  22  23
ATOM     23  O   UNL A   1      37.743  21.266  24.943  1.00  0.00    -0.458 OA
BRANCH  23  24
ATOM     24  C   UNL A   1      38.781  20.938  25.752  1.00  0.00     0.338 C 
ATOM     25  O   UNL A   1      39.274  19.831  25.892  1.00  0.00    -0.246 OA
BRANCH  24  26
ATOM     26  C   UNL A   1      39.392  22.141  26.349  1.00  0.00     0.060 A 
ATOM     27  C   UNL A   1      38.916  23.382  25.912  1.00  0.00     0.016 A 
ATOM     28  C   UNL A   1      40.472  22.075  27.229  1.00  0.00     0.016 A 
ATOM     29  C   UNL A   1      39.508  24.563  26.349  1.00  0.00     0.010 A 
ATOM     30  C   UNL A   1      41.085  23.263  27.653  1.00  0.00     0.010 A 
ATOM     31  C   UNL A   1      40.613  24.511  27.204  1.00  0.00    -0.014 A 
BRANCH  31  32
ATOM     32  C   UNL A   1      41.322  25.770  27.536  1.00  0.00     0.031 A 
ATOM     33  C   UNL A   1      40.625  26.817  28.356  1.00  0.00     0.074 A 
ATOM     34  C   UNL A   1      42.602  25.947  27.163  1.00  0.00     0.049 A 
ATOM     35  N   UNL A   1      41.040  28.007  28.706  1.00  0.00    -0.248 NA
ATOM     36  C   UNL A   1      39.285  26.474  28.855  1.00  0.00     0.031 C 
ATOM     37  C   UNL A   1      43.412  24.971  26.435  1.00  0.00     0.029 A 
ATOM     38  N   UNL A   1      43.446  27.011  27.353  1.00  0.00    -0.354 N 
ATOM     39  C   UNL A   1      40.005  28.565  29.446  1.00  0.00     0.074 A 
ATOM     40  C   UNL A   1      38.941  27.585  29.491  1.00  0.00     0.031 C 
ATOM     41  C   UNL A   1      44.637  25.485  26.235  1.00  0.00     0.029 A 
ATOM     42  C   UNL A   1      44.683  26.839  26.782  1.00  0.00     0.049 A 
ATOM     43  H   UNL A   1      43.190  27.821  27.851  1.00  0.00     0.167 HD
ATOM     44  C   UNL A   1      39.949  29.785  30.032  1.00  0.00     0.037 A 
ATOM     45  C   UNL A   1      45.723  27.691  26.686  1.00  0.00     0.037 A 
ATOM     46  C   UNL A   1      41.015  30.751  30.001  1.00  0.00     0.049 A 
ATOM     47  C   UNL A   1      45.606  29.068  27.278  1.00  0.00     0.074 A 
ATOM     48  C   UNL A   1      41.054  32.013  30.568  1.00  0.00     0.029 A 
ATOM     49  N   UNL A   1      42.233  30.561  29.366  1.00  0.00    -0.354 N 
ATOM     50  N   UNL A   1      44.614  29.596  27.954  1.00  0.00    -0.248 NA
ATOM     51  C   UNL A   1      46.748  29.973  27.083  1.00  0.00     0.031 C 
ATOM     52  C   UNL A   1      42.281  32.602  30.244  1.00  0.00     0.029 A 
ATOM     53  C   UNL A   1      43.022  31.690  29.509  1.00  0.00     0.049 A 
ATOM     54  H   UNL A   1      42.498  29.744  28.884  1.00  0.00     0.167 HD
ATOM     55  C   UNL A   1      45.020  30.883  28.283  1.00  0.00     0.074 A 
ATOM     56  C   UNL A   1      46.353  31.053  27.742  1.00  0.00     0.031 C 
ATOM     57  C   UNL A   1      44.349  31.839  28.970  1.00  0.00     0.037 A 
BRANCH  44  58
ATOM     58  C   UNL A   1      38.674  30.156  30.726  1.00  0.00     0.057 A 
ATOM     59  C   UNL A   1      38.437  29.835  32.068  1.00  0.00     0.134 A 
ATOM     60  C   UNL A   1      37.680  30.871  30.045  1.00  0.00     0.134 A 
ATOM     61  F   UNL A   1      39.343  29.137  32.770  1.00  0.00    -0.206 F 
ATOM     62  C   UNL A   1      37.248  30.197  32.704  1.00  0.00     0.040 A 
ATOM     63  C   UNL A   1      36.497  31.257  30.676  1.00  0.00     0.040 A 
ATOM     64  F   UNL A   1      37.848  31.211  28.758  1.00  0.00    -0.206 F 
ATOM     65  C   UNL A   1      36.276  30.915  32.008  1.00  0.00     0.006 A 
ENDBRANCH  44  58
BRANCH  45  66
ATOM     66  C   UNL A   1      46.954  27.281  25.968  1.00  0.00     0.057 A 
ATOM     67  C   UNL A   1      47.080  27.452  24.585  1.00  0.00     0.134 A 
ATOM     68  C   UNL A   1      48.027  26.689  26.646  1.00  0.00     0.134 A 
ATOM     69  F   UNL A   1      46.076  27.991  23.878  1.00  0.00    -0.206 F 
ATOM     70  C   UNL A   1      48.223  27.040  23.899  1.00  0.00     0.040 A 
ATOM     71  C   UNL A   1      49.186  26.292  25.976  1.00  0.00     0.040 A 
ATOM     72  F   UNL A   1      47.966  26.493  27.971  1.00  0.00    -0.206 F 
ATOM     73  C   UNL A   1      49.284  26.462  24.597  1.00  0.00     0.006 A 
ENDBRANCH  45  66
BRANCH  57  74
ATOM     74  C   UNL A   1      45.056  33.141  29.201  1.00  0.00     0.057 A 
ATOM     75  C   UNL A   1      45.894  33.338  30.305  1.00  0.00     0.134 A 
ATOM     76  C   UNL A   1      44.925  34.195  28.289  1.00  0.00     0.134 A 
ATOM     77  F   UNL A   1      46.050  32.371  31.222  1.00  0.00    -0.206 F 
ATOM     78  C   UNL A   1      46.563  34.547  30.503  1.00  0.00     0.040 A 
ATOM     79  C   UNL A   1      45.606  35.400  28.465  1.00  0.00     0.040 A 
ATOM     80  F   UNL A   1      44.142  34.066  27.206  1.00  0.00    -0.206 F 
ATOM     81  C   UNL A   1      46.425  35.580  29.577  1.00  0.00     0.006 A 
ENDBRANCH  57  74
ENDBRANCH  31  32
ENDBRANCH  24  26
ENDBRANCH  23  24
ENDBRANCH  22  23
ENDBRANCH   1  22
TORSDOF 16
ENDMDL
MODEL 2
REMARK VINA RESULT:     -10.5      4.128      8.715
REMARK SMILES CC[C@@H](Nc1ccc([N+](=O)[O-])c(N)n1)C(=O)OCCOC(=O)c1ccc(-c2c3nc(c(-c4c(F)cccc4F)c4ccc([nH]4)c(-c4c(F)cccc4F)c4nc(c(-c5c(F)cccc5F)c5ccc2[nH]5)C=C4)C=C3)cc1
REMARK SMILES IDX 18 1 17 2 15 3 16 4 3 5 2 6 1 7 4 8 5 10 6 11 14 12 7 13
REMARK SMILES IDX 12 14 8 15 13 16 9 19 10 20 11 21 19 22 20 23 21 24 22 25
REMARK SMILES IDX 23 26 24 27 76 28 25 29 75 30 26 31 27 32 28 33 69 34 29 35
REMARK SMILES IDX 74 36 68 37 70 38 30 39 73 40 67 41 66 42 31 44 57 45 40 46
REMARK SMILES IDX 56 47 41 48 44 49 55 50 71 51 42 52 43 53 54 55 72 56 45 57
REMARK SMILES IDX 32 58 33 59 38 60 34 61 35 62 37 63 39 64 36 65 58 66 59 67
REMARK SMILES IDX 64 68 60 69 61 70 63 71 65 72 62 73 46 74 47 75 52 76 48 77
REMARK SMILES IDX 49 78 51 79 53 80 50 81
REMARK H PARENT 4 9 13 17 13 18 70 43 44 54
REMARK Flexibility Score: inf
ROOT
ATOM      1  C   UNL A   1      34.259  33.675  30.099  1.00  0.00     0.274 C 
ENDROOT
BRANCH   1   2
ATOM      2  O   UNL A   1      34.223  32.369  29.488  1.00  0.00    -0.461 OA
BRANCH   2   3
ATOM      3  C   UNL A   1      34.601  32.342  28.181  1.00  0.00     0.328 C 
ATOM      4  O   UNL A   1      35.191  33.270  27.633  1.00  0.00    -0.250 OA
BRANCH   3   5
ATOM      5  C   UNL A   1      34.231  31.038  27.439  1.00  0.00     0.191 C 
BRANCH   5   6
ATOM      6  C   UNL A   1      35.019  29.827  27.969  1.00  0.00     0.033 C 
ATOM      7  C   UNL A   1      36.452  29.788  27.455  1.00  0.00     0.007 C 
ENDBRANCH   5   6
BRANCH   5   8
ATOM      8  N   UNL A   1      32.796  30.753  27.445  1.00  0.00    -0.357 N 
ATOM      9  H   UNL A   1      32.228  31.356  27.980  1.00  0.00     0.162 HD
BRANCH   8  10
ATOM     10  C   UNL A   1      32.159  29.737  26.787  1.00  0.00     0.129 A 
ATOM     11  C   UNL A   1      31.799  28.529  27.367  1.00  0.00     0.054 A 
ATOM     12  N   UNL A   1      31.945  29.971  25.475  1.00  0.00    -0.208 NA
ATOM     13  C   UNL A   1      31.406  27.471  26.556  1.00  0.00     0.093 A 
ATOM     14  C   UNL A   1      31.482  28.977  24.685  1.00  0.00     0.204 A 
ATOM     15  C   UNL A   1      31.280  27.700  25.189  1.00  0.00     0.311 A 
BRANCH  14  16
ATOM     16  N   UNL A   1      31.324  29.331  23.359  1.00  0.00    -0.378 N 
ATOM     17  H   UNL A   1      31.762  28.803  22.654  1.00  0.00     0.158 HD
ATOM     18  H   UNL A   1      30.774  30.112  23.122  1.00  0.00     0.158 HD
ENDBRANCH  14  16
BRANCH  15  19
ATOM     19  N   UNL A   1      30.956  26.592  24.319  1.00  0.00     0.066 N 
ATOM     20  O   UNL A   1      31.760  26.303  23.419  1.00  0.00    -0.258 OA
ATOM     21  O   UNL A   1      29.872  26.020  24.512  1.00  0.00    -0.258 OA
ENDBRANCH  15  19
ENDBRANCH   8  10
ENDBRANCH   5   8
ENDBRANCH   3   5
ENDBRANCH   2   3
ENDBRANCH   1   2
BRANCH   1  22
ATOM     22  C   UNL A   1      34.455  33.635  31.624  1.00  0.00     0.275 C 
BRANCH  22  23
ATOM     23  O   UNL A   1      34.907  32.354  32.112  1.00  0.00    -0.458 OA
BRANCH  23  24
ATOM     24  C   UNL A   1      36.120  32.367  32.716  1.00  0.00     0.338 C 
ATOM     25  O   UNL A   1      36.366  32.752  33.847  1.00  0.00    -0.246 OA
BRANCH  24  26
ATOM     26  C   UNL A   1      37.134  31.683  31.891  1.00  0.00     0.060 A 
ATOM     27  C   UNL A   1      38.029  30.835  32.554  1.00  0.00     0.016 A 
ATOM     28  C   UNL A   1      37.286  31.935  30.528  1.00  0.00     0.016 A 
ATOM     29  C   UNL A   1      39.077  30.233  31.866  1.00  0.00     0.010 A 
ATOM     30  C   UNL A   1      38.355  31.346  29.838  1.00  0.00     0.010 A 
ATOM     31  C   UNL A   1      39.263  30.503  30.507  1.00  0.00    -0.014 A 
BRANCH  31  32
ATOM     32  C   UNL A   1      40.469  29.974  29.828  1.00  0.00     0.031 A 
ATOM     33  C   UNL A   1      41.664  30.865  29.641  1.00  0.00     0.074 A 
ATOM     34  C   UNL A   1      40.520  28.687  29.440  1.00  0.00     0.049 A 
ATOM     35  N   UNL A   1      42.791  30.620  29.024  1.00  0.00    -0.248 NA
ATOM     36  C   UNL A   1      41.580  32.207  30.236  1.00  0.00     0.031 C 
ATOM     37  C   UNL A   1      39.457  27.703  29.638  1.00  0.00     0.029 A 
ATOM     38  N   UNL A   1      41.513  27.987  28.803  1.00  0.00    -0.354 N 
ATOM     39  C   UNL A   1      43.542  31.783  29.135  1.00  0.00     0.074 A 
ATOM     40  C   UNL A   1      42.741  32.736  29.875  1.00  0.00     0.031 C 
ATOM     41  C   UNL A   1      39.854  26.525  29.128  1.00  0.00     0.029 A 
ATOM     42  C   UNL A   1      41.178  26.684  28.530  1.00  0.00     0.049 A 
ATOM     43  H   UNL A   1      42.383  28.381  28.564  1.00  0.00     0.167 HD
ATOM     44  C   UNL A   1      44.786  32.033  28.661  1.00  0.00     0.037 A 
ATOM     45  C   UNL A   1      41.850  25.738  27.847  1.00  0.00     0.037 A 
ATOM     46  C   UNL A   1      45.587  31.080  27.941  1.00  0.00     0.049 A 
ATOM     47  C   UNL A   1      43.197  26.065  27.264  1.00  0.00     0.074 A 
ATOM     48  C   UNL A   1      46.861  31.239  27.423  1.00  0.00     0.029 A 
ATOM     49  N   UNL A   1      45.191  29.786  27.637  1.00  0.00    -0.354 N 
ATOM     50  N   UNL A   1      43.889  27.176  27.352  1.00  0.00    -0.248 NA
ATOM     51  C   UNL A   1      43.852  25.012  26.474  1.00  0.00     0.031 C 
ATOM     52  C   UNL A   1      47.220  30.054  26.772  1.00  0.00     0.029 A 
ATOM     53  C   UNL A   1      46.186  29.143  26.920  1.00  0.00     0.049 A 
ATOM     54  H   UNL A   1      44.329  29.384  27.892  1.00  0.00     0.167 HD
ATOM     55  C   UNL A   1      45.066  26.948  26.650  1.00  0.00     0.074 A 
ATOM     56  C   UNL A   1      45.000  25.590  26.152  1.00  0.00     0.031 C 
ATOM     57  C   UNL A   1      46.107  27.789  26.437  1.00  0.00     0.037 A 
BRANCH  44  58
ATOM     58  C   UNL A   1      45.340  33.409  28.875  1.00  0.00     0.057 A 
ATOM     59  C   UNL A   1      46.144  33.723  29.977  1.00  0.00     0.134 A 
ATOM     60  C   UNL A   1      45.084  34.427  27.948  1.00  0.00     0.134 A 
ATOM     61  F   UNL A   1      46.412  32.797  30.910  1.00  0.00    -0.206 F 
ATOM     62  C   UNL A   1      46.662  35.007  30.158  1.00  0.00     0.040 A 
ATOM     63  C   UNL A   1      45.613  35.708  28.106  1.00  0.00     0.040 A 
ATOM     64  F   UNL A   1      44.321  34.190  26.870  1.00  0.00    -0.206 F 
ATOM     65  C   UNL A   1      46.401  36.003  29.217  1.00  0.00     0.006 A 
ENDBRANCH  44  58
BRANCH  45  66
ATOM     66  C   UNL A   1      41.247  24.398  27.644  1.00  0.00     0.057 A 
ATOM     67  C   UNL A   1      41.711  23.279  28.345  1.00  0.00     0.134 A 
ATOM     68  C   UNL A   1      40.205  24.202  26.730  1.00  0.00     0.134 A 
ATOM     69  F   UNL A   1      42.723  23.400  29.215  1.00  0.00    -0.206 F 
ATOM     70  C   UNL A   1      41.169  22.010  28.136  1.00  0.00     0.040 A 
ATOM     71  C   UNL A   1      39.637  22.942  26.527  1.00  0.00     0.040 A 
ATOM     72  F   UNL A   1      39.719  25.232  26.025  1.00  0.00    -0.206 F 
ATOM     73  C   UNL A   1      40.124  21.841  27.228  1.00  0.00     0.006 A 
ENDBRANCH  45  66
BRANCH  57  74
ATOM     74  C   UNL A   1      47.270  27.255  25.657  1.00  0.00     0.057 A 
ATOM     75  C   UNL A   1      47.378  27.441  24.274  1.00  0.00     0.134 A 
ATOM     76  C   UNL A   1      48.311  26.577  26.304  1.00  0.00     0.134 A 
ATOM     77  F   UNL A   1      46.407  28.071  23.594  1.00  0.00    -0.206 F 
ATOM     78  C   UNL A   1      48.474  26.957  23.558  1.00  0.00     0.040 A 
ATOM     79  C   UNL A   1      49.421  26.106  25.602  1.00  0.00     0.040 A 
ATOM     80  F   UNL A   1      48.270  26.371  27.629  1.00  0.00    -0.206 F 
ATOM     81  C   UNL A   1      49.503  26.292  24.224  1.00  0.00     0.006 A 
ENDBRANCH  57  74
ENDBRANCH  31  32
ENDBRANCH  24  26
ENDBRANCH  23  24
ENDBRANCH  22  23
ENDBRANCH   1  22
TORSDOF 16
ENDMDL
MODEL 3
REMARK VINA RESULT:     -10.5      5.054      9.740
REMARK SMILES CC[C@@H](Nc1ccc([N+](=O)[O-])c(N)n1)C(=O)OCCOC(=O)c1ccc(-c2c3nc(c(-c4c(F)cccc4F)c4ccc([nH]4)c(-c4c(F)cccc4F)c4nc(c(-c5c(F)cccc5F)c5ccc2[nH]5)C=C4)C=C3)cc1
REMARK SMILES IDX 18 1 17 2 15 3 16 4 3 5 2 6 1 7 4 8 5 10 6 11 14 12 7 13
REMARK SMILES IDX 12 14 8 15 13 16 9 19 10 20 11 21 19 22 20 23 21 24 22 25
REMARK SMILES IDX 23 26 24 27 76 28 25 29 75 30 26 31 27 32 28 33 69 34 29 35
REMARK SMILES IDX 74 36 68 37 70 38 30 39 73 40 67 41 66 42 31 44 57 45 40 46
REMARK SMILES IDX 56 47 41 48 44 49 55 50 71 51 42 52 43 53 54 55 72 56 45 57
REMARK SMILES IDX 32 58 33 59 38 60 34 61 35 62 37 63 39 64 36 65 58 66 59 67
REMARK SMILES IDX 64 68 60 69 61 70 63 71 65 72 62 73 46 74 47 75 52 76 48 77
REMARK SMILES IDX 49 78 51 79 53 80 50 81
REMARK H PARENT 4 9 13 17 13 18 70 43 44 54
REMARK Flexibility Score: inf
ROOT
ATOM      1  C   UNL A   1      31.984  28.055  27.269  1.00  0.00     0.274 C 
ENDROOT
BRANCH   1   2
ATOM      2  O   UNL A   1      30.881  27.188  26.932  1.00  0.00    -0.461 OA
BRANCH   2   3
ATOM      3  C   UNL A   1      31.233  26.053  26.270  1.00  0.00     0.328 C 
ATOM      4  O   UNL A   1      31.243  24.943  26.797  1.00  0.00    -0.250 OA
BRANCH   3   5
ATOM      5  C   UNL A   1      31.615  26.273  24.788  1.00  0.00     0.191 C 
BRANCH   5   6
ATOM      6  C   UNL A   1      32.527  25.155  24.254  1.00  0.00     0.033 C 
ATOM      7  C   UNL A   1      34.003  25.527  24.303  1.00  0.00     0.007 C 
ENDBRANCH   5   6
BRANCH   5   8
ATOM      8  N   UNL A   1      30.458  26.449  23.910  1.00  0.00    -0.357 N 
ATOM      9  H   UNL A   1      30.032  25.628  23.572  1.00  0.00     0.162 HD
BRANCH   8  10
ATOM     10  C   UNL A   1      29.908  27.635  23.508  1.00  0.00     0.129 A 
ATOM     11  C   UNL A   1      30.618  28.814  23.340  1.00  0.00     0.054 A 
ATOM     12  N   UNL A   1      28.570  27.596  23.332  1.00  0.00    -0.208 NA
ATOM     13  C   UNL A   1      29.930  30.013  23.194  1.00  0.00     0.093 A 
ATOM     14  C   UNL A   1      27.892  28.743  23.103  1.00  0.00     0.204 A 
ATOM     15  C   UNL A   1      28.541  29.969  23.109  1.00  0.00     0.311 A 
BRANCH  14  16
ATOM     16  N   UNL A   1      26.528  28.578  22.962  1.00  0.00    -0.378 N 
ATOM     17  H   UNL A   1      26.149  28.352  22.083  1.00  0.00     0.158 HD
ATOM     18  H   UNL A   1      25.936  28.687  23.741  1.00  0.00     0.158 HD
ENDBRANCH  14  16
BRANCH  15  19
ATOM     19  N   UNL A   1      27.802  31.210  23.043  1.00  0.00     0.066 N 
ATOM     20  O   UNL A   1      26.903  31.397  23.876  1.00  0.00    -0.258 OA
ATOM     21  O   UNL A   1      28.099  31.996  22.130  1.00  0.00    -0.258 OA
ENDBRANCH  15  19
ENDBRANCH   8  10
ENDBRANCH   5   8
ENDBRANCH   3   5
ENDBRANCH   2   3
ENDBRANCH   1   2
BRANCH   1  22
ATOM     22  C   UNL A   1      31.774  29.514  26.827  1.00  0.00     0.275 C 
BRANCH  22  23
ATOM     23  O   UNL A   1      32.971  30.138  26.318  1.00  0.00    -0.458 OA
BRANCH  23  24
ATOM     24  C   UNL A   1      33.396  31.217  27.020  1.00  0.00     0.338 C 
ATOM     25  O   UNL A   1      32.760  32.232  27.251  1.00  0.00    -0.246 OA
BRANCH  24  26
ATOM     26  C   UNL A   1      34.706  30.962  27.649  1.00  0.00     0.060 A 
ATOM     27  C   UNL A   1      35.003  29.638  27.990  1.00  0.00     0.016 A 
ATOM     28  C   UNL A   1      35.582  31.989  28.000  1.00  0.00     0.016 A 
ATOM     29  C   UNL A   1      36.172  29.327  28.678  1.00  0.00     0.010 A 
ATOM     30  C   UNL A   1      36.750  31.681  28.713  1.00  0.00     0.010 A 
ATOM     31  C   UNL A   1      37.042  30.350  29.066  1.00  0.00    -0.014 A 
BRANCH  31  32
ATOM     32  C   UNL A   1      38.202  30.016  29.927  1.00  0.00     0.031 A 
ATOM     33  C   UNL A   1      39.287  29.125  29.394  1.00  0.00     0.074 A 
ATOM     34  C   UNL A   1      38.315  30.558  31.153  1.00  0.00     0.049 A 
ATOM     35  N   UNL A   1      40.351  28.663  29.999  1.00  0.00    -0.248 NA
ATOM     36  C   UNL A   1      39.160  28.706  27.990  1.00  0.00     0.031 C 
ATOM     37  C   UNL A   1      37.370  31.500  31.750  1.00  0.00     0.029 A 
ATOM     38  N   UNL A   1      39.283  30.397  32.112  1.00  0.00    -0.354 N 
ATOM     39  C   UNL A   1      41.009  27.881  29.059  1.00  0.00     0.074 A 
ATOM     40  C   UNL A   1      40.222  27.926  27.844  1.00  0.00     0.031 C 
ATOM     41  C   UNL A   1      37.802  31.830  32.980  1.00  0.00     0.029 A 
ATOM     42  C   UNL A   1      39.029  31.091  33.269  1.00  0.00     0.049 A 
ATOM     43  H   UNL A   1      40.082  29.838  31.984  1.00  0.00     0.167 HD
ATOM     44  C   UNL A   1      42.163  27.187  29.198  1.00  0.00     0.037 A 
ATOM     45  C   UNL A   1      39.695  31.103  34.440  1.00  0.00     0.037 A 
ATOM     46  C   UNL A   1      42.953  27.157  30.400  1.00  0.00     0.049 A 
ATOM     47  C   UNL A   1      40.932  30.262  34.594  1.00  0.00     0.074 A 
ATOM     48  C   UNL A   1      44.140  26.484  30.637  1.00  0.00     0.029 A 
ATOM     49  N   UNL A   1      42.635  27.830  31.570  1.00  0.00    -0.354 N 
ATOM     50  N   UNL A   1      41.533  29.505  33.708  1.00  0.00    -0.248 NA
ATOM     51  C   UNL A   1      41.577  30.266  35.916  1.00  0.00     0.031 C 
ATOM     52  C   UNL A   1      44.520  26.720  31.963  1.00  0.00     0.029 A 
ATOM     53  C   UNL A   1      43.590  27.572  32.539  1.00  0.00     0.049 A 
ATOM     54  H   UNL A   1      41.845  28.405  31.694  1.00  0.00     0.167 HD
ATOM     55  C   UNL A   1      42.635  28.962  34.356  1.00  0.00     0.074 A 
ATOM     56  C   UNL A   1      42.626  29.485  35.706  1.00  0.00     0.031 C 
ATOM     57  C   UNL A   1      43.570  28.106  33.876  1.00  0.00     0.037 A 
BRANCH  44  58
ATOM     58  C   UNL A   1      42.621  26.370  28.028  1.00  0.00     0.057 A 
ATOM     59  C   UNL A   1      42.221  25.041  27.847  1.00  0.00     0.134 A 
ATOM     60  C   UNL A   1      43.454  26.935  27.053  1.00  0.00     0.134 A 
ATOM     61  F   UNL A   1      41.437  24.437  28.753  1.00  0.00    -0.206 F 
ATOM     62  C   UNL A   1      42.648  24.296  26.746  1.00  0.00     0.040 A 
ATOM     63  C   UNL A   1      43.869  26.207  25.938  1.00  0.00     0.040 A 
ATOM     64  F   UNL A   1      43.871  28.205  27.168  1.00  0.00    -0.206 F 
ATOM     65  C   UNL A   1      43.470  24.881  25.784  1.00  0.00     0.006 A 
ENDBRANCH  44  58
BRANCH  45  66
ATOM     66  C   UNL A   1      39.187  31.911  35.575  1.00  0.00     0.057 A 
ATOM     67  C   UNL A   1      38.285  31.376  36.502  1.00  0.00     0.134 A 
ATOM     68  C   UNL A   1      39.576  33.245  35.749  1.00  0.00     0.134 A 
ATOM     69  F   UNL A   1      37.856  30.112  36.373  1.00  0.00    -0.206 F 
ATOM     70  C   UNL A   1      37.778  32.141  37.553  1.00  0.00     0.040 A 
ATOM     71  C   UNL A   1      39.095  34.015  36.809  1.00  0.00     0.040 A 
ATOM     72  F   UNL A   1      40.433  33.817  34.893  1.00  0.00    -0.206 F 
ATOM     73  C   UNL A   1      38.189  33.464  37.713  1.00  0.00     0.006 A 
ENDBRANCH  45  66
BRANCH  57  74
ATOM     74  C   UNL A   1      44.675  27.706  34.806  1.00  0.00     0.057 A 
ATOM     75  C   UNL A   1      44.592  26.554  35.597  1.00  0.00     0.134 A 
ATOM     76  C   UNL A   1      45.849  28.465  34.885  1.00  0.00     0.134 A 
ATOM     77  F   UNL A   1      43.487  25.793  35.577  1.00  0.00    -0.206 F 
ATOM     78  C   UNL A   1      45.634  26.179  36.447  1.00  0.00     0.040 A 
ATOM     79  C   UNL A   1      46.906  28.089  35.715  1.00  0.00     0.040 A 
ATOM     80  F   UNL A   1      45.993  29.577  34.148  1.00  0.00    -0.206 F 
ATOM     81  C   UNL A   1      46.798  26.944  36.503  1.00  0.00     0.006 A 
ENDBRANCH  57  74
ENDBRANCH  31  32
ENDBRANCH  24  26
ENDBRANCH  23  24
ENDBRANCH  22  23
ENDBRANCH   1  22
TORSDOF 16
ENDMDL
