MODEL 1
REMARK VINA RESULT:     -11.9      0.000      0.000
REMARK SMILES Cc1cc(C(=O)OCCOC(=O)c2ccc(-c3c4nc(c(-c5c(F)cccc5F)c5ccc([nH]5)c(-c5c(F)cccc5F)c5nc(c(-c6c(F)cccc6F)c6ccc3[nH]6)C=C5)C=C4)cc2)ccc1NS(=O)(=O)c1ccc(C#N)cc1C
REMARK SMILES IDX 8 1 7 2 5 3 6 4 4 5 1 6 2 7 3 8 69 9 68 10 67 11 70 12 71 14
REMARK SMILES IDX 72 15 73 16 74 17 75 18 81 19 76 20 80 21 82 22 77 23 78 24
REMARK SMILES IDX 79 25 9 26 10 27 11 28 12 29 13 30 14 31 66 32 15 33 65 34
REMARK SMILES IDX 16 35 17 36 18 37 59 38 19 39 64 40 58 41 60 42 20 43 63 44
REMARK SMILES IDX 57 45 56 46 21 48 47 49 30 50 46 51 31 52 34 53 45 54 61 55
REMARK SMILES IDX 32 56 33 57 44 59 62 60 35 61 22 62 23 63 28 64 24 65 25 66
REMARK SMILES IDX 27 67 29 68 26 69 48 70 49 71 54 72 50 73 51 74 53 75 55 76
REMARK SMILES IDX 52 77 36 78 37 79 42 80 38 81 39 82 41 83 43 84 40 85
REMARK H PARENT 70 13 60 47 34 58
REMARK Flexibility Score: inf
ROOT
ATOM      1  C   UNL A   1      37.438  21.842  24.612  1.00  0.00     0.275 C 
ENDROOT
BRANCH   1   2
ATOM      2  O   UNL A   1      36.023  21.609  24.560  1.00  0.00    -0.458 OA
BRANCH   2   3
ATOM      3  C   UNL A   1      35.388  22.394  23.660  1.00  0.00     0.338 C 
ATOM      4  O   UNL A   1      35.838  23.382  23.097  1.00  0.00    -0.246 OA
BRANCH   3   5
ATOM      5  C   UNL A   1      33.964  22.063  23.517  1.00  0.00     0.060 A 
ATOM      6  C   UNL A   1      30.725  23.969  22.965  1.00  0.00     0.046 C 
ATOM      7  C   UNL A   1      31.710  22.967  23.507  1.00  0.00    -0.026 A 
ATOM      8  C   UNL A   1      33.029  22.984  23.034  1.00  0.00     0.021 A 
ATOM      9  C   UNL A   1      31.404  22.068  24.537  1.00  0.00     0.052 A 
ATOM     10  C   UNL A   1      32.238  20.966  24.757  1.00  0.00     0.028 A 
ATOM     11  C   UNL A   1      33.544  20.988  24.286  1.00  0.00     0.018 A 
BRANCH   9  12
ATOM     12  N   UNL A   1      30.473  22.493  25.531  1.00  0.00    -0.279 N 
ATOM     13  H   UNL A   1      29.533  22.222  25.412  1.00  0.00     0.180 HD
BRANCH  12  14
ATOM     14  S   UNL A   1      30.841  23.410  26.881  1.00  0.00     0.262 S 
ATOM     15  O   UNL A   1      29.577  23.868  27.414  1.00  0.00    -0.201 OA
ATOM     16  O   UNL A   1      31.754  22.612  27.672  1.00  0.00    -0.201 OA
BRANCH  14  17
ATOM     17  C   UNL A   1      31.739  24.887  26.351  1.00  0.00     0.090 A 
ATOM     18  C   UNL A   1      31.044  26.043  25.960  1.00  0.00     0.024 A 
ATOM     19  C   UNL A   1      33.129  24.801  26.132  1.00  0.00    -0.029 A 
ATOM     20  C   UNL A   1      31.692  27.038  25.210  1.00  0.00     0.021 A 
ATOM     21  C   UNL A   1      33.763  25.814  25.384  1.00  0.00     0.024 A 
ATOM     22  C   UNL A   1      34.009  23.717  26.695  1.00  0.00     0.046 C 
ATOM     23  C   UNL A   1      33.043  26.905  24.888  1.00  0.00     0.052 A 
BRANCH  23  24
ATOM     24  C   UNL A   1      33.695  27.862  24.029  1.00  0.00     0.099 C 
ATOM     25  N   UNL A   1      34.230  28.600  23.325  1.00  0.00    -0.192 NA
ENDBRANCH  23  24
ENDBRANCH  14  17
ENDBRANCH  12  14
ENDBRANCH   9  12
ENDBRANCH   3   5
ENDBRANCH   2   3
ENDBRANCH   1   2
BRANCH   1  26
ATOM     26  C   UNL A   1      37.843  22.811  25.734  1.00  0.00     0.275 C 
BRANCH  26  27
ATOM     27  O   UNL A   1      39.018  22.526  26.551  1.00  0.00    -0.458 OA
BRANCH  27  28
ATOM     28  C   UNL A   1      40.221  23.146  26.498  1.00  0.00     0.338 C 
ATOM     29  O   UNL A   1      41.210  22.641  25.986  1.00  0.00    -0.246 OA
BRANCH  28  30
ATOM     30  C   UNL A   1      40.283  24.485  27.089  1.00  0.00     0.060 A 
ATOM     31  C   UNL A   1      40.754  25.545  26.299  1.00  0.00     0.016 A 
ATOM     32  C   UNL A   1      39.757  24.695  28.358  1.00  0.00     0.016 A 
ATOM     33  C   UNL A   1      40.623  26.847  26.735  1.00  0.00     0.010 A 
ATOM     34  C   UNL A   1      39.452  25.973  28.719  1.00  0.00     0.010 A 
ATOM     35  C   UNL A   1      39.977  27.025  27.950  1.00  0.00    -0.014 A 
BRANCH  35  36
ATOM     36  C   UNL A   1      40.200  28.195  28.768  1.00  0.00     0.031 A 
ATOM     37  C   UNL A   1      39.209  29.274  28.696  1.00  0.00     0.074 A 
ATOM     38  C   UNL A   1      41.201  27.899  29.638  1.00  0.00     0.049 A 
ATOM     39  N   UNL A   1      39.431  30.496  29.010  1.00  0.00    -0.248 NA
ATOM     40  C   UNL A   1      37.857  29.098  28.147  1.00  0.00     0.031 C 
ATOM     41  C   UNL A   1      41.615  28.410  30.927  1.00  0.00     0.029 A 
ATOM     42  N   UNL A   1      42.193  26.926  29.366  1.00  0.00    -0.354 N 
ATOM     43  C   UNL A   1      38.187  31.067  29.214  1.00  0.00     0.074 A 
ATOM     44  C   UNL A   1      37.287  30.281  28.417  1.00  0.00     0.031 C 
ATOM     45  C   UNL A   1      42.903  28.053  31.135  1.00  0.00     0.029 A 
ATOM     46  C   UNL A   1      43.381  27.367  29.936  1.00  0.00     0.049 A 
ATOM     47  H   UNL A   1      42.065  26.091  28.862  1.00  0.00     0.167 HD
ATOM     48  C   UNL A   1      38.052  31.938  30.259  1.00  0.00     0.037 A 
ATOM     49  C   UNL A   1      44.324  27.819  29.058  1.00  0.00     0.037 A 
ATOM     50  C   UNL A   1      39.352  32.030  30.932  1.00  0.00     0.049 A 
ATOM     51  C   UNL A   1      44.345  29.327  29.142  1.00  0.00     0.074 A 
ATOM     52  C   UNL A   1      39.861  31.374  32.041  1.00  0.00     0.029 A 
ATOM     53  N   UNL A   1      40.443  32.512  30.220  1.00  0.00    -0.354 N 
ATOM     54  N   UNL A   1      43.288  30.081  29.319  1.00  0.00    -0.248 NA
ATOM     55  C   UNL A   1      45.600  30.058  29.246  1.00  0.00     0.031 C 
ATOM     56  C   UNL A   1      41.282  31.397  31.931  1.00  0.00     0.029 A 
ATOM     57  C   UNL A   1      41.624  32.012  30.735  1.00  0.00     0.049 A 
ATOM     58  H   UNL A   1      40.382  33.126  29.452  1.00  0.00     0.167 HD
ATOM     59  C   UNL A   1      43.703  31.337  29.679  1.00  0.00     0.074 A 
ATOM     60  C   UNL A   1      45.154  31.275  29.593  1.00  0.00     0.031 C 
ATOM     61  C   UNL A   1      42.887  32.351  30.100  1.00  0.00     0.037 A 
BRANCH  48  62
ATOM     62  C   UNL A   1      36.783  32.472  30.898  1.00  0.00     0.057 A 
ATOM     63  C   UNL A   1      36.132  33.589  30.324  1.00  0.00     0.134 A 
ATOM     64  C   UNL A   1      36.145  31.972  32.047  1.00  0.00     0.134 A 
ATOM     65  F   UNL A   1      36.573  34.156  29.193  1.00  0.00    -0.206 F 
ATOM     66  C   UNL A   1      34.983  34.180  30.868  1.00  0.00     0.040 A 
ATOM     67  C   UNL A   1      34.994  32.557  32.604  1.00  0.00     0.040 A 
ATOM     68  F   UNL A   1      36.576  30.880  32.684  1.00  0.00    -0.206 F 
ATOM     69  C   UNL A   1      34.410  33.670  32.019  1.00  0.00     0.006 A 
ENDBRANCH  48  62
BRANCH  49  70
ATOM     70  C   UNL A   1      44.446  26.962  27.821  1.00  0.00     0.057 A 
ATOM     71  C   UNL A   1      44.066  27.528  26.579  1.00  0.00     0.134 A 
ATOM     72  C   UNL A   1      45.153  25.759  27.746  1.00  0.00     0.134 A 
ATOM     73  F   UNL A   1      43.359  28.671  26.550  1.00  0.00    -0.206 F 
ATOM     74  C   UNL A   1      44.478  27.010  25.345  1.00  0.00     0.040 A 
ATOM     75  C   UNL A   1      45.539  25.204  26.507  1.00  0.00     0.040 A 
ATOM     76  F   UNL A   1      45.568  25.134  28.856  1.00  0.00    -0.206 F 
ATOM     77  C   UNL A   1      45.236  25.850  25.307  1.00  0.00     0.006 A 
ENDBRANCH  49  70
BRANCH  61  78
ATOM     78  C   UNL A   1      43.272  33.807  30.008  1.00  0.00     0.057 A 
ATOM     79  C   UNL A   1      43.453  34.476  28.790  1.00  0.00     0.134 A 
ATOM     80  C   UNL A   1      43.292  34.635  31.154  1.00  0.00     0.134 A 
ATOM     81  F   UNL A   1      43.288  33.861  27.610  1.00  0.00    -0.206 F 
ATOM     82  C   UNL A   1      43.756  35.836  28.720  1.00  0.00     0.040 A 
ATOM     83  C   UNL A   1      43.495  36.012  31.086  1.00  0.00     0.040 A 
ATOM     84  F   UNL A   1      43.080  34.159  32.389  1.00  0.00    -0.206 F 
ATOM     85  C   UNL A   1      43.767  36.612  29.868  1.00  0.00     0.006 A 
ENDBRANCH  61  78
ENDBRANCH  35  36
ENDBRANCH  28  30
ENDBRANCH  27  28
ENDBRANCH  26  27
ENDBRANCH   1  26
TORSDOF 15
ENDMDL
MODEL 2
REMARK VINA RESULT:     -11.8      3.135      8.107
REMARK SMILES Cc1cc(C(=O)OCCOC(=O)c2ccc(-c3c4nc(c(-c5c(F)cccc5F)c5ccc([nH]5)c(-c5c(F)cccc5F)c5nc(c(-c6c(F)cccc6F)c6ccc3[nH]6)C=C5)C=C4)cc2)ccc1NS(=O)(=O)c1ccc(C#N)cc1C
REMARK SMILES IDX 8 1 7 2 5 3 6 4 4 5 1 6 2 7 3 8 69 9 68 10 67 11 70 12 71 14
REMARK SMILES IDX 72 15 73 16 74 17 75 18 81 19 76 20 80 21 82 22 77 23 78 24
REMARK SMILES IDX 79 25 9 26 10 27 11 28 12 29 13 30 14 31 66 32 15 33 65 34
REMARK SMILES IDX 16 35 17 36 18 37 59 38 19 39 64 40 58 41 60 42 20 43 63 44
REMARK SMILES IDX 57 45 56 46 21 48 47 49 30 50 46 51 31 52 34 53 45 54 61 55
REMARK SMILES IDX 32 56 33 57 44 59 62 60 35 61 22 62 23 63 28 64 24 65 25 66
REMARK SMILES IDX 27 67 29 68 26 69 48 70 49 71 54 72 50 73 51 74 53 75 55 76
REMARK SMILES IDX 52 77 36 78 37 79 42 80 38 81 39 82 41 83 43 84 40 85
REMARK H PARENT 70 13 60 47 34 58
REMARK Flexibility Score: inf
ROOT
ATOM      1  C   UNL A   1      32.622  30.229  26.008  1.00  0.00     0.275 C 
ENDROOT
BRANCH   1   2
ATOM      2  O   UNL A   1      32.180  28.872  26.161  1.00  0.00    -0.458 OA
BRANCH   2   3
ATOM      3  C   UNL A   1      31.495  28.413  25.089  1.00  0.00     0.338 C 
ATOM      4  O   UNL A   1      31.195  29.040  24.082  1.00  0.00    -0.246 OA
BRANCH   3   5
ATOM      5  C   UNL A   1      30.944  27.067  25.297  1.00  0.00     0.060 A 
ATOM      6  C   UNL A   1      32.126  23.806  26.846  1.00  0.00     0.046 C 
ATOM      7  C   UNL A   1      31.484  24.774  25.887  1.00  0.00    -0.026 A 
ATOM      8  C   UNL A   1      31.535  26.146  26.168  1.00  0.00     0.021 A 
ATOM      9  C   UNL A   1      30.911  24.384  24.670  1.00  0.00     0.052 A 
ATOM     10  C   UNL A   1      30.055  25.266  24.000  1.00  0.00     0.028 A 
ATOM     11  C   UNL A   1      30.110  26.624  24.282  1.00  0.00     0.018 A 
BRANCH   9  12
ATOM     12  N   UNL A   1      31.489  23.268  23.994  1.00  0.00    -0.279 N 
ATOM     13  H   UNL A   1      31.030  22.401  24.083  1.00  0.00     0.180 HD
BRANCH  12  14
ATOM     14  S   UNL A   1      32.879  23.306  23.065  1.00  0.00     0.262 S 
ATOM     15  O   UNL A   1      32.778  22.196  22.142  1.00  0.00    -0.201 OA
ATOM     16  O   UNL A   1      33.015  24.670  22.599  1.00  0.00    -0.201 OA
BRANCH  14  17
ATOM     17  C   UNL A   1      34.299  22.959  24.129  1.00  0.00     0.090 A 
ATOM     18  C   UNL A   1      35.273  23.942  24.364  1.00  0.00     0.024 A 
ATOM     19  C   UNL A   1      34.532  21.633  24.549  1.00  0.00    -0.029 A 
ATOM     20  C   UNL A   1      36.535  23.583  24.863  1.00  0.00     0.021 A 
ATOM     21  C   UNL A   1      35.803  21.293  25.055  1.00  0.00     0.024 A 
ATOM     22  C   UNL A   1      33.487  20.548  24.547  1.00  0.00     0.046 C 
ATOM     23  C   UNL A   1      36.814  22.251  25.172  1.00  0.00     0.052 A 
BRANCH  23  24
ATOM     24  C   UNL A   1      38.136  21.850  25.582  1.00  0.00     0.099 C 
ATOM     25  N   UNL A   1      39.179  21.514  25.939  1.00  0.00    -0.192 NA
ENDBRANCH  23  24
ENDBRANCH  14  17
ENDBRANCH  12  14
ENDBRANCH   9  12
ENDBRANCH   3   5
ENDBRANCH   2   3
ENDBRANCH   1   2
BRANCH   1  26
ATOM     26  C   UNL A   1      33.270  30.794  27.282  1.00  0.00     0.275 C 
BRANCH  26  27
ATOM     27  O   UNL A   1      34.723  30.796  27.419  1.00  0.00    -0.458 OA
BRANCH  27  28
ATOM     28  C   UNL A   1      35.439  31.071  28.534  1.00  0.00     0.338 C 
ATOM     29  O   UNL A   1      35.086  31.892  29.369  1.00  0.00    -0.246 OA
BRANCH  28  30
ATOM     30  C   UNL A   1      36.684  30.317  28.704  1.00  0.00     0.060 A 
ATOM     31  C   UNL A   1      36.828  29.509  29.842  1.00  0.00     0.016 A 
ATOM     32  C   UNL A   1      37.626  30.318  27.683  1.00  0.00     0.016 A 
ATOM     33  C   UNL A   1      37.878  28.619  29.933  1.00  0.00     0.010 A 
ATOM     34  C   UNL A   1      38.556  29.322  27.671  1.00  0.00     0.010 A 
ATOM     35  C   UNL A   1      38.726  28.557  28.837  1.00  0.00    -0.014 A 
BRANCH  35  36
ATOM     36  C   UNL A   1      40.092  28.101  28.955  1.00  0.00     0.031 A 
ATOM     37  C   UNL A   1      40.377  26.707  28.598  1.00  0.00     0.074 A 
ATOM     38  C   UNL A   1      40.872  29.197  29.147  1.00  0.00     0.049 A 
ATOM     39  N   UNL A   1      41.389  26.036  29.007  1.00  0.00    -0.248 NA
ATOM     40  C   UNL A   1      39.466  25.872  27.801  1.00  0.00     0.031 C 
ATOM     41  C   UNL A   1      42.270  29.504  28.932  1.00  0.00     0.029 A 
ATOM     42  N   UNL A   1      40.387  30.393  29.729  1.00  0.00    -0.354 N 
ATOM     43  C   UNL A   1      41.516  24.970  28.134  1.00  0.00     0.074 A 
ATOM     44  C   UNL A   1      40.193  24.761  27.615  1.00  0.00     0.031 C 
ATOM     45  C   UNL A   1      42.593  30.579  29.686  1.00  0.00     0.029 A 
ATOM     46  C   UNL A   1      41.420  30.944  30.477  1.00  0.00     0.049 A 
ATOM     47  H   UNL A   1      39.482  30.764  29.625  1.00  0.00     0.167 HD
ATOM     48  C   UNL A   1      42.778  24.611  27.753  1.00  0.00     0.037 A 
ATOM     49  C   UNL A   1      41.285  30.845  31.833  1.00  0.00     0.037 A 
ATOM     50  C   UNL A   1      43.719  25.522  28.413  1.00  0.00     0.049 A 
ATOM     51  C   UNL A   1      42.229  29.767  32.310  1.00  0.00     0.074 A 
ATOM     52  C   UNL A   1      44.332  26.685  27.976  1.00  0.00     0.029 A 
ATOM     53  N   UNL A   1      43.771  25.541  29.800  1.00  0.00    -0.354 N 
ATOM     54  N   UNL A   1      42.497  28.664  31.656  1.00  0.00    -0.248 NA
ATOM     55  C   UNL A   1      43.095  29.981  33.462  1.00  0.00     0.031 C 
ATOM     56  C   UNL A   1      44.671  27.444  29.133  1.00  0.00     0.029 A 
ATOM     57  C   UNL A   1      44.215  26.769  30.256  1.00  0.00     0.049 A 
ATOM     58  H   UNL A   1      43.525  24.784  30.380  1.00  0.00     0.167 HD
ATOM     59  C   UNL A   1      43.619  28.094  32.200  1.00  0.00     0.074 A 
ATOM     60  C   UNL A   1      43.936  28.943  33.340  1.00  0.00     0.031 C 
ATOM     61  C   UNL A   1      44.293  27.021  31.686  1.00  0.00     0.037 A 
BRANCH  48  62
ATOM     62  C   UNL A   1      43.208  23.709  26.610  1.00  0.00     0.057 A 
ATOM     63  C   UNL A   1      43.125  22.305  26.761  1.00  0.00     0.134 A 
ATOM     64  C   UNL A   1      43.707  24.116  25.359  1.00  0.00     0.134 A 
ATOM     65  F   UNL A   1      42.619  21.746  27.869  1.00  0.00    -0.206 F 
ATOM     66  C   UNL A   1      43.541  21.393  25.781  1.00  0.00     0.040 A 
ATOM     67  C   UNL A   1      44.131  23.211  24.368  1.00  0.00     0.040 A 
ATOM     68  F   UNL A   1      43.793  25.401  25.009  1.00  0.00    -0.206 F 
ATOM     69  C   UNL A   1      44.054  21.843  24.578  1.00  0.00     0.006 A 
ENDBRANCH  48  62
BRANCH  49  70
ATOM     70  C   UNL A   1      39.881  31.121  32.314  1.00  0.00     0.057 A 
ATOM     71  C   UNL A   1      39.155  30.052  32.894  1.00  0.00     0.134 A 
ATOM     72  C   UNL A   1      39.329  32.393  32.490  1.00  0.00     0.134 A 
ATOM     73  F   UNL A   1      39.591  28.789  32.755  1.00  0.00    -0.206 F 
ATOM     74  C   UNL A   1      38.033  30.245  33.710  1.00  0.00     0.040 A 
ATOM     75  C   UNL A   1      38.176  32.596  33.276  1.00  0.00     0.040 A 
ATOM     76  F   UNL A   1      39.932  33.480  31.989  1.00  0.00    -0.206 F 
ATOM     77  C   UNL A   1      37.549  31.526  33.919  1.00  0.00     0.006 A 
ENDBRANCH  49  70
BRANCH  61  78
ATOM     78  C   UNL A   1      45.177  26.129  32.522  1.00  0.00     0.057 A 
ATOM     79  C   UNL A   1      46.577  26.181  32.479  1.00  0.00     0.134 A 
ATOM     80  C   UNL A   1      44.640  25.309  33.541  1.00  0.00     0.134 A 
ATOM     81  F   UNL A   1      47.232  27.043  31.689  1.00  0.00    -0.206 F 
ATOM     82  C   UNL A   1      47.381  25.389  33.298  1.00  0.00     0.040 A 
ATOM     83  C   UNL A   1      45.437  24.589  34.429  1.00  0.00     0.040 A 
ATOM     84  F   UNL A   1      43.321  25.194  33.750  1.00  0.00    -0.206 F 
ATOM     85  C   UNL A   1      46.814  24.597  34.284  1.00  0.00     0.006 A 
ENDBRANCH  61  78
ENDBRANCH  35  36
ENDBRANCH  28  30
ENDBRANCH  27  28
ENDBRANCH  26  27
ENDBRANCH   1  26
TORSDOF 15
ENDMDL
MODEL 3
REMARK VINA RESULT:     -11.5      2.964      7.857
REMARK SMILES Cc1cc(C(=O)OCCOC(=O)c2ccc(-c3c4nc(c(-c5c(F)cccc5F)c5ccc([nH]5)c(-c5c(F)cccc5F)c5nc(c(-c6c(F)cccc6F)c6ccc3[nH]6)C=C5)C=C4)cc2)ccc1NS(=O)(=O)c1ccc(C#N)cc1C
REMARK SMILES IDX 8 1 7 2 5 3 6 4 4 5 1 6 2 7 3 8 69 9 68 10 67 11 70 12 71 14
REMARK SMILES IDX 72 15 73 16 74 17 75 18 81 19 76 20 80 21 82 22 77 23 78 24
REMARK SMILES IDX 79 25 9 26 10 27 11 28 12 29 13 30 14 31 66 32 15 33 65 34
REMARK SMILES IDX 16 35 17 36 18 37 59 38 19 39 64 40 58 41 60 42 20 43 63 44
REMARK SMILES IDX 57 45 56 46 21 48 47 49 30 50 46 51 31 52 34 53 45 54 61 55
REMARK SMILES IDX 32 56 33 57 44 59 62 60 35 61 22 62 23 63 28 64 24 65 25 66
REMARK SMILES IDX 27 67 29 68 26 69 48 70 49 71 54 72 50 73 51 74 53 75 55 76
REMARK SMILES IDX 52 77 36 78 37 79 42 80 38 81 39 82 41 83 43 84 40 85
REMARK H PARENT 70 13 60 47 34 58
REMARK Flexibility Score: inf
ROOT
ATOM      1  C   UNL A   1      32.859  28.138  26.613  1.00  0.00     0.275 C 
ENDROOT
BRANCH   1   2
ATOM      2  O   UNL A   1      32.310  27.556  25.421  1.00  0.00    -0.458 OA
BRANCH   2   3
ATOM      3  C   UNL A   1      32.857  26.358  25.114  1.00  0.00     0.338 C 
ATOM      4  O   UNL A   1      33.718  26.133  24.275  1.00  0.00    -0.246 OA
BRANCH   3   5
ATOM      5  C   UNL A   1      32.183  25.235  25.780  1.00  0.00     0.060 A 
ATOM      6  C   UNL A   1      33.220  22.205  27.823  1.00  0.00     0.046 C 
ATOM      7  C   UNL A   1      32.503  23.059  26.811  1.00  0.00    -0.026 A 
ATOM      8  C   UNL A   1      32.835  24.417  26.708  1.00  0.00     0.021 A 
ATOM      9  C   UNL A   1      31.576  22.549  25.893  1.00  0.00     0.052 A 
ATOM     10  C   UNL A   1      30.718  23.429  25.222  1.00  0.00     0.028 A 
ATOM     11  C   UNL A   1      31.052  24.773  25.123  1.00  0.00     0.018 A 
BRANCH   9  12
ATOM     12  N   UNL A   1      31.778  21.218  25.420  1.00  0.00    -0.279 N 
ATOM     13  H   UNL A   1      31.306  20.496  25.896  1.00  0.00     0.180 HD
BRANCH  12  14
ATOM     14  S   UNL A   1      32.744  20.780  24.128  1.00  0.00     0.262 S 
ATOM     15  O   UNL A   1      32.877  19.341  24.193  1.00  0.00    -0.201 OA
ATOM     16  O   UNL A   1      32.186  21.439  22.966  1.00  0.00    -0.201 OA
BRANCH  14  17
ATOM     17  C   UNL A   1      34.400  21.459  24.385  1.00  0.00     0.090 A 
ATOM     18  C   UNL A   1      35.300  20.835  25.264  1.00  0.00     0.024 A 
ATOM     19  C   UNL A   1      34.706  22.734  23.864  1.00  0.00    -0.029 A 
ATOM     20  C   UNL A   1      36.416  21.534  25.750  1.00  0.00     0.021 A 
ATOM     21  C   UNL A   1      35.835  23.417  24.359  1.00  0.00     0.024 A 
ATOM     22  C   UNL A   1      33.933  23.404  22.760  1.00  0.00     0.046 C 
ATOM     23  C   UNL A   1      36.662  22.841  25.328  1.00  0.00     0.052 A 
BRANCH  23  24
ATOM     24  C   UNL A   1      37.740  23.610  25.898  1.00  0.00     0.099 C 
ATOM     25  N   UNL A   1      38.589  24.217  26.386  1.00  0.00    -0.192 NA
ENDBRANCH  23  24
ENDBRANCH  14  17
ENDBRANCH  12  14
ENDBRANCH   9  12
ENDBRANCH   3   5
ENDBRANCH   2   3
ENDBRANCH   1   2
BRANCH   1  26
ATOM     26  C   UNL A   1      33.183  29.632  26.454  1.00  0.00     0.275 C 
BRANCH  26  27
ATOM     27  O   UNL A   1      33.205  30.499  27.627  1.00  0.00    -0.458 OA
BRANCH  27  28
ATOM     28  C   UNL A   1      34.015  31.562  27.843  1.00  0.00     0.338 C 
ATOM     29  O   UNL A   1      33.672  32.717  27.633  1.00  0.00    -0.246 OA
BRANCH  28  30
ATOM     30  C   UNL A   1      35.352  31.260  28.360  1.00  0.00     0.060 A 
ATOM     31  C   UNL A   1      36.391  32.168  28.101  1.00  0.00     0.016 A 
ATOM     32  C   UNL A   1      35.529  30.162  29.193  1.00  0.00     0.016 A 
ATOM     33  C   UNL A   1      37.602  32.038  28.749  1.00  0.00     0.010 A 
ATOM     34  C   UNL A   1      36.644  30.128  29.975  1.00  0.00     0.010 A 
ATOM     35  C   UNL A   1      37.698  31.005  29.670  1.00  0.00    -0.014 A 
BRANCH  35  36
ATOM     36  C   UNL A   1      38.970  30.423  30.033  1.00  0.00     0.031 A 
ATOM     37  C   UNL A   1      39.300  29.108  29.474  1.00  0.00     0.074 A 
ATOM     38  C   UNL A   1      39.701  31.392  30.643  1.00  0.00     0.049 A 
ATOM     39  N   UNL A   1      40.147  28.288  29.976  1.00  0.00    -0.248 NA
ATOM     40  C   UNL A   1      38.611  28.523  28.314  1.00  0.00     0.031 C 
ATOM     41  C   UNL A   1      41.114  31.618  30.861  1.00  0.00     0.029 A 
ATOM     42  N   UNL A   1      39.113  32.486  31.322  1.00  0.00    -0.354 N 
ATOM     43  C   UNL A   1      40.472  27.408  28.960  1.00  0.00     0.074 A 
ATOM     44  C   UNL A   1      39.330  27.414  28.090  1.00  0.00     0.031 C 
ATOM     45  C   UNL A   1      41.256  32.494  31.882  1.00  0.00     0.029 A 
ATOM     46  C   UNL A   1      39.925  32.793  32.407  1.00  0.00     0.049 A 
ATOM     47  H   UNL A   1      38.279  32.944  31.072  1.00  0.00     0.167 HD
ATOM     48  C   UNL A   1      41.780  27.026  28.845  1.00  0.00     0.037 A 
ATOM     49  C   UNL A   1      39.431  32.441  33.631  1.00  0.00     0.037 A 
ATOM     50  C   UNL A   1      42.537  27.709  29.899  1.00  0.00     0.049 A 
ATOM     51  C   UNL A   1      40.184  31.217  34.095  1.00  0.00     0.074 A 
ATOM     52  C   UNL A   1      43.276  28.881  29.888  1.00  0.00     0.029 A 
ATOM     53  N   UNL A   1      42.219  27.452  31.226  1.00  0.00    -0.354 N 
ATOM     54  N   UNL A   1      40.585  30.244  33.312  1.00  0.00    -0.248 NA
ATOM     55  C   UNL A   1      40.718  31.128  35.447  1.00  0.00     0.031 C 
ATOM     56  C   UNL A   1      43.316  29.368  31.227  1.00  0.00     0.029 A 
ATOM     57  C   UNL A   1      42.559  28.526  32.028  1.00  0.00     0.049 A 
ATOM     58  H   UNL A   1      41.806  26.619  31.551  1.00  0.00     0.167 HD
ATOM     59  C   UNL A   1      41.506  29.489  33.991  1.00  0.00     0.074 A 
ATOM     60  C   UNL A   1      41.532  30.068  35.326  1.00  0.00     0.031 C 
ATOM     61  C   UNL A   1      42.261  28.485  33.451  1.00  0.00     0.037 A 
BRANCH  48  62
ATOM     62  C   UNL A   1      42.473  26.334  27.685  1.00  0.00     0.057 A 
ATOM     63  C   UNL A   1      42.847  27.087  26.548  1.00  0.00     0.134 A 
ATOM     64  C   UNL A   1      42.802  24.969  27.596  1.00  0.00     0.134 A 
ATOM     65  F   UNL A   1      42.659  28.412  26.489  1.00  0.00    -0.206 F 
ATOM     66  C   UNL A   1      43.448  26.528  25.411  1.00  0.00     0.040 A 
ATOM     67  C   UNL A   1      43.403  24.396  26.460  1.00  0.00     0.040 A 
ATOM     68  F   UNL A   1      42.588  24.116  28.600  1.00  0.00    -0.206 F 
ATOM     69  C   UNL A   1      43.724  25.174  25.359  1.00  0.00     0.006 A 
ENDBRANCH  48  62
BRANCH  49  70
ATOM     70  C   UNL A   1      37.959  32.733  33.786  1.00  0.00     0.057 A 
ATOM     71  C   UNL A   1      37.571  34.064  34.076  1.00  0.00     0.134 A 
ATOM     72  C   UNL A   1      36.926  31.872  33.403  1.00  0.00     0.134 A 
ATOM     73  F   UNL A   1      38.488  34.959  34.479  1.00  0.00    -0.206 F 
ATOM     74  C   UNL A   1      36.272  34.544  33.867  1.00  0.00     0.040 A 
ATOM     75  C   UNL A   1      35.605  32.334  33.228  1.00  0.00     0.040 A 
ATOM     76  F   UNL A   1      37.175  30.591  33.100  1.00  0.00    -0.206 F 
ATOM     77  C   UNL A   1      35.284  33.680  33.421  1.00  0.00     0.006 A 
ENDBRANCH  49  70
BRANCH  61  78
ATOM     78  C   UNL A   1      42.866  27.377  34.276  1.00  0.00     0.057 A 
ATOM     79  C   UNL A   1      42.105  26.362  34.873  1.00  0.00     0.134 A 
ATOM     80  C   UNL A   1      44.266  27.191  34.343  1.00  0.00     0.134 A 
ATOM     81  F   UNL A   1      40.773  26.304  34.742  1.00  0.00    -0.206 F 
ATOM     82  C   UNL A   1      42.684  25.313  35.587  1.00  0.00     0.040 A 
ATOM     83  C   UNL A   1      44.854  26.094  34.969  1.00  0.00     0.040 A 
ATOM     84  F   UNL A   1      45.132  28.043  33.774  1.00  0.00    -0.206 F 
ATOM     85  C   UNL A   1      44.062  25.170  35.629  1.00  0.00     0.006 A 
ENDBRANCH  61  78
ENDBRANCH  35  36
ENDBRANCH  28  30
ENDBRANCH  27  28
ENDBRANCH  26  27
ENDBRANCH   1  26
TORSDOF 15
ENDMDL
