MODEL 1
REMARK VINA RESULT:      -9.8      0.000      0.000
REMARK SMILES NC(=O)c1c(F)cccc1N1CCC[C@H](CC(=O)OCCOC(=O)c2ccc(-c3c4nc(c(-c5c(F)cccc5F)c5ccc([nH]5)c(-c5c(F)cccc5F)c5nc(c(-c6c(F)cccc6F)c6ccc3[nH]6)C=C5)C=C4)cc2)C1
REMARK SMILES IDX 20 1 19 2 17 3 18 4 16 5 15 6 11 7 12 8 79 9 13 10 14 11
REMARK SMILES IDX 10 12 4 13 5 14 6 15 7 16 9 17 8 18 2 19 1 20 3 23 21 24
REMARK SMILES IDX 22 25 23 26 24 27 25 28 26 29 78 30 27 31 77 32 28 33 29 34
REMARK SMILES IDX 30 35 71 36 31 37 76 38 70 39 72 40 32 41 75 42 69 43 68 44
REMARK SMILES IDX 33 46 59 47 42 48 58 49 43 50 46 51 57 52 73 53 44 54 45 55
REMARK SMILES IDX 56 57 74 58 47 59 34 60 35 61 40 62 36 63 37 64 39 65 41 66
REMARK SMILES IDX 38 67 60 68 61 69 66 70 62 71 63 72 65 73 67 74 64 75 48 76
REMARK SMILES IDX 49 77 54 78 50 79 51 80 53 81 55 82 52 83
REMARK H PARENT 1 21 1 22 72 45 46 56
REMARK Flexibility Score: inf
ROOT
ATOM      1  C   UNL A   1      33.978  34.412  29.111  1.00  0.00     0.274 C 
ENDROOT
BRANCH   1   2
ATOM      2  O   UNL A   1      32.795  35.000  29.679  1.00  0.00    -0.462 OA
BRANCH   2   3
ATOM      3  C   UNL A   1      32.981  35.778  30.771  1.00  0.00     0.306 C 
ATOM      4  O   UNL A   1      32.172  36.595  31.196  1.00  0.00    -0.252 OA
BRANCH   3   5
ATOM      5  C   UNL A   1      34.344  35.601  31.388  1.00  0.00     0.128 C 
BRANCH   5   6
ATOM      6  C   UNL A   1      34.384  35.273  32.897  1.00  0.00     0.019 C 
ATOM      7  N   UNL A   1      36.368  33.927  32.627  1.00  0.00    -0.371 N 
ATOM      8  C   UNL A   1      35.750  32.638  32.913  1.00  0.00     0.116 C 
ATOM      9  C   UNL A   1      35.847  35.087  33.339  1.00  0.00     0.120 C 
ATOM     10  C   UNL A   1      34.238  32.728  32.668  1.00  0.00     0.022 C 
ATOM     11  C   UNL A   1      33.615  33.990  33.274  1.00  0.00     0.008 C 
BRANCH   7  12
ATOM     12  C   UNL A   1      37.584  33.997  31.969  1.00  0.00     0.053 A 
ATOM     13  C   UNL A   1      38.817  34.320  32.572  1.00  0.00     0.098 A 
ATOM     14  C   UNL A   1      39.950  34.507  31.764  1.00  0.00     0.138 A 
ATOM     15  F   UNL A   1      41.137  34.828  32.303  1.00  0.00    -0.206 F 
ATOM     16  C   UNL A   1      39.889  34.373  30.379  1.00  0.00     0.040 A 
ATOM     17  C   UNL A   1      37.556  33.832  30.568  1.00  0.00     0.027 A 
ATOM     18  C   UNL A   1      38.688  34.024  29.777  1.00  0.00     0.005 A 
BRANCH  13  19
ATOM     19  C   UNL A   1      38.966  34.409  34.049  1.00  0.00     0.253 C 
ATOM     20  N   UNL A   1      38.956  33.234  34.751  1.00  0.00    -0.365 N 
ATOM     21  H   UNL A   1      39.051  33.246  35.731  1.00  0.00     0.159 HD
ATOM     22  H   UNL A   1      38.854  32.378  34.276  1.00  0.00     0.159 HD
ATOM     23  O   UNL A   1      39.089  35.473  34.644  1.00  0.00    -0.269 OA
ENDBRANCH  13  19
ENDBRANCH   7  12
ENDBRANCH   5   6
ENDBRANCH   3   5
ENDBRANCH   2   3
ENDBRANCH   1   2
BRANCH   1  24
ATOM     24  C   UNL A   1      33.635  33.420  27.998  1.00  0.00     0.275 C 
BRANCH  24  25
ATOM     25  O   UNL A   1      34.751  32.566  27.687  1.00  0.00    -0.458 OA
BRANCH  25  26
ATOM     26  C   UNL A   1      34.530  31.241  27.851  1.00  0.00     0.338 C 
ATOM     27  O   UNL A   1      33.503  30.627  27.623  1.00  0.00    -0.246 OA
BRANCH  26  28
ATOM     28  C   UNL A   1      35.780  30.581  28.257  1.00  0.00     0.060 A 
ATOM     29  C   UNL A   1      35.753  29.719  29.358  1.00  0.00     0.016 A 
ATOM     30  C   UNL A   1      36.980  30.871  27.609  1.00  0.00     0.016 A 
ATOM     31  C   UNL A   1      36.934  29.140  29.818  1.00  0.00     0.010 A 
ATOM     32  C   UNL A   1      38.165  30.293  28.074  1.00  0.00     0.010 A 
ATOM     33  C   UNL A   1      38.149  29.432  29.186  1.00  0.00    -0.014 A 
BRANCH  33  34
ATOM     34  C   UNL A   1      39.417  28.881  29.717  1.00  0.00     0.031 A 
ATOM     35  C   UNL A   1      40.057  29.512  30.919  1.00  0.00     0.074 A 
ATOM     36  C   UNL A   1      39.983  27.807  29.135  1.00  0.00     0.049 A 
ATOM     37  N   UNL A   1      41.219  29.260  31.466  1.00  0.00    -0.248 NA
ATOM     38  C   UNL A   1      39.285  30.564  31.600  1.00  0.00     0.031 C 
ATOM     39  C   UNL A   1      39.422  27.063  28.008  1.00  0.00     0.029 A 
ATOM     40  N   UNL A   1      41.159  27.157  29.415  1.00  0.00    -0.354 N 
ATOM     41  C   UNL A   1      41.323  30.125  32.547  1.00  0.00     0.074 A 
ATOM     42  C   UNL A   1      40.113  30.920  32.573  1.00  0.00     0.031 C 
ATOM     43  C   UNL A   1      40.251  26.054  27.695  1.00  0.00     0.029 A 
ATOM     44  C   UNL A   1      41.423  26.111  28.566  1.00  0.00     0.049 A 
ATOM     45  H   UNL A   1      41.756  27.416  30.154  1.00  0.00     0.167 HD
ATOM     46  C   UNL A   1      42.335  30.239  33.438  1.00  0.00     0.037 A 
ATOM     47  C   UNL A   1      42.502  25.309  28.483  1.00  0.00     0.037 A 
ATOM     48  C   UNL A   1      43.533  29.444  33.413  1.00  0.00     0.049 A 
ATOM     49  C   UNL A   1      43.654  25.521  29.426  1.00  0.00     0.074 A 
ATOM     50  C   UNL A   1      44.631  29.513  34.253  1.00  0.00     0.029 A 
ATOM     51  N   UNL A   1      43.786  28.429  32.504  1.00  0.00    -0.354 N 
ATOM     52  N   UNL A   1      43.766  26.376  30.413  1.00  0.00    -0.248 NA
ATOM     53  C   UNL A   1      44.836  24.667  29.236  1.00  0.00     0.031 C 
ATOM     54  C   UNL A   1      45.561  28.555  33.837  1.00  0.00     0.029 A 
ATOM     55  C   UNL A   1      45.025  27.867  32.760  1.00  0.00     0.049 A 
ATOM     56  H   UNL A   1      43.176  28.149  31.784  1.00  0.00     0.167 HD
ATOM     57  C   UNL A   1      45.016  26.150  30.973  1.00  0.00     0.074 A 
ATOM     58  C   UNL A   1      45.623  25.071  30.223  1.00  0.00     0.031 C 
ATOM     59  C   UNL A   1      45.606  26.781  32.016  1.00  0.00     0.037 A 
BRANCH  46  60
ATOM     60  C   UNL A   1      42.201  31.270  34.516  1.00  0.00     0.057 A 
ATOM     61  C   UNL A   1      42.637  32.584  34.307  1.00  0.00     0.134 A 
ATOM     62  C   UNL A   1      41.710  30.943  35.785  1.00  0.00     0.134 A 
ATOM     63  F   UNL A   1      43.122  32.959  33.113  1.00  0.00    -0.206 F 
ATOM     64  C   UNL A   1      42.605  33.534  35.328  1.00  0.00     0.040 A 
ATOM     65  C   UNL A   1      41.656  31.889  36.810  1.00  0.00     0.040 A 
ATOM     66  F   UNL A   1      41.266  29.704  36.043  1.00  0.00    -0.206 F 
ATOM     67  C   UNL A   1      42.112  33.186  36.584  1.00  0.00     0.006 A 
ENDBRANCH  46  60
BRANCH  47  68
ATOM     68  C   UNL A   1      42.556  24.240  27.456  1.00  0.00     0.057 A 
ATOM     69  C   UNL A   1      42.994  24.497  26.152  1.00  0.00     0.134 A 
ATOM     70  C   UNL A   1      42.177  22.927  27.763  1.00  0.00     0.134 A 
ATOM     71  F   UNL A   1      43.373  25.733  25.796  1.00  0.00    -0.206 F 
ATOM     72  C   UNL A   1      43.041  23.491  25.185  1.00  0.00     0.040 A 
ATOM     73  C   UNL A   1      42.242  21.907  26.813  1.00  0.00     0.040 A 
ATOM     74  F   UNL A   1      41.773  22.615  29.003  1.00  0.00    -0.206 F 
ATOM     75  C   UNL A   1      42.670  22.191  25.517  1.00  0.00     0.006 A 
ENDBRANCH  47  68
BRANCH  59  76
ATOM     76  C   UNL A   1      46.962  26.303  32.438  1.00  0.00     0.057 A 
ATOM     77  C   UNL A   1      48.117  26.815  31.833  1.00  0.00     0.134 A 
ATOM     78  C   UNL A   1      47.120  25.282  33.382  1.00  0.00     0.134 A 
ATOM     79  F   UNL A   1      48.030  27.788  30.913  1.00  0.00    -0.206 F 
ATOM     80  C   UNL A   1      49.382  26.320  32.146  1.00  0.00     0.040 A 
ATOM     81  C   UNL A   1      48.382  24.792  33.717  1.00  0.00     0.040 A 
ATOM     82  F   UNL A   1      46.052  24.758  34.001  1.00  0.00    -0.206 F 
ATOM     83  C   UNL A   1      49.517  25.305  33.091  1.00  0.00     0.006 A 
ENDBRANCH  59  76
ENDBRANCH  33  34
ENDBRANCH  26  28
ENDBRANCH  25  26
ENDBRANCH  24  25
ENDBRANCH   1  24
TORSDOF 14
ENDMDL
MODEL 2
REMARK VINA RESULT:      -9.6      5.110      9.885
REMARK SMILES NC(=O)c1c(F)cccc1N1CCC[C@H](CC(=O)OCCOC(=O)c2ccc(-c3c4nc(c(-c5c(F)cccc5F)c5ccc([nH]5)c(-c5c(F)cccc5F)c5nc(c(-c6c(F)cccc6F)c6ccc3[nH]6)C=C5)C=C4)cc2)C1
REMARK SMILES IDX 20 1 19 2 17 3 18 4 16 5 15 6 11 7 12 8 79 9 13 10 14 11
REMARK SMILES IDX 10 12 4 13 5 14 6 15 7 16 9 17 8 18 2 19 1 20 3 23 21 24
REMARK SMILES IDX 22 25 23 26 24 27 25 28 26 29 78 30 27 31 77 32 28 33 29 34
REMARK SMILES IDX 30 35 71 36 31 37 76 38 70 39 72 40 32 41 75 42 69 43 68 44
REMARK SMILES IDX 33 46 59 47 42 48 58 49 43 50 46 51 57 52 73 53 44 54 45 55
REMARK SMILES IDX 56 57 74 58 47 59 34 60 35 61 40 62 36 63 37 64 39 65 41 66
REMARK SMILES IDX 38 67 60 68 61 69 66 70 62 71 63 72 65 73 67 74 64 75 48 76
REMARK SMILES IDX 49 77 54 78 50 79 51 80 53 81 55 82 52 83
REMARK H PARENT 1 21 1 22 72 45 46 56
REMARK Flexibility Score: inf
ROOT
ATOM      1  C   UNL A   1      38.336  21.637  25.642  1.00  0.00     0.274 C 
ENDROOT
BRANCH   1   2
ATOM      2  O   UNL A   1      37.142  21.947  24.903  1.00  0.00    -0.462 OA
BRANCH   2   3
ATOM      3  C   UNL A   1      36.349  22.911  25.429  1.00  0.00     0.306 C 
ATOM      4  O   UNL A   1      36.755  23.921  25.994  1.00  0.00    -0.252 OA
BRANCH   3   5
ATOM      5  C   UNL A   1      34.883  22.581  25.327  1.00  0.00     0.128 C 
BRANCH   5   6
ATOM      6  C   UNL A   1      34.326  22.337  23.908  1.00  0.00     0.019 C 
ATOM      7  N   UNL A   1      33.065  24.393  23.969  1.00  0.00    -0.371 N 
ATOM      8  C   UNL A   1      31.739  23.788  24.009  1.00  0.00     0.116 C 
ATOM      9  C   UNL A   1      34.094  23.691  23.211  1.00  0.00     0.120 C 
ATOM     10  C   UNL A   1      31.846  22.352  24.539  1.00  0.00     0.022 C 
ATOM     11  C   UNL A   1      32.990  21.566  23.889  1.00  0.00     0.008 C 
BRANCH   7  12
ATOM     12  C   UNL A   1      33.252  25.710  24.349  1.00  0.00     0.053 A 
ATOM     13  C   UNL A   1      33.262  26.816  23.474  1.00  0.00     0.098 A 
ATOM     14  C   UNL A   1      33.615  28.082  23.968  1.00  0.00     0.138 A 
ATOM     15  F   UNL A   1      33.648  29.154  23.161  1.00  0.00    -0.206 F 
ATOM     16  C   UNL A   1      33.949  28.276  25.306  1.00  0.00     0.040 A 
ATOM     17  C   UNL A   1      33.560  25.939  25.707  1.00  0.00     0.027 A 
ATOM     18  C   UNL A   1      33.912  27.201  26.184  1.00  0.00     0.005 A 
BRANCH  13  19
ATOM     19  C   UNL A   1      32.848  26.691  22.051  1.00  0.00     0.253 C 
ATOM     20  N   UNL A   1      31.533  26.931  21.758  1.00  0.00    -0.365 N 
ATOM     21  H   UNL A   1      31.215  26.858  20.829  1.00  0.00     0.159 HD
ATOM     22  H   UNL A   1      30.905  27.174  22.476  1.00  0.00     0.159 HD
ATOM     23  O   UNL A   1      33.626  26.383  21.155  1.00  0.00    -0.269 OA
ENDBRANCH  13  19
ENDBRANCH   7  12
ENDBRANCH   5   6
ENDBRANCH   3   5
ENDBRANCH   2   3
ENDBRANCH   1   2
BRANCH   1  24
ATOM     24  C   UNL A   1      38.942  20.304  25.197  1.00  0.00     0.275 C 
BRANCH  24  25
ATOM     25  O   UNL A   1      39.795  19.745  26.213  1.00  0.00    -0.458 OA
BRANCH  25  26
ATOM     26  C   UNL A   1      41.123  19.845  25.973  1.00  0.00     0.338 C 
ATOM     27  O   UNL A   1      41.818  19.090  25.316  1.00  0.00    -0.246 OA
BRANCH  26  28
ATOM     28  C   UNL A   1      41.631  21.104  26.541  1.00  0.00     0.060 A 
ATOM     29  C   UNL A   1      41.529  21.303  27.921  1.00  0.00     0.016 A 
ATOM     30  C   UNL A   1      42.127  22.109  25.711  1.00  0.00     0.016 A 
ATOM     31  C   UNL A   1      41.927  22.516  28.481  1.00  0.00     0.010 A 
ATOM     32  C   UNL A   1      42.522  23.327  26.273  1.00  0.00     0.010 A 
ATOM     33  C   UNL A   1      42.415  23.539  27.659  1.00  0.00    -0.014 A 
BRANCH  33  34
ATOM     34  C   UNL A   1      42.768  24.856  28.239  1.00  0.00     0.031 A 
ATOM     35  C   UNL A   1      41.700  25.893  28.432  1.00  0.00     0.074 A 
ATOM     36  C   UNL A   1      44.036  25.114  28.606  1.00  0.00     0.049 A 
ATOM     37  N   UNL A   1      41.817  27.141  28.808  1.00  0.00    -0.248 NA
ATOM     38  C   UNL A   1      40.314  25.468  28.172  1.00  0.00     0.031 C 
ATOM     39  C   UNL A   1      45.147  24.166  28.534  1.00  0.00     0.029 A 
ATOM     40  N   UNL A   1      44.602  26.258  29.114  1.00  0.00    -0.354 N 
ATOM     41  C   UNL A   1      40.526  27.653  28.823  1.00  0.00     0.074 A 
ATOM     42  C   UNL A   1      39.641  26.587  28.403  1.00  0.00     0.031 C 
ATOM     43  C   UNL A   1      46.262  24.764  28.987  1.00  0.00     0.029 A 
ATOM     44  C   UNL A   1      45.953  26.149  29.332  1.00  0.00     0.049 A 
ATOM     45  H   UNL A   1      44.089  27.076  29.303  1.00  0.00     0.167 HD
ATOM     46  C   UNL A   1      40.121  28.899  29.160  1.00  0.00     0.037 A 
ATOM     47  C   UNL A   1      46.846  27.074  29.739  1.00  0.00     0.037 A 
ATOM     48  C   UNL A   1      41.002  29.954  29.581  1.00  0.00     0.049 A 
ATOM     49  C   UNL A   1      46.381  28.476  30.016  1.00  0.00     0.074 A 
ATOM     50  C   UNL A   1      40.687  31.262  29.909  1.00  0.00     0.029 A 
ATOM     51  N   UNL A   1      42.372  29.820  29.740  1.00  0.00    -0.354 N 
ATOM     52  N   UNL A   1      45.166  28.967  29.976  1.00  0.00    -0.248 NA
ATOM     53  C   UNL A   1      47.412  29.460  30.379  1.00  0.00     0.031 C 
ATOM     54  C   UNL A   1      41.870  31.927  30.243  1.00  0.00     0.029 A 
ATOM     55  C   UNL A   1      42.917  31.023  30.157  1.00  0.00     0.049 A 
ATOM     56  H   UNL A   1      42.882  28.993  29.582  1.00  0.00     0.167 HD
ATOM     57  C   UNL A   1      45.282  30.304  30.329  1.00  0.00     0.074 A 
ATOM     58  C   UNL A   1      46.685  30.549  30.588  1.00  0.00     0.031 C 
ATOM     59  C   UNL A   1      44.313  31.245  30.429  1.00  0.00     0.037 A 
BRANCH  46  60
ATOM     60  C   UNL A   1      38.656  29.200  29.079  1.00  0.00     0.057 A 
ATOM     61  C   UNL A   1      38.080  29.632  27.878  1.00  0.00     0.134 A 
ATOM     62  C   UNL A   1      37.831  29.135  30.208  1.00  0.00     0.134 A 
ATOM     63  F   UNL A   1      38.819  29.721  26.762  1.00  0.00    -0.206 F 
ATOM     64  C   UNL A   1      36.737  30.006  27.806  1.00  0.00     0.040 A 
ATOM     65  C   UNL A   1      36.483  29.488  30.145  1.00  0.00     0.040 A 
ATOM     66  F   UNL A   1      38.322  28.716  31.385  1.00  0.00    -0.206 F 
ATOM     67  C   UNL A   1      35.935  29.933  28.943  1.00  0.00     0.006 A 
ENDBRANCH  46  60
BRANCH  47  68
ATOM     68  C   UNL A   1      48.275  26.709  29.893  1.00  0.00     0.057 A 
ATOM     69  C   UNL A   1      48.767  26.160  31.083  1.00  0.00     0.134 A 
ATOM     70  C   UNL A   1      49.182  26.893  28.843  1.00  0.00     0.134 A 
ATOM     71  F   UNL A   1      47.949  25.957  32.125  1.00  0.00    -0.206 F 
ATOM     72  C   UNL A   1      50.114  25.820  31.229  1.00  0.00     0.040 A 
ATOM     73  C   UNL A   1      50.525  26.536  28.966  1.00  0.00     0.040 A 
ATOM     74  F   UNL A   1      48.763  27.391  27.670  1.00  0.00    -0.206 F 
ATOM     75  C   UNL A   1      50.995  26.003  30.166  1.00  0.00     0.006 A 
ENDBRANCH  47  68
BRANCH  59  76
ATOM     76  C   UNL A   1      44.721  32.617  30.871  1.00  0.00     0.057 A 
ATOM     77  C   UNL A   1      44.729  32.953  32.230  1.00  0.00     0.134 A 
ATOM     78  C   UNL A   1      45.028  33.624  29.949  1.00  0.00     0.134 A 
ATOM     79  F   UNL A   1      44.433  32.033  33.160  1.00  0.00    -0.206 F 
ATOM     80  C   UNL A   1      45.017  34.248  32.657  1.00  0.00     0.040 A 
ATOM     81  C   UNL A   1      45.338  34.919  30.366  1.00  0.00     0.040 A 
ATOM     82  F   UNL A   1      45.046  33.360  28.634  1.00  0.00    -0.206 F 
ATOM     83  C   UNL A   1      45.323  35.236  31.723  1.00  0.00     0.006 A 
ENDBRANCH  59  76
ENDBRANCH  33  34
ENDBRANCH  26  28
ENDBRANCH  25  26
ENDBRANCH  24  25
ENDBRANCH   1  24
TORSDOF 14
ENDMDL
MODEL 3
REMARK VINA RESULT:      -9.6      4.446      9.712
REMARK SMILES NC(=O)c1c(F)cccc1N1CCC[C@H](CC(=O)OCCOC(=O)c2ccc(-c3c4nc(c(-c5c(F)cccc5F)c5ccc([nH]5)c(-c5c(F)cccc5F)c5nc(c(-c6c(F)cccc6F)c6ccc3[nH]6)C=C5)C=C4)cc2)C1
REMARK SMILES IDX 20 1 19 2 17 3 18 4 16 5 15 6 11 7 12 8 79 9 13 10 14 11
REMARK SMILES IDX 10 12 4 13 5 14 6 15 7 16 9 17 8 18 2 19 1 20 3 23 21 24
REMARK SMILES IDX 22 25 23 26 24 27 25 28 26 29 78 30 27 31 77 32 28 33 29 34
REMARK SMILES IDX 30 35 71 36 31 37 76 38 70 39 72 40 32 41 75 42 69 43 68 44
REMARK SMILES IDX 33 46 59 47 42 48 58 49 43 50 46 51 57 52 73 53 44 54 45 55
REMARK SMILES IDX 56 57 74 58 47 59 34 60 35 61 40 62 36 63 37 64 39 65 41 66
REMARK SMILES IDX 38 67 60 68 61 69 66 70 62 71 63 72 65 73 67 74 64 75 48 76
REMARK SMILES IDX 49 77 54 78 50 79 51 80 53 81 55 82 52 83
REMARK H PARENT 1 21 1 22 72 45 46 56
REMARK Flexibility Score: inf
ROOT
ATOM      1  C   UNL A   1      31.398  28.706  24.996  1.00  0.00     0.274 C 
ENDROOT
BRANCH   1   2
ATOM      2  O   UNL A   1      32.392  27.780  25.467  1.00  0.00    -0.462 OA
BRANCH   2   3
ATOM      3  C   UNL A   1      31.998  26.930  26.445  1.00  0.00     0.306 C 
ATOM      4  O   UNL A   1      31.407  27.263  27.467  1.00  0.00    -0.252 OA
BRANCH   3   5
ATOM      5  C   UNL A   1      32.436  25.511  26.197  1.00  0.00     0.128 C 
BRANCH   5   6
ATOM      6  C   UNL A   1      31.328  24.437  26.183  1.00  0.00     0.019 C 
ATOM      7  N   UNL A   1      32.583  23.055  24.654  1.00  0.00    -0.371 N 
ATOM      8  C   UNL A   1      31.698  23.211  23.506  1.00  0.00     0.116 C 
ATOM      9  C   UNL A   1      31.964  23.050  25.974  1.00  0.00     0.120 C 
ATOM     10  C   UNL A   1      30.870  24.492  23.665  1.00  0.00     0.022 C 
ATOM     11  C   UNL A   1      30.278  24.642  25.071  1.00  0.00     0.008 C 
BRANCH   7  12
ATOM     12  C   UNL A   1      33.884  22.614  24.489  1.00  0.00     0.053 A 
ATOM     13  C   UNL A   1      34.346  21.314  24.783  1.00  0.00     0.098 A 
ATOM     14  C   UNL A   1      35.721  21.040  24.715  1.00  0.00     0.138 A 
ATOM     15  F   UNL A   1      36.197  19.818  25.001  1.00  0.00    -0.206 F 
ATOM     16  C   UNL A   1      36.643  22.020  24.356  1.00  0.00     0.040 A 
ATOM     17  C   UNL A   1      34.834  23.579  24.094  1.00  0.00     0.027 A 
ATOM     18  C   UNL A   1      36.198  23.295  24.034  1.00  0.00     0.005 A 
BRANCH  13  19
ATOM     19  C   UNL A   1      33.408  20.205  25.105  1.00  0.00     0.253 C 
ATOM     20  N   UNL A   1      33.278  19.857  26.422  1.00  0.00    -0.365 N 
ATOM     21  H   UNL A   1      32.669  19.128  26.680  1.00  0.00     0.159 HD
ATOM     22  H   UNL A   1      33.794  20.335  27.110  1.00  0.00     0.159 HD
ATOM     23  O   UNL A   1      32.767  19.605  24.249  1.00  0.00    -0.269 OA
ENDBRANCH  13  19
ENDBRANCH   7  12
ENDBRANCH   5   6
ENDBRANCH   3   5
ENDBRANCH   2   3
ENDBRANCH   1   2
BRANCH   1  24
ATOM     24  C   UNL A   1      31.608  30.104  25.583  1.00  0.00     0.275 C 
BRANCH  24  25
ATOM     25  O   UNL A   1      32.991  30.339  25.908  1.00  0.00    -0.458 OA
BRANCH  25  26
ATOM     26  C   UNL A   1      33.208  31.251  26.884  1.00  0.00     0.338 C 
ATOM     27  O   UNL A   1      32.459  32.138  27.250  1.00  0.00    -0.246 OA
BRANCH  26  28
ATOM     28  C   UNL A   1      34.482  30.955  27.557  1.00  0.00     0.060 A 
ATOM     29  C   UNL A   1      34.759  29.631  27.912  1.00  0.00     0.016 A 
ATOM     30  C   UNL A   1      35.356  31.984  27.909  1.00  0.00     0.016 A 
ATOM     31  C   UNL A   1      35.919  29.328  28.622  1.00  0.00     0.010 A 
ATOM     32  C   UNL A   1      36.518  31.679  28.625  1.00  0.00     0.010 A 
ATOM     33  C   UNL A   1      36.800  30.351  28.993  1.00  0.00    -0.014 A 
BRANCH  33  34
ATOM     34  C   UNL A   1      37.995  30.046  29.814  1.00  0.00     0.031 A 
ATOM     35  C   UNL A   1      39.073  29.162  29.257  1.00  0.00     0.074 A 
ATOM     36  C   UNL A   1      38.121  30.572  31.046  1.00  0.00     0.049 A 
ATOM     37  N   UNL A   1      40.134  28.678  29.850  1.00  0.00    -0.248 NA
ATOM     38  C   UNL A   1      38.943  28.775  27.842  1.00  0.00     0.031 C 
ATOM     39  C   UNL A   1      37.178  31.499  31.669  1.00  0.00     0.029 A 
ATOM     40  N   UNL A   1      39.099  30.399  31.994  1.00  0.00    -0.354 N 
ATOM     41  C   UNL A   1      40.793  27.924  28.888  1.00  0.00     0.074 A 
ATOM     42  C   UNL A   1      40.006  28.001  27.675  1.00  0.00     0.031 C 
ATOM     43  C   UNL A   1      37.625  31.819  32.895  1.00  0.00     0.029 A 
ATOM     44  C   UNL A   1      38.857  31.081  33.161  1.00  0.00     0.049 A 
ATOM     45  H   UNL A   1      39.896  29.839  31.851  1.00  0.00     0.167 HD
ATOM     46  C   UNL A   1      41.951  27.235  29.007  1.00  0.00     0.037 A 
ATOM     47  C   UNL A   1      39.540  31.087  34.322  1.00  0.00     0.037 A 
ATOM     48  C   UNL A   1      42.733  27.165  30.212  1.00  0.00     0.049 A 
ATOM     49  C   UNL A   1      40.773  30.237  34.458  1.00  0.00     0.074 A 
ATOM     50  C   UNL A   1      43.904  26.461  30.441  1.00  0.00     0.029 A 
ATOM     51  N   UNL A   1      42.428  27.828  31.390  1.00  0.00    -0.354 N 
ATOM     52  N   UNL A   1      41.360  29.485  33.559  1.00  0.00    -0.248 NA
ATOM     53  C   UNL A   1      41.430  30.222  35.773  1.00  0.00     0.031 C 
ATOM     54  C   UNL A   1      44.294  26.680  31.765  1.00  0.00     0.029 A 
ATOM     55  C   UNL A   1      43.385  27.547  32.350  1.00  0.00     0.049 A 
ATOM     56  H   UNL A   1      41.648  28.413  31.524  1.00  0.00     0.167 HD
ATOM     57  C   UNL A   1      42.464  28.928  34.190  1.00  0.00     0.074 A 
ATOM     58  C   UNL A   1      42.472  29.433  35.547  1.00  0.00     0.031 C 
ATOM     59  C   UNL A   1      43.388  28.073  33.689  1.00  0.00     0.037 A 
BRANCH  46  60
ATOM     60  C   UNL A   1      42.445  26.489  27.807  1.00  0.00     0.057 A 
ATOM     61  C   UNL A   1      43.280  27.112  26.872  1.00  0.00     0.134 A 
ATOM     62  C   UNL A   1      42.032  25.179  27.538  1.00  0.00     0.134 A 
ATOM     63  F   UNL A   1      43.707  28.368  27.069  1.00  0.00    -0.206 F 
ATOM     64  C   UNL A   1      43.676  26.462  25.701  1.00  0.00     0.040 A 
ATOM     65  C   UNL A   1      42.436  24.512  26.380  1.00  0.00     0.040 A 
ATOM     66  F   UNL A   1      41.242  24.525  28.403  1.00  0.00    -0.206 F 
ATOM     67  C   UNL A   1      43.253  25.158  25.454  1.00  0.00     0.006 A 
ENDBRANCH  46  60
BRANCH  47  68
ATOM     68  C   UNL A   1      39.065  31.912  35.459  1.00  0.00     0.057 A 
ATOM     69  C   UNL A   1      39.403  33.266  35.574  1.00  0.00     0.134 A 
ATOM     70  C   UNL A   1      38.249  31.364  36.455  1.00  0.00     0.134 A 
ATOM     71  F   UNL A   1      40.179  33.851  34.650  1.00  0.00    -0.206 F 
ATOM     72  C   UNL A   1      38.958  34.042  36.646  1.00  0.00     0.040 A 
ATOM     73  C   UNL A   1      37.778  32.133  37.520  1.00  0.00     0.040 A 
ATOM     74  F   UNL A   1      37.872  30.079  36.386  1.00  0.00    -0.206 F 
ATOM     75  C   UNL A   1      38.138  33.476  37.620  1.00  0.00     0.006 A 
ENDBRANCH  47  68
BRANCH  59  76
ATOM     76  C   UNL A   1      44.508  27.656  34.593  1.00  0.00     0.057 A 
ATOM     77  C   UNL A   1      44.377  26.528  35.414  1.00  0.00     0.134 A 
ATOM     78  C   UNL A   1      45.679  28.413  34.709  1.00  0.00     0.134 A 
ATOM     79  F   UNL A   1      43.273  25.769  35.355  1.00  0.00    -0.206 F 
ATOM     80  C   UNL A   1      45.369  26.174  36.327  1.00  0.00     0.040 A 
ATOM     81  C   UNL A   1      46.688  28.058  35.605  1.00  0.00     0.040 A 
ATOM     82  F   UNL A   1      45.866  29.498  33.943  1.00  0.00    -0.206 F 
ATOM     83  C   UNL A   1      46.530  26.941  36.424  1.00  0.00     0.006 A 
ENDBRANCH  59  76
ENDBRANCH  33  34
ENDBRANCH  26  28
ENDBRANCH  25  26
ENDBRANCH  24  25
ENDBRANCH   1  24
TORSDOF 14
ENDMDL
