MODEL 1
REMARK VINA RESULT:     -11.4      0.000      0.000
REMARK SMILES C[C@@H]1[C@H](C(=O)OCCOC(=O)c2ccc(-c3c4nc(c(-c5c(F)cccc5F)c5ccc([nH]5)c(-c5c(F)cccc5F)c5nc(c(-c6c(F)cccc6F)c6ccc3[nH]6)C=C5)C=C4)cc2)CC[N@@H+]1Cc1ccc2c(c1)CCN2C
REMARK SMILES IDX 7 1 6 2 4 3 5 4 3 5 1 6 2 7 68 8 66 9 67 10 69 12 70 13
REMARK SMILES IDX 71 14 75 15 72 16 74 17 73 18 76 19 78 20 77 21 79 22 8 23
REMARK SMILES IDX 9 24 10 25 11 26 12 27 13 28 65 29 14 30 64 31 15 32 16 33
REMARK SMILES IDX 17 34 58 35 18 36 63 37 57 38 59 39 19 40 62 41 56 42 55 43
REMARK SMILES IDX 20 45 46 46 29 47 45 48 30 49 33 50 44 51 60 52 31 53 32 54
REMARK SMILES IDX 43 56 61 57 34 58 21 59 22 60 27 61 23 62 24 63 26 64 28 65
REMARK SMILES IDX 25 66 47 67 48 68 53 69 49 70 50 71 52 72 54 73 51 74 35 75
REMARK SMILES IDX 36 76 41 77 37 78 38 79 40 80 42 81 39 82
REMARK H PARENT 68 11 59 44 33 55
REMARK Flexibility Score: inf
ROOT
ATOM      1  C   UNL A   1      42.848  20.911  26.144  1.00  0.00     0.274 C 
ENDROOT
BRANCH   1   2
ATOM      2  O   UNL A   1      41.508  20.891  25.617  1.00  0.00    -0.462 OA
BRANCH   2   3
ATOM      3  C   UNL A   1      40.501  21.183  26.465  1.00  0.00     0.315 C 
ATOM      4  O   UNL A   1      40.414  20.734  27.606  1.00  0.00    -0.252 OA
BRANCH   3   5
ATOM      5  C   UNL A   1      39.513  22.208  25.946  1.00  0.00     0.162 C 
ATOM      6  C   UNL A   1      37.709  20.442  25.196  1.00  0.00     0.076 C 
ATOM      7  C   UNL A   1      38.188  21.886  25.228  1.00  0.00     0.195 C 
ATOM      8  N   UNL A   1      37.246  22.932  25.687  1.00  0.00    -0.328 N 
ATOM      9  C   UNL A   1      39.137  23.186  27.049  1.00  0.00     0.083 C 
ATOM     10  C   UNL A   1      37.987  23.946  26.425  1.00  0.00     0.263 C 
ATOM     11  H   UNL A   1      36.869  23.314  24.819  1.00  0.00     0.348 HD
BRANCH   8  12
ATOM     12  C   UNL A   1      35.920  22.594  26.200  1.00  0.00     0.299 C 
BRANCH  12  13
ATOM     13  C   UNL A   1      34.785  23.562  25.929  1.00  0.00     0.007 A 
ATOM     14  C   UNL A   1      33.543  23.389  26.578  1.00  0.00     0.012 A 
ATOM     15  C   UNL A   1      34.925  24.622  25.024  1.00  0.00     0.015 A 
ATOM     16  C   UNL A   1      32.489  24.293  26.398  1.00  0.00     0.026 A 
ATOM     17  C   UNL A   1      33.873  25.507  24.857  1.00  0.00    -0.022 A 
ATOM     18  C   UNL A   1      32.667  25.360  25.540  1.00  0.00     0.040 A 
ATOM     19  C   UNL A   1      33.854  26.782  24.083  1.00  0.00     0.059 C 
ATOM     20  N   UNL A   1      31.759  26.379  25.242  1.00  0.00    -0.374 N 
ATOM     21  C   UNL A   1      32.354  27.121  24.122  1.00  0.00     0.121 C 
ATOM     22  C   UNL A   1      31.115  27.078  26.333  1.00  0.00     0.143 C 
ENDBRANCH  12  13
ENDBRANCH   8  12
ENDBRANCH   3   5
ENDBRANCH   2   3
ENDBRANCH   1   2
BRANCH   1  23
ATOM     23  C   UNL A   1      43.723  21.816  25.276  1.00  0.00     0.275 C 
BRANCH  23  24
ATOM     24  O   UNL A   1      43.057  23.068  25.016  1.00  0.00    -0.458 OA
BRANCH  24  25
ATOM     25  C   UNL A   1      43.822  24.171  25.164  1.00  0.00     0.338 C 
ATOM     26  O   UNL A   1      44.836  24.471  24.550  1.00  0.00    -0.246 OA
BRANCH  25  27
ATOM     27  C   UNL A   1      43.212  25.063  26.155  1.00  0.00     0.060 A 
ATOM     28  C   UNL A   1      43.586  26.405  26.159  1.00  0.00     0.016 A 
ATOM     29  C   UNL A   1      42.383  24.556  27.154  1.00  0.00     0.016 A 
ATOM     30  C   UNL A   1      43.194  27.238  27.200  1.00  0.00     0.010 A 
ATOM     31  C   UNL A   1      41.929  25.412  28.162  1.00  0.00     0.010 A 
ATOM     32  C   UNL A   1      42.351  26.753  28.206  1.00  0.00    -0.014 A 
BRANCH  32  33
ATOM     33  C   UNL A   1      41.930  27.650  29.309  1.00  0.00     0.031 A 
ATOM     34  C   UNL A   1      42.716  27.693  30.589  1.00  0.00     0.074 A 
ATOM     35  C   UNL A   1      40.857  28.448  29.150  1.00  0.00     0.049 A 
ATOM     36  N   UNL A   1      42.428  28.295  31.714  1.00  0.00    -0.248 NA
ATOM     37  C   UNL A   1      43.991  26.961  30.606  1.00  0.00     0.031 C 
ATOM     38  C   UNL A   1      40.047  28.545  27.933  1.00  0.00     0.029 A 
ATOM     39  N   UNL A   1      40.267  29.335  30.013  1.00  0.00    -0.354 N 
ATOM     40  C   UNL A   1      43.463  27.983  32.585  1.00  0.00     0.074 A 
ATOM     41  C   UNL A   1      44.388  27.137  31.858  1.00  0.00     0.031 C 
ATOM     42  C   UNL A   1      39.081  29.458  28.120  1.00  0.00     0.029 A 
ATOM     43  C   UNL A   1      39.161  29.957  29.488  1.00  0.00     0.049 A 
ATOM     44  H   UNL A   1      40.603  29.508  30.921  1.00  0.00     0.167 HD
ATOM     45  C   UNL A   1      43.624  28.365  33.873  1.00  0.00     0.037 A 
ATOM     46  C   UNL A   1      38.285  30.805  30.058  1.00  0.00     0.037 A 
ATOM     47  C   UNL A   1      42.720  29.234  34.581  1.00  0.00     0.049 A 
ATOM     48  C   UNL A   1      38.461  31.179  31.500  1.00  0.00     0.074 A 
ATOM     49  C   UNL A   1      42.785  29.665  35.895  1.00  0.00     0.029 A 
ATOM     50  N   UNL A   1      41.592  29.816  34.023  1.00  0.00    -0.354 N 
ATOM     51  N   UNL A   1      39.404  30.819  32.336  1.00  0.00    -0.248 NA
ATOM     52  C   UNL A   1      37.438  32.056  32.086  1.00  0.00     0.031 C 
ATOM     53  C   UNL A   1      41.683  30.494  36.137  1.00  0.00     0.029 A 
ATOM     54  C   UNL A   1      40.949  30.599  34.966  1.00  0.00     0.049 A 
ATOM     55  H   UNL A   1      41.292  29.691  33.094  1.00  0.00     0.167 HD
ATOM     56  C   UNL A   1      39.095  31.430  33.543  1.00  0.00     0.074 A 
ATOM     57  C   UNL A   1      37.885  32.198  33.325  1.00  0.00     0.031 C 
ATOM     58  C   UNL A   1      39.748  31.356  34.727  1.00  0.00     0.037 A 
BRANCH  45  59
ATOM     59  C   UNL A   1      44.810  27.820  34.611  1.00  0.00     0.057 A 
ATOM     60  C   UNL A   1      44.747  26.619  35.326  1.00  0.00     0.134 A 
ATOM     61  C   UNL A   1      46.036  28.496  34.581  1.00  0.00     0.134 A 
ATOM     62  F   UNL A   1      43.597  25.934  35.406  1.00  0.00    -0.206 F 
ATOM     63  C   UNL A   1      45.862  26.115  36.000  1.00  0.00     0.040 A 
ATOM     64  C   UNL A   1      47.161  27.993  35.235  1.00  0.00     0.040 A 
ATOM     65  F   UNL A   1      46.160  29.652  33.911  1.00  0.00    -0.206 F 
ATOM     66  C   UNL A   1      47.075  26.800  35.951  1.00  0.00     0.006 A 
ENDBRANCH  45  59
BRANCH  46  67
ATOM     67  C   UNL A   1      37.144  31.328  29.269  1.00  0.00     0.057 A 
ATOM     68  C   UNL A   1      37.163  32.625  28.745  1.00  0.00     0.134 A 
ATOM     69  C   UNL A   1      36.012  30.544  29.016  1.00  0.00     0.134 A 
ATOM     70  F   UNL A   1      38.211  33.430  28.974  1.00  0.00    -0.206 F 
ATOM     71  C   UNL A   1      36.094  33.127  28.001  1.00  0.00     0.040 A 
ATOM     72  C   UNL A   1      34.946  31.024  28.255  1.00  0.00     0.040 A 
ATOM     73  F   UNL A   1      35.937  29.291  29.491  1.00  0.00    -0.206 F 
ATOM     74  C   UNL A   1      34.984  32.322  27.750  1.00  0.00     0.006 A 
ENDBRANCH  46  67
BRANCH  58  75
ATOM     75  C   UNL A   1      39.177  32.143  35.864  1.00  0.00     0.057 A 
ATOM     76  C   UNL A   1      39.504  33.491  36.059  1.00  0.00     0.134 A 
ATOM     77  C   UNL A   1      38.274  31.554  36.757  1.00  0.00     0.134 A 
ATOM     78  F   UNL A   1      40.376  34.102  35.244  1.00  0.00    -0.206 F 
ATOM     79  C   UNL A   1      38.963  34.223  37.116  1.00  0.00     0.040 A 
ATOM     80  C   UNL A   1      37.714  32.282  37.808  1.00  0.00     0.040 A 
ATOM     81  F   UNL A   1      37.920  30.268  36.619  1.00  0.00    -0.206 F 
ATOM     82  C   UNL A   1      38.062  33.619  37.991  1.00  0.00     0.006 A 
ENDBRANCH  58  75
ENDBRANCH  32  33
ENDBRANCH  25  27
ENDBRANCH  24  25
ENDBRANCH  23  24
ENDBRANCH   1  23
TORSDOF 13
ENDMDL
MODEL 2
REMARK VINA RESULT:     -11.3      4.330      8.993
REMARK SMILES C[C@@H]1[C@H](C(=O)OCCOC(=O)c2ccc(-c3c4nc(c(-c5c(F)cccc5F)c5ccc([nH]5)c(-c5c(F)cccc5F)c5nc(c(-c6c(F)cccc6F)c6ccc3[nH]6)C=C5)C=C4)cc2)CC[N@@H+]1Cc1ccc2c(c1)CCN2C
REMARK SMILES IDX 7 1 6 2 4 3 5 4 3 5 1 6 2 7 68 8 66 9 67 10 69 12 70 13
REMARK SMILES IDX 71 14 75 15 72 16 74 17 73 18 76 19 78 20 77 21 79 22 8 23
REMARK SMILES IDX 9 24 10 25 11 26 12 27 13 28 65 29 14 30 64 31 15 32 16 33
REMARK SMILES IDX 17 34 58 35 18 36 63 37 57 38 59 39 19 40 62 41 56 42 55 43
REMARK SMILES IDX 20 45 46 46 29 47 45 48 30 49 33 50 44 51 60 52 31 53 32 54
REMARK SMILES IDX 43 56 61 57 34 58 21 59 22 60 27 61 23 62 24 63 26 64 28 65
REMARK SMILES IDX 25 66 47 67 48 68 53 69 49 70 50 71 52 72 54 73 51 74 35 75
REMARK SMILES IDX 36 76 41 77 37 78 38 79 40 80 42 81 39 82
REMARK H PARENT 68 11 59 44 33 55
REMARK Flexibility Score: inf
ROOT
ATOM      1  C   UNL A   1      33.225  35.164  28.454  1.00  0.00     0.274 C 
ENDROOT
BRANCH   1   2
ATOM      2  O   UNL A   1      33.658  33.882  28.945  1.00  0.00    -0.462 OA
BRANCH   2   3
ATOM      3  C   UNL A   1      34.571  33.211  28.213  1.00  0.00     0.315 C 
ATOM      4  O   UNL A   1      35.488  33.751  27.598  1.00  0.00    -0.252 OA
BRANCH   3   5
ATOM      5  C   UNL A   1      34.454  31.702  28.286  1.00  0.00     0.162 C 
ATOM      6  C   UNL A   1      32.296  31.560  26.781  1.00  0.00     0.076 C 
ATOM      7  C   UNL A   1      33.304  30.868  27.688  1.00  0.00     0.195 C 
ATOM      8  N   UNL A   1      33.949  29.625  27.208  1.00  0.00    -0.328 N 
ATOM      9  C   UNL A   1      35.726  31.047  27.770  1.00  0.00     0.083 C 
ATOM     10  C   UNL A   1      35.325  29.591  27.685  1.00  0.00     0.263 C 
ATOM     11  H   UNL A   1      33.394  28.884  27.637  1.00  0.00     0.348 HD
BRANCH   8  12
ATOM     12  C   UNL A   1      33.717  29.117  25.857  1.00  0.00     0.299 C 
BRANCH  12  13
ATOM     13  C   UNL A   1      33.091  27.744  25.712  1.00  0.00     0.007 A 
ATOM     14  C   UNL A   1      31.759  27.621  25.259  1.00  0.00     0.012 A 
ATOM     15  C   UNL A   1      33.795  26.578  26.041  1.00  0.00     0.015 A 
ATOM     16  C   UNL A   1      31.164  26.370  25.059  1.00  0.00     0.026 A 
ATOM     17  C   UNL A   1      33.192  25.348  25.837  1.00  0.00    -0.022 A 
ATOM     18  C   UNL A   1      31.895  25.233  25.341  1.00  0.00     0.040 A 
ATOM     19  C   UNL A   1      33.800  23.991  25.959  1.00  0.00     0.059 C 
ATOM     20  N   UNL A   1      31.500  23.902  25.188  1.00  0.00    -0.374 N 
ATOM     21  C   UNL A   1      32.550  23.102  25.833  1.00  0.00     0.121 C 
ATOM     22  C   UNL A   1      30.925  23.487  23.927  1.00  0.00     0.143 C 
ENDBRANCH  12  13
ENDBRANCH   8  12
ENDBRANCH   3   5
ENDBRANCH   2   3
ENDBRANCH   1   2
BRANCH   1  23
ATOM     23  C   UNL A   1      32.946  36.094  29.635  1.00  0.00     0.275 C 
BRANCH  23  24
ATOM     24  O   UNL A   1      32.334  35.368  30.720  1.00  0.00    -0.458 OA
BRANCH  24  25
ATOM     25  C   UNL A   1      32.614  35.832  31.956  1.00  0.00     0.338 C 
ATOM     26  O   UNL A   1      32.012  36.684  32.594  1.00  0.00    -0.246 OA
BRANCH  25  27
ATOM     27  C   UNL A   1      33.749  35.091  32.515  1.00  0.00     0.060 A 
ATOM     28  C   UNL A   1      35.006  35.690  32.498  1.00  0.00     0.016 A 
ATOM     29  C   UNL A   1      33.599  33.769  32.931  1.00  0.00     0.016 A 
ATOM     30  C   UNL A   1      36.138  34.953  32.826  1.00  0.00     0.010 A 
ATOM     31  C   UNL A   1      34.729  33.049  33.331  1.00  0.00     0.010 A 
ATOM     32  C   UNL A   1      36.010  33.628  33.258  1.00  0.00    -0.014 A 
BRANCH  32  33
ATOM     33  C   UNL A   1      37.221  32.850  33.615  1.00  0.00     0.031 A 
ATOM     34  C   UNL A   1      37.897  33.070  34.937  1.00  0.00     0.074 A 
ATOM     35  C   UNL A   1      37.695  31.923  32.761  1.00  0.00     0.049 A 
ATOM     36  N   UNL A   1      39.039  32.600  35.369  1.00  0.00    -0.248 NA
ATOM     37  C   UNL A   1      37.199  33.936  35.900  1.00  0.00     0.031 C 
ATOM     38  C   UNL A   1      37.093  31.571  31.472  1.00  0.00     0.029 A 
ATOM     39  N   UNL A   1      38.790  31.102  32.851  1.00  0.00    -0.354 N 
ATOM     40  C   UNL A   1      39.216  33.143  36.635  1.00  0.00     0.074 A 
ATOM     41  C   UNL A   1      38.064  33.978  36.903  1.00  0.00     0.031 C 
ATOM     42  C   UNL A   1      37.812  30.589  30.905  1.00  0.00     0.029 A 
ATOM     43  C   UNL A   1      38.962  30.295  31.754  1.00  0.00     0.049 A 
ATOM     44  H   UNL A   1      39.395  31.095  33.627  1.00  0.00     0.167 HD
ATOM     45  C   UNL A   1      40.249  32.961  37.491  1.00  0.00     0.037 A 
ATOM     46  C   UNL A   1      39.955  29.440  31.447  1.00  0.00     0.037 A 
ATOM     47  C   UNL A   1      41.375  32.102  37.234  1.00  0.00     0.049 A 
ATOM     48  C   UNL A   1      41.109  29.290  32.393  1.00  0.00     0.074 A 
ATOM     49  C   UNL A   1      42.482  31.865  38.031  1.00  0.00     0.029 A 
ATOM     50  N   UNL A   1      41.528  31.327  36.095  1.00  0.00    -0.354 N 
ATOM     51  N   UNL A   1      41.303  29.864  33.556  1.00  0.00    -0.248 NA
ATOM     52  C   UNL A   1      42.195  28.393  31.975  1.00  0.00     0.031 C 
ATOM     53  C   UNL A   1      43.315  30.960  37.363  1.00  0.00     0.029 A 
ATOM     54  C   UNL A   1      42.712  30.613  36.164  1.00  0.00     0.049 A 
ATOM     55  H   UNL A   1      40.889  31.289  35.347  1.00  0.00     0.167 HD
ATOM     56  C   UNL A   1      42.525  29.394  34.012  1.00  0.00     0.074 A 
ATOM     57  C   UNL A   1      43.021  28.473  33.008  1.00  0.00     0.031 C 
ATOM     58  C   UNL A   1      43.183  29.702  35.155  1.00  0.00     0.037 A 
BRANCH  45  59
ATOM     59  C   UNL A   1      40.220  33.730  38.777  1.00  0.00     0.057 A 
ATOM     60  C   UNL A   1      39.528  33.267  39.901  1.00  0.00     0.134 A 
ATOM     61  C   UNL A   1      40.919  34.938  38.897  1.00  0.00     0.134 A 
ATOM     62  F   UNL A   1      38.826  32.125  39.846  1.00  0.00    -0.206 F 
ATOM     63  C   UNL A   1      39.519  33.988  41.098  1.00  0.00     0.040 A 
ATOM     64  C   UNL A   1      40.932  35.658  40.092  1.00  0.00     0.040 A 
ATOM     65  F   UNL A   1      41.603  35.435  37.854  1.00  0.00    -0.206 F 
ATOM     66  C   UNL A   1      40.227  35.184  41.197  1.00  0.00     0.006 A 
ENDBRANCH  45  59
BRANCH  46  67
ATOM     67  C   UNL A   1      39.915  28.690  30.169  1.00  0.00     0.057 A 
ATOM     68  C   UNL A   1      39.256  27.460  30.074  1.00  0.00     0.134 A 
ATOM     69  C   UNL A   1      40.529  29.187  29.012  1.00  0.00     0.134 A 
ATOM     70  F   UNL A   1      38.669  26.924  31.155  1.00  0.00    -0.206 F 
ATOM     71  C   UNL A   1      39.212  26.746  28.876  1.00  0.00     0.040 A 
ATOM     72  C   UNL A   1      40.475  28.495  27.802  1.00  0.00     0.040 A 
ATOM     73  F   UNL A   1      41.175  30.362  29.041  1.00  0.00    -0.206 F 
ATOM     74  C   UNL A   1      39.819  27.268  27.734  1.00  0.00     0.006 A 
ENDBRANCH  46  67
BRANCH  58  75
ATOM     75  C   UNL A   1      44.495  29.019  35.384  1.00  0.00     0.057 A 
ATOM     76  C   UNL A   1      45.700  29.585  34.950  1.00  0.00     0.134 A 
ATOM     77  C   UNL A   1      44.555  27.798  36.065  1.00  0.00     0.134 A 
ATOM     78  F   UNL A   1      45.702  30.746  34.279  1.00  0.00    -0.206 F 
ATOM     79  C   UNL A   1      46.922  28.950  35.173  1.00  0.00     0.040 A 
ATOM     80  C   UNL A   1      45.773  27.161  36.308  1.00  0.00     0.040 A 
ATOM     81  F   UNL A   1      43.435  27.208  36.508  1.00  0.00    -0.206 F 
ATOM     82  C   UNL A   1      46.960  27.736  35.858  1.00  0.00     0.006 A 
ENDBRANCH  58  75
ENDBRANCH  32  33
ENDBRANCH  25  27
ENDBRANCH  24  25
ENDBRANCH  23  24
ENDBRANCH   1  23
TORSDOF 13
ENDMDL
MODEL 3
REMARK VINA RESULT:     -11.2      3.281      8.018
REMARK SMILES C[C@@H]1[C@H](C(=O)OCCOC(=O)c2ccc(-c3c4nc(c(-c5c(F)cccc5F)c5ccc([nH]5)c(-c5c(F)cccc5F)c5nc(c(-c6c(F)cccc6F)c6ccc3[nH]6)C=C5)C=C4)cc2)CC[N@@H+]1Cc1ccc2c(c1)CCN2C
REMARK SMILES IDX 7 1 6 2 4 3 5 4 3 5 1 6 2 7 68 8 66 9 67 10 69 12 70 13
REMARK SMILES IDX 71 14 75 15 72 16 74 17 73 18 76 19 78 20 77 21 79 22 8 23
REMARK SMILES IDX 9 24 10 25 11 26 12 27 13 28 65 29 14 30 64 31 15 32 16 33
REMARK SMILES IDX 17 34 58 35 18 36 63 37 57 38 59 39 19 40 62 41 56 42 55 43
REMARK SMILES IDX 20 45 46 46 29 47 45 48 30 49 33 50 44 51 60 52 31 53 32 54
REMARK SMILES IDX 43 56 61 57 34 58 21 59 22 60 27 61 23 62 24 63 26 64 28 65
REMARK SMILES IDX 25 66 47 67 48 68 53 69 49 70 50 71 52 72 54 73 51 74 35 75
REMARK SMILES IDX 36 76 41 77 37 78 38 79 40 80 42 81 39 82
REMARK H PARENT 68 11 59 44 33 55
REMARK Flexibility Score: inf
ROOT
ATOM      1  C   UNL A   1      32.245  28.933  24.746  1.00  0.00     0.274 C 
ENDROOT
BRANCH   1   2
ATOM      2  O   UNL A   1      31.372  27.797  24.886  1.00  0.00    -0.462 OA
BRANCH   2   3
ATOM      3  C   UNL A   1      31.896  26.669  25.408  1.00  0.00     0.315 C 
ATOM      4  O   UNL A   1      32.870  26.649  26.157  1.00  0.00    -0.252 OA
BRANCH   3   5
ATOM      5  C   UNL A   1      31.123  25.405  25.089  1.00  0.00     0.162 C 
ATOM      6  C   UNL A   1      31.791  25.357  22.541  1.00  0.00     0.076 C 
ATOM      7  C   UNL A   1      30.962  24.790  23.685  1.00  0.00     0.195 C 
ATOM      8  N   UNL A   1      30.978  23.327  23.910  1.00  0.00    -0.328 N 
ATOM      9  C   UNL A   1      31.595  24.259  25.971  1.00  0.00     0.083 C 
ATOM     10  C   UNL A   1      30.908  23.067  25.342  1.00  0.00     0.263 C 
ATOM     11  H   UNL A   1      30.135  23.002  23.437  1.00  0.00     0.348 HD
BRANCH   8  12
ATOM     12  C   UNL A   1      31.844  22.443  23.131  1.00  0.00     0.299 C 
BRANCH  12  13
ATOM     13  C   UNL A   1      33.172  22.036  23.736  1.00  0.00     0.007 A 
ATOM     14  C   UNL A   1      33.310  20.770  24.347  1.00  0.00     0.012 A 
ATOM     15  C   UNL A   1      34.277  22.899  23.730  1.00  0.00     0.015 A 
ATOM     16  C   UNL A   1      34.535  20.335  24.867  1.00  0.00     0.026 A 
ATOM     17  C   UNL A   1      35.481  22.453  24.248  1.00  0.00    -0.022 A 
ATOM     18  C   UNL A   1      35.623  21.182  24.803  1.00  0.00     0.040 A 
ATOM     19  C   UNL A   1      36.812  23.126  24.201  1.00  0.00     0.059 C 
ATOM     20  N   UNL A   1      36.927  20.934  25.237  1.00  0.00    -0.374 N 
ATOM     21  C   UNL A   1      37.626  22.223  25.144  1.00  0.00     0.121 C 
ATOM     22  C   UNL A   1      37.577  19.710  24.824  1.00  0.00     0.143 C 
ENDBRANCH  12  13
ENDBRANCH   8  12
ENDBRANCH   3   5
ENDBRANCH   2   3
ENDBRANCH   1   2
BRANCH   1  23
ATOM     23  C   UNL A   1      31.626  30.141  25.450  1.00  0.00     0.275 C 
BRANCH  23  24
ATOM     24  O   UNL A   1      32.135  30.261  26.794  1.00  0.00    -0.458 OA
BRANCH  24  25
ATOM     25  C   UNL A   1      32.713  31.444  27.089  1.00  0.00     0.338 C 
ATOM     26  O   UNL A   1      32.227  32.563  26.998  1.00  0.00    -0.246 OA
BRANCH  25  27
ATOM     27  C   UNL A   1      34.052  31.215  27.642  1.00  0.00     0.060 A 
ATOM     28  C   UNL A   1      34.437  29.907  27.928  1.00  0.00     0.016 A 
ATOM     29  C   UNL A   1      34.867  32.287  27.998  1.00  0.00     0.016 A 
ATOM     30  C   UNL A   1      35.606  29.661  28.638  1.00  0.00     0.010 A 
ATOM     31  C   UNL A   1      36.080  32.035  28.647  1.00  0.00     0.010 A 
ATOM     32  C   UNL A   1      36.446  30.722  28.994  1.00  0.00    -0.014 A 
BRANCH  32  33
ATOM     33  C   UNL A   1      37.696  30.451  29.744  1.00  0.00     0.031 A 
ATOM     34  C   UNL A   1      38.808  29.672  29.101  1.00  0.00     0.074 A 
ATOM     35  C   UNL A   1      37.844  30.931  30.993  1.00  0.00     0.049 A 
ATOM     36  N   UNL A   1      39.909  29.209  29.637  1.00  0.00    -0.248 NA
ATOM     37  C   UNL A   1      38.661  29.370  27.670  1.00  0.00     0.031 C 
ATOM     38  C   UNL A   1      36.864  31.755  31.705  1.00  0.00     0.029 A 
ATOM     39  N   UNL A   1      38.879  30.803  31.883  1.00  0.00    -0.354 N 
ATOM     40  C   UNL A   1      40.566  28.529  28.621  1.00  0.00     0.074 A 
ATOM     41  C   UNL A   1      39.742  28.638  27.435  1.00  0.00     0.031 C 
ATOM     42  C   UNL A   1      37.355  32.078  32.912  1.00  0.00     0.029 A 
ATOM     43  C   UNL A   1      38.649  31.427  33.084  1.00  0.00     0.049 A 
ATOM     44  H   UNL A   1      39.706  30.310  31.680  1.00  0.00     0.167 HD
ATOM     45  C   UNL A   1      41.748  27.871  28.675  1.00  0.00     0.037 A 
ATOM     46  C   UNL A   1      39.382  31.442  34.213  1.00  0.00     0.037 A 
ATOM     47  C   UNL A   1      42.580  27.794  29.847  1.00  0.00     0.049 A 
ATOM     48  C   UNL A   1      40.667  30.668  34.262  1.00  0.00     0.074 A 
ATOM     49  C   UNL A   1      43.787  27.136  30.009  1.00  0.00     0.029 A 
ATOM     50  N   UNL A   1      42.295  28.412  31.055  1.00  0.00    -0.354 N 
ATOM     51  N   UNL A   1      41.244  29.967  33.317  1.00  0.00    -0.248 NA
ATOM     52  C   UNL A   1      41.390  30.667  35.541  1.00  0.00     0.031 C 
ATOM     53  C   UNL A   1      44.223  27.340  31.324  1.00  0.00     0.029 A 
ATOM     54  C   UNL A   1      43.300  28.148  31.970  1.00  0.00     0.049 A 
ATOM     55  H   UNL A   1      41.496  28.958  31.236  1.00  0.00     0.167 HD
ATOM     56  C   UNL A   1      42.400  29.448  33.881  1.00  0.00     0.074 A 
ATOM     57  C   UNL A   1      42.451  29.930  35.248  1.00  0.00     0.031 C 
ATOM     58  C   UNL A   1      43.331  28.640  33.323  1.00  0.00     0.037 A 
BRANCH  45  59
ATOM     59  C   UNL A   1      42.196  27.156  27.437  1.00  0.00     0.057 A 
ATOM     60  C   UNL A   1      42.930  27.802  26.435  1.00  0.00     0.134 A 
ATOM     61  C   UNL A   1      41.912  25.797  27.260  1.00  0.00     0.134 A 
ATOM     62  F   UNL A   1      43.220  29.107  26.538  1.00  0.00    -0.206 F 
ATOM     63  C   UNL A   1      43.352  27.122  25.290  1.00  0.00     0.040 A 
ATOM     64  C   UNL A   1      42.344  25.102  26.129  1.00  0.00     0.040 A 
ATOM     65  F   UNL A   1      41.214  25.122  28.186  1.00  0.00    -0.206 F 
ATOM     66  C   UNL A   1      43.064  25.766  25.138  1.00  0.00     0.006 A 
ENDBRANCH  45  59
BRANCH  46  67
ATOM     67  C   UNL A   1      38.896  32.186  35.399  1.00  0.00     0.057 A 
ATOM     68  C   UNL A   1      39.108  33.563  35.525  1.00  0.00     0.134 A 
ATOM     69  C   UNL A   1      38.203  31.541  36.432  1.00  0.00     0.134 A 
ATOM     70  F   UNL A   1      39.784  34.230  34.577  1.00  0.00    -0.206 F 
ATOM     71  C   UNL A   1      38.653  34.273  36.637  1.00  0.00     0.040 A 
ATOM     72  C   UNL A   1      37.724  32.242  37.539  1.00  0.00     0.040 A 
ATOM     73  F   UNL A   1      37.968  30.222  36.368  1.00  0.00    -0.206 F 
ATOM     74  C   UNL A   1      37.954  33.611  37.645  1.00  0.00     0.006 A 
ENDBRANCH  46  67
BRANCH  58  75
ATOM     75  C   UNL A   1      44.490  28.248  34.184  1.00  0.00     0.057 A 
ATOM     76  C   UNL A   1      44.470  27.074  34.948  1.00  0.00     0.134 A 
ATOM     77  C   UNL A   1      45.644  29.039  34.233  1.00  0.00     0.134 A 
ATOM     78  F   UNL A   1      43.385  26.285  34.952  1.00  0.00    -0.206 F 
ATOM     79  C   UNL A   1      45.556  26.708  35.744  1.00  0.00     0.040 A 
ATOM     80  C   UNL A   1      46.742  28.674  35.013  1.00  0.00     0.040 A 
ATOM     81  F   UNL A   1      45.723  30.173  33.521  1.00  0.00    -0.206 F 
ATOM     82  C   UNL A   1      46.697  27.507  35.773  1.00  0.00     0.006 A 
ENDBRANCH  58  75
ENDBRANCH  32  33
ENDBRANCH  25  27
ENDBRANCH  24  25
ENDBRANCH  23  24
ENDBRANCH   1  23
TORSDOF 13
ENDMDL
