MODEL 1
REMARK VINA RESULT:      -9.4      0.000      0.000
REMARK SMILES Cc1nnc(SCCC(=O)OCCOC(=O)c2ccc(-c3c4nc(c(-c5c(F)cccc5F)c5ccc([nH]5)c(-c5c(F)cccc5F)c5nc(c(-c6c(F)cccc6F)c6ccc3[nH]6)C=C5)C=C4)cc2)s1
REMARK SMILES IDX 12 1 11 2 9 3 10 4 8 5 7 6 6 7 5 8 1 9 2 10 3 11 71 12 4 13
REMARK SMILES IDX 13 14 14 15 15 16 16 17 17 18 18 19 70 20 19 21 69 22 20 23
REMARK SMILES IDX 21 24 22 25 63 26 23 27 68 28 62 29 64 30 24 31 67 32 61 33
REMARK SMILES IDX 60 34 25 36 51 37 34 38 50 39 35 40 38 41 49 42 65 43 36 44
REMARK SMILES IDX 37 45 48 47 66 48 39 49 26 50 27 51 32 52 28 53 29 54 31 55
REMARK SMILES IDX 33 56 30 57 52 58 53 59 58 60 54 61 55 62 57 63 59 64 56 65
REMARK SMILES IDX 40 66 41 67 46 68 42 69 43 70 45 71 47 72 44 73
REMARK H PARENT 64 35 38 46
REMARK Flexibility Score: inf
ROOT
ATOM      1  C   UNL A   1      34.431  34.899  28.366  1.00  0.00     0.274 C 
ENDROOT
BRANCH   1   2
ATOM      2  O   UNL A   1      33.986  35.312  29.673  1.00  0.00    -0.462 OA
BRANCH   2   3
ATOM      3  C   UNL A   1      32.882  36.090  29.734  1.00  0.00     0.306 C 
ATOM      4  O   UNL A   1      32.243  36.469  28.759  1.00  0.00    -0.252 OA
BRANCH   3   5
ATOM      5  C   UNL A   1      32.543  36.529  31.139  1.00  0.00     0.134 C 
BRANCH   5   6
ATOM      6  C   UNL A   1      33.637  37.271  31.900  1.00  0.00     0.089 C 
BRANCH   6   7
ATOM      7  S   UNL A   1      33.959  36.568  33.554  1.00  0.00    -0.093 SA
BRANCH   7   8
ATOM      8  C   UNL A   1      34.338  34.915  33.138  1.00  0.00     0.174 A 
ATOM      9  C   UNL A   1      36.099  31.772  31.848  1.00  0.00     0.081 C 
ATOM     10  C   UNL A   1      35.261  32.863  32.402  1.00  0.00     0.115 A 
ATOM     11  N   UNL A   1      33.955  32.793  32.545  1.00  0.00    -0.143 NA
ATOM     12  S   UNL A   1      35.942  34.367  32.874  1.00  0.00    -0.091 S 
ATOM     13  N   UNL A   1      33.418  33.990  32.980  1.00  0.00    -0.132 NA
ENDBRANCH   7   8
ENDBRANCH   6   7
ENDBRANCH   5   6
ENDBRANCH   3   5
ENDBRANCH   2   3
ENDBRANCH   1   2
BRANCH   1  14
ATOM     14  C   UNL A   1      33.969  33.478  28.034  1.00  0.00     0.275 C 
BRANCH  14  15
ATOM     15  O   UNL A   1      35.075  32.649  27.639  1.00  0.00    -0.458 OA
BRANCH  15  16
ATOM     16  C   UNL A   1      34.881  31.322  27.794  1.00  0.00     0.338 C 
ATOM     17  O   UNL A   1      33.908  30.659  27.479  1.00  0.00    -0.246 OA
BRANCH  16  18
ATOM     18  C   UNL A   1      36.113  30.714  28.297  1.00  0.00     0.060 A 
ATOM     19  C   UNL A   1      36.012  29.529  29.029  1.00  0.00     0.016 A 
ATOM     20  C   UNL A   1      37.344  31.337  28.089  1.00  0.00     0.016 A 
ATOM     21  C   UNL A   1      37.159  28.947  29.554  1.00  0.00     0.010 A 
ATOM     22  C   UNL A   1      38.492  30.750  28.612  1.00  0.00     0.010 A 
ATOM     23  C   UNL A   1      38.404  29.555  29.345  1.00  0.00    -0.014 A 
BRANCH  23  24
ATOM     24  C   UNL A   1      39.628  28.942  29.899  1.00  0.00     0.031 A 
ATOM     25  C   UNL A   1      40.254  29.514  31.133  1.00  0.00     0.074 A 
ATOM     26  C   UNL A   1      40.178  27.893  29.262  1.00  0.00     0.049 A 
ATOM     27  N   UNL A   1      41.380  29.191  31.712  1.00  0.00    -0.248 NA
ATOM     28  C   UNL A   1      39.518  30.598  31.801  1.00  0.00     0.031 C 
ATOM     29  C   UNL A   1      39.633  27.253  28.063  1.00  0.00     0.029 A 
ATOM     30  N   UNL A   1      41.324  27.191  29.526  1.00  0.00    -0.354 N 
ATOM     31  C   UNL A   1      41.499  30.042  32.802  1.00  0.00     0.074 A 
ATOM     32  C   UNL A   1      40.339  30.909  32.794  1.00  0.00     0.031 C 
ATOM     33  C   UNL A   1      40.450  26.256  27.690  1.00  0.00     0.029 A 
ATOM     34  C   UNL A   1      41.592  26.215  28.597  1.00  0.00     0.049 A 
ATOM     35  H   UNL A   1      41.899  27.368  30.305  1.00  0.00     0.167 HD
ATOM     36  C   UNL A   1      42.490  30.090  33.724  1.00  0.00     0.037 A 
ATOM     37  C   UNL A   1      42.658  25.402  28.481  1.00  0.00     0.037 A 
ATOM     38  C   UNL A   1      43.634  29.217  33.718  1.00  0.00     0.049 A 
ATOM     39  C   UNL A   1      43.760  25.502  29.496  1.00  0.00     0.074 A 
ATOM     40  C   UNL A   1      44.688  29.169  34.613  1.00  0.00     0.029 A 
ATOM     41  N   UNL A   1      43.873  28.239  32.764  1.00  0.00    -0.354 N 
ATOM     42  N   UNL A   1      43.858  26.300  30.533  1.00  0.00    -0.248 NA
ATOM     43  C   UNL A   1      44.899  24.591  29.327  1.00  0.00     0.031 C 
ATOM     44  C   UNL A   1      45.583  28.185  34.179  1.00  0.00     0.029 A 
ATOM     45  C   UNL A   1      45.066  27.592  33.038  1.00  0.00     0.049 A 
ATOM     46  H   UNL A   1      43.282  28.035  32.003  1.00  0.00     0.167 HD
ATOM     47  C   UNL A   1      45.056  25.973  31.152  1.00  0.00     0.074 A 
ATOM     48  C   UNL A   1      45.643  24.895  30.382  1.00  0.00     0.031 C 
ATOM     49  C   UNL A   1      45.622  26.515  32.258  1.00  0.00     0.037 A 
BRANCH  36  50
ATOM     50  C   UNL A   1      42.387  31.133  34.796  1.00  0.00     0.057 A 
ATOM     51  C   UNL A   1      41.761  30.875  36.022  1.00  0.00     0.134 A 
ATOM     52  C   UNL A   1      42.946  32.404  34.610  1.00  0.00     0.134 A 
ATOM     53  F   UNL A   1      41.192  29.683  36.258  1.00  0.00    -0.206 F 
ATOM     54  C   UNL A   1      41.679  31.850  37.019  1.00  0.00     0.040 A 
ATOM     55  C   UNL A   1      42.890  33.378  35.608  1.00  0.00     0.040 A 
ATOM     56  F   UNL A   1      43.562  32.716  33.460  1.00  0.00    -0.206 F 
ATOM     57  C   UNL A   1      42.251  33.104  36.815  1.00  0.00     0.006 A 
ENDBRANCH  36  50
BRANCH  37  58
ATOM     58  C   UNL A   1      42.733  24.435  27.359  1.00  0.00     0.057 A 
ATOM     59  C   UNL A   1      42.323  23.107  27.520  1.00  0.00     0.134 A 
ATOM     60  C   UNL A   1      43.213  24.813  26.099  1.00  0.00     0.134 A 
ATOM     61  F   UNL A   1      41.871  22.680  28.709  1.00  0.00    -0.206 F 
ATOM     62  C   UNL A   1      42.402  22.185  26.475  1.00  0.00     0.040 A 
ATOM     63  C   UNL A   1      43.275  23.909  25.038  1.00  0.00     0.040 A 
ATOM     64  F   UNL A   1      43.616  26.074  25.879  1.00  0.00    -0.206 F 
ATOM     65  C   UNL A   1      42.874  22.588  25.227  1.00  0.00     0.006 A 
ENDBRANCH  37  58
BRANCH  49  66
ATOM     66  C   UNL A   1      46.921  25.924  32.714  1.00  0.00     0.057 A 
ATOM     67  C   UNL A   1      48.152  26.389  32.236  1.00  0.00     0.134 A 
ATOM     68  C   UNL A   1      46.939  24.901  33.671  1.00  0.00     0.134 A 
ATOM     69  F   UNL A   1      48.199  27.357  31.308  1.00  0.00    -0.206 F 
ATOM     70  C   UNL A   1      49.358  25.841  32.677  1.00  0.00     0.040 A 
ATOM     71  C   UNL A   1      48.139  24.362  34.137  1.00  0.00     0.040 A 
ATOM     72  F   UNL A   1      45.793  24.417  34.173  1.00  0.00    -0.206 F 
ATOM     73  C   UNL A   1      49.352  24.830  33.636  1.00  0.00     0.006 A 
ENDBRANCH  49  66
ENDBRANCH  23  24
ENDBRANCH  16  18
ENDBRANCH  15  16
ENDBRANCH  14  15
ENDBRANCH   1  14
TORSDOF 14
ENDMDL
MODEL 2
REMARK VINA RESULT:      -9.4      4.048      5.355
REMARK SMILES Cc1nnc(SCCC(=O)OCCOC(=O)c2ccc(-c3c4nc(c(-c5c(F)cccc5F)c5ccc([nH]5)c(-c5c(F)cccc5F)c5nc(c(-c6c(F)cccc6F)c6ccc3[nH]6)C=C5)C=C4)cc2)s1
REMARK SMILES IDX 12 1 11 2 9 3 10 4 8 5 7 6 6 7 5 8 1 9 2 10 3 11 71 12 4 13
REMARK SMILES IDX 13 14 14 15 15 16 16 17 17 18 18 19 70 20 19 21 69 22 20 23
REMARK SMILES IDX 21 24 22 25 63 26 23 27 68 28 62 29 64 30 24 31 67 32 61 33
REMARK SMILES IDX 60 34 25 36 51 37 34 38 50 39 35 40 38 41 49 42 65 43 36 44
REMARK SMILES IDX 37 45 48 47 66 48 39 49 26 50 27 51 32 52 28 53 29 54 31 55
REMARK SMILES IDX 33 56 30 57 52 58 53 59 58 60 54 61 55 62 57 63 59 64 56 65
REMARK SMILES IDX 40 66 41 67 46 68 42 69 43 70 45 71 47 72 44 73
REMARK H PARENT 64 35 38 46
REMARK Flexibility Score: inf
ROOT
ATOM      1  C   UNL A   1      35.217  34.933  32.823  1.00  0.00     0.274 C 
ENDROOT
BRANCH   1   2
ATOM      2  O   UNL A   1      34.191  35.937  32.951  1.00  0.00    -0.462 OA
BRANCH   2   3
ATOM      3  C   UNL A   1      33.128  35.843  32.121  1.00  0.00     0.306 C 
ATOM      4  O   UNL A   1      32.065  35.303  32.407  1.00  0.00    -0.252 OA
BRANCH   3   5
ATOM      5  C   UNL A   1      33.399  36.406  30.746  1.00  0.00     0.134 C 
BRANCH   5   6
ATOM      6  C   UNL A   1      32.872  35.596  29.565  1.00  0.00     0.089 C 
BRANCH   6   7
ATOM      7  S   UNL A   1      34.180  34.668  28.695  1.00  0.00    -0.093 SA
BRANCH   7   8
ATOM      8  C   UNL A   1      33.242  33.394  27.957  1.00  0.00     0.174 A 
ATOM      9  C   UNL A   1      32.192  30.143  26.234  1.00  0.00     0.081 C 
ATOM     10  C   UNL A   1      32.396  31.453  26.898  1.00  0.00     0.115 A 
ATOM     11  N   UNL A   1      31.557  32.463  26.818  1.00  0.00    -0.143 NA
ATOM     12  S   UNL A   1      33.809  31.782  27.818  1.00  0.00    -0.091 S 
ATOM     13  N   UNL A   1      32.050  33.594  27.440  1.00  0.00    -0.132 NA
ENDBRANCH   7   8
ENDBRANCH   6   7
ENDBRANCH   5   6
ENDBRANCH   3   5
ENDBRANCH   2   3
ENDBRANCH   1   2
BRANCH   1  14
ATOM     14  C   UNL A   1      34.918  33.704  33.686  1.00  0.00     0.275 C 
BRANCH  14  15
ATOM     15  O   UNL A   1      35.772  32.603  33.338  1.00  0.00    -0.458 OA
BRANCH  15  16
ATOM     16  C   UNL A   1      35.548  32.065  32.119  1.00  0.00     0.338 C 
ATOM     17  O   UNL A   1      34.511  32.052  31.479  1.00  0.00    -0.246 OA
BRANCH  16  18
ATOM     18  C   UNL A   1      36.815  31.587  31.566  1.00  0.00     0.060 A 
ATOM     19  C   UNL A   1      37.034  31.734  30.194  1.00  0.00     0.016 A 
ATOM     20  C   UNL A   1      37.750  30.955  32.387  1.00  0.00     0.016 A 
ATOM     21  C   UNL A   1      38.210  31.255  29.632  1.00  0.00     0.010 A 
ATOM     22  C   UNL A   1      38.930  30.480  31.822  1.00  0.00     0.010 A 
ATOM     23  C   UNL A   1      39.163  30.628  30.444  1.00  0.00    -0.014 A 
BRANCH  23  24
ATOM     24  C   UNL A   1      40.417  30.117  29.854  1.00  0.00     0.031 A 
ATOM     25  C   UNL A   1      41.579  31.042  29.661  1.00  0.00     0.074 A 
ATOM     26  C   UNL A   1      40.481  28.830  29.471  1.00  0.00     0.049 A 
ATOM     27  N   UNL A   1      42.720  30.818  29.067  1.00  0.00    -0.248 NA
ATOM     28  C   UNL A   1      41.433  32.402  30.202  1.00  0.00     0.031 C 
ATOM     29  C   UNL A   1      39.407  27.847  29.633  1.00  0.00     0.029 A 
ATOM     30  N   UNL A   1      41.485  28.133  28.852  1.00  0.00    -0.354 N 
ATOM     31  C   UNL A   1      43.425  32.011  29.146  1.00  0.00     0.074 A 
ATOM     32  C   UNL A   1      42.574  32.963  29.830  1.00  0.00     0.031 C 
ATOM     33  C   UNL A   1      39.809  26.674  29.119  1.00  0.00     0.029 A 
ATOM     34  C   UNL A   1      41.146  26.835  28.558  1.00  0.00     0.049 A 
ATOM     35  H   UNL A   1      42.363  28.523  28.641  1.00  0.00     0.167 HD
ATOM     36  C   UNL A   1      44.670  32.281  28.688  1.00  0.00     0.037 A 
ATOM     37  C   UNL A   1      41.832  25.895  27.883  1.00  0.00     0.037 A 
ATOM     38  C   UNL A   1      45.503  31.321  28.014  1.00  0.00     0.049 A 
ATOM     39  C   UNL A   1      43.196  26.233  27.354  1.00  0.00     0.074 A 
ATOM     40  C   UNL A   1      46.787  31.484  27.524  1.00  0.00     0.029 A 
ATOM     41  N   UNL A   1      45.129  30.014  27.734  1.00  0.00    -0.354 N 
ATOM     42  N   UNL A   1      43.862  27.360  27.445  1.00  0.00    -0.248 NA
ATOM     43  C   UNL A   1      43.906  25.172  26.627  1.00  0.00     0.031 C 
ATOM     44  C   UNL A   1      47.176  30.285  26.915  1.00  0.00     0.029 A 
ATOM     45  C   UNL A   1      46.151  29.363  27.063  1.00  0.00     0.049 A 
ATOM     46  H   UNL A   1      44.266  29.609  27.976  1.00  0.00     0.167 HD
ATOM     47  C   UNL A   1      45.074  27.138  26.810  1.00  0.00     0.074 A 
ATOM     48  C   UNL A   1      45.059  25.765  26.348  1.00  0.00     0.031 C 
ATOM     49  C   UNL A   1      46.111  27.992  26.623  1.00  0.00     0.037 A 
BRANCH  36  50
ATOM     50  C   UNL A   1      45.192  33.673  28.882  1.00  0.00     0.057 A 
ATOM     51  C   UNL A   1      45.912  34.042  30.026  1.00  0.00     0.134 A 
ATOM     52  C   UNL A   1      44.995  34.652  27.900  1.00  0.00     0.134 A 
ATOM     53  F   UNL A   1      46.122  33.156  31.012  1.00  0.00    -0.206 F 
ATOM     54  C   UNL A   1      46.403  35.338  30.194  1.00  0.00     0.040 A 
ATOM     55  C   UNL A   1      45.500  35.945  28.045  1.00  0.00     0.040 A 
ATOM     56  F   UNL A   1      44.316  34.365  26.779  1.00  0.00    -0.206 F 
ATOM     57  C   UNL A   1      46.202  36.292  29.198  1.00  0.00     0.006 A 
ENDBRANCH  36  50
BRANCH  37  58
ATOM     58  C   UNL A   1      41.235  24.554  27.666  1.00  0.00     0.057 A 
ATOM     59  C   UNL A   1      40.234  24.355  26.709  1.00  0.00     0.134 A 
ATOM     60  C   UNL A   1      41.651  23.441  28.406  1.00  0.00     0.134 A 
ATOM     61  F   UNL A   1      39.781  25.387  25.981  1.00  0.00    -0.206 F 
ATOM     62  C   UNL A   1      39.656  23.101  26.506  1.00  0.00     0.040 A 
ATOM     63  C   UNL A   1      41.100  22.176  28.197  1.00  0.00     0.040 A 
ATOM     64  F   UNL A   1      42.611  23.565  29.334  1.00  0.00    -0.206 F 
ATOM     65  C   UNL A   1      40.094  22.005  27.248  1.00  0.00     0.006 A 
ENDBRANCH  37  58
BRANCH  49  66
ATOM     66  C   UNL A   1      47.319  27.450  25.921  1.00  0.00     0.057 A 
ATOM     67  C   UNL A   1      47.508  27.616  24.544  1.00  0.00     0.134 A 
ATOM     68  C   UNL A   1      48.320  26.785  26.640  1.00  0.00     0.134 A 
ATOM     69  F   UNL A   1      46.578  28.232  23.799  1.00  0.00    -0.206 F 
ATOM     70  C   UNL A   1      48.644  27.120  23.901  1.00  0.00     0.040 A 
ATOM     71  C   UNL A   1      49.470  26.306  26.013  1.00  0.00     0.040 A 
ATOM     72  F   UNL A   1      48.200  26.600  27.963  1.00  0.00    -0.206 F 
ATOM     73  C   UNL A   1      49.631  26.469  24.638  1.00  0.00     0.006 A 
ENDBRANCH  49  66
ENDBRANCH  23  24
ENDBRANCH  16  18
ENDBRANCH  15  16
ENDBRANCH  14  15
ENDBRANCH   1  14
TORSDOF 14
ENDMDL
MODEL 3
REMARK VINA RESULT:      -9.2      5.158     10.327
REMARK SMILES Cc1nnc(SCCC(=O)OCCOC(=O)c2ccc(-c3c4nc(c(-c5c(F)cccc5F)c5ccc([nH]5)c(-c5c(F)cccc5F)c5nc(c(-c6c(F)cccc6F)c6ccc3[nH]6)C=C5)C=C4)cc2)s1
REMARK SMILES IDX 12 1 11 2 9 3 10 4 8 5 7 6 6 7 5 8 1 9 2 10 3 11 71 12 4 13
REMARK SMILES IDX 13 14 14 15 15 16 16 17 17 18 18 19 70 20 19 21 69 22 20 23
REMARK SMILES IDX 21 24 22 25 63 26 23 27 68 28 62 29 64 30 24 31 67 32 61 33
REMARK SMILES IDX 60 34 25 36 51 37 34 38 50 39 35 40 38 41 49 42 65 43 36 44
REMARK SMILES IDX 37 45 48 47 66 48 39 49 26 50 27 51 32 52 28 53 29 54 31 55
REMARK SMILES IDX 33 56 30 57 52 58 53 59 58 60 54 61 55 62 57 63 59 64 56 65
REMARK SMILES IDX 40 66 41 67 46 68 42 69 43 70 45 71 47 72 44 73
REMARK H PARENT 64 35 38 46
REMARK Flexibility Score: inf
ROOT
ATOM      1  C   UNL A   1      42.811  21.192  25.746  1.00  0.00     0.274 C 
ENDROOT
BRANCH   1   2
ATOM      2  O   UNL A   1      42.328  21.720  26.998  1.00  0.00    -0.462 OA
BRANCH   2   3
ATOM      3  C   UNL A   1      41.065  21.399  27.358  1.00  0.00     0.306 C 
ATOM      4  O   UNL A   1      40.752  20.386  27.974  1.00  0.00    -0.252 OA
BRANCH   3   5
ATOM      5  C   UNL A   1      40.037  22.382  26.851  1.00  0.00     0.134 C 
BRANCH   5   6
ATOM      6  C   UNL A   1      38.872  21.797  26.059  1.00  0.00     0.089 C 
BRANCH   6   7
ATOM      7  S   UNL A   1      37.586  23.030  25.662  1.00  0.00    -0.093 SA
BRANCH   7   8
ATOM      8  C   UNL A   1      36.260  21.987  25.214  1.00  0.00     0.174 A 
ATOM      9  C   UNL A   1      32.761  20.577  24.575  1.00  0.00     0.081 C 
ATOM     10  C   UNL A   1      34.187  20.940  24.752  1.00  0.00     0.115 A 
ATOM     11  N   UNL A   1      35.164  20.067  24.874  1.00  0.00    -0.143 NA
ATOM     12  S   UNL A   1      34.690  22.579  24.861  1.00  0.00    -0.091 S 
ATOM     13  N   UNL A   1      36.374  20.680  25.138  1.00  0.00    -0.132 NA
ENDBRANCH   7   8
ENDBRANCH   6   7
ENDBRANCH   5   6
ENDBRANCH   3   5
ENDBRANCH   2   3
ENDBRANCH   1   2
BRANCH   1  14
ATOM     14  C   UNL A   1      43.591  22.243  24.952  1.00  0.00     0.275 C 
BRANCH  14  15
ATOM     15  O   UNL A   1      43.036  23.555  25.139  1.00  0.00    -0.458 OA
BRANCH  15  16
ATOM     16  C   UNL A   1      43.942  24.545  25.292  1.00  0.00     0.338 C 
ATOM     17  O   UNL A   1      44.911  24.796  24.595  1.00  0.00    -0.246 OA
BRANCH  16  18
ATOM     18  C   UNL A   1      43.519  25.416  26.388  1.00  0.00     0.060 A 
ATOM     19  C   UNL A   1      42.647  24.893  27.346  1.00  0.00     0.016 A 
ATOM     20  C   UNL A   1      43.938  26.746  26.435  1.00  0.00     0.016 A 
ATOM     21  C   UNL A   1      42.195  25.706  28.378  1.00  0.00     0.010 A 
ATOM     22  C   UNL A   1      43.488  27.557  27.473  1.00  0.00     0.010 A 
ATOM     23  C   UNL A   1      42.615  27.040  28.446  1.00  0.00    -0.014 A 
BRANCH  23  24
ATOM     24  C   UNL A   1      42.140  27.910  29.541  1.00  0.00     0.031 A 
ATOM     25  C   UNL A   1      42.846  27.895  30.861  1.00  0.00     0.074 A 
ATOM     26  C   UNL A   1      41.059  28.682  29.339  1.00  0.00     0.049 A 
ATOM     27  N   UNL A   1      42.524  28.499  31.975  1.00  0.00    -0.248 NA
ATOM     28  C   UNL A   1      44.073  27.088  30.942  1.00  0.00     0.031 C 
ATOM     29  C   UNL A   1      40.314  28.778  28.081  1.00  0.00     0.029 A 
ATOM     30  N   UNL A   1      40.388  29.518  30.191  1.00  0.00    -0.354 N 
ATOM     31  C   UNL A   1      43.497  28.133  32.895  1.00  0.00     0.074 A 
ATOM     32  C   UNL A   1      44.411  27.239  32.215  1.00  0.00     0.031 C 
ATOM     33  C   UNL A   1      39.283  29.621  28.248  1.00  0.00     0.029 A 
ATOM     34  C   UNL A   1      39.273  30.090  29.630  1.00  0.00     0.049 A 
ATOM     35  H   UNL A   1      40.677  29.693  31.115  1.00  0.00     0.167 HD
ATOM     36  C   UNL A   1      43.611  28.513  34.190  1.00  0.00     0.037 A 
ATOM     37  C   UNL A   1      38.335  30.880  30.183  1.00  0.00     0.037 A 
ATOM     38  C   UNL A   1      42.694  29.406  34.848  1.00  0.00     0.049 A 
ATOM     39  C   UNL A   1      38.467  31.256  31.631  1.00  0.00     0.074 A 
ATOM     40  C   UNL A   1      42.725  29.870  36.151  1.00  0.00     0.029 A 
ATOM     41  N   UNL A   1      41.576  29.968  34.249  1.00  0.00    -0.354 N 
ATOM     42  N   UNL A   1      39.397  30.917  32.491  1.00  0.00    -0.248 NA
ATOM     43  C   UNL A   1      37.419  32.122  32.188  1.00  0.00     0.031 C 
ATOM     44  C   UNL A   1      41.606  30.685  36.350  1.00  0.00     0.029 A 
ATOM     45  C   UNL A   1      40.901  30.762  35.160  1.00  0.00     0.049 A 
ATOM     46  H   UNL A   1      41.304  29.825  33.314  1.00  0.00     0.167 HD
ATOM     47  C   UNL A   1      39.062  31.545  33.682  1.00  0.00     0.074 A 
ATOM     48  C   UNL A   1      37.849  32.297  33.430  1.00  0.00     0.031 C 
ATOM     49  C   UNL A   1      39.699  31.506  34.878  1.00  0.00     0.037 A 
BRANCH  36  50
ATOM     50  C   UNL A   1      44.752  27.946  34.979  1.00  0.00     0.057 A 
ATOM     51  C   UNL A   1      45.979  28.613  35.092  1.00  0.00     0.134 A 
ATOM     52  C   UNL A   1      44.615  26.728  35.658  1.00  0.00     0.134 A 
ATOM     53  F   UNL A   1      46.181  29.776  34.453  1.00  0.00    -0.206 F 
ATOM     54  C   UNL A   1      47.034  28.082  35.837  1.00  0.00     0.040 A 
ATOM     55  C   UNL A   1      45.654  26.199  36.424  1.00  0.00     0.040 A 
ATOM     56  F   UNL A   1      43.466  26.038  35.593  1.00  0.00    -0.206 F 
ATOM     57  C   UNL A   1      46.870  26.874  36.512  1.00  0.00     0.006 A 
ENDBRANCH  36  50
BRANCH  37  58
ATOM     58  C   UNL A   1      37.192  31.357  29.367  1.00  0.00     0.057 A 
ATOM     59  C   UNL A   1      36.071  30.547  29.150  1.00  0.00     0.134 A 
ATOM     60  C   UNL A   1      37.189  32.631  28.787  1.00  0.00     0.134 A 
ATOM     61  F   UNL A   1      36.023  29.310  29.664  1.00  0.00    -0.206 F 
ATOM     62  C   UNL A   1      34.996  30.981  28.373  1.00  0.00     0.040 A 
ATOM     63  C   UNL A   1      36.111  33.088  28.029  1.00  0.00     0.040 A 
ATOM     64  F   UNL A   1      38.232  33.457  28.964  1.00  0.00    -0.206 F 
ATOM     65  C   UNL A   1      35.012  32.259  27.814  1.00  0.00     0.006 A 
ENDBRANCH  37  58
BRANCH  49  66
ATOM     66  C   UNL A   1      39.111  32.325  35.987  1.00  0.00     0.057 A 
ATOM     67  C   UNL A   1      38.218  31.777  36.915  1.00  0.00     0.134 A 
ATOM     68  C   UNL A   1      39.472  33.669  36.146  1.00  0.00     0.134 A 
ATOM     69  F   UNL A   1      37.823  30.499  36.807  1.00  0.00    -0.206 F 
ATOM     70  C   UNL A   1      37.686  32.544  37.953  1.00  0.00     0.040 A 
ATOM     71  C   UNL A   1      38.966  34.439  37.193  1.00  0.00     0.040 A 
ATOM     72  F   UNL A   1      40.329  34.250  35.293  1.00  0.00    -0.206 F 
ATOM     73  C   UNL A   1      38.066  33.877  38.097  1.00  0.00     0.006 A 
ENDBRANCH  49  66
ENDBRANCH  23  24
ENDBRANCH  16  18
ENDBRANCH  15  16
ENDBRANCH  14  15
ENDBRANCH   1  14
TORSDOF 14
ENDMDL
