MODEL 1
REMARK VINA RESULT:     -12.4      0.000      0.000
REMARK SMILES Cc1ccc(C(=O)NC2CC2)cc1NC(=O)[C@@H]1[C@@H](C(=O)OCCOC(=O)c2ccc(-c3c4nc(c(-c5c(F)cccc5F)c5ccc([nH]5)c(-c5c(F)cccc5F)c5nc(c(-c6c(F)cccc6F)c6ccc3[nH]6)C=C5)C=C4)cc2)[C@H]2C=C[C@@H]1C2
REMARK SMILES IDX 22 1 21 2 19 3 20 4 18 5 17 6 84 7 81 8 83 9 85 10 82 11
REMARK SMILES IDX 15 12 14 13 16 15 13 16 1 17 2 18 3 19 4 20 12 21 5 22 6 23
REMARK SMILES IDX 7 24 8 25 9 27 10 28 11 29 23 30 24 31 25 32 26 33 27 34
REMARK SMILES IDX 28 35 80 36 29 37 79 38 30 39 31 40 32 41 73 42 33 43 78 44
REMARK SMILES IDX 72 45 74 46 34 47 77 48 71 49 70 50 35 52 61 53 44 54 60 55
REMARK SMILES IDX 45 56 48 57 59 58 75 59 46 60 47 61 58 63 76 64 49 65 36 66
REMARK SMILES IDX 37 67 42 68 38 69 39 70 41 71 43 72 40 73 62 74 63 75 68 76
REMARK SMILES IDX 64 77 65 78 67 79 69 80 66 81 50 82 51 83 56 84 52 85 53 86
REMARK SMILES IDX 55 87 57 88 54 89
REMARK H PARENT 14 14 8 26 74 51 48 62
REMARK Flexibility Score: inf
ROOT
ATOM      1  C   UNL A   1      33.406  31.954  27.632  1.00  0.00     0.274 C 
ENDROOT
BRANCH   1   2
ATOM      2  O   UNL A   1      32.731  31.160  26.618  1.00  0.00    -0.462 OA
BRANCH   2   3
ATOM      3  C   UNL A   1      33.117  29.840  26.638  1.00  0.00     0.310 C 
ATOM      4  O   UNL A   1      34.166  29.488  27.171  1.00  0.00    -0.252 OA
BRANCH   3   5
ATOM      5  C   UNL A   1      32.198  28.881  25.858  1.00  0.00     0.119 C 
ATOM      6  C   UNL A   1      32.459  27.300  25.711  1.00  0.00     0.100 C 
ATOM      7  C   UNL A   1      32.432  27.119  24.161  1.00  0.00     0.025 C 
ATOM      8  C   UNL A   1      32.293  29.328  24.360  1.00  0.00     0.027 C 
ATOM      9  C   UNL A   1      33.737  27.659  23.650  1.00  0.00    -0.027 C 
ATOM     10  C   UNL A   1      31.489  28.228  23.693  1.00  0.00     0.017 C 
ATOM     11  C   UNL A   1      33.662  28.989  23.775  1.00  0.00    -0.027 C 
BRANCH   6  12
ATOM     12  C   UNL A   1      31.397  26.374  26.312  1.00  0.00     0.228 C 
ATOM     13  N   UNL A   1      31.245  25.036  26.011  1.00  0.00    -0.326 N 
ATOM     14  H   UNL A   1      30.436  24.667  26.433  1.00  0.00     0.169 HD
ATOM     15  O   UNL A   1      30.609  26.828  27.150  1.00  0.00    -0.274 OA
BRANCH  13  16
ATOM     16  C   UNL A   1      31.933  24.038  25.261  1.00  0.00     0.044 A 
ATOM     17  C   UNL A   1      30.456  24.413  23.153  1.00  0.00     0.046 C 
ATOM     18  C   UNL A   1      31.524  23.703  23.944  1.00  0.00    -0.027 A 
ATOM     19  C   UNL A   1      32.139  22.621  23.257  1.00  0.00     0.006 A 
ATOM     20  C   UNL A   1      33.086  21.818  23.874  1.00  0.00     0.014 A 
ATOM     21  C   UNL A   1      32.960  23.273  25.803  1.00  0.00     0.040 A 
ATOM     22  C   UNL A   1      33.459  22.122  25.172  1.00  0.00     0.041 A 
BRANCH  22  23
ATOM     23  C   UNL A   1      34.252  21.120  25.925  1.00  0.00     0.251 C 
ATOM     24  O   UNL A   1      33.673  20.231  26.541  1.00  0.00    -0.269 OA
ATOM     25  N   UNL A   1      35.626  21.271  25.976  1.00  0.00    -0.349 N 
ATOM     26  H   UNL A   1      36.106  20.672  26.592  1.00  0.00     0.164 HD
BRANCH  25  27
ATOM     27  C   UNL A   1      36.434  22.194  25.243  1.00  0.00     0.082 C 
ATOM     28  C   UNL A   1      36.729  23.613  25.706  1.00  0.00     0.027 C 
ATOM     29  C   UNL A   1      37.803  22.604  25.671  1.00  0.00     0.027 C 
ENDBRANCH  25  27
ENDBRANCH  22  23
ENDBRANCH  13  16
ENDBRANCH   6  12
ENDBRANCH   3   5
ENDBRANCH   2   3
ENDBRANCH   1   2
BRANCH   1  30
ATOM     30  C   UNL A   1      33.094  33.462  27.633  1.00  0.00     0.275 C 
BRANCH  30  31
ATOM     31  O   UNL A   1      32.705  34.052  28.894  1.00  0.00    -0.458 OA
BRANCH  31  32
ATOM     32  C   UNL A   1      33.562  34.701  29.722  1.00  0.00     0.338 C 
ATOM     33  O   UNL A   1      33.321  35.749  30.285  1.00  0.00    -0.246 OA
BRANCH  32  34
ATOM     34  C   UNL A   1      34.773  33.953  30.042  1.00  0.00     0.060 A 
ATOM     35  C   UNL A   1      35.900  34.265  29.286  1.00  0.00     0.016 A 
ATOM     36  C   UNL A   1      34.812  33.039  31.087  1.00  0.00     0.016 A 
ATOM     37  C   UNL A   1      37.120  33.710  29.624  1.00  0.00     0.010 A 
ATOM     38  C   UNL A   1      36.011  32.403  31.346  1.00  0.00     0.010 A 
ATOM     39  C   UNL A   1      37.143  32.704  30.574  1.00  0.00    -0.014 A 
BRANCH  39  40
ATOM     40  C   UNL A   1      38.304  31.845  30.692  1.00  0.00     0.031 A 
ATOM     41  C   UNL A   1      38.339  30.513  30.023  1.00  0.00     0.074 A 
ATOM     42  C   UNL A   1      39.295  32.282  31.506  1.00  0.00     0.049 A 
ATOM     43  N   UNL A   1      39.038  29.505  30.434  1.00  0.00    -0.248 NA
ATOM     44  C   UNL A   1      37.476  30.160  28.889  1.00  0.00     0.031 C 
ATOM     45  C   UNL A   1      40.675  31.855  31.442  1.00  0.00     0.029 A 
ATOM     46  N   UNL A   1      39.275  33.175  32.596  1.00  0.00    -0.354 N 
ATOM     47  C   UNL A   1      39.010  28.557  29.427  1.00  0.00     0.074 A 
ATOM     48  C   UNL A   1      37.883  28.915  28.605  1.00  0.00     0.031 C 
ATOM     49  C   UNL A   1      41.309  32.282  32.543  1.00  0.00     0.029 A 
ATOM     50  C   UNL A   1      40.313  32.827  33.462  1.00  0.00     0.049 A 
ATOM     51  H   UNL A   1      38.640  33.917  32.725  1.00  0.00     0.167 HD
ATOM     52  C   UNL A   1      40.091  27.740  29.242  1.00  0.00     0.037 A 
ATOM     53  C   UNL A   1      40.290  32.557  34.804  1.00  0.00     0.037 A 
ATOM     54  C   UNL A   1      41.116  28.061  30.224  1.00  0.00     0.049 A 
ATOM     55  C   UNL A   1      40.915  31.182  35.029  1.00  0.00     0.074 A 
ATOM     56  C   UNL A   1      42.176  28.949  30.144  1.00  0.00     0.029 A 
ATOM     57  N   UNL A   1      40.951  27.744  31.563  1.00  0.00    -0.354 N 
ATOM     58  N   UNL A   1      40.888  30.227  34.135  1.00  0.00    -0.248 NA
ATOM     59  C   UNL A   1      41.618  30.786  36.244  1.00  0.00     0.031 C 
ATOM     60  C   UNL A   1      42.648  29.183  31.452  1.00  0.00     0.029 A 
ATOM     61  C   UNL A   1      41.885  28.424  32.321  1.00  0.00     0.049 A 
ATOM     62  H   UNL A   1      40.271  27.128  31.921  1.00  0.00     0.167 HD
ATOM     63  C   UNL A   1      41.688  29.192  34.559  1.00  0.00     0.074 A 
ATOM     64  C   UNL A   1      42.058  29.560  35.913  1.00  0.00     0.031 C 
ATOM     65  C   UNL A   1      42.047  28.158  33.737  1.00  0.00     0.037 A 
BRANCH  52  66
ATOM     66  C   UNL A   1      40.412  27.009  27.948  1.00  0.00     0.057 A 
ATOM     67  C   UNL A   1      40.113  25.634  27.805  1.00  0.00     0.134 A 
ATOM     68  C   UNL A   1      41.062  27.570  26.837  1.00  0.00     0.134 A 
ATOM     69  F   UNL A   1      39.375  24.971  28.705  1.00  0.00    -0.206 F 
ATOM     70  C   UNL A   1      40.552  24.856  26.726  1.00  0.00     0.040 A 
ATOM     71  C   UNL A   1      41.530  26.797  25.758  1.00  0.00     0.040 A 
ATOM     72  F   UNL A   1      41.235  28.893  26.726  1.00  0.00    -0.206 F 
ATOM     73  C   UNL A   1      41.298  25.429  25.713  1.00  0.00     0.006 A 
ENDBRANCH  52  66
BRANCH  53  74
ATOM     74  C   UNL A   1      39.345  33.195  35.780  1.00  0.00     0.057 A 
ATOM     75  C   UNL A   1      38.031  32.703  35.930  1.00  0.00     0.134 A 
ATOM     76  C   UNL A   1      39.718  34.200  36.692  1.00  0.00     0.134 A 
ATOM     77  F   UNL A   1      37.552  31.779  35.084  1.00  0.00    -0.206 F 
ATOM     78  C   UNL A   1      37.208  33.062  37.012  1.00  0.00     0.040 A 
ATOM     79  C   UNL A   1      38.903  34.570  37.779  1.00  0.00     0.040 A 
ATOM     80  F   UNL A   1      40.926  34.772  36.624  1.00  0.00    -0.206 F 
ATOM     81  C   UNL A   1      37.659  33.971  37.964  1.00  0.00     0.006 A 
ENDBRANCH  53  74
BRANCH  65  82
ATOM     82  C   UNL A   1      42.758  26.871  34.105  1.00  0.00     0.057 A 
ATOM     83  C   UNL A   1      42.154  25.790  34.752  1.00  0.00     0.134 A 
ATOM     84  C   UNL A   1      44.085  26.626  33.657  1.00  0.00     0.134 A 
ATOM     85  F   UNL A   1      40.873  25.828  35.139  1.00  0.00    -0.206 F 
ATOM     86  C   UNL A   1      42.828  24.581  34.984  1.00  0.00     0.040 A 
ATOM     87  C   UNL A   1      44.742  25.406  33.828  1.00  0.00     0.040 A 
ATOM     88  F   UNL A   1      44.809  27.546  33.004  1.00  0.00    -0.206 F 
ATOM     89  C   UNL A   1      44.119  24.380  34.509  1.00  0.00     0.006 A 
ENDBRANCH  65  82
ENDBRANCH  39  40
ENDBRANCH  32  34
ENDBRANCH  31  32
ENDBRANCH  30  31
ENDBRANCH   1  30
TORSDOF 15
ENDMDL
MODEL 2
REMARK VINA RESULT:     -12.3      2.533      4.103
REMARK SMILES Cc1ccc(C(=O)NC2CC2)cc1NC(=O)[C@@H]1[C@@H](C(=O)OCCOC(=O)c2ccc(-c3c4nc(c(-c5c(F)cccc5F)c5ccc([nH]5)c(-c5c(F)cccc5F)c5nc(c(-c6c(F)cccc6F)c6ccc3[nH]6)C=C5)C=C4)cc2)[C@H]2C=C[C@@H]1C2
REMARK SMILES IDX 22 1 21 2 19 3 20 4 18 5 17 6 84 7 81 8 83 9 85 10 82 11
REMARK SMILES IDX 15 12 14 13 16 15 13 16 1 17 2 18 3 19 4 20 12 21 5 22 6 23
REMARK SMILES IDX 7 24 8 25 9 27 10 28 11 29 23 30 24 31 25 32 26 33 27 34
REMARK SMILES IDX 28 35 80 36 29 37 79 38 30 39 31 40 32 41 73 42 33 43 78 44
REMARK SMILES IDX 72 45 74 46 34 47 77 48 71 49 70 50 35 52 61 53 44 54 60 55
REMARK SMILES IDX 45 56 48 57 59 58 75 59 46 60 47 61 58 63 76 64 49 65 36 66
REMARK SMILES IDX 37 67 42 68 38 69 39 70 41 71 43 72 40 73 62 74 63 75 68 76
REMARK SMILES IDX 64 77 65 78 67 79 69 80 66 81 50 82 51 83 56 84 52 85 53 86
REMARK SMILES IDX 55 87 57 88 54 89
REMARK H PARENT 14 14 8 26 74 51 48 62
REMARK Flexibility Score: inf
ROOT
ATOM      1  C   UNL A   1      32.990  29.546  26.066  1.00  0.00     0.274 C 
ENDROOT
BRANCH   1   2
ATOM      2  O   UNL A   1      31.959  28.538  26.247  1.00  0.00    -0.462 OA
BRANCH   2   3
ATOM      3  C   UNL A   1      32.428  27.261  26.044  1.00  0.00     0.310 C 
ATOM      4  O   UNL A   1      33.631  27.013  26.048  1.00  0.00    -0.252 OA
BRANCH   3   5
ATOM      5  C   UNL A   1      31.347  26.215  25.711  1.00  0.00     0.119 C 
ATOM      6  C   UNL A   1      31.652  24.660  25.428  1.00  0.00     0.100 C 
ATOM      7  C   UNL A   1      30.976  24.456  24.036  1.00  0.00     0.025 C 
ATOM      8  C   UNL A   1      30.752  26.647  24.328  1.00  0.00     0.027 C 
ATOM      9  C   UNL A   1      31.886  25.099  23.027  1.00  0.00    -0.027 C 
ATOM     10  C   UNL A   1      29.834  25.473  24.044  1.00  0.00     0.017 C 
ATOM     11  C   UNL A   1      31.760  26.419  23.205  1.00  0.00    -0.027 C 
BRANCH   6  12
ATOM     12  C   UNL A   1      31.032  23.655  26.404  1.00  0.00     0.228 C 
ATOM     13  N   UNL A   1      31.385  22.325  26.506  1.00  0.00    -0.326 N 
ATOM     14  H   UNL A   1      30.786  21.846  27.123  1.00  0.00     0.169 HD
ATOM     15  O   UNL A   1      30.156  24.040  27.188  1.00  0.00    -0.274 OA
BRANCH  13  16
ATOM     16  C   UNL A   1      32.375  21.451  25.970  1.00  0.00     0.044 A 
ATOM     17  C   UNL A   1      34.334  22.974  26.750  1.00  0.00     0.046 C 
ATOM     18  C   UNL A   1      33.753  21.785  26.029  1.00  0.00    -0.027 A 
ATOM     19  C   UNL A   1      34.717  20.967  25.379  1.00  0.00     0.006 A 
ATOM     20  C   UNL A   1      34.339  19.878  24.609  1.00  0.00     0.014 A 
ATOM     21  C   UNL A   1      32.049  20.292  25.274  1.00  0.00     0.040 A 
ATOM     22  C   UNL A   1      32.991  19.573  24.520  1.00  0.00     0.041 A 
BRANCH  22  23
ATOM     23  C   UNL A   1      32.561  18.595  23.491  1.00  0.00     0.251 C 
ATOM     24  O   UNL A   1      32.330  18.982  22.350  1.00  0.00    -0.269 OA
ATOM     25  N   UNL A   1      32.354  17.282  23.875  1.00  0.00    -0.349 N 
ATOM     26  H   UNL A   1      31.941  16.694  23.203  1.00  0.00     0.164 HD
BRANCH  25  27
ATOM     27  C   UNL A   1      32.666  16.678  25.132  1.00  0.00     0.082 C 
ATOM     28  C   UNL A   1      32.844  15.180  25.330  1.00  0.00     0.027 C 
ATOM     29  C   UNL A   1      33.998  16.088  25.449  1.00  0.00     0.027 C 
ENDBRANCH  25  27
ENDBRANCH  22  23
ENDBRANCH  13  16
ENDBRANCH   6  12
ENDBRANCH   3   5
ENDBRANCH   2   3
ENDBRANCH   1   2
BRANCH   1  30
ATOM     30  C   UNL A   1      33.179  30.540  27.228  1.00  0.00     0.275 C 
BRANCH  30  31
ATOM     31  O   UNL A   1      34.481  31.154  27.361  1.00  0.00    -0.458 OA
BRANCH  31  32
ATOM     32  C   UNL A   1      35.139  31.283  28.541  1.00  0.00     0.338 C 
ATOM     33  O   UNL A   1      34.698  31.843  29.523  1.00  0.00    -0.246 OA
BRANCH  32  34
ATOM     34  C   UNL A   1      36.389  30.536  28.617  1.00  0.00     0.060 A 
ATOM     35  C   UNL A   1      36.595  29.806  29.785  1.00  0.00     0.016 A 
ATOM     36  C   UNL A   1      37.284  30.501  27.555  1.00  0.00     0.016 A 
ATOM     37  C   UNL A   1      37.681  28.957  29.874  1.00  0.00     0.010 A 
ATOM     38  C   UNL A   1      38.427  29.737  27.697  1.00  0.00     0.010 A 
ATOM     39  C   UNL A   1      38.643  29.015  28.880  1.00  0.00    -0.014 A 
BRANCH  39  40
ATOM     40  C   UNL A   1      39.954  28.440  29.105  1.00  0.00     0.031 A 
ATOM     41  C   UNL A   1      40.279  27.068  28.620  1.00  0.00     0.074 A 
ATOM     42  C   UNL A   1      40.814  29.177  29.850  1.00  0.00     0.049 A 
ATOM     43  N   UNL A   1      41.162  26.291  29.158  1.00  0.00    -0.248 NA
ATOM     44  C   UNL A   1      39.535  26.397  27.547  1.00  0.00     0.031 C 
ATOM     45  C   UNL A   1      42.253  29.041  29.836  1.00  0.00     0.029 A 
ATOM     46  N   UNL A   1      40.584  30.181  30.811  1.00  0.00    -0.354 N 
ATOM     47  C   UNL A   1      41.355  25.234  28.286  1.00  0.00     0.074 A 
ATOM     48  C   UNL A   1      40.197  25.238  27.430  1.00  0.00     0.031 C 
ATOM     49  C   UNL A   1      42.759  29.731  30.868  1.00  0.00     0.029 A 
ATOM     50  C   UNL A   1      41.651  30.173  31.710  1.00  0.00     0.049 A 
ATOM     51  H   UNL A   1      39.807  30.784  30.844  1.00  0.00     0.167 HD
ATOM     52  C   UNL A   1      42.585  24.643  28.206  1.00  0.00     0.037 A 
ATOM     53  C   UNL A   1      41.654  30.082  33.077  1.00  0.00     0.037 A 
ATOM     54  C   UNL A   1      43.499  25.296  29.132  1.00  0.00     0.049 A 
ATOM     55  C   UNL A   1      42.544  28.910  33.480  1.00  0.00     0.074 A 
ATOM     56  C   UNL A   1      44.353  26.367  28.929  1.00  0.00     0.029 A 
ATOM     57  N   UNL A   1      43.371  25.130  30.503  1.00  0.00    -0.354 N 
ATOM     58  N   UNL A   1      42.736  27.861  32.721  1.00  0.00    -0.248 NA
ATOM     59  C   UNL A   1      43.285  28.832  34.734  1.00  0.00     0.031 C 
ATOM     60  C   UNL A   1      44.736  26.864  30.193  1.00  0.00     0.029 A 
ATOM     61  C   UNL A   1      44.126  26.083  31.159  1.00  0.00     0.049 A 
ATOM     62  H   UNL A   1      42.826  24.438  30.942  1.00  0.00     0.167 HD
ATOM     63  C   UNL A   1      43.723  27.080  33.276  1.00  0.00     0.074 A 
ATOM     64  C   UNL A   1      43.978  27.691  34.567  1.00  0.00     0.031 C 
ATOM     65  C   UNL A   1      44.308  26.045  32.597  1.00  0.00     0.037 A 
BRANCH  52  66
ATOM     66  C   UNL A   1      43.080  23.832  27.020  1.00  0.00     0.057 A 
ATOM     67  C   UNL A   1      43.109  22.419  27.076  1.00  0.00     0.134 A 
ATOM     68  C   UNL A   1      43.594  24.365  25.827  1.00  0.00     0.134 A 
ATOM     69  F   UNL A   1      42.535  21.737  28.075  1.00  0.00    -0.206 F 
ATOM     70  C   UNL A   1      43.728  21.619  26.106  1.00  0.00     0.040 A 
ATOM     71  C   UNL A   1      44.240  23.578  24.856  1.00  0.00     0.040 A 
ATOM     72  F   UNL A   1      43.458  25.664  25.530  1.00  0.00    -0.206 F 
ATOM     73  C   UNL A   1      44.332  22.201  25.007  1.00  0.00     0.006 A 
ENDBRANCH  52  66
BRANCH  53  74
ATOM     74  C   UNL A   1      40.575  30.632  33.964  1.00  0.00     0.057 A 
ATOM     75  C   UNL A   1      40.815  31.770  34.762  1.00  0.00     0.134 A 
ATOM     76  C   UNL A   1      39.246  30.168  33.962  1.00  0.00     0.134 A 
ATOM     77  F   UNL A   1      42.054  32.269  34.877  1.00  0.00    -0.206 F 
ATOM     78  C   UNL A   1      39.778  32.493  35.379  1.00  0.00     0.040 A 
ATOM     79  C   UNL A   1      38.199  30.881  34.577  1.00  0.00     0.040 A 
ATOM     80  F   UNL A   1      38.904  29.072  33.274  1.00  0.00    -0.206 F 
ATOM     81  C   UNL A   1      38.458  32.069  35.256  1.00  0.00     0.006 A 
ENDBRANCH  53  74
BRANCH  65  82
ATOM     82  C   UNL A   1      45.261  24.994  33.129  1.00  0.00     0.057 A 
ATOM     83  C   UNL A   1      46.598  25.233  33.460  1.00  0.00     0.134 A 
ATOM     84  C   UNL A   1      44.789  23.699  33.476  1.00  0.00     0.134 A 
ATOM     85  F   UNL A   1      47.159  26.437  33.293  1.00  0.00    -0.206 F 
ATOM     86  C   UNL A   1      47.415  24.252  34.041  1.00  0.00     0.040 A 
ATOM     87  C   UNL A   1      45.576  22.736  34.110  1.00  0.00     0.040 A 
ATOM     88  F   UNL A   1      43.529  23.304  33.244  1.00  0.00    -0.206 F 
ATOM     89  C   UNL A   1      46.903  23.005  34.382  1.00  0.00     0.006 A 
ENDBRANCH  65  82
ENDBRANCH  39  40
ENDBRANCH  32  34
ENDBRANCH  31  32
ENDBRANCH  30  31
ENDBRANCH   1  30
TORSDOF 15
ENDMDL
MODEL 3
REMARK VINA RESULT:     -12.2      2.614      5.116
REMARK SMILES Cc1ccc(C(=O)NC2CC2)cc1NC(=O)[C@@H]1[C@@H](C(=O)OCCOC(=O)c2ccc(-c3c4nc(c(-c5c(F)cccc5F)c5ccc([nH]5)c(-c5c(F)cccc5F)c5nc(c(-c6c(F)cccc6F)c6ccc3[nH]6)C=C5)C=C4)cc2)[C@H]2C=C[C@@H]1C2
REMARK SMILES IDX 22 1 21 2 19 3 20 4 18 5 17 6 84 7 81 8 83 9 85 10 82 11
REMARK SMILES IDX 15 12 14 13 16 15 13 16 1 17 2 18 3 19 4 20 12 21 5 22 6 23
REMARK SMILES IDX 7 24 8 25 9 27 10 28 11 29 23 30 24 31 25 32 26 33 27 34
REMARK SMILES IDX 28 35 80 36 29 37 79 38 30 39 31 40 32 41 73 42 33 43 78 44
REMARK SMILES IDX 72 45 74 46 34 47 77 48 71 49 70 50 35 52 61 53 44 54 60 55
REMARK SMILES IDX 45 56 48 57 59 58 75 59 46 60 47 61 58 63 76 64 49 65 36 66
REMARK SMILES IDX 37 67 42 68 38 69 39 70 41 71 43 72 40 73 62 74 63 75 68 76
REMARK SMILES IDX 64 77 65 78 67 79 69 80 66 81 50 82 51 83 56 84 52 85 53 86
REMARK SMILES IDX 55 87 57 88 54 89
REMARK H PARENT 14 14 8 26 74 51 48 62
REMARK Flexibility Score: inf
ROOT
ATOM      1  C   UNL A   1      33.830  27.248  25.803  1.00  0.00     0.274 C 
ENDROOT
BRANCH   1   2
ATOM      2  O   UNL A   1      34.337  25.920  26.109  1.00  0.00    -0.462 OA
BRANCH   2   3
ATOM      3  C   UNL A   1      34.093  25.017  25.100  1.00  0.00     0.310 C 
ATOM      4  O   UNL A   1      34.599  25.147  23.988  1.00  0.00    -0.252 OA
BRANCH   3   5
ATOM      5  C   UNL A   1      33.070  23.919  25.443  1.00  0.00     0.119 C 
ATOM      6  C   UNL A   1      32.193  23.890  26.793  1.00  0.00     0.100 C 
ATOM      7  C   UNL A   1      32.528  22.473  27.355  1.00  0.00     0.025 C 
ATOM      8  C   UNL A   1      33.902  22.603  25.614  1.00  0.00     0.027 C 
ATOM      9  C   UNL A   1      33.913  22.565  27.932  1.00  0.00    -0.027 C 
ATOM     10  C   UNL A   1      32.822  21.654  26.098  1.00  0.00     0.017 C 
ATOM     11  C   UNL A   1      34.744  22.651  26.887  1.00  0.00    -0.027 C 
BRANCH   6  12
ATOM     12  C   UNL A   1      30.674  23.982  26.622  1.00  0.00     0.228 C 
ATOM     13  N   UNL A   1      30.026  24.708  25.644  1.00  0.00    -0.326 N 
ATOM     14  H   UNL A   1      29.052  24.707  25.789  1.00  0.00     0.169 HD
ATOM     15  O   UNL A   1      29.943  23.353  27.397  1.00  0.00    -0.274 OA
BRANCH  13  16
ATOM     16  C   UNL A   1      30.372  25.455  24.481  1.00  0.00     0.044 A 
ATOM     17  C   UNL A   1      30.981  23.321  23.125  1.00  0.00     0.046 C 
ATOM     18  C   UNL A   1      30.878  24.811  23.322  1.00  0.00    -0.027 A 
ATOM     19  C   UNL A   1      31.337  25.580  22.218  1.00  0.00     0.006 A 
ATOM     20  C   UNL A   1      31.380  26.965  22.270  1.00  0.00     0.014 A 
ATOM     21  C   UNL A   1      30.337  26.846  24.450  1.00  0.00     0.040 A 
ATOM     22  C   UNL A   1      30.921  27.593  23.415  1.00  0.00     0.041 A 
BRANCH  22  23
ATOM     23  C   UNL A   1      31.218  29.036  23.588  1.00  0.00     0.251 C 
ATOM     24  O   UNL A   1      32.286  29.377  24.084  1.00  0.00    -0.269 OA
ATOM     25  N   UNL A   1      30.237  29.955  23.257  1.00  0.00    -0.349 N 
ATOM     26  H   UNL A   1      30.416  30.889  23.510  1.00  0.00     0.164 HD
BRANCH  25  27
ATOM     27  C   UNL A   1      28.996  29.710  22.593  1.00  0.00     0.082 C 
ATOM     28  C   UNL A   1      27.652  30.212  23.100  1.00  0.00     0.027 C 
ATOM     29  C   UNL A   1      28.234  30.765  21.864  1.00  0.00     0.027 C 
ENDBRANCH  25  27
ENDBRANCH  22  23
ENDBRANCH  13  16
ENDBRANCH   6  12
ENDBRANCH   3   5
ENDBRANCH   2   3
ENDBRANCH   1   2
BRANCH   1  30
ATOM     30  C   UNL A   1      33.773  28.241  26.979  1.00  0.00     0.275 C 
BRANCH  30  31
ATOM     31  O   UNL A   1      34.376  29.538  26.773  1.00  0.00    -0.458 OA
BRANCH  31  32
ATOM     32  C   UNL A   1      34.935  30.279  27.764  1.00  0.00     0.338 C 
ATOM     33  O   UNL A   1      34.363  31.153  28.382  1.00  0.00    -0.246 OA
BRANCH  32  34
ATOM     34  C   UNL A   1      36.263  29.834  28.172  1.00  0.00     0.060 A 
ATOM     35  C   UNL A   1      37.281  30.015  27.241  1.00  0.00     0.016 A 
ATOM     36  C   UNL A   1      36.503  29.328  29.444  1.00  0.00     0.016 A 
ATOM     37  C   UNL A   1      38.589  29.759  27.605  1.00  0.00     0.010 A 
ATOM     38  C   UNL A   1      37.799  28.967  29.762  1.00  0.00     0.010 A 
ATOM     39  C   UNL A   1      38.823  29.133  28.818  1.00  0.00    -0.014 A 
BRANCH  39  40
ATOM     40  C   UNL A   1      40.106  28.512  29.077  1.00  0.00     0.031 A 
ATOM     41  C   UNL A   1      40.389  27.123  28.613  1.00  0.00     0.074 A 
ATOM     42  C   UNL A   1      40.977  29.224  29.833  1.00  0.00     0.049 A 
ATOM     43  N   UNL A   1      41.231  26.320  29.178  1.00  0.00    -0.248 NA
ATOM     44  C   UNL A   1      39.643  26.470  27.531  1.00  0.00     0.031 C 
ATOM     45  C   UNL A   1      42.410  29.035  29.852  1.00  0.00     0.029 A 
ATOM     46  N   UNL A   1      40.765  30.247  30.779  1.00  0.00    -0.354 N 
ATOM     47  C   UNL A   1      41.402  25.247  28.322  1.00  0.00     0.074 A 
ATOM     48  C   UNL A   1      40.264  25.286  27.440  1.00  0.00     0.031 C 
ATOM     49  C   UNL A   1      42.920  29.716  30.887  1.00  0.00     0.029 A 
ATOM     50  C   UNL A   1      41.812  30.209  31.701  1.00  0.00     0.049 A 
ATOM     51  H   UNL A   1      40.010  30.879  30.788  1.00  0.00     0.167 HD
ATOM     52  C   UNL A   1      42.610  24.610  28.274  1.00  0.00     0.037 A 
ATOM     53  C   UNL A   1      41.781  30.133  33.069  1.00  0.00     0.037 A 
ATOM     54  C   UNL A   1      43.528  25.238  29.213  1.00  0.00     0.049 A 
ATOM     55  C   UNL A   1      42.618  28.932  33.502  1.00  0.00     0.074 A 
ATOM     56  C   UNL A   1      44.426  26.274  29.018  1.00  0.00     0.029 A 
ATOM     57  N   UNL A   1      43.365  25.092  30.582  1.00  0.00    -0.354 N 
ATOM     58  N   UNL A   1      42.786  27.869  32.759  1.00  0.00    -0.248 NA
ATOM     59  C   UNL A   1      43.329  28.840  34.773  1.00  0.00     0.031 C 
ATOM     60  C   UNL A   1      44.801  26.770  30.284  1.00  0.00     0.029 A 
ATOM     61  C   UNL A   1      44.141  26.023  31.245  1.00  0.00     0.049 A 
ATOM     62  H   UNL A   1      42.785  24.426  31.017  1.00  0.00     0.167 HD
ATOM     63  C   UNL A   1      43.731  27.057  33.342  1.00  0.00     0.074 A 
ATOM     64  C   UNL A   1      43.981  27.673  34.632  1.00  0.00     0.031 C 
ATOM     65  C   UNL A   1      44.290  25.994  32.687  1.00  0.00     0.037 A 
BRANCH  52  66
ATOM     66  C   UNL A   1      43.099  23.767  27.108  1.00  0.00     0.057 A 
ATOM     67  C   UNL A   1      43.658  24.379  25.961  1.00  0.00     0.134 A 
ATOM     68  C   UNL A   1      42.999  22.370  27.015  1.00  0.00     0.134 A 
ATOM     69  F   UNL A   1      43.955  25.685  25.929  1.00  0.00    -0.206 F 
ATOM     70  C   UNL A   1      43.949  23.687  24.779  1.00  0.00     0.040 A 
ATOM     71  C   UNL A   1      43.264  21.664  25.827  1.00  0.00     0.040 A 
ATOM     72  F   UNL A   1      42.682  21.622  28.080  1.00  0.00    -0.206 F 
ATOM     73  C   UNL A   1      43.716  22.327  24.694  1.00  0.00     0.006 A 
ENDBRANCH  52  66
BRANCH  53  74
ATOM     74  C   UNL A   1      40.705  30.733  33.925  1.00  0.00     0.057 A 
ATOM     75  C   UNL A   1      39.448  30.101  34.043  1.00  0.00     0.134 A 
ATOM     76  C   UNL A   1      40.898  31.847  34.763  1.00  0.00     0.134 A 
ATOM     77  F   UNL A   1      39.137  29.060  33.257  1.00  0.00    -0.206 F 
ATOM     78  C   UNL A   1      38.518  30.448  35.038  1.00  0.00     0.040 A 
ATOM     79  C   UNL A   1      39.974  32.206  35.763  1.00  0.00     0.040 A 
ATOM     80  F   UNL A   1      42.035  32.552  34.715  1.00  0.00    -0.206 F 
ATOM     81  C   UNL A   1      38.796  31.481  35.928  1.00  0.00     0.006 A 
ENDBRANCH  53  74
BRANCH  65  82
ATOM     82  C   UNL A   1      45.192  24.913  33.250  1.00  0.00     0.057 A 
ATOM     83  C   UNL A   1      46.525  25.110  33.622  1.00  0.00     0.134 A 
ATOM     84  C   UNL A   1      44.667  23.636  33.585  1.00  0.00     0.134 A 
ATOM     85  F   UNL A   1      47.130  26.294  33.471  1.00  0.00    -0.206 F 
ATOM     86  C   UNL A   1      47.291  24.104  34.230  1.00  0.00     0.040 A 
ATOM     87  C   UNL A   1      45.402  22.650  34.245  1.00  0.00     0.040 A 
ATOM     88  F   UNL A   1      43.403  23.281  33.315  1.00  0.00    -0.206 F 
ATOM     89  C   UNL A   1      46.728  22.876  34.557  1.00  0.00     0.006 A 
ENDBRANCH  65  82
ENDBRANCH  39  40
ENDBRANCH  32  34
ENDBRANCH  31  32
ENDBRANCH  30  31
ENDBRANCH   1  30
TORSDOF 15
ENDMDL
