MODEL 1
REMARK VINA RESULT:     -14.7      0.000      0.000
REMARK SMILES Cc1ccccc1C[C@H](C[C@@H]1Cc2ccccc21)C(=O)OCCOC(=O)c1ccc(-c2c3nc(c(-c4c(F)cccc4F)c4ccc([nH]4)c(-c4c(F)cccc4F)c4nc(c(-c5c(F)cccc5F)c5ccc2[nH]5)C=C4)C=C3)cc1
REMARK SMILES IDX 22 1 21 2 19 3 20 4 9 5 8 6 7 7 1 8 2 9 3 10 4 11 6 12 5 13
REMARK SMILES IDX 10 14 11 15 12 16 18 17 13 18 17 19 14 20 16 21 15 22 23 23
REMARK SMILES IDX 24 24 25 25 26 26 27 27 28 28 80 29 29 30 79 31 30 32 31 33
REMARK SMILES IDX 32 34 73 35 33 36 78 37 72 38 74 39 34 40 77 41 71 42 70 43
REMARK SMILES IDX 35 45 61 46 44 47 60 48 45 49 48 50 59 51 75 52 46 53 47 54
REMARK SMILES IDX 58 56 76 57 49 58 36 59 37 60 42 61 38 62 39 63 41 64 43 65
REMARK SMILES IDX 40 66 62 67 63 68 68 69 64 70 65 71 67 72 69 73 66 74 50 75
REMARK SMILES IDX 51 76 56 77 52 78 53 79 55 80 57 81 54 82
REMARK H PARENT 74 44 48 55
REMARK Flexibility Score: inf
ROOT
ATOM      1  C   UNL A   1      33.835  28.039  26.327  1.00  0.00     0.274 C 
ENDROOT
BRANCH   1   2
ATOM      2  O   UNL A   1      33.716  26.603  26.412  1.00  0.00    -0.462 OA
BRANCH   2   3
ATOM      3  C   UNL A   1      33.835  25.789  25.341  1.00  0.00     0.309 C 
ATOM      4  O   UNL A   1      33.889  26.294  24.222  1.00  0.00    -0.252 OA
BRANCH   3   5
ATOM      5  C   UNL A   1      33.725  24.090  25.553  1.00  0.00     0.104 C 
BRANCH   5   6
ATOM      6  C   UNL A   1      35.447  23.413  26.298  1.00  0.00     0.051 C 
BRANCH   6   7
ATOM      7  C   UNL A   1      37.102  24.013  25.363  1.00  0.00    -0.044 A 
ATOM      8  C   UNL A   1      36.099  22.824  23.088  1.00  0.00     0.044 C 
ATOM      9  C   UNL A   1      36.724  22.576  24.436  1.00  0.00    -0.048 A 
ATOM     10  C   UNL A   1      37.544  21.121  24.792  1.00  0.00     0.004 A 
ATOM     11  C   UNL A   1      38.940  21.037  25.917  1.00  0.00     0.000 A 
ATOM     12  C   UNL A   1      38.731  24.047  26.431  1.00  0.00     0.004 A 
ATOM     13  C   UNL A   1      39.596  22.481  26.752  1.00  0.00     0.000 A 
ENDBRANCH   6   7
ENDBRANCH   5   6
BRANCH   5  14
ATOM     14  C   UNL A   1      32.630  22.529  24.429  1.00  0.00     0.024 C 
BRANCH  14  15
ATOM     15  C   UNL A   1      32.208  20.844  24.969  1.00  0.00     0.025 C 
ATOM     16  C   UNL A   1      33.347  20.273  25.866  1.00  0.00     0.044 C 
ATOM     17  C   UNL A   1      32.570  19.679  24.030  1.00  0.00    -0.041 A 
ATOM     18  C   UNL A   1      33.629  19.290  24.805  1.00  0.00    -0.044 A 
ATOM     19  C   UNL A   1      32.163  18.867  23.001  1.00  0.00     0.004 A 
ATOM     20  C   UNL A   1      34.478  18.253  24.524  1.00  0.00     0.004 A 
ATOM     21  C   UNL A   1      32.967  17.752  22.702  1.00  0.00     0.000 A 
ATOM     22  C   UNL A   1      34.144  17.476  23.431  1.00  0.00     0.000 A 
ENDBRANCH  14  15
ENDBRANCH   5  14
ENDBRANCH   3   5
ENDBRANCH   2   3
ENDBRANCH   1   2
BRANCH   1  23
ATOM     23  C   UNL A   1      35.090  28.795  26.877  1.00  0.00     0.275 C 
BRANCH  23  24
ATOM     24  O   UNL A   1      34.965  29.868  27.889  1.00  0.00    -0.458 OA
BRANCH  24  25
ATOM     25  C   UNL A   1      34.274  31.059  28.013  1.00  0.00     0.338 C 
ATOM     26  O   UNL A   1      33.223  31.241  27.413  1.00  0.00    -0.246 OA
BRANCH  25  27
ATOM     27  C   UNL A   1      34.929  32.232  28.692  1.00  0.00     0.060 A 
ATOM     28  C   UNL A   1      36.263  33.180  27.945  1.00  0.00     0.016 A 
ATOM     29  C   UNL A   1      34.903  31.972  30.399  1.00  0.00     0.016 A 
ATOM     30  C   UNL A   1      37.667  33.588  29.037  1.00  0.00     0.010 A 
ATOM     31  C   UNL A   1      36.252  32.182  31.452  1.00  0.00     0.010 A 
ATOM     32  C   UNL A   1      37.670  32.829  30.813  1.00  0.00    -0.014 A 
BRANCH  32  33
ATOM     33  C   UNL A   1      39.181  31.791  31.560  1.00  0.00     0.031 A 
ATOM     34  C   UNL A   1      39.098  29.712  30.973  1.00  0.00     0.074 A 
ATOM     35  C   UNL A   1      40.147  32.763  32.153  1.00  0.00     0.049 A 
ATOM     36  N   UNL A   1      39.928  28.622  31.021  1.00  0.00    -0.248 NA
ATOM     37  C   UNL A   1      37.980  28.926  29.959  1.00  0.00     0.031 C 
ATOM     38  C   UNL A   1      41.650  32.870  31.940  1.00  0.00     0.029 A 
ATOM     39  N   UNL A   1      40.187  32.994  33.582  1.00  0.00    -0.354 N 
ATOM     40  C   UNL A   1      40.047  28.048  29.749  1.00  0.00     0.074 A 
ATOM     41  C   UNL A   1      38.723  28.095  29.223  1.00  0.00     0.031 C 
ATOM     42  C   UNL A   1      42.339  32.668  33.083  1.00  0.00     0.029 A 
ATOM     43  C   UNL A   1      41.404  32.611  34.164  1.00  0.00     0.049 A 
ATOM     44  H   UNL A   1      39.437  33.379  34.091  1.00  0.00     0.167 HD
ATOM     45  C   UNL A   1      41.302  27.774  29.245  1.00  0.00     0.037 A 
ATOM     46  C   UNL A   1      41.559  32.085  35.405  1.00  0.00     0.037 A 
ATOM     47  C   UNL A   1      42.373  28.072  30.241  1.00  0.00     0.049 A 
ATOM     48  C   UNL A   1      42.283  30.746  35.421  1.00  0.00     0.074 A 
ATOM     49  C   UNL A   1      43.536  28.834  30.271  1.00  0.00     0.029 A 
ATOM     50  N   UNL A   1      42.172  27.697  31.567  1.00  0.00    -0.354 N 
ATOM     51  N   UNL A   1      42.698  30.086  34.362  1.00  0.00    -0.248 NA
ATOM     52  C   UNL A   1      42.532  30.008  36.656  1.00  0.00     0.031 C 
ATOM     53  C   UNL A   1      44.034  28.862  31.617  1.00  0.00     0.029 A 
ATOM     54  C   UNL A   1      43.173  28.131  32.416  1.00  0.00     0.049 A 
ATOM     55  H   UNL A   1      41.394  27.174  31.871  1.00  0.00     0.167 HD
ATOM     56  C   UNL A   1      43.016  28.779  34.731  1.00  0.00     0.074 A 
ATOM     57  C   UNL A   1      43.030  28.855  36.181  1.00  0.00     0.031 C 
ATOM     58  C   UNL A   1      43.133  27.735  33.828  1.00  0.00     0.037 A 
BRANCH  45  59
ATOM     59  C   UNL A   1      41.659  27.359  27.794  1.00  0.00     0.057 A 
ATOM     60  C   UNL A   1      41.703  25.989  27.430  1.00  0.00     0.134 A 
ATOM     61  C   UNL A   1      41.971  28.209  26.710  1.00  0.00     0.134 A 
ATOM     62  F   UNL A   1      41.400  25.014  28.295  1.00  0.00    -0.206 F 
ATOM     63  C   UNL A   1      42.042  25.521  26.144  1.00  0.00     0.040 A 
ATOM     64  C   UNL A   1      42.296  27.754  25.415  1.00  0.00     0.040 A 
ATOM     65  F   UNL A   1      41.985  29.537  26.810  1.00  0.00    -0.206 F 
ATOM     66  C   UNL A   1      42.337  26.405  25.125  1.00  0.00     0.006 A 
ENDBRANCH  45  59
BRANCH  46  67
ATOM     67  C   UNL A   1      40.527  32.616  36.359  1.00  0.00     0.057 A 
ATOM     68  C   UNL A   1      40.603  34.002  36.622  1.00  0.00     0.134 A 
ATOM     69  C   UNL A   1      39.251  32.042  36.400  1.00  0.00     0.134 A 
ATOM     70  F   UNL A   1      41.796  34.617  36.641  1.00  0.00    -0.206 F 
ATOM     71  C   UNL A   1      39.460  34.808  36.667  1.00  0.00     0.040 A 
ATOM     72  C   UNL A   1      38.098  32.842  36.438  1.00  0.00     0.040 A 
ATOM     73  F   UNL A   1      39.102  30.728  36.197  1.00  0.00    -0.206 F 
ATOM     74  C   UNL A   1      38.204  34.230  36.514  1.00  0.00     0.006 A 
ENDBRANCH  46  67
BRANCH  58  75
ATOM     75  C   UNL A   1      43.194  26.203  34.112  1.00  0.00     0.057 A 
ATOM     76  C   UNL A   1      44.158  25.299  33.641  1.00  0.00     0.134 A 
ATOM     77  C   UNL A   1      42.233  25.567  34.957  1.00  0.00     0.134 A 
ATOM     78  F   UNL A   1      45.197  25.673  32.897  1.00  0.00    -0.206 F 
ATOM     79  C   UNL A   1      44.137  23.918  33.924  1.00  0.00     0.040 A 
ATOM     80  C   UNL A   1      42.245  24.210  35.306  1.00  0.00     0.040 A 
ATOM     81  F   UNL A   1      41.197  26.212  35.507  1.00  0.00    -0.206 F 
ATOM     82  C   UNL A   1      43.187  23.367  34.766  1.00  0.00     0.006 A 
ENDBRANCH  58  75
ENDBRANCH  32  33
ENDBRANCH  25  27
ENDBRANCH  24  25
ENDBRANCH  23  24
ENDBRANCH   1  23
TORSDOF 15
ENDMDL
MODEL 2
REMARK VINA RESULT:     -14.6      2.258      4.424
REMARK SMILES Cc1ccccc1C[C@H](C[C@@H]1Cc2ccccc21)C(=O)OCCOC(=O)c1ccc(-c2c3nc(c(-c4c(F)cccc4F)c4ccc([nH]4)c(-c4c(F)cccc4F)c4nc(c(-c5c(F)cccc5F)c5ccc2[nH]5)C=C4)C=C3)cc1
REMARK SMILES IDX 22 1 21 2 19 3 20 4 9 5 8 6 7 7 1 8 2 9 3 10 4 11 6 12 5 13
REMARK SMILES IDX 10 14 11 15 12 16 18 17 13 18 17 19 14 20 16 21 15 22 23 23
REMARK SMILES IDX 24 24 25 25 26 26 27 27 28 28 80 29 29 30 79 31 30 32 31 33
REMARK SMILES IDX 32 34 73 35 33 36 78 37 72 38 74 39 34 40 77 41 71 42 70 43
REMARK SMILES IDX 35 45 61 46 44 47 60 48 45 49 48 50 59 51 75 52 46 53 47 54
REMARK SMILES IDX 58 56 76 57 49 58 36 59 37 60 42 61 38 62 39 63 41 64 43 65
REMARK SMILES IDX 40 66 62 67 63 68 68 69 64 70 65 71 67 72 69 73 66 74 50 75
REMARK SMILES IDX 51 76 56 77 52 78 53 79 55 80 57 81 54 82
REMARK H PARENT 74 44 48 55
REMARK Flexibility Score: inf
ROOT
ATOM      1  C   UNL A   1      33.918  28.571  26.101  1.00  0.00     0.274 C 
ENDROOT
BRANCH   1   2
ATOM      2  O   UNL A   1      33.238  27.339  26.425  1.00  0.00    -0.462 OA
BRANCH   2   3
ATOM      3  C   UNL A   1      31.968  27.298  26.883  1.00  0.00     0.309 C 
ATOM      4  O   UNL A   1      31.695  27.908  27.915  1.00  0.00    -0.252 OA
BRANCH   3   5
ATOM      5  C   UNL A   1      30.829  26.263  26.126  1.00  0.00     0.104 C 
BRANCH   5   6
ATOM      6  C   UNL A   1      31.190  24.380  26.677  1.00  0.00     0.051 C 
BRANCH   6   7
ATOM      7  C   UNL A   1      31.743  23.132  25.224  1.00  0.00    -0.044 A 
ATOM      8  C   UNL A   1      33.662  22.169  26.952  1.00  0.00     0.044 C 
ATOM      9  C   UNL A   1      33.266  23.323  26.069  1.00  0.00    -0.048 A 
ATOM     10  C   UNL A   1      34.419  24.425  25.458  1.00  0.00     0.004 A 
ATOM     11  C   UNL A   1      34.247  25.236  23.866  1.00  0.00     0.000 A 
ATOM     12  C   UNL A   1      31.582  23.805  23.403  1.00  0.00     0.004 A 
ATOM     13  C   UNL A   1      32.853  24.944  22.779  1.00  0.00     0.000 A 
ENDBRANCH   6   7
ENDBRANCH   5   6
BRANCH   5  14
ATOM     14  C   UNL A   1      29.804  26.376  24.167  1.00  0.00     0.024 C 
BRANCH  14  15
ATOM     15  C   UNL A   1      29.900  27.700  22.924  1.00  0.00     0.025 C 
ATOM     16  C   UNL A   1      30.967  28.753  23.352  1.00  0.00     0.044 C 
ATOM     17  C   UNL A   1      28.913  28.874  23.050  1.00  0.00    -0.041 A 
ATOM     18  C   UNL A   1      29.873  29.725  23.526  1.00  0.00    -0.044 A 
ATOM     19  C   UNL A   1      27.685  29.382  22.702  1.00  0.00     0.004 A 
ATOM     20  C   UNL A   1      29.665  31.025  23.901  1.00  0.00     0.004 A 
ATOM     21  C   UNL A   1      27.434  30.732  23.013  1.00  0.00     0.000 A 
ATOM     22  C   UNL A   1      28.404  31.533  23.651  1.00  0.00     0.000 A 
ENDBRANCH  14  15
ENDBRANCH   5  14
ENDBRANCH   3   5
ENDBRANCH   2   3
ENDBRANCH   1   2
BRANCH   1  23
ATOM     23  C   UNL A   1      35.009  29.181  27.041  1.00  0.00     0.275 C 
BRANCH  23  24
ATOM     24  O   UNL A   1      34.671  30.199  28.062  1.00  0.00    -0.458 OA
BRANCH  24  25
ATOM     25  C   UNL A   1      34.023  31.419  28.090  1.00  0.00     0.338 C 
ATOM     26  O   UNL A   1      33.009  31.607  27.431  1.00  0.00    -0.246 OA
BRANCH  25  27
ATOM     27  C   UNL A   1      34.692  32.602  28.736  1.00  0.00     0.060 A 
ATOM     28  C   UNL A   1      36.029  33.521  27.958  1.00  0.00     0.016 A 
ATOM     29  C   UNL A   1      34.677  32.384  30.448  1.00  0.00     0.016 A 
ATOM     30  C   UNL A   1      37.444  33.943  29.031  1.00  0.00     0.010 A 
ATOM     31  C   UNL A   1      36.035  32.607  31.487  1.00  0.00     0.010 A 
ATOM     32  C   UNL A   1      37.453  33.226  30.823  1.00  0.00    -0.014 A 
BRANCH  32  33
ATOM     33  C   UNL A   1      38.961  32.194  31.585  1.00  0.00     0.031 A 
ATOM     34  C   UNL A   1      38.753  30.073  31.214  1.00  0.00     0.074 A 
ATOM     35  C   UNL A   1      40.002  33.170  32.022  1.00  0.00     0.049 A 
ATOM     36  N   UNL A   1      39.537  28.954  31.324  1.00  0.00    -0.248 NA
ATOM     37  C   UNL A   1      37.543  29.249  30.347  1.00  0.00     0.031 C 
ATOM     38  C   UNL A   1      41.493  33.182  31.717  1.00  0.00     0.029 A 
ATOM     39  N   UNL A   1      40.138  33.536  33.417  1.00  0.00    -0.354 N 
ATOM     40  C   UNL A   1      39.554  28.254  30.111  1.00  0.00     0.074 A 
ATOM     41  C   UNL A   1      38.204  28.315  29.658  1.00  0.00     0.031 C 
ATOM     42  C   UNL A   1      42.240  33.060  32.834  1.00  0.00     0.029 A 
ATOM     43  C   UNL A   1      41.370  33.153  33.965  1.00  0.00     0.049 A 
ATOM     44  H   UNL A   1      39.437  34.006  33.926  1.00  0.00     0.167 HD
ATOM     45  C   UNL A   1      40.763  27.872  29.566  1.00  0.00     0.037 A 
ATOM     46  C   UNL A   1      41.577  32.743  35.242  1.00  0.00     0.037 A 
ATOM     47  C   UNL A   1      41.905  28.213  30.466  1.00  0.00     0.049 A 
ATOM     48  C   UNL A   1      42.243  31.379  35.351  1.00  0.00     0.074 A 
ATOM     49  C   UNL A   1      43.099  28.917  30.355  1.00  0.00     0.029 A 
ATOM     50  N   UNL A   1      41.768  27.979  31.833  1.00  0.00    -0.354 N 
ATOM     51  N   UNL A   1      42.565  30.599  34.341  1.00  0.00    -0.248 NA
ATOM     52  C   UNL A   1      42.534  30.753  36.637  1.00  0.00     0.031 C 
ATOM     53  C   UNL A   1      43.678  29.052  31.662  1.00  0.00     0.029 A 
ATOM     54  C   UNL A   1      42.836  28.444  32.576  1.00  0.00     0.049 A 
ATOM     55  H   UNL A   1      40.988  27.526  32.230  1.00  0.00     0.167 HD
ATOM     56  C   UNL A   1      42.848  29.321  34.820  1.00  0.00     0.074 A 
ATOM     57  C   UNL A   1      42.953  29.536  36.253  1.00  0.00     0.031 C 
ATOM     58  C   UNL A   1      42.865  28.190  34.021  1.00  0.00     0.037 A 
BRANCH  45  59
ATOM     59  C   UNL A   1      41.014  27.301  28.147  1.00  0.00     0.057 A 
ATOM     60  C   UNL A   1      40.613  25.980  27.823  1.00  0.00     0.134 A 
ATOM     61  C   UNL A   1      41.630  27.953  27.056  1.00  0.00     0.134 A 
ATOM     62  F   UNL A   1      39.971  25.199  28.700  1.00  0.00    -0.206 F 
ATOM     63  C   UNL A   1      40.822  25.373  26.569  1.00  0.00     0.040 A 
ATOM     64  C   UNL A   1      41.832  27.362  25.791  1.00  0.00     0.040 A 
ATOM     65  F   UNL A   1      42.082  29.204  27.119  1.00  0.00    -0.206 F 
ATOM     66  C   UNL A   1      41.432  26.064  25.541  1.00  0.00     0.006 A 
ENDBRANCH  45  59
BRANCH  46  67
ATOM     67  C   UNL A   1      40.629  33.414  36.194  1.00  0.00     0.057 A 
ATOM     68  C   UNL A   1      39.533  32.627  36.613  1.00  0.00     0.134 A 
ATOM     69  C   UNL A   1      41.109  34.356  37.112  1.00  0.00     0.134 A 
ATOM     70  F   UNL A   1      38.992  31.731  35.773  1.00  0.00    -0.206 F 
ATOM     71  C   UNL A   1      39.113  32.599  37.947  1.00  0.00     0.040 A 
ATOM     72  C   UNL A   1      40.698  34.332  38.454  1.00  0.00     0.040 A 
ATOM     73  F   UNL A   1      42.120  35.164  36.775  1.00  0.00    -0.206 F 
ATOM     74  C   UNL A   1      39.740  33.414  38.884  1.00  0.00     0.006 A 
ENDBRANCH  46  67
BRANCH  58  75
ATOM     75  C   UNL A   1      42.877  26.691  34.453  1.00  0.00     0.057 A 
ATOM     76  C   UNL A   1      43.793  25.708  34.049  1.00  0.00     0.134 A 
ATOM     77  C   UNL A   1      41.917  26.179  35.380  1.00  0.00     0.134 A 
ATOM     78  F   UNL A   1      44.825  25.966  33.248  1.00  0.00    -0.206 F 
ATOM     79  C   UNL A   1      43.729  24.363  34.467  1.00  0.00     0.040 A 
ATOM     80  C   UNL A   1      41.890  24.863  35.859  1.00  0.00     0.040 A 
ATOM     81  F   UNL A   1      40.922  26.915  35.888  1.00  0.00    -0.206 F 
ATOM     82  C   UNL A   1      42.784  23.934  35.382  1.00  0.00     0.006 A 
ENDBRANCH  58  75
ENDBRANCH  32  33
ENDBRANCH  25  27
ENDBRANCH  24  25
ENDBRANCH  23  24
ENDBRANCH   1  23
TORSDOF 15
ENDMDL
MODEL 3
REMARK VINA RESULT:     -14.5      4.115      8.977
REMARK SMILES Cc1ccccc1C[C@H](C[C@@H]1Cc2ccccc21)C(=O)OCCOC(=O)c1ccc(-c2c3nc(c(-c4c(F)cccc4F)c4ccc([nH]4)c(-c4c(F)cccc4F)c4nc(c(-c5c(F)cccc5F)c5ccc2[nH]5)C=C4)C=C3)cc1
REMARK SMILES IDX 22 1 21 2 19 3 20 4 9 5 8 6 7 7 1 8 2 9 3 10 4 11 6 12 5 13
REMARK SMILES IDX 10 14 11 15 12 16 18 17 13 18 17 19 14 20 16 21 15 22 23 23
REMARK SMILES IDX 24 24 25 25 26 26 27 27 28 28 80 29 29 30 79 31 30 32 31 33
REMARK SMILES IDX 32 34 73 35 33 36 78 37 72 38 74 39 34 40 77 41 71 42 70 43
REMARK SMILES IDX 35 45 61 46 44 47 60 48 45 49 48 50 59 51 75 52 46 53 47 54
REMARK SMILES IDX 58 56 76 57 49 58 36 59 37 60 42 61 38 62 39 63 41 64 43 65
REMARK SMILES IDX 40 66 62 67 63 68 68 69 64 70 65 71 67 72 69 73 66 74 50 75
REMARK SMILES IDX 51 76 56 77 52 78 53 79 55 80 57 81 54 82
REMARK H PARENT 74 44 48 55
REMARK Flexibility Score: inf
ROOT
ATOM      1  C   UNL A   1      37.621  23.913  25.329  1.00  0.00     0.274 C 
ENDROOT
BRANCH   1   2
ATOM      2  O   UNL A   1      36.786  22.862  24.797  1.00  0.00    -0.462 OA
BRANCH   2   3
ATOM      3  C   UNL A   1      36.069  22.995  23.661  1.00  0.00     0.309 C 
ATOM      4  O   UNL A   1      36.652  22.905  22.583  1.00  0.00    -0.252 OA
BRANCH   3   5
ATOM      5  C   UNL A   1      34.420  23.460  23.753  1.00  0.00     0.104 C 
BRANCH   5   6
ATOM      6  C   UNL A   1      34.271  25.131  24.832  1.00  0.00     0.051 C 
BRANCH   6   7
ATOM      7  C   UNL A   1      33.231  26.617  24.006  1.00  0.00    -0.044 A 
ATOM      8  C   UNL A   1      33.924  28.149  26.190  1.00  0.00     0.044 C 
ATOM      9  C   UNL A   1      33.056  27.018  25.702  1.00  0.00    -0.048 A 
ATOM     10  C   UNL A   1      31.623  26.570  26.516  1.00  0.00     0.004 A 
ATOM     11  C   UNL A   1      30.187  25.906  25.669  1.00  0.00     0.000 A 
ATOM     12  C   UNL A   1      31.651  26.102  22.989  1.00  0.00     0.004 A 
ATOM     13  C   UNL A   1      30.135  25.671  23.894  1.00  0.00     0.000 A 
ENDBRANCH   6   7
ENDBRANCH   5   6
BRANCH   5  14
ATOM     14  C   UNL A   1      32.551  22.274  23.789  1.00  0.00     0.024 C 
BRANCH  14  15
ATOM     15  C   UNL A   1      32.249  20.678  24.607  1.00  0.00     0.025 C 
ATOM     16  C   UNL A   1      33.447  20.324  25.540  1.00  0.00     0.044 C 
ATOM     17  C   UNL A   1      32.656  19.399  23.854  1.00  0.00    -0.041 A 
ATOM     18  C   UNL A   1      33.758  19.200  24.639  1.00  0.00    -0.044 A 
ATOM     19  C   UNL A   1      32.270  18.408  22.984  1.00  0.00     0.004 A 
ATOM     20  C   UNL A   1      34.661  18.181  24.495  1.00  0.00     0.004 A 
ATOM     21  C   UNL A   1      33.133  17.307  22.837  1.00  0.00     0.000 A 
ATOM     22  C   UNL A   1      34.345  17.219  23.555  1.00  0.00     0.000 A 
ENDBRANCH  14  15
ENDBRANCH   5  14
ENDBRANCH   3   5
ENDBRANCH   2   3
ENDBRANCH   1   2
BRANCH   1  23
ATOM     23  C   UNL A   1      38.243  23.824  26.762  1.00  0.00     0.275 C 
BRANCH  23  24
ATOM     24  O   UNL A   1      39.559  23.188  26.997  1.00  0.00    -0.458 OA
BRANCH  24  25
ATOM     25  C   UNL A   1      40.270  22.125  26.473  1.00  0.00     0.338 C 
ATOM     26  O   UNL A   1      39.693  21.152  26.006  1.00  0.00    -0.246 OA
BRANCH  25  27
ATOM     27  C   UNL A   1      41.757  22.044  26.692  1.00  0.00     0.060 A 
ATOM     28  C   UNL A   1      42.501  21.842  28.318  1.00  0.00     0.016 A 
ATOM     29  C   UNL A   1      42.549  23.000  25.492  1.00  0.00     0.016 A 
ATOM     30  C   UNL A   1      43.944  22.900  28.677  1.00  0.00     0.010 A 
ATOM     31  C   UNL A   1      43.806  24.139  25.805  1.00  0.00     0.010 A 
ATOM     32  C   UNL A   1      44.423  24.236  27.369  1.00  0.00    -0.014 A 
BRANCH  32  33
ATOM     33  C   UNL A   1      44.653  26.156  27.794  1.00  0.00     0.031 A 
ATOM     34  C   UNL A   1      42.977  27.338  27.109  1.00  0.00     0.074 A 
ATOM     35  C   UNL A   1      45.827  26.279  28.707  1.00  0.00     0.049 A 
ATOM     36  N   UNL A   1      42.513  28.616  27.283  1.00  0.00    -0.248 NA
ATOM     37  C   UNL A   1      41.546  26.829  26.342  1.00  0.00     0.031 C 
ATOM     38  C   UNL A   1      45.936  27.015  30.034  1.00  0.00     0.029 A 
ATOM     39  N   UNL A   1      47.119  26.699  28.203  1.00  0.00    -0.354 N 
ATOM     40  C   UNL A   1      41.175  28.593  27.697  1.00  0.00     0.074 A 
ATOM     41  C   UNL A   1      40.585  27.567  26.903  1.00  0.00     0.031 C 
ATOM     42  C   UNL A   1      46.844  28.013  29.988  1.00  0.00     0.029 A 
ATOM     43  C   UNL A   1      47.547  27.919  28.746  1.00  0.00     0.049 A 
ATOM     44  H   UNL A   1      47.641  26.181  27.548  1.00  0.00     0.167 HD
ATOM     45  C   UNL A   1      40.794  29.334  28.797  1.00  0.00     0.037 A 
ATOM     46  C   UNL A   1      48.270  28.866  28.096  1.00  0.00     0.037 A 
ATOM     47  C   UNL A   1      41.924  30.151  29.329  1.00  0.00     0.049 A 
ATOM     48  C   UNL A   1      47.622  30.243  28.096  1.00  0.00     0.074 A 
ATOM     49  C   UNL A   1      42.554  30.319  30.558  1.00  0.00     0.029 A 
ATOM     50  N   UNL A   1      42.751  30.813  28.424  1.00  0.00    -0.354 N 
ATOM     51  N   UNL A   1      46.450  30.541  28.614  1.00  0.00    -0.248 NA
ATOM     52  C   UNL A   1      48.233  31.393  27.434  1.00  0.00     0.031 C 
ATOM     53  C   UNL A   1      43.730  31.122  30.368  1.00  0.00     0.029 A 
ATOM     54  C   UNL A   1      43.830  31.436  29.024  1.00  0.00     0.049 A 
ATOM     55  H   UNL A   1      42.583  30.837  27.454  1.00  0.00     0.167 HD
ATOM     56  C   UNL A   1      46.046  31.792  28.149  1.00  0.00     0.074 A 
ATOM     57  C   UNL A   1      47.262  32.314  27.551  1.00  0.00     0.031 C 
ATOM     58  C   UNL A   1      44.738  32.242  28.200  1.00  0.00     0.037 A 
BRANCH  45  59
ATOM     59  C   UNL A   1      39.438  29.271  29.546  1.00  0.00     0.057 A 
ATOM     60  C   UNL A   1      38.250  29.724  28.919  1.00  0.00     0.134 A 
ATOM     61  C   UNL A   1      39.201  28.798  30.855  1.00  0.00     0.134 A 
ATOM     62  F   UNL A   1      38.240  30.175  27.659  1.00  0.00    -0.206 F 
ATOM     63  C   UNL A   1      36.981  29.727  29.531  1.00  0.00     0.040 A 
ATOM     64  C   UNL A   1      37.934  28.780  31.475  1.00  0.00     0.040 A 
ATOM     65  F   UNL A   1      40.165  28.313  31.637  1.00  0.00    -0.206 F 
ATOM     66  C   UNL A   1      36.814  29.249  30.817  1.00  0.00     0.006 A 
ENDBRANCH  45  59
BRANCH  46  67
ATOM     67  C   UNL A   1      49.193  28.252  27.083  1.00  0.00     0.057 A 
ATOM     68  C   UNL A   1      50.306  27.564  27.617  1.00  0.00     0.134 A 
ATOM     69  C   UNL A   1      48.682  27.769  25.873  1.00  0.00     0.134 A 
ATOM     70  F   UNL A   1      50.877  27.992  28.754  1.00  0.00    -0.206 F 
ATOM     71  C   UNL A   1      50.716  26.324  27.114  1.00  0.00     0.040 A 
ATOM     72  C   UNL A   1      49.082  26.524  25.363  1.00  0.00     0.040 A 
ATOM     73  F   UNL A   1      47.652  28.390  25.286  1.00  0.00    -0.206 F 
ATOM     74  C   UNL A   1      50.060  25.775  26.017  1.00  0.00     0.006 A 
ENDBRANCH  46  67
BRANCH  58  75
ATOM     75  C   UNL A   1      44.098  33.466  27.475  1.00  0.00     0.057 A 
ATOM     76  C   UNL A   1      43.917  33.623  26.093  1.00  0.00     0.134 A 
ATOM     77  C   UNL A   1      43.582  34.577  28.212  1.00  0.00     0.134 A 
ATOM     78  F   UNL A   1      44.249  32.684  25.209  1.00  0.00    -0.206 F 
ATOM     79  C   UNL A   1      43.346  34.771  25.506  1.00  0.00     0.040 A 
ATOM     80  C   UNL A   1      42.946  35.689  27.644  1.00  0.00     0.040 A 
ATOM     81  F   UNL A   1      43.662  34.675  29.544  1.00  0.00    -0.206 F 
ATOM     82  C   UNL A   1      42.849  35.806  26.278  1.00  0.00     0.006 A 
ENDBRANCH  58  75
ENDBRANCH  32  33
ENDBRANCH  25  27
ENDBRANCH  24  25
ENDBRANCH  23  24
ENDBRANCH   1  23
TORSDOF 15
ENDMDL
