MODEL 1
REMARK VINA RESULT:     -10.2      0.000      0.000
REMARK SMILES C[C@@H](C(=O)OCCOC(=O)c1ccc(-c2c3nc(c(-c4c(F)cccc4F)c4ccc([nH]4)c(-c4c(F)cccc4F)c4nc(c(-c5c(F)cccc5F)c5ccc2[nH]5)C=C4)C=C3)cc1)c1cccc(C(=O)c2ccccc2)c1
REMARK SMILES IDX 6 1 5 2 3 3 4 4 2 5 1 6 65 7 66 8 78 9 67 10 69 11 68 12
REMARK SMILES IDX 70 13 71 14 72 15 73 16 77 17 74 18 76 19 75 20 7 21 8 22
REMARK SMILES IDX 9 23 10 24 11 25 12 26 64 27 13 28 63 29 14 30 15 31 16 32
REMARK SMILES IDX 57 33 17 34 62 35 56 36 58 37 18 38 61 39 55 40 54 41 19 43
REMARK SMILES IDX 45 44 28 45 44 46 29 47 32 48 43 49 59 50 30 51 31 52 42 54
REMARK SMILES IDX 60 55 33 56 20 57 21 58 26 59 22 60 23 61 25 62 27 63 24 64
REMARK SMILES IDX 46 65 47 66 52 67 48 68 49 69 51 70 53 71 50 72 34 73 35 74
REMARK SMILES IDX 40 75 36 76 37 77 39 78 41 79 38 80
REMARK H PARENT 58 42 32 53
REMARK Flexibility Score: inf
ROOT
ATOM      1  C   UNL A   1      33.226  35.005  28.780  1.00  0.00     0.274 C 
ENDROOT
BRANCH   1   2
ATOM      2  O   UNL A   1      33.125  34.737  30.198  1.00  0.00    -0.462 OA
BRANCH   2   3
ATOM      3  C   UNL A   1      32.914  35.799  31.026  1.00  0.00     0.313 C 
ATOM      4  O   UNL A   1      32.517  36.897  30.651  1.00  0.00    -0.252 OA
BRANCH   3   5
ATOM      5  C   UNL A   1      33.307  35.483  32.477  1.00  0.00     0.126 C 
ATOM      6  C   UNL A   1      33.562  36.727  33.332  1.00  0.00     0.025 C 
BRANCH   5   7
ATOM      7  C   UNL A   1      34.495  34.526  32.547  1.00  0.00    -0.033 A 
ATOM      8  C   UNL A   1      34.319  33.140  32.433  1.00  0.00     0.004 A 
ATOM      9  C   UNL A   1      35.797  35.024  32.744  1.00  0.00     0.016 A 
ATOM     10  C   UNL A   1      35.403  32.271  32.561  1.00  0.00     0.001 A 
ATOM     11  C   UNL A   1      36.891  34.153  32.881  1.00  0.00     0.023 A 
ATOM     12  C   UNL A   1      36.678  32.772  32.807  1.00  0.00     0.012 A 
BRANCH  11  13
ATOM     13  C   UNL A   1      38.297  34.621  33.056  1.00  0.00     0.193 C 
ATOM     14  O   UNL A   1      38.690  35.041  34.142  1.00  0.00    -0.289 OA
BRANCH  13  15
ATOM     15  C   UNL A   1      39.290  34.507  31.973  1.00  0.00     0.022 A 
ATOM     16  C   UNL A   1      38.834  34.598  30.654  1.00  0.00     0.012 A 
ATOM     17  C   UNL A   1      40.641  34.281  32.247  1.00  0.00     0.012 A 
ATOM     18  C   UNL A   1      39.745  34.511  29.602  1.00  0.00     0.001 A 
ATOM     19  C   UNL A   1      41.548  34.201  31.191  1.00  0.00     0.001 A 
ATOM     20  C   UNL A   1      41.101  34.321  29.873  1.00  0.00     0.000 A 
ENDBRANCH  13  15
ENDBRANCH  11  13
ENDBRANCH   5   7
ENDBRANCH   3   5
ENDBRANCH   2   3
ENDBRANCH   1   2
BRANCH   1  21
ATOM     21  C   UNL A   1      34.441  34.283  28.204  1.00  0.00     0.275 C 
BRANCH  21  22
ATOM     22  O   UNL A   1      34.783  33.215  29.101  1.00  0.00    -0.458 OA
BRANCH  22  23
ATOM     23  C   UNL A   1      34.646  31.954  28.633  1.00  0.00     0.338 C 
ATOM     24  O   UNL A   1      33.660  31.470  28.107  1.00  0.00    -0.246 OA
BRANCH  23  25
ATOM     25  C   UNL A   1      35.928  31.231  28.814  1.00  0.00     0.060 A 
ATOM     26  C   UNL A   1      35.938  29.932  29.319  1.00  0.00     0.016 A 
ATOM     27  C   UNL A   1      37.141  31.885  28.579  1.00  0.00     0.016 A 
ATOM     28  C   UNL A   1      37.143  29.333  29.682  1.00  0.00     0.010 A 
ATOM     29  C   UNL A   1      38.355  31.239  28.860  1.00  0.00     0.010 A 
ATOM     30  C   UNL A   1      38.375  29.969  29.463  1.00  0.00    -0.014 A 
BRANCH  30  31
ATOM     31  C   UNL A   1      39.648  29.339  29.944  1.00  0.00     0.031 A 
ATOM     32  C   UNL A   1      40.276  29.776  31.247  1.00  0.00     0.074 A 
ATOM     33  C   UNL A   1      40.219  28.312  29.279  1.00  0.00     0.049 A 
ATOM     34  N   UNL A   1      41.462  29.496  31.731  1.00  0.00    -0.248 NA
ATOM     35  C   UNL A   1      39.470  30.644  32.120  1.00  0.00     0.031 C 
ATOM     36  C   UNL A   1      39.707  27.699  28.053  1.00  0.00     0.029 A 
ATOM     37  N   UNL A   1      41.341  27.570  29.568  1.00  0.00    -0.354 N 
ATOM     38  C   UNL A   1      41.571  30.209  32.918  1.00  0.00     0.074 A 
ATOM     39  C   UNL A   1      40.325  30.922  33.095  1.00  0.00     0.031 C 
ATOM     40  C   UNL A   1      40.445  26.620  27.756  1.00  0.00     0.029 A 
ATOM     41  C   UNL A   1      41.565  26.540  28.686  1.00  0.00     0.049 A 
ATOM     42  H   UNL A   1      41.928  27.761  30.335  1.00  0.00     0.167 HD
ATOM     43  C   UNL A   1      42.617  30.273  33.778  1.00  0.00     0.037 A 
ATOM     44  C   UNL A   1      42.578  25.657  28.595  1.00  0.00     0.037 A 
ATOM     45  C   UNL A   1      43.830  29.508  33.652  1.00  0.00     0.049 A 
ATOM     46  C   UNL A   1      43.745  25.769  29.533  1.00  0.00     0.074 A 
ATOM     47  C   UNL A   1      44.964  29.547  34.447  1.00  0.00     0.029 A 
ATOM     48  N   UNL A   1      44.052  28.534  32.692  1.00  0.00    -0.354 N 
ATOM     49  N   UNL A   1      43.911  26.575  30.554  1.00  0.00    -0.248 NA
ATOM     50  C   UNL A   1      44.892  24.886  29.271  1.00  0.00     0.031 C 
ATOM     51  C   UNL A   1      45.880  28.610  33.955  1.00  0.00     0.029 A 
ATOM     52  C   UNL A   1      45.302  27.967  32.874  1.00  0.00     0.049 A 
ATOM     53  H   UNL A   1      43.413  28.283  31.985  1.00  0.00     0.167 HD
ATOM     54  C   UNL A   1      45.181  26.307  31.044  1.00  0.00     0.074 A 
ATOM     55  C   UNL A   1      45.730  25.239  30.235  1.00  0.00     0.031 C 
ATOM     56  C   UNL A   1      45.844  26.910  32.060  1.00  0.00     0.037 A 
BRANCH  43  57
ATOM     57  C   UNL A   1      42.518  31.243  34.918  1.00  0.00     0.057 A 
ATOM     58  C   UNL A   1      42.913  32.581  34.797  1.00  0.00     0.134 A 
ATOM     59  C   UNL A   1      41.975  30.835  36.143  1.00  0.00     0.134 A 
ATOM     60  F   UNL A   1      43.456  33.029  33.656  1.00  0.00    -0.206 F 
ATOM     61  C   UNL A   1      42.783  33.474  35.862  1.00  0.00     0.040 A 
ATOM     62  C   UNL A   1      41.820  31.724  37.206  1.00  0.00     0.040 A 
ATOM     63  F   UNL A   1      41.572  29.567  36.320  1.00  0.00    -0.206 F 
ATOM     64  C   UNL A   1      42.228  33.048  37.069  1.00  0.00     0.006 A 
ENDBRANCH  43  57
BRANCH  44  65
ATOM     65  C   UNL A   1      42.577  24.632  27.518  1.00  0.00     0.057 A 
ATOM     66  C   UNL A   1      43.054  24.929  26.237  1.00  0.00     0.134 A 
ATOM     67  C   UNL A   1      42.095  23.337  27.744  1.00  0.00     0.134 A 
ATOM     68  F   UNL A   1      43.493  26.161  25.948  1.00  0.00    -0.206 F 
ATOM     69  C   UNL A   1      43.051  23.973  25.219  1.00  0.00     0.040 A 
ATOM     70  C   UNL A   1      42.115  22.364  26.745  1.00  0.00     0.040 A 
ATOM     71  F   UNL A   1      41.613  22.993  28.948  1.00  0.00    -0.206 F 
ATOM     72  C   UNL A   1      42.591  22.682  25.476  1.00  0.00     0.006 A 
ENDBRANCH  44  65
BRANCH  56  73
ATOM     73  C   UNL A   1      47.233  26.431  32.349  1.00  0.00     0.057 A 
ATOM     74  C   UNL A   1      48.349  27.023  31.746  1.00  0.00     0.134 A 
ATOM     75  C   UNL A   1      47.460  25.384  33.250  1.00  0.00     0.134 A 
ATOM     76  F   UNL A   1      48.195  28.022  30.864  1.00  0.00    -0.206 F 
ATOM     77  C   UNL A   1      49.645  26.578  32.014  1.00  0.00     0.040 A 
ATOM     78  C   UNL A   1      48.753  24.942  33.540  1.00  0.00     0.040 A 
ATOM     79  F   UNL A   1      46.433  24.778  33.864  1.00  0.00    -0.206 F 
ATOM     80  C   UNL A   1      49.849  25.537  32.917  1.00  0.00     0.006 A 
ENDBRANCH  56  73
ENDBRANCH  30  31
ENDBRANCH  23  25
ENDBRANCH  22  23
ENDBRANCH  21  22
ENDBRANCH   1  21
TORSDOF 14
ENDMDL
MODEL 2
REMARK VINA RESULT:      -9.9      5.060      8.916
REMARK SMILES C[C@@H](C(=O)OCCOC(=O)c1ccc(-c2c3nc(c(-c4c(F)cccc4F)c4ccc([nH]4)c(-c4c(F)cccc4F)c4nc(c(-c5c(F)cccc5F)c5ccc2[nH]5)C=C4)C=C3)cc1)c1cccc(C(=O)c2ccccc2)c1
REMARK SMILES IDX 6 1 5 2 3 3 4 4 2 5 1 6 65 7 66 8 78 9 67 10 69 11 68 12
REMARK SMILES IDX 70 13 71 14 72 15 73 16 77 17 74 18 76 19 75 20 7 21 8 22
REMARK SMILES IDX 9 23 10 24 11 25 12 26 64 27 13 28 63 29 14 30 15 31 16 32
REMARK SMILES IDX 57 33 17 34 62 35 56 36 58 37 18 38 61 39 55 40 54 41 19 43
REMARK SMILES IDX 45 44 28 45 44 46 29 47 32 48 43 49 59 50 30 51 31 52 42 54
REMARK SMILES IDX 60 55 33 56 20 57 21 58 26 59 22 60 23 61 25 62 27 63 24 64
REMARK SMILES IDX 46 65 47 66 52 67 48 68 49 69 51 70 53 71 50 72 34 73 35 74
REMARK SMILES IDX 40 75 36 76 37 77 39 78 41 79 38 80
REMARK H PARENT 58 42 32 53
REMARK Flexibility Score: inf
ROOT
ATOM      1  C   UNL A   1      34.451  20.612  25.261  1.00  0.00     0.274 C 
ENDROOT
BRANCH   1   2
ATOM      2  O   UNL A   1      34.273  22.037  25.086  1.00  0.00    -0.462 OA
BRANCH   2   3
ATOM      3  C   UNL A   1      33.532  22.453  24.021  1.00  0.00     0.313 C 
ATOM      4  O   UNL A   1      32.423  22.013  23.739  1.00  0.00    -0.252 OA
BRANCH   3   5
ATOM      5  C   UNL A   1      34.282  23.485  23.167  1.00  0.00     0.126 C 
ATOM      6  C   UNL A   1      35.798  23.483  23.383  1.00  0.00     0.025 C 
BRANCH   5   7
ATOM      7  C   UNL A   1      33.713  24.891  23.346  1.00  0.00    -0.033 A 
ATOM      8  C   UNL A   1      33.525  25.744  22.249  1.00  0.00     0.004 A 
ATOM      9  C   UNL A   1      33.380  25.364  24.630  1.00  0.00     0.016 A 
ATOM     10  C   UNL A   1      33.063  27.048  22.431  1.00  0.00     0.001 A 
ATOM     11  C   UNL A   1      32.922  26.679  24.820  1.00  0.00     0.023 A 
ATOM     12  C   UNL A   1      32.786  27.521  23.710  1.00  0.00     0.012 A 
BRANCH  11  13
ATOM     13  C   UNL A   1      32.521  27.225  26.149  1.00  0.00     0.193 C 
ATOM     14  O   UNL A   1      31.788  26.584  26.897  1.00  0.00    -0.289 OA
BRANCH  13  15
ATOM     15  C   UNL A   1      33.063  28.499  26.655  1.00  0.00     0.022 A 
ATOM     16  C   UNL A   1      34.424  28.556  26.967  1.00  0.00     0.012 A 
ATOM     17  C   UNL A   1      32.238  29.610  26.852  1.00  0.00     0.012 A 
ATOM     18  C   UNL A   1      34.976  29.748  27.434  1.00  0.00     0.001 A 
ATOM     19  C   UNL A   1      32.797  30.802  27.314  1.00  0.00     0.001 A 
ATOM     20  C   UNL A   1      34.163  30.871  27.598  1.00  0.00     0.000 A 
ENDBRANCH  13  15
ENDBRANCH  11  13
ENDBRANCH   5   7
ENDBRANCH   3   5
ENDBRANCH   2   3
ENDBRANCH   1   2
BRANCH   1  21
ATOM     21  C   UNL A   1      35.915  20.243  25.034  1.00  0.00     0.275 C 
BRANCH  21  22
ATOM     22  O   UNL A   1      36.723  21.264  25.640  1.00  0.00    -0.458 OA
BRANCH  22  23
ATOM     23  C   UNL A   1      38.061  21.068  25.638  1.00  0.00     0.338 C 
ATOM     24  O   UNL A   1      38.663  20.119  25.169  1.00  0.00    -0.246 OA
BRANCH  23  25
ATOM     25  C   UNL A   1      38.720  22.239  26.266  1.00  0.00     0.060 A 
ATOM     26  C   UNL A   1      38.183  23.515  26.108  1.00  0.00     0.016 A 
ATOM     27  C   UNL A   1      39.939  22.085  26.930  1.00  0.00     0.016 A 
ATOM     28  C   UNL A   1      38.907  24.634  26.519  1.00  0.00     0.010 A 
ATOM     29  C   UNL A   1      40.619  23.210  27.424  1.00  0.00     0.010 A 
ATOM     30  C   UNL A   1      40.137  24.509  27.182  1.00  0.00    -0.014 A 
BRANCH  30  31
ATOM     31  C   UNL A   1      40.935  25.728  27.533  1.00  0.00     0.031 A 
ATOM     32  C   UNL A   1      40.371  26.774  28.468  1.00  0.00     0.074 A 
ATOM     33  C   UNL A   1      42.205  25.886  27.099  1.00  0.00     0.049 A 
ATOM     34  N   UNL A   1      40.820  27.976  28.735  1.00  0.00    -0.248 NA
ATOM     35  C   UNL A   1      39.141  26.425  29.195  1.00  0.00     0.031 C 
ATOM     36  C   UNL A   1      42.945  24.940  26.264  1.00  0.00     0.029 A 
ATOM     37  N   UNL A   1      43.116  26.888  27.341  1.00  0.00    -0.354 N 
ATOM     38  C   UNL A   1      39.892  28.550  29.595  1.00  0.00     0.074 A 
ATOM     39  C   UNL A   1      38.862  27.559  29.823  1.00  0.00     0.031 C 
ATOM     40  C   UNL A   1      44.216  25.352  26.150  1.00  0.00     0.029 A 
ATOM     41  C   UNL A   1      44.352  26.657  26.785  1.00  0.00     0.049 A 
ATOM     42  H   UNL A   1      42.902  27.695  27.862  1.00  0.00     0.167 HD
ATOM     43  C   UNL A   1      39.892  29.791  30.139  1.00  0.00     0.037 A 
ATOM     44  C   UNL A   1      45.460  27.422  26.740  1.00  0.00     0.037 A 
ATOM     45  C   UNL A   1      40.948  30.756  29.981  1.00  0.00     0.049 A 
ATOM     46  C   UNL A   1      45.426  28.809  27.314  1.00  0.00     0.074 A 
ATOM     47  C   UNL A   1      41.010  32.058  30.451  1.00  0.00     0.029 A 
ATOM     48  N   UNL A   1      42.150  30.510  29.336  1.00  0.00    -0.354 N 
ATOM     49  N   UNL A   1      44.467  29.406  27.978  1.00  0.00    -0.248 NA
ATOM     50  C   UNL A   1      46.610  29.650  27.082  1.00  0.00     0.031 C 
ATOM     51  C   UNL A   1      42.241  32.606  30.074  1.00  0.00     0.029 A 
ATOM     52  C   UNL A   1      42.957  31.635  29.396  1.00  0.00     0.049 A 
ATOM     53  H   UNL A   1      42.394  29.661  28.901  1.00  0.00     0.167 HD
ATOM     54  C   UNL A   1      44.924  30.691  28.229  1.00  0.00     0.074 A 
ATOM     55  C   UNL A   1      46.260  30.780  27.680  1.00  0.00     0.031 C 
ATOM     56  C   UNL A   1      44.283  31.717  28.840  1.00  0.00     0.037 A 
BRANCH  43  57
ATOM     57  C   UNL A   1      38.682  30.204  30.923  1.00  0.00     0.057 A 
ATOM     58  C   UNL A   1      38.595  30.033  32.310  1.00  0.00     0.134 A 
ATOM     59  C   UNL A   1      37.604  30.823  30.277  1.00  0.00     0.134 A 
ATOM     60  F   UNL A   1      39.586  29.431  32.983  1.00  0.00    -0.206 F 
ATOM     61  C   UNL A   1      37.472  30.454  33.024  1.00  0.00     0.040 A 
ATOM     62  C   UNL A   1      36.485  31.267  30.984  1.00  0.00     0.040 A 
ATOM     63  F   UNL A   1      37.628  31.021  28.950  1.00  0.00    -0.206 F 
ATOM     64  C   UNL A   1      36.416  31.079  32.361  1.00  0.00     0.006 A 
ENDBRANCH  43  57
BRANCH  44  65
ATOM     65  C   UNL A   1      46.680  26.924  26.052  1.00  0.00     0.057 A 
ATOM     66  C   UNL A   1      47.642  26.175  26.738  1.00  0.00     0.134 A 
ATOM     67  C   UNL A   1      46.914  27.191  24.698  1.00  0.00     0.134 A 
ATOM     68  F   UNL A   1      47.495  25.920  28.045  1.00  0.00    -0.206 F 
ATOM     69  C   UNL A   1      48.793  25.709  26.100  1.00  0.00     0.040 A 
ATOM     70  C   UNL A   1      48.044  26.704  24.040  1.00  0.00     0.040 A 
ATOM     71  F   UNL A   1      46.035  27.913  23.987  1.00  0.00    -0.206 F 
ATOM     72  C   UNL A   1      48.990  25.964  24.743  1.00  0.00     0.006 A 
ENDBRANCH  44  65
BRANCH  56  73
ATOM     73  C   UNL A   1      45.017  33.018  28.941  1.00  0.00     0.057 A 
ATOM     74  C   UNL A   1      45.874  33.290  30.014  1.00  0.00     0.134 A 
ATOM     75  C   UNL A   1      44.883  33.999  27.952  1.00  0.00     0.134 A 
ATOM     76  F   UNL A   1      46.034  32.395  31.001  1.00  0.00    -0.206 F 
ATOM     77  C   UNL A   1      46.561  34.502  30.110  1.00  0.00     0.040 A 
ATOM     78  C   UNL A   1      45.578  35.208  28.027  1.00  0.00     0.040 A 
ATOM     79  F   UNL A   1      44.081  33.796  26.896  1.00  0.00    -0.206 F 
ATOM     80  C   UNL A   1      46.416  35.463  29.111  1.00  0.00     0.006 A 
ENDBRANCH  56  73
ENDBRANCH  30  31
ENDBRANCH  23  25
ENDBRANCH  22  23
ENDBRANCH  21  22
ENDBRANCH   1  21
TORSDOF 14
ENDMDL
MODEL 3
REMARK VINA RESULT:      -9.8      3.961      6.726
REMARK SMILES C[C@@H](C(=O)OCCOC(=O)c1ccc(-c2c3nc(c(-c4c(F)cccc4F)c4ccc([nH]4)c(-c4c(F)cccc4F)c4nc(c(-c5c(F)cccc5F)c5ccc2[nH]5)C=C4)C=C3)cc1)c1cccc(C(=O)c2ccccc2)c1
REMARK SMILES IDX 6 1 5 2 3 3 4 4 2 5 1 6 65 7 66 8 78 9 67 10 69 11 68 12
REMARK SMILES IDX 70 13 71 14 72 15 73 16 77 17 74 18 76 19 75 20 7 21 8 22
REMARK SMILES IDX 9 23 10 24 11 25 12 26 64 27 13 28 63 29 14 30 15 31 16 32
REMARK SMILES IDX 57 33 17 34 62 35 56 36 58 37 18 38 61 39 55 40 54 41 19 43
REMARK SMILES IDX 45 44 28 45 44 46 29 47 32 48 43 49 59 50 30 51 31 52 42 54
REMARK SMILES IDX 60 55 33 56 20 57 21 58 26 59 22 60 23 61 25 62 27 63 24 64
REMARK SMILES IDX 46 65 47 66 52 67 48 68 49 69 51 70 53 71 50 72 34 73 35 74
REMARK SMILES IDX 40 75 36 76 37 77 39 78 41 79 38 80
REMARK H PARENT 58 42 32 53
REMARK Flexibility Score: inf
ROOT
ATOM      1  C   UNL A   1      34.422  33.676  29.909  1.00  0.00     0.274 C 
ENDROOT
BRANCH   1   2
ATOM      2  O   UNL A   1      34.337  32.323  29.405  1.00  0.00    -0.462 OA
BRANCH   2   3
ATOM      3  C   UNL A   1      35.078  32.012  28.305  1.00  0.00     0.313 C 
ATOM      4  O   UNL A   1      35.514  32.840  27.511  1.00  0.00    -0.252 OA
BRANCH   3   5
ATOM      5  C   UNL A   1      35.239  30.495  28.129  1.00  0.00     0.126 C 
ATOM      6  C   UNL A   1      36.624  30.074  27.630  1.00  0.00     0.025 C 
BRANCH   5   7
ATOM      7  C   UNL A   1      34.143  29.908  27.242  1.00  0.00    -0.033 A 
ATOM      8  C   UNL A   1      32.878  30.504  27.159  1.00  0.00     0.004 A 
ATOM      9  C   UNL A   1      34.384  28.736  26.499  1.00  0.00     0.016 A 
ATOM     10  C   UNL A   1      31.864  29.925  26.396  1.00  0.00     0.001 A 
ATOM     11  C   UNL A   1      33.365  28.144  25.734  1.00  0.00     0.023 A 
ATOM     12  C   UNL A   1      32.098  28.739  25.706  1.00  0.00     0.012 A 
BRANCH  11  13
ATOM     13  C   UNL A   1      33.569  26.924  24.899  1.00  0.00     0.193 C 
ATOM     14  O   UNL A   1      33.800  27.017  23.696  1.00  0.00    -0.289 OA
BRANCH  13  15
ATOM     15  C   UNL A   1      33.599  25.577  25.494  1.00  0.00     0.022 A 
ATOM     16  C   UNL A   1      34.777  24.833  25.376  1.00  0.00     0.012 A 
ATOM     17  C   UNL A   1      32.476  25.039  26.130  1.00  0.00     0.012 A 
ATOM     18  C   UNL A   1      34.849  23.561  25.940  1.00  0.00     0.001 A 
ATOM     19  C   UNL A   1      32.557  23.767  26.698  1.00  0.00     0.001 A 
ATOM     20  C   UNL A   1      33.742  23.034  26.608  1.00  0.00     0.000 A 
ENDBRANCH  13  15
ENDBRANCH  11  13
ENDBRANCH   5   7
ENDBRANCH   3   5
ENDBRANCH   2   3
ENDBRANCH   1   2
BRANCH   1  21
ATOM     21  C   UNL A   1      34.387  33.661  31.435  1.00  0.00     0.275 C 
BRANCH  21  22
ATOM     22  O   UNL A   1      34.748  32.341  31.869  1.00  0.00    -0.458 OA
BRANCH  22  23
ATOM     23  C   UNL A   1      35.879  32.223  32.600  1.00  0.00     0.338 C 
ATOM     24  O   UNL A   1      36.037  32.544  33.764  1.00  0.00    -0.246 OA
BRANCH  23  25
ATOM     25  C   UNL A   1      36.925  31.579  31.768  1.00  0.00     0.060 A 
ATOM     26  C   UNL A   1      37.357  30.287  32.060  1.00  0.00     0.016 A 
ATOM     27  C   UNL A   1      37.558  32.301  30.754  1.00  0.00     0.016 A 
ATOM     28  C   UNL A   1      38.476  29.762  31.415  1.00  0.00     0.010 A 
ATOM     29  C   UNL A   1      38.625  31.730  30.043  1.00  0.00     0.010 A 
ATOM     30  C   UNL A   1      39.135  30.468  30.396  1.00  0.00    -0.014 A 
BRANCH  30  31
ATOM     31  C   UNL A   1      40.387  29.919  29.782  1.00  0.00     0.031 A 
ATOM     32  C   UNL A   1      41.661  30.733  29.775  1.00  0.00     0.074 A 
ATOM     33  C   UNL A   1      40.439  28.658  29.300  1.00  0.00     0.049 A 
ATOM     34  N   UNL A   1      42.780  30.516  29.128  1.00  0.00    -0.248 NA
ATOM     35  C   UNL A   1      41.679  31.951  30.601  1.00  0.00     0.031 C 
ATOM     36  C   UNL A   1      39.336  27.698  29.303  1.00  0.00     0.029 A 
ATOM     37  N   UNL A   1      41.483  27.952  28.749  1.00  0.00    -0.354 N 
ATOM     38  C   UNL A   1      43.601  31.602  29.406  1.00  0.00     0.074 A 
ATOM     39  C   UNL A   1      42.861  32.470  30.296  1.00  0.00     0.031 C 
ATOM     40  C   UNL A   1      39.785  26.507  28.880  1.00  0.00     0.029 A 
ATOM     41  C   UNL A   1      41.169  26.648  28.445  1.00  0.00     0.049 A 
ATOM     42  H   UNL A   1      42.372  28.344  28.588  1.00  0.00     0.167 HD
ATOM     43  C   UNL A   1      44.852  31.858  28.954  1.00  0.00     0.037 A 
ATOM     44  C   UNL A   1      41.887  25.683  27.839  1.00  0.00     0.037 A 
ATOM     45  C   UNL A   1      45.627  30.965  28.131  1.00  0.00     0.049 A 
ATOM     46  C   UNL A   1      43.257  25.999  27.311  1.00  0.00     0.074 A 
ATOM     47  C   UNL A   1      46.883  31.164  27.582  1.00  0.00     0.029 A 
ATOM     48  N   UNL A   1      45.236  29.685  27.774  1.00  0.00    -0.354 N 
ATOM     49  N   UNL A   1      43.955  27.101  27.432  1.00  0.00    -0.248 NA
ATOM     50  C   UNL A   1      43.915  24.954  26.513  1.00  0.00     0.031 C 
ATOM     51  C   UNL A   1      47.244  30.010  26.876  1.00  0.00     0.029 A 
ATOM     52  C   UNL A   1      46.224  29.084  27.012  1.00  0.00     0.049 A 
ATOM     53  H   UNL A   1      44.381  29.265  28.025  1.00  0.00     0.167 HD
ATOM     54  C   UNL A   1      45.124  26.888  26.716  1.00  0.00     0.074 A 
ATOM     55  C   UNL A   1      45.060  25.540  26.194  1.00  0.00     0.031 C 
ATOM     56  C   UNL A   1      46.150  27.744  26.490  1.00  0.00     0.037 A 
BRANCH  43  57
ATOM     57  C   UNL A   1      45.455  33.187  29.299  1.00  0.00     0.057 A 
ATOM     58  C   UNL A   1      45.234  34.333  28.526  1.00  0.00     0.134 A 
ATOM     59  C   UNL A   1      46.235  33.325  30.455  1.00  0.00     0.134 A 
ATOM     60  F   UNL A   1      44.511  34.262  27.399  1.00  0.00    -0.206 F 
ATOM     61  C   UNL A   1      45.779  35.567  28.885  1.00  0.00     0.040 A 
ATOM     62  C   UNL A   1      46.767  34.558  30.834  1.00  0.00     0.040 A 
ATOM     63  F   UNL A   1      46.479  32.267  31.242  1.00  0.00    -0.206 F 
ATOM     64  C   UNL A   1      46.542  35.683  30.046  1.00  0.00     0.006 A 
ENDBRANCH  43  57
BRANCH  44  65
ATOM     65  C   UNL A   1      41.291  24.339  27.622  1.00  0.00     0.057 A 
ATOM     66  C   UNL A   1      41.705  23.234  28.373  1.00  0.00     0.134 A 
ATOM     67  C   UNL A   1      40.300  24.127  26.655  1.00  0.00     0.134 A 
ATOM     68  F   UNL A   1      42.677  23.363  29.286  1.00  0.00    -0.206 F 
ATOM     69  C   UNL A   1      41.154  21.967  28.171  1.00  0.00     0.040 A 
ATOM     70  C   UNL A   1      39.718  22.874  26.465  1.00  0.00     0.040 A 
ATOM     71  F   UNL A   1      39.867  25.144  25.894  1.00  0.00    -0.206 F 
ATOM     72  C   UNL A   1      40.148  21.788  27.221  1.00  0.00     0.006 A 
ENDBRANCH  44  65
BRANCH  56  73
ATOM     73  C   UNL A   1      47.279  27.248  25.641  1.00  0.00     0.057 A 
ATOM     74  C   UNL A   1      47.332  27.516  24.268  1.00  0.00     0.134 A 
ATOM     75  C   UNL A   1      48.331  26.514  26.201  1.00  0.00     0.134 A 
ATOM     76  F   UNL A   1      46.346  28.202  23.671  1.00  0.00    -0.206 F 
ATOM     77  C   UNL A   1      48.384  27.054  23.475  1.00  0.00     0.040 A 
ATOM     78  C   UNL A   1      49.398  26.062  25.422  1.00  0.00     0.040 A 
ATOM     79  F   UNL A   1      48.342  26.229  27.512  1.00  0.00    -0.206 F 
ATOM     80  C   UNL A   1      49.424  26.328  24.054  1.00  0.00     0.006 A 
ENDBRANCH  56  73
ENDBRANCH  30  31
ENDBRANCH  23  25
ENDBRANCH  22  23
ENDBRANCH  21  22
ENDBRANCH   1  21
TORSDOF 14
ENDMDL
