MODEL 1
REMARK VINA RESULT:     -11.6      0.000      0.000
REMARK SMILES Cc1ccc(Cl)cc1S(=O)(=O)N1CC[C@@H](C(=O)OCCOC(=O)c2ccc(-c3c4nc(c(-c5c(F)cccc5F)c5ccc([nH]5)c(-c5c(F)cccc5F)c5nc(c(-c6c(F)cccc6F)c6ccc3[nH]6)C=C5)C=C4)cc2)[C@@H]1C
REMARK SMILES IDX 19 1 18 2 16 3 17 4 15 5 12 6 13 7 78 8 14 9 79 10 9 11
REMARK SMILES IDX 10 12 11 13 8 14 1 15 2 16 3 17 4 18 7 19 5 20 6 21 20 22
REMARK SMILES IDX 21 23 22 24 23 25 24 26 25 27 77 28 26 29 76 30 27 31 28 32
REMARK SMILES IDX 29 33 70 34 30 35 75 36 69 37 71 38 31 39 74 40 68 41 67 42
REMARK SMILES IDX 32 44 58 45 41 46 57 47 42 48 45 49 56 50 72 51 43 52 44 53
REMARK SMILES IDX 55 55 73 56 46 57 33 58 34 59 39 60 35 61 36 62 38 63 40 64
REMARK SMILES IDX 37 65 59 66 60 67 65 68 61 69 62 70 64 71 66 72 63 73 47 74
REMARK SMILES IDX 48 75 53 76 49 77 50 78 52 79 54 80 51 81
REMARK H PARENT 71 43 45 54
REMARK Flexibility Score: inf
ROOT
ATOM      1  C   UNL A   1      31.529  30.969  26.130  1.00  0.00     0.274 C 
ENDROOT
BRANCH   1   2
ATOM      2  O   UNL A   1      32.031  29.925  26.988  1.00  0.00    -0.462 OA
BRANCH   2   3
ATOM      3  C   UNL A   1      33.032  29.132  26.535  1.00  0.00     0.310 C 
ATOM      4  O   UNL A   1      34.172  29.518  26.301  1.00  0.00    -0.252 OA
BRANCH   3   5
ATOM      5  C   UNL A   1      32.627  27.666  26.485  1.00  0.00     0.118 C 
ATOM      6  N   UNL A   1      31.948  27.075  24.344  1.00  0.00    -0.194 NA
ATOM      7  C   UNL A   1      33.177  26.303  24.522  1.00  0.00     0.104 C 
ATOM      8  C   UNL A   1      31.376  27.405  25.656  1.00  0.00     0.084 C 
ATOM      9  C   UNL A   1      33.707  26.748  25.888  1.00  0.00     0.034 C 
ATOM     10  C   UNL A   1      30.623  26.199  26.239  1.00  0.00     0.027 C 
BRANCH   6  11
ATOM     11  S   UNL A   1      31.527  27.849  22.927  1.00  0.00     0.243 S 
ATOM     12  O   UNL A   1      31.456  26.794  21.938  1.00  0.00    -0.207 OA
ATOM     13  O   UNL A   1      32.427  28.972  22.747  1.00  0.00    -0.207 OA
BRANCH  11  14
ATOM     14  C   UNL A   1      29.863  28.559  22.997  1.00  0.00     0.087 A 
ATOM     15  C   UNL A   1      28.466  26.474  23.682  1.00  0.00     0.046 C 
ATOM     16  C   UNL A   1      28.648  27.897  23.268  1.00  0.00    -0.031 A 
ATOM     17  C   UNL A   1      27.449  28.650  23.297  1.00  0.00     0.006 A 
ATOM     18  C   UNL A   1      27.448  30.034  23.167  1.00  0.00     0.021 A 
ATOM     19  C   UNL A   1      29.842  29.969  22.882  1.00  0.00     0.042 A 
ATOM     20  C   UNL A   1      28.655  30.691  22.994  1.00  0.00     0.042 A 
ATOM     21  Cl  UNL A   1      28.684  32.411  22.963  1.00  0.00    -0.084 Cl
ENDBRANCH  11  14
ENDBRANCH   6  11
ENDBRANCH   3   5
ENDBRANCH   2   3
ENDBRANCH   1   2
BRANCH   1  22
ATOM     22  C   UNL A   1      31.454  32.281  26.912  1.00  0.00     0.275 C 
BRANCH  22  23
ATOM     23  O   UNL A   1      32.672  33.032  26.753  1.00  0.00    -0.458 OA
BRANCH  23  24
ATOM     24  C   UNL A   1      33.123  33.616  27.884  1.00  0.00     0.338 C 
ATOM     25  O   UNL A   1      32.539  34.404  28.609  1.00  0.00    -0.246 OA
BRANCH  24  26
ATOM     26  C   UNL A   1      34.405  33.019  28.266  1.00  0.00     0.060 A 
ATOM     27  C   UNL A   1      34.369  31.780  28.902  1.00  0.00     0.016 A 
ATOM     28  C   UNL A   1      35.594  33.732  28.166  1.00  0.00     0.016 A 
ATOM     29  C   UNL A   1      35.479  31.301  29.567  1.00  0.00     0.010 A 
ATOM     30  C   UNL A   1      36.748  33.190  28.735  1.00  0.00     0.010 A 
ATOM     31  C   UNL A   1      36.686  31.992  29.473  1.00  0.00    -0.014 A 
BRANCH  31  32
ATOM     32  C   UNL A   1      37.866  31.460  30.186  1.00  0.00     0.031 A 
ATOM     33  C   UNL A   1      38.767  30.487  29.488  1.00  0.00     0.074 A 
ATOM     34  C   UNL A   1      38.130  31.883  31.436  1.00  0.00     0.049 A 
ATOM     35  N   UNL A   1      39.741  29.769  29.978  1.00  0.00    -0.248 NA
ATOM     36  C   UNL A   1      38.538  30.286  28.046  1.00  0.00     0.031 C 
ATOM     37  C   UNL A   1      37.361  32.893  32.174  1.00  0.00     0.029 A 
ATOM     38  N   UNL A   1      39.118  31.521  32.312  1.00  0.00    -0.354 N 
ATOM     39  C   UNL A   1      40.199  28.988  28.925  1.00  0.00     0.074 A 
ATOM     40  C   UNL A   1      39.402  29.322  27.766  1.00  0.00     0.031 C 
ATOM     41  C   UNL A   1      37.916  33.077  33.381  1.00  0.00     0.029 A 
ATOM     42  C   UNL A   1      39.014  32.135  33.537  1.00  0.00     0.049 A 
ATOM     43  H   UNL A   1      39.833  30.883  32.086  1.00  0.00     0.167 HD
ATOM     44  C   UNL A   1      41.191  28.068  28.941  1.00  0.00     0.037 A 
ATOM     45  C   UNL A   1      39.695  31.917  34.676  1.00  0.00     0.037 A 
ATOM     46  C   UNL A   1      41.997  27.792  30.101  1.00  0.00     0.049 A 
ATOM     47  C   UNL A   1      40.748  30.845  34.677  1.00  0.00     0.074 A 
ATOM     48  C   UNL A   1      43.047  26.901  30.230  1.00  0.00     0.029 A 
ATOM     49  N   UNL A   1      41.844  28.414  31.332  1.00  0.00    -0.354 N 
ATOM     50  N   UNL A   1      41.158  30.088  33.687  1.00  0.00    -0.248 NA
ATOM     51  C   UNL A   1      41.423  30.587  35.955  1.00  0.00     0.031 C 
ATOM     52  C   UNL A   1      43.494  26.946  31.553  1.00  0.00     0.029 A 
ATOM     53  C   UNL A   1      42.763  27.907  32.235  1.00  0.00     0.049 A 
ATOM     54  H   UNL A   1      41.179  29.113  31.534  1.00  0.00     0.167 HD
ATOM     55  C   UNL A   1      42.159  29.285  34.215  1.00  0.00     0.074 A 
ATOM     56  C   UNL A   1      42.303  29.660  35.607  1.00  0.00     0.031 C 
ATOM     57  C   UNL A   1      42.893  28.321  33.608  1.00  0.00     0.037 A 
BRANCH  44  58
ATOM     58  C   UNL A   1      41.426  27.265  27.697  1.00  0.00     0.057 A 
ATOM     59  C   UNL A   1      42.274  27.697  26.671  1.00  0.00     0.134 A 
ATOM     60  C   UNL A   1      40.821  26.008  27.550  1.00  0.00     0.134 A 
ATOM     61  F   UNL A   1      42.868  28.896  26.739  1.00  0.00    -0.206 F 
ATOM     62  C   UNL A   1      42.504  26.913  25.537  1.00  0.00     0.040 A 
ATOM     63  C   UNL A   1      41.063  25.206  26.435  1.00  0.00     0.040 A 
ATOM     64  F   UNL A   1      39.996  25.535  28.496  1.00  0.00    -0.206 F 
ATOM     65  C   UNL A   1      41.905  25.659  25.422  1.00  0.00     0.006 A 
ENDBRANCH  44  58
BRANCH  45  66
ATOM     66  C   UNL A   1      39.367  32.673  35.912  1.00  0.00     0.057 A 
ATOM     67  C   UNL A   1      38.417  32.195  36.820  1.00  0.00     0.134 A 
ATOM     68  C   UNL A   1      39.965  33.907  36.199  1.00  0.00     0.134 A 
ATOM     69  F   UNL A   1      37.795  31.027  36.596  1.00  0.00    -0.206 F 
ATOM     70  C   UNL A   1      38.051  32.927  37.952  1.00  0.00     0.040 A 
ATOM     71  C   UNL A   1      39.634  34.635  37.343  1.00  0.00     0.040 A 
ATOM     72  F   UNL A   1      40.890  34.421  35.374  1.00  0.00    -0.206 F 
ATOM     73  C   UNL A   1      38.664  34.150  38.216  1.00  0.00     0.006 A 
ENDBRANCH  45  66
BRANCH  57  74
ATOM     74  C   UNL A   1      43.953  27.657  34.434  1.00  0.00     0.057 A 
ATOM     75  C   UNL A   1      45.242  28.190  34.555  1.00  0.00     0.134 A 
ATOM     76  C   UNL A   1      43.663  26.485  35.144  1.00  0.00     0.134 A 
ATOM     77  F   UNL A   1      45.584  29.302  33.886  1.00  0.00    -0.206 F 
ATOM     78  C   UNL A   1      46.215  27.565  35.334  1.00  0.00     0.040 A 
ATOM     79  C   UNL A   1      44.618  25.869  35.951  1.00  0.00     0.040 A 
ATOM     80  F   UNL A   1      42.443  25.930  35.076  1.00  0.00    -0.206 F 
ATOM     81  C   UNL A   1      45.901  26.406  36.041  1.00  0.00     0.006 A 
ENDBRANCH  57  74
ENDBRANCH  31  32
ENDBRANCH  24  26
ENDBRANCH  23  24
ENDBRANCH  22  23
ENDBRANCH   1  22
TORSDOF 13
ENDMDL
MODEL 2
REMARK VINA RESULT:     -11.5      6.480     10.536
REMARK SMILES Cc1ccc(Cl)cc1S(=O)(=O)N1CC[C@@H](C(=O)OCCOC(=O)c2ccc(-c3c4nc(c(-c5c(F)cccc5F)c5ccc([nH]5)c(-c5c(F)cccc5F)c5nc(c(-c6c(F)cccc6F)c6ccc3[nH]6)C=C5)C=C4)cc2)[C@@H]1C
REMARK SMILES IDX 19 1 18 2 16 3 17 4 15 5 12 6 13 7 78 8 14 9 79 10 9 11
REMARK SMILES IDX 10 12 11 13 8 14 1 15 2 16 3 17 4 18 7 19 5 20 6 21 20 22
REMARK SMILES IDX 21 23 22 24 23 25 24 26 25 27 77 28 26 29 76 30 27 31 28 32
REMARK SMILES IDX 29 33 70 34 30 35 75 36 69 37 71 38 31 39 74 40 68 41 67 42
REMARK SMILES IDX 32 44 58 45 41 46 57 47 42 48 45 49 56 50 72 51 43 52 44 53
REMARK SMILES IDX 55 55 73 56 46 57 33 58 34 59 39 60 35 61 36 62 38 63 40 64
REMARK SMILES IDX 37 65 59 66 60 67 65 68 61 69 62 70 64 71 66 72 63 73 47 74
REMARK SMILES IDX 48 75 53 76 49 77 50 78 52 79 54 80 51 81
REMARK H PARENT 71 43 45 54
REMARK Flexibility Score: inf
ROOT
ATOM      1  C   UNL A   1      41.099  19.571  26.135  1.00  0.00     0.274 C 
ENDROOT
BRANCH   1   2
ATOM      2  O   UNL A   1      42.436  19.707  25.615  1.00  0.00    -0.462 OA
BRANCH   2   3
ATOM      3  C   UNL A   1      43.373  18.798  25.978  1.00  0.00     0.310 C 
ATOM      4  O   UNL A   1      43.288  18.066  26.957  1.00  0.00    -0.252 OA
BRANCH   3   5
ATOM      5  C   UNL A   1      44.488  18.680  24.948  1.00  0.00     0.118 C 
ATOM      6  N   UNL A   1      45.257  20.780  24.325  1.00  0.00    -0.194 NA
ATOM      7  C   UNL A   1      46.404  20.208  25.027  1.00  0.00     0.104 C 
ATOM      8  C   UNL A   1      44.394  19.703  23.824  1.00  0.00     0.084 C 
ATOM      9  C   UNL A   1      45.897  18.858  25.542  1.00  0.00     0.034 C 
ATOM     10  C   UNL A   1      44.975  19.096  22.537  1.00  0.00     0.027 C 
BRANCH   6  11
ATOM     11  S   UNL A   1      44.765  22.367  24.476  1.00  0.00     0.243 S 
ATOM     12  O   UNL A   1      43.331  22.329  24.279  1.00  0.00    -0.207 OA
ATOM     13  O   UNL A   1      45.607  23.179  23.618  1.00  0.00    -0.207 OA
BRANCH  11  14
ATOM     14  C   UNL A   1      45.008  23.009  26.152  1.00  0.00     0.087 A 
ATOM     15  C   UNL A   1      47.169  24.420  25.829  1.00  0.00     0.046 C 
ATOM     16  C   UNL A   1      46.065  23.810  26.628  1.00  0.00    -0.031 A 
ATOM     17  C   UNL A   1      46.053  24.227  27.982  1.00  0.00     0.006 A 
ATOM     18  C   UNL A   1      44.982  23.952  28.824  1.00  0.00     0.021 A 
ATOM     19  C   UNL A   1      43.921  22.754  27.020  1.00  0.00     0.042 A 
ATOM     20  C   UNL A   1      43.901  23.243  28.325  1.00  0.00     0.042 A 
ATOM     21  Cl  UNL A   1      42.514  23.009  29.316  1.00  0.00    -0.084 Cl
ENDBRANCH  11  14
ENDBRANCH   6  11
ENDBRANCH   3   5
ENDBRANCH   2   3
ENDBRANCH   1   2
BRANCH   1  22
ATOM     22  C   UNL A   1      40.758  20.792  26.992  1.00  0.00     0.275 C 
BRANCH  22  23
ATOM     23  O   UNL A   1      40.579  21.955  26.163  1.00  0.00    -0.458 OA
BRANCH  23  24
ATOM     24  C   UNL A   1      39.359  22.528  26.256  1.00  0.00     0.338 C 
ATOM     25  O   UNL A   1      38.268  22.000  26.125  1.00  0.00    -0.246 OA
BRANCH  24  26
ATOM     26  C   UNL A   1      39.499  23.902  26.743  1.00  0.00     0.060 A 
ATOM     27  C   UNL A   1      40.021  24.844  25.859  1.00  0.00     0.016 A 
ATOM     28  C   UNL A   1      39.294  24.221  28.080  1.00  0.00     0.016 A 
ATOM     29  C   UNL A   1      40.476  26.062  26.320  1.00  0.00     0.010 A 
ATOM     30  C   UNL A   1      39.642  25.498  28.524  1.00  0.00     0.010 A 
ATOM     31  C   UNL A   1      40.272  26.410  27.654  1.00  0.00    -0.014 A 
BRANCH  31  32
ATOM     32  C   UNL A   1      40.759  27.722  28.128  1.00  0.00     0.031 A 
ATOM     33  C   UNL A   1      42.233  27.989  28.156  1.00  0.00     0.074 A 
ATOM     34  C   UNL A   1      39.871  28.664  28.495  1.00  0.00     0.049 A 
ATOM     35  N   UNL A   1      42.879  28.989  28.695  1.00  0.00    -0.248 NA
ATOM     36  C   UNL A   1      43.101  26.996  27.499  1.00  0.00     0.031 C 
ATOM     37  C   UNL A   1      38.411  28.533  28.425  1.00  0.00     0.029 A 
ATOM     38  N   UNL A   1      40.062  29.923  29.000  1.00  0.00    -0.354 N 
ATOM     39  C   UNL A   1      44.226  28.715  28.496  1.00  0.00     0.074 A 
ATOM     40  C   UNL A   1      44.309  27.460  27.785  1.00  0.00     0.031 C 
ATOM     41  C   UNL A   1      37.842  29.669  28.856  1.00  0.00     0.029 A 
ATOM     42  C   UNL A   1      38.890  30.566  29.319  1.00  0.00     0.049 A 
ATOM     43  H   UNL A   1      40.951  30.327  29.122  1.00  0.00     0.167 HD
ATOM     44  C   UNL A   1      45.291  29.451  28.891  1.00  0.00     0.037 A 
ATOM     45  C   UNL A   1      38.688  31.726  29.969  1.00  0.00     0.037 A 
ATOM     46  C   UNL A   1      45.174  30.720  29.558  1.00  0.00     0.049 A 
ATOM     47  C   UNL A   1      39.891  32.488  30.448  1.00  0.00     0.074 A 
ATOM     48  C   UNL A   1      46.181  31.568  29.983  1.00  0.00     0.029 A 
ATOM     49  N   UNL A   1      43.970  31.327  29.891  1.00  0.00    -0.354 N 
ATOM     50  N   UNL A   1      41.163  32.211  30.286  1.00  0.00    -0.248 NA
ATOM     51  C   UNL A   1      39.632  33.714  31.212  1.00  0.00     0.031 C 
ATOM     52  C   UNL A   1      45.587  32.662  30.619  1.00  0.00     0.029 A 
ATOM     53  C   UNL A   1      44.209  32.526  30.539  1.00  0.00     0.049 A 
ATOM     54  H   UNL A   1      43.078  30.958  29.695  1.00  0.00     0.167 HD
ATOM     55  C   UNL A   1      41.856  33.244  30.901  1.00  0.00     0.074 A 
ATOM     56  C   UNL A   1      40.861  34.159  31.425  1.00  0.00     0.031 C 
ATOM     57  C   UNL A   1      43.194  33.423  31.027  1.00  0.00     0.037 A 
BRANCH  44  58
ATOM     58  C   UNL A   1      46.661  28.886  28.661  1.00  0.00     0.057 A 
ATOM     59  C   UNL A   1      47.283  28.024  29.571  1.00  0.00     0.134 A 
ATOM     60  C   UNL A   1      47.350  29.181  27.476  1.00  0.00     0.134 A 
ATOM     61  F   UNL A   1      46.687  27.717  30.732  1.00  0.00    -0.206 F 
ATOM     62  C   UNL A   1      48.545  27.483  29.317  1.00  0.00     0.040 A 
ATOM     63  C   UNL A   1      48.600  28.627  27.200  1.00  0.00     0.040 A 
ATOM     64  F   UNL A   1      46.813  30.003  26.562  1.00  0.00    -0.206 F 
ATOM     65  C   UNL A   1      49.203  27.777  28.124  1.00  0.00     0.006 A 
ENDBRANCH  44  58
BRANCH  45  66
ATOM     66  C   UNL A   1      37.311  32.204  30.257  1.00  0.00     0.057 A 
ATOM     67  C   UNL A   1      36.630  31.793  31.408  1.00  0.00     0.134 A 
ATOM     68  C   UNL A   1      36.628  33.051  29.375  1.00  0.00     0.134 A 
ATOM     69  F   UNL A   1      37.222  30.968  32.285  1.00  0.00    -0.206 F 
ATOM     70  C   UNL A   1      35.312  32.182  31.657  1.00  0.00     0.040 A 
ATOM     71  C   UNL A   1      35.322  33.474  29.627  1.00  0.00     0.040 A 
ATOM     72  F   UNL A   1      37.225  33.489  28.256  1.00  0.00    -0.206 F 
ATOM     73  C   UNL A   1      34.656  33.028  30.766  1.00  0.00     0.006 A 
ENDBRANCH  45  66
BRANCH  57  74
ATOM     74  C   UNL A   1      43.647  34.681  31.703  1.00  0.00     0.057 A 
ATOM     75  C   UNL A   1      43.829  35.877  30.999  1.00  0.00     0.134 A 
ATOM     76  C   UNL A   1      43.872  34.698  33.086  1.00  0.00     0.134 A 
ATOM     77  F   UNL A   1      43.644  35.920  29.671  1.00  0.00    -0.206 F 
ATOM     78  C   UNL A   1      44.244  37.043  31.644  1.00  0.00     0.040 A 
ATOM     79  C   UNL A   1      44.256  35.864  33.745  1.00  0.00     0.040 A 
ATOM     80  F   UNL A   1      43.706  33.585  33.817  1.00  0.00    -0.206 F 
ATOM     81  C   UNL A   1      44.450  37.039  33.022  1.00  0.00     0.006 A 
ENDBRANCH  57  74
ENDBRANCH  31  32
ENDBRANCH  24  26
ENDBRANCH  23  24
ENDBRANCH  22  23
ENDBRANCH   1  22
TORSDOF 13
ENDMDL
MODEL 3
REMARK VINA RESULT:     -11.5      0.580      6.355
REMARK SMILES Cc1ccc(Cl)cc1S(=O)(=O)N1CC[C@@H](C(=O)OCCOC(=O)c2ccc(-c3c4nc(c(-c5c(F)cccc5F)c5ccc([nH]5)c(-c5c(F)cccc5F)c5nc(c(-c6c(F)cccc6F)c6ccc3[nH]6)C=C5)C=C4)cc2)[C@@H]1C
REMARK SMILES IDX 19 1 18 2 16 3 17 4 15 5 12 6 13 7 78 8 14 9 79 10 9 11
REMARK SMILES IDX 10 12 11 13 8 14 1 15 2 16 3 17 4 18 7 19 5 20 6 21 20 22
REMARK SMILES IDX 21 23 22 24 23 25 24 26 25 27 77 28 26 29 76 30 27 31 28 32
REMARK SMILES IDX 29 33 70 34 30 35 75 36 69 37 71 38 31 39 74 40 68 41 67 42
REMARK SMILES IDX 32 44 58 45 41 46 57 47 42 48 45 49 56 50 72 51 43 52 44 53
REMARK SMILES IDX 55 55 73 56 46 57 33 58 34 59 39 60 35 61 36 62 38 63 40 64
REMARK SMILES IDX 37 65 59 66 60 67 65 68 61 69 62 70 64 71 66 72 63 73 47 74
REMARK SMILES IDX 48 75 53 76 49 77 50 78 52 79 54 80 51 81
REMARK H PARENT 71 43 45 54
REMARK Flexibility Score: inf
ROOT
ATOM      1  C   UNL A   1      31.333  31.219  26.152  1.00  0.00     0.274 C 
ENDROOT
BRANCH   1   2
ATOM      2  O   UNL A   1      31.932  30.149  26.907  1.00  0.00    -0.462 OA
BRANCH   2   3
ATOM      3  C   UNL A   1      32.885  29.386  26.317  1.00  0.00     0.310 C 
ATOM      4  O   UNL A   1      33.946  29.815  25.880  1.00  0.00    -0.252 OA
BRANCH   3   5
ATOM      5  C   UNL A   1      32.556  27.901  26.385  1.00  0.00     0.118 C 
ATOM      6  N   UNL A   1      31.920  27.105  24.298  1.00  0.00    -0.194 NA
ATOM      7  C   UNL A   1      33.187  26.415  24.539  1.00  0.00     0.104 C 
ATOM      8  C   UNL A   1      31.325  27.509  25.578  1.00  0.00     0.084 C 
ATOM      9  C   UNL A   1      33.686  26.995  25.865  1.00  0.00     0.034 C 
ATOM     10  C   UNL A   1      30.633  26.316  26.256  1.00  0.00     0.027 C 
BRANCH   6  11
ATOM     11  S   UNL A   1      31.466  27.738  22.823  1.00  0.00     0.243 S 
ATOM     12  O   UNL A   1      31.319  26.588  21.957  1.00  0.00    -0.207 OA
ATOM     13  O   UNL A   1      32.396  28.801  22.488  1.00  0.00    -0.207 OA
BRANCH  11  14
ATOM     14  C   UNL A   1      29.832  28.516  22.879  1.00  0.00     0.087 A 
ATOM     15  C   UNL A   1      28.370  26.527  23.701  1.00  0.00     0.046 C 
ATOM     16  C   UNL A   1      28.598  27.917  23.205  1.00  0.00    -0.031 A 
ATOM     17  C   UNL A   1      27.429  28.716  23.211  1.00  0.00     0.006 A 
ATOM     18  C   UNL A   1      27.478  30.089  23.003  1.00  0.00     0.021 A 
ATOM     19  C   UNL A   1      29.863  29.916  22.685  1.00  0.00     0.042 A 
ATOM     20  C   UNL A   1      28.706  30.689  22.774  1.00  0.00     0.042 A 
ATOM     21  Cl  UNL A   1      28.799  32.402  22.646  1.00  0.00    -0.084 Cl
ENDBRANCH  11  14
ENDBRANCH   6  11
ENDBRANCH   3   5
ENDBRANCH   2   3
ENDBRANCH   1   2
BRANCH   1  22
ATOM     22  C   UNL A   1      31.405  32.517  26.960  1.00  0.00     0.275 C 
BRANCH  22  23
ATOM     23  O   UNL A   1      32.683  33.153  26.777  1.00  0.00    -0.458 OA
BRANCH  23  24
ATOM     24  C   UNL A   1      33.185  33.732  27.890  1.00  0.00     0.338 C 
ATOM     25  O   UNL A   1      32.658  34.563  28.609  1.00  0.00    -0.246 OA
BRANCH  24  26
ATOM     26  C   UNL A   1      34.440  33.073  28.260  1.00  0.00     0.060 A 
ATOM     27  C   UNL A   1      34.389  31.709  28.537  1.00  0.00     0.016 A 
ATOM     28  C   UNL A   1      35.597  33.804  28.503  1.00  0.00     0.016 A 
ATOM     29  C   UNL A   1      35.433  31.086  29.188  1.00  0.00     0.010 A 
ATOM     30  C   UNL A   1      36.701  33.146  29.052  1.00  0.00     0.010 A 
ATOM     31  C   UNL A   1      36.609  31.794  29.433  1.00  0.00    -0.014 A 
BRANCH  31  32
ATOM     32  C   UNL A   1      37.720  31.107  30.125  1.00  0.00     0.031 A 
ATOM     33  C   UNL A   1      37.931  31.348  31.589  1.00  0.00     0.074 A 
ATOM     34  C   UNL A   1      38.501  30.254  29.436  1.00  0.00     0.049 A 
ATOM     35  N   UNL A   1      38.936  30.996  32.344  1.00  0.00    -0.248 NA
ATOM     36  C   UNL A   1      36.876  32.092  32.298  1.00  0.00     0.031 C 
ATOM     37  C   UNL A   1      38.326  29.887  28.027  1.00  0.00     0.029 A 
ATOM     38  N   UNL A   1      39.600  29.537  29.827  1.00  0.00    -0.354 N 
ATOM     39  C   UNL A   1      38.666  31.526  33.599  1.00  0.00     0.074 A 
ATOM     40  C   UNL A   1      37.402  32.220  33.508  1.00  0.00     0.031 C 
ATOM     41  C   UNL A   1      39.274  29.004  27.678  1.00  0.00     0.029 A 
ATOM     42  C   UNL A   1      40.175  28.819  28.806  1.00  0.00     0.049 A 
ATOM     43  H   UNL A   1      39.946  29.537  30.749  1.00  0.00     0.167 HD
ATOM     44  C   UNL A   1      39.424  31.444  34.717  1.00  0.00     0.037 A 
ATOM     45  C   UNL A   1      41.333  28.136  28.772  1.00  0.00     0.037 A 
ATOM     46  C   UNL A   1      40.656  30.705  34.787  1.00  0.00     0.049 A 
ATOM     47  C   UNL A   1      42.180  28.116  30.013  1.00  0.00     0.074 A 
ATOM     48  C   UNL A   1      41.497  30.529  35.872  1.00  0.00     0.029 A 
ATOM     49  N   UNL A   1      41.221  30.014  33.725  1.00  0.00    -0.354 N 
ATOM     50  N   UNL A   1      41.936  28.644  31.189  1.00  0.00    -0.248 NA
ATOM     51  C   UNL A   1      43.468  27.419  29.919  1.00  0.00     0.031 C 
ATOM     52  C   UNL A   1      42.596  29.775  35.451  1.00  0.00     0.029 A 
ATOM     53  C   UNL A   1      42.413  29.432  34.120  1.00  0.00     0.049 A 
ATOM     54  H   UNL A   1      40.832  29.948  32.822  1.00  0.00     0.167 HD
ATOM     55  C   UNL A   1      43.025  28.316  31.983  1.00  0.00     0.074 A 
ATOM     56  C   UNL A   1      43.922  27.532  31.158  1.00  0.00     0.031 C 
ATOM     57  C   UNL A   1      43.268  28.637  33.277  1.00  0.00     0.037 A 
BRANCH  44  58
ATOM     58  C   UNL A   1      38.973  32.202  35.930  1.00  0.00     0.057 A 
ATOM     59  C   UNL A   1      38.181  31.624  36.929  1.00  0.00     0.134 A 
ATOM     60  C   UNL A   1      39.382  33.530  36.118  1.00  0.00     0.134 A 
ATOM     61  F   UNL A   1      37.739  30.364  36.802  1.00  0.00    -0.206 F 
ATOM     62  C   UNL A   1      37.804  32.342  38.067  1.00  0.00     0.040 A 
ATOM     63  C   UNL A   1      39.033  34.248  37.261  1.00  0.00     0.040 A 
ATOM     64  F   UNL A   1      40.140  34.146  35.198  1.00  0.00    -0.206 F 
ATOM     65  C   UNL A   1      38.238  33.655  38.239  1.00  0.00     0.006 A 
ENDBRANCH  44  58
BRANCH  45  66
ATOM     66  C   UNL A   1      41.786  27.475  27.521  1.00  0.00     0.057 A 
ATOM     67  C   UNL A   1      41.554  26.113  27.299  1.00  0.00     0.134 A 
ATOM     68  C   UNL A   1      42.491  28.175  26.533  1.00  0.00     0.134 A 
ATOM     69  F   UNL A   1      40.899  25.381  28.214  1.00  0.00    -0.206 F 
ATOM     70  C   UNL A   1      42.032  25.465  26.158  1.00  0.00     0.040 A 
ATOM     71  C   UNL A   1      42.946  27.548  25.373  1.00  0.00     0.040 A 
ATOM     72  F   UNL A   1      42.742  29.485  26.679  1.00  0.00    -0.206 F 
ATOM     73  C   UNL A   1      42.727  26.185  25.189  1.00  0.00     0.006 A 
ENDBRANCH  45  66
BRANCH  57  74
ATOM     74  C   UNL A   1      44.522  28.084  33.887  1.00  0.00     0.057 A 
ATOM     75  C   UNL A   1      44.561  26.816  34.479  1.00  0.00     0.134 A 
ATOM     76  C   UNL A   1      45.711  28.824  33.847  1.00  0.00     0.134 A 
ATOM     77  F   UNL A   1      43.451  26.068  34.561  1.00  0.00    -0.206 F 
ATOM     78  C   UNL A   1      45.737  26.312  35.035  1.00  0.00     0.040 A 
ATOM     79  C   UNL A   1      46.899  28.316  34.371  1.00  0.00     0.040 A 
ATOM     80  F   UNL A   1      45.739  30.041  33.285  1.00  0.00    -0.206 F 
ATOM     81  C   UNL A   1      46.912  27.060  34.974  1.00  0.00     0.006 A 
ENDBRANCH  57  74
ENDBRANCH  31  32
ENDBRANCH  24  26
ENDBRANCH  23  24
ENDBRANCH  22  23
ENDBRANCH   1  22
TORSDOF 13
ENDMDL
