MODEL 1
REMARK VINA RESULT:     -11.5      0.000      0.000
REMARK SMILES C[C@H](O)C[NH2+][C@H](CC(=O)Nc1cccc2ccccc12)C(=O)OCCOC(=O)c1ccc(-c2c3nc(c(-c4c(F)cccc4F)c4ccc([nH]4)c(-c4c(F)cccc4F)c4nc(c(-c5c(F)cccc5F)c5ccc2[nH]5)C=C4)C=C3)cc1
REMARK SMILES IDX 24 1 23 2 21 3 22 4 6 5 5 6 4 9 2 10 1 11 3 12 7 14 8 15
REMARK SMILES IDX 9 16 10 17 11 19 12 20 20 21 13 22 15 23 19 24 14 25 16 26
REMARK SMILES IDX 18 27 17 28 25 29 26 30 27 31 28 32 29 33 30 34 82 35 31 36
REMARK SMILES IDX 81 37 32 38 33 39 34 40 75 41 35 42 80 43 74 44 76 45 36 46
REMARK SMILES IDX 79 47 73 48 72 49 37 51 63 52 46 53 62 54 47 55 50 56 61 57
REMARK SMILES IDX 77 58 48 59 49 60 60 62 78 63 51 64 38 65 39 66 44 67 40 68
REMARK SMILES IDX 41 69 43 70 45 71 42 72 64 73 65 74 70 75 66 76 67 77 69 78
REMARK SMILES IDX 71 79 68 80 52 81 53 82 58 83 54 84 55 85 57 86 59 87 56 88
REMARK H PARENT 5 7 5 8 3 13 10 18 76 50 50 61
REMARK Flexibility Score: inf
ROOT
ATOM      1  C   UNL A   1      34.704  20.518  25.351  1.00  0.00     0.274 C 
ENDROOT
BRANCH   1   2
ATOM      2  O   UNL A   1      33.850  20.918  24.255  1.00  0.00    -0.458 OA
BRANCH   2   3
ATOM      3  C   UNL A   1      32.587  21.246  24.623  1.00  0.00     0.365 C 
ATOM      4  O   UNL A   1      31.774  20.444  25.083  1.00  0.00    -0.245 OA
BRANCH   3   5
ATOM      5  C   UNL A   1      32.213  22.728  24.432  1.00  0.00     0.302 C 
BRANCH   5   6
ATOM      6  N   UNL A   1      32.677  23.193  23.097  1.00  0.00    -0.332 N 
ATOM      7  H   UNL A   1      33.698  23.186  23.100  1.00  0.00     0.347 HD
ATOM      8  H   UNL A   1      32.262  22.554  22.419  1.00  0.00     0.347 HD
BRANCH   6   9
ATOM      9  C   UNL A   1      32.235  24.537  22.704  1.00  0.00     0.292 C 
BRANCH   9  10
ATOM     10  C   UNL A   1      33.455  25.421  22.367  1.00  0.00     0.166 C 
ATOM     11  C   UNL A   1      33.654  26.516  23.407  1.00  0.00     0.044 C 
BRANCH  10  12
ATOM     12  O   UNL A   1      33.277  26.047  21.092  1.00  0.00    -0.388 OA
ATOM     13  H   UNL A   1      33.868  26.813  21.022  1.00  0.00     0.211 HD
ENDBRANCH  10  12
ENDBRANCH   9  10
ENDBRANCH   6   9
ENDBRANCH   5   6
BRANCH   5  14
ATOM     14  C   UNL A   1      32.396  23.674  25.619  1.00  0.00     0.177 C 
BRANCH  14  15
ATOM     15  C   UNL A   1      31.168  23.947  26.489  1.00  0.00     0.231 C 
ATOM     16  O   UNL A   1      30.844  23.136  27.363  1.00  0.00    -0.274 OA
ATOM     17  N   UNL A   1      30.503  25.142  26.486  1.00  0.00    -0.325 N 
ATOM     18  H   UNL A   1      29.950  25.293  27.286  1.00  0.00     0.169 HD
BRANCH  17  19
ATOM     19  C   UNL A   1      30.464  26.194  25.556  1.00  0.00     0.049 A 
ATOM     20  C   UNL A   1      29.617  26.100  24.447  1.00  0.00     0.027 A 
ATOM     21  C   UNL A   1      31.107  27.426  25.834  1.00  0.00     0.005 A 
ATOM     22  C   UNL A   1      29.549  27.117  23.502  1.00  0.00     0.003 A 
ATOM     23  C   UNL A   1      31.012  28.471  24.876  1.00  0.00    -0.016 A 
ATOM     24  C   UNL A   1      31.848  27.679  27.011  1.00  0.00     0.011 A 
ATOM     25  C   UNL A   1      30.270  28.286  23.703  1.00  0.00     0.009 A 
ATOM     26  C   UNL A   1      31.641  29.702  25.114  1.00  0.00     0.009 A 
ATOM     27  C   UNL A   1      32.445  28.922  27.244  1.00  0.00     0.001 A 
ATOM     28  C   UNL A   1      32.343  29.930  26.295  1.00  0.00     0.001 A 
ENDBRANCH  17  19
ENDBRANCH  14  15
ENDBRANCH   5  14
ENDBRANCH   3   5
ENDBRANCH   2   3
ENDBRANCH   1   2
BRANCH   1  29
ATOM     29  C   UNL A   1      36.189  20.569  24.980  1.00  0.00     0.275 C 
BRANCH  29  30
ATOM     30  O   UNL A   1      36.904  21.545  25.762  1.00  0.00    -0.458 OA
BRANCH  30  31
ATOM     31  C   UNL A   1      38.244  21.361  25.802  1.00  0.00     0.338 C 
ATOM     32  O   UNL A   1      38.865  20.402  25.378  1.00  0.00    -0.246 OA
BRANCH  31  33
ATOM     33  C   UNL A   1      38.897  22.527  26.420  1.00  0.00     0.060 A 
ATOM     34  C   UNL A   1      38.424  23.805  26.127  1.00  0.00     0.016 A 
ATOM     35  C   UNL A   1      40.065  22.364  27.161  1.00  0.00     0.016 A 
ATOM     36  C   UNL A   1      39.154  24.930  26.505  1.00  0.00     0.010 A 
ATOM     37  C   UNL A   1      40.766  23.495  27.597  1.00  0.00     0.010 A 
ATOM     38  C   UNL A   1      40.334  24.785  27.246  1.00  0.00    -0.014 A 
BRANCH  38  39
ATOM     39  C   UNL A   1      41.132  25.982  27.620  1.00  0.00     0.031 A 
ATOM     40  C   UNL A   1      40.519  27.067  28.462  1.00  0.00     0.074 A 
ATOM     41  C   UNL A   1      42.410  26.095  27.215  1.00  0.00     0.049 A 
ATOM     42  N   UNL A   1      40.998  28.247  28.769  1.00  0.00    -0.248 NA
ATOM     43  C   UNL A   1      39.191  26.789  29.031  1.00  0.00     0.031 C 
ATOM     44  C   UNL A   1      43.145  25.096  26.439  1.00  0.00     0.029 A 
ATOM     45  N   UNL A   1      43.318  27.109  27.396  1.00  0.00    -0.354 N 
ATOM     46  C   UNL A   1      40.018  28.866  29.533  1.00  0.00     0.074 A 
ATOM     47  C   UNL A   1      38.916  27.934  29.643  1.00  0.00     0.031 C 
ATOM     48  C   UNL A   1      44.392  25.541  26.219  1.00  0.00     0.029 A 
ATOM     49  C   UNL A   1      44.525  26.881  26.783  1.00  0.00     0.049 A 
ATOM     50  H   UNL A   1      43.123  27.922  27.916  1.00  0.00     0.167 HD
ATOM     51  C   UNL A   1      40.036  30.100  30.093  1.00  0.00     0.037 A 
ATOM     52  C   UNL A   1      45.604  27.675  26.653  1.00  0.00     0.037 A 
ATOM     53  C   UNL A   1      41.145  31.015  30.015  1.00  0.00     0.049 A 
ATOM     54  C   UNL A   1      45.581  29.057  27.238  1.00  0.00     0.074 A 
ATOM     55  C   UNL A   1      41.259  32.283  30.559  1.00  0.00     0.029 A 
ATOM     56  N   UNL A   1      42.338  30.756  29.357  1.00  0.00    -0.354 N 
ATOM     57  N   UNL A   1      44.634  29.648  27.924  1.00  0.00    -0.248 NA
ATOM     58  C   UNL A   1      46.771  29.890  27.015  1.00  0.00     0.031 C 
ATOM     59  C   UNL A   1      42.509  32.803  30.206  1.00  0.00     0.029 A 
ATOM     60  C   UNL A   1      43.186  31.846  29.470  1.00  0.00     0.049 A 
ATOM     61  H   UNL A   1      42.549  29.921  28.879  1.00  0.00     0.167 HD
ATOM     62  C   UNL A   1      45.116  30.915  28.225  1.00  0.00     0.074 A 
ATOM     63  C   UNL A   1      46.447  31.002  27.660  1.00  0.00     0.031 C 
ATOM     64  C   UNL A   1      44.508  31.917  28.904  1.00  0.00     0.037 A 
BRANCH  51  65
ATOM     65  C   UNL A   1      38.804  30.547  30.819  1.00  0.00     0.057 A 
ATOM     66  C   UNL A   1      37.768  31.232  30.170  1.00  0.00     0.134 A 
ATOM     67  C   UNL A   1      38.636  30.254  32.178  1.00  0.00     0.134 A 
ATOM     68  F   UNL A   1      37.875  31.552  28.872  1.00  0.00    -0.206 F 
ATOM     69  C   UNL A   1      36.617  31.626  30.854  1.00  0.00     0.040 A 
ATOM     70  C   UNL A   1      37.479  30.624  32.867  1.00  0.00     0.040 A 
ATOM     71  F   UNL A   1      39.587  29.595  32.855  1.00  0.00    -0.206 F 
ATOM     72  C   UNL A   1      36.467  31.316  32.205  1.00  0.00     0.006 A 
ENDBRANCH  51  65
BRANCH  52  73
ATOM     73  C   UNL A   1      46.789  27.192  25.903  1.00  0.00     0.057 A 
ATOM     74  C   UNL A   1      47.785  26.438  26.532  1.00  0.00     0.134 A 
ATOM     75  C   UNL A   1      46.956  27.479  24.542  1.00  0.00     0.134 A 
ATOM     76  F   UNL A   1      47.691  26.155  27.840  1.00  0.00    -0.206 F 
ATOM     77  C   UNL A   1      48.909  25.991  25.838  1.00  0.00     0.040 A 
ATOM     78  C   UNL A   1      48.063  27.019  23.829  1.00  0.00     0.040 A 
ATOM     79  F   UNL A   1      46.035  28.198  23.884  1.00  0.00    -0.206 F 
ATOM     80  C   UNL A   1      49.047  26.277  24.480  1.00  0.00     0.006 A 
ENDBRANCH  52  73
BRANCH  64  81
ATOM     81  C   UNL A   1      45.288  33.183  29.092  1.00  0.00     0.057 A 
ATOM     82  C   UNL A   1      46.153  33.358  30.179  1.00  0.00     0.134 A 
ATOM     83  C   UNL A   1      45.192  34.226  28.163  1.00  0.00     0.134 A 
ATOM     84  F   UNL A   1      46.275  32.400  31.111  1.00  0.00    -0.206 F 
ATOM     85  C   UNL A   1      46.883  34.535  30.346  1.00  0.00     0.040 A 
ATOM     86  C   UNL A   1      45.932  35.400  28.310  1.00  0.00     0.040 A 
ATOM     87  F   UNL A   1      44.383  34.118  27.099  1.00  0.00    -0.206 F 
ATOM     88  C   UNL A   1      46.777  35.559  29.405  1.00  0.00     0.006 A 
ENDBRANCH  64  81
ENDBRANCH  38  39
ENDBRANCH  31  33
ENDBRANCH  30  31
ENDBRANCH  29  30
ENDBRANCH   1  29
TORSDOF 18
ENDMDL
MODEL 2
REMARK VINA RESULT:     -11.3      1.070      2.295
REMARK SMILES C[C@H](O)C[NH2+][C@H](CC(=O)Nc1cccc2ccccc12)C(=O)OCCOC(=O)c1ccc(-c2c3nc(c(-c4c(F)cccc4F)c4ccc([nH]4)c(-c4c(F)cccc4F)c4nc(c(-c5c(F)cccc5F)c5ccc2[nH]5)C=C4)C=C3)cc1
REMARK SMILES IDX 24 1 23 2 21 3 22 4 6 5 5 6 4 9 2 10 1 11 3 12 7 14 8 15
REMARK SMILES IDX 9 16 10 17 11 19 12 20 20 21 13 22 15 23 19 24 14 25 16 26
REMARK SMILES IDX 18 27 17 28 25 29 26 30 27 31 28 32 29 33 30 34 82 35 31 36
REMARK SMILES IDX 81 37 32 38 33 39 34 40 75 41 35 42 80 43 74 44 76 45 36 46
REMARK SMILES IDX 79 47 73 48 72 49 37 51 63 52 46 53 62 54 47 55 50 56 61 57
REMARK SMILES IDX 77 58 48 59 49 60 60 62 78 63 51 64 38 65 39 66 44 67 40 68
REMARK SMILES IDX 41 69 43 70 45 71 42 72 64 73 65 74 70 75 66 76 67 77 69 78
REMARK SMILES IDX 71 79 68 80 52 81 53 82 58 83 54 84 55 85 57 86 59 87 56 88
REMARK H PARENT 5 7 5 8 3 13 10 18 76 50 50 61
REMARK Flexibility Score: inf
ROOT
ATOM      1  C   UNL A   1      36.265  22.644  23.715  1.00  0.00     0.274 C 
ENDROOT
BRANCH   1   2
ATOM      2  O   UNL A   1      34.861  22.600  24.055  1.00  0.00    -0.458 OA
BRANCH   2   3
ATOM      3  C   UNL A   1      34.522  23.360  25.126  1.00  0.00     0.365 C 
ATOM      4  O   UNL A   1      35.177  24.324  25.521  1.00  0.00    -0.245 OA
BRANCH   3   5
ATOM      5  C   UNL A   1      33.224  22.939  25.844  1.00  0.00     0.302 C 
BRANCH   5   6
ATOM      6  N   UNL A   1      33.285  21.490  26.178  1.00  0.00    -0.332 N 
ATOM      7  H   UNL A   1      34.248  21.178  26.046  1.00  0.00     0.347 HD
ATOM      8  H   UNL A   1      32.955  21.412  27.141  1.00  0.00     0.347 HD
BRANCH   6   9
ATOM      9  C   UNL A   1      32.412  20.618  25.383  1.00  0.00     0.292 C 
BRANCH   9  10
ATOM     10  C   UNL A   1      32.979  19.182  25.354  1.00  0.00     0.166 C 
ATOM     11  C   UNL A   1      32.528  18.430  24.110  1.00  0.00     0.044 C 
BRANCH  10  12
ATOM     12  O   UNL A   1      32.534  18.451  26.501  1.00  0.00    -0.388 OA
ATOM     13  H   UNL A   1      33.164  17.740  26.696  1.00  0.00     0.211 HD
ENDBRANCH  10  12
ENDBRANCH   9  10
ENDBRANCH   6   9
ENDBRANCH   5   6
BRANCH   5  14
ATOM     14  C   UNL A   1      31.901  23.494  25.319  1.00  0.00     0.177 C 
BRANCH  14  15
ATOM     15  C   UNL A   1      30.872  23.944  26.358  1.00  0.00     0.231 C 
ATOM     16  O   UNL A   1      30.554  23.179  27.274  1.00  0.00    -0.274 OA
ATOM     17  N   UNL A   1      30.415  25.229  26.446  1.00  0.00    -0.325 N 
ATOM     18  H   UNL A   1      30.015  25.452  27.317  1.00  0.00     0.169 HD
BRANCH  17  19
ATOM     19  C   UNL A   1      30.409  26.291  25.526  1.00  0.00     0.049 A 
ATOM     20  C   UNL A   1      29.569  26.230  24.410  1.00  0.00     0.027 A 
ATOM     21  C   UNL A   1      31.082  27.503  25.821  1.00  0.00     0.005 A 
ATOM     22  C   UNL A   1      29.535  27.256  23.474  1.00  0.00     0.003 A 
ATOM     23  C   UNL A   1      31.021  28.559  24.873  1.00  0.00    -0.016 A 
ATOM     24  C   UNL A   1      31.820  27.726  27.006  1.00  0.00     0.011 A 
ATOM     25  C   UNL A   1      30.283  28.405  23.693  1.00  0.00     0.009 A 
ATOM     26  C   UNL A   1      31.679  29.771  25.128  1.00  0.00     0.009 A 
ATOM     27  C   UNL A   1      32.448  28.950  27.256  1.00  0.00     0.001 A 
ATOM     28  C   UNL A   1      32.378  29.970  26.315  1.00  0.00     0.001 A 
ENDBRANCH  17  19
ENDBRANCH  14  15
ENDBRANCH   5  14
ENDBRANCH   3   5
ENDBRANCH   2   3
ENDBRANCH   1   2
BRANCH   1  29
ATOM     29  C   UNL A   1      37.017  21.397  24.185  1.00  0.00     0.275 C 
BRANCH  29  30
ATOM     30  O   UNL A   1      37.316  21.449  25.593  1.00  0.00    -0.458 OA
BRANCH  30  31
ATOM     31  C   UNL A   1      38.613  21.217  25.902  1.00  0.00     0.338 C 
ATOM     32  O   UNL A   1      39.240  20.190  25.707  1.00  0.00    -0.246 OA
BRANCH  31  33
ATOM     33  C   UNL A   1      39.214  22.419  26.501  1.00  0.00     0.060 A 
ATOM     34  C   UNL A   1      38.703  23.672  26.168  1.00  0.00     0.016 A 
ATOM     35  C   UNL A   1      40.374  22.315  27.265  1.00  0.00     0.016 A 
ATOM     36  C   UNL A   1      39.387  24.831  26.530  1.00  0.00     0.010 A 
ATOM     37  C   UNL A   1      41.028  23.480  27.685  1.00  0.00     0.010 A 
ATOM     38  C   UNL A   1      40.557  24.746  27.294  1.00  0.00    -0.014 A 
BRANCH  38  39
ATOM     39  C   UNL A   1      41.307  25.978  27.652  1.00  0.00     0.031 A 
ATOM     40  C   UNL A   1      40.646  27.056  28.465  1.00  0.00     0.074 A 
ATOM     41  C   UNL A   1      42.584  26.131  27.256  1.00  0.00     0.049 A 
ATOM     42  N   UNL A   1      41.078  28.259  28.753  1.00  0.00    -0.248 NA
ATOM     43  C   UNL A   1      39.323  26.742  29.028  1.00  0.00     0.031 C 
ATOM     44  C   UNL A   1      43.363  25.144  26.508  1.00  0.00     0.029 A 
ATOM     45  N   UNL A   1      43.453  27.181  27.426  1.00  0.00    -0.354 N 
ATOM     46  C   UNL A   1      40.068  28.857  29.496  1.00  0.00     0.074 A 
ATOM     47  C   UNL A   1      39.000  27.887  29.613  1.00  0.00     0.031 C 
ATOM     48  C   UNL A   1      44.595  25.630  26.291  1.00  0.00     0.029 A 
ATOM     49  C   UNL A   1      44.673  26.986  26.829  1.00  0.00     0.049 A 
ATOM     50  H   UNL A   1      43.222  27.996  27.927  1.00  0.00     0.167 HD
ATOM     51  C   UNL A   1      40.036  30.101  30.030  1.00  0.00     0.037 A 
ATOM     52  C   UNL A   1      45.724  27.816  26.694  1.00  0.00     0.037 A 
ATOM     53  C   UNL A   1      41.110  31.056  29.944  1.00  0.00     0.049 A 
ATOM     54  C   UNL A   1      45.644  29.208  27.250  1.00  0.00     0.074 A 
ATOM     55  C   UNL A   1      41.172  32.338  30.464  1.00  0.00     0.029 A 
ATOM     56  N   UNL A   1      42.319  30.828  29.303  1.00  0.00    -0.354 N 
ATOM     57  N   UNL A   1      44.668  29.777  27.915  1.00  0.00    -0.248 NA
ATOM     58  C   UNL A   1      46.805  30.080  27.021  1.00  0.00     0.031 C 
ATOM     59  C   UNL A   1      42.406  32.896  30.112  1.00  0.00     0.029 A 
ATOM     60  C   UNL A   1      43.125  31.950  29.402  1.00  0.00     0.049 A 
ATOM     61  H   UNL A   1      42.565  29.992  28.844  1.00  0.00     0.167 HD
ATOM     62  C   UNL A   1      45.101  31.066  28.195  1.00  0.00     0.074 A 
ATOM     63  C   UNL A   1      46.433  31.192  27.641  1.00  0.00     0.031 C 
ATOM     64  C   UNL A   1      44.449  32.059  28.847  1.00  0.00     0.037 A 
BRANCH  51  65
ATOM     65  C   UNL A   1      38.780  30.517  30.735  1.00  0.00     0.057 A 
ATOM     66  C   UNL A   1      37.729  31.155  30.064  1.00  0.00     0.134 A 
ATOM     67  C   UNL A   1      38.606  30.241  32.097  1.00  0.00     0.134 A 
ATOM     68  F   UNL A   1      37.839  31.458  28.762  1.00  0.00    -0.206 F 
ATOM     69  C   UNL A   1      36.556  31.519  30.728  1.00  0.00     0.040 A 
ATOM     70  C   UNL A   1      37.430  30.581  32.767  1.00  0.00     0.040 A 
ATOM     71  F   UNL A   1      39.572  29.626  32.796  1.00  0.00    -0.206 F 
ATOM     72  C   UNL A   1      36.402  31.226  32.083  1.00  0.00     0.006 A 
ENDBRANCH  51  65
BRANCH  52  73
ATOM     73  C   UNL A   1      46.933  27.363  25.964  1.00  0.00     0.057 A 
ATOM     74  C   UNL A   1      47.042  27.518  24.579  1.00  0.00     0.134 A 
ATOM     75  C   UNL A   1      48.005  26.759  26.635  1.00  0.00     0.134 A 
ATOM     76  F   UNL A   1      46.037  28.067  23.881  1.00  0.00    -0.206 F 
ATOM     77  C   UNL A   1      48.170  27.083  23.882  1.00  0.00     0.040 A 
ATOM     78  C   UNL A   1      49.148  26.339  25.955  1.00  0.00     0.040 A 
ATOM     79  F   UNL A   1      47.958  26.582  27.963  1.00  0.00    -0.206 F 
ATOM     80  C   UNL A   1      49.230  26.497  24.573  1.00  0.00     0.006 A 
ENDBRANCH  52  73
BRANCH  64  81
ATOM     81  C   UNL A   1      45.180  33.356  29.017  1.00  0.00     0.057 A 
ATOM     82  C   UNL A   1      45.054  34.397  28.090  1.00  0.00     0.134 A 
ATOM     83  C   UNL A   1      45.997  33.575  30.133  1.00  0.00     0.134 A 
ATOM     84  F   UNL A   1      44.298  34.241  26.991  1.00  0.00    -0.206 F 
ATOM     85  C   UNL A   1      45.729  35.607  28.257  1.00  0.00     0.040 A 
ATOM     86  C   UNL A   1      46.662  34.788  30.321  1.00  0.00     0.040 A 
ATOM     87  F   UNL A   1      46.155  32.618  31.060  1.00  0.00    -0.206 F 
ATOM     88  C   UNL A   1      46.532  35.806  29.379  1.00  0.00     0.006 A 
ENDBRANCH  64  81
ENDBRANCH  38  39
ENDBRANCH  31  33
ENDBRANCH  30  31
ENDBRANCH  29  30
ENDBRANCH   1  29
TORSDOF 18
ENDMDL
MODEL 3
REMARK VINA RESULT:     -11.0      5.406      9.210
REMARK SMILES C[C@H](O)C[NH2+][C@H](CC(=O)Nc1cccc2ccccc12)C(=O)OCCOC(=O)c1ccc(-c2c3nc(c(-c4c(F)cccc4F)c4ccc([nH]4)c(-c4c(F)cccc4F)c4nc(c(-c5c(F)cccc5F)c5ccc2[nH]5)C=C4)C=C3)cc1
REMARK SMILES IDX 24 1 23 2 21 3 22 4 6 5 5 6 4 9 2 10 1 11 3 12 7 14 8 15
REMARK SMILES IDX 9 16 10 17 11 19 12 20 20 21 13 22 15 23 19 24 14 25 16 26
REMARK SMILES IDX 18 27 17 28 25 29 26 30 27 31 28 32 29 33 30 34 82 35 31 36
REMARK SMILES IDX 81 37 32 38 33 39 34 40 75 41 35 42 80 43 74 44 76 45 36 46
REMARK SMILES IDX 79 47 73 48 72 49 37 51 63 52 46 53 62 54 47 55 50 56 61 57
REMARK SMILES IDX 77 58 48 59 49 60 60 62 78 63 51 64 38 65 39 66 44 67 40 68
REMARK SMILES IDX 41 69 43 70 45 71 42 72 64 73 65 74 70 75 66 76 67 77 69 78
REMARK SMILES IDX 71 79 68 80 52 81 53 82 58 83 54 84 55 85 57 86 59 87 56 88
REMARK H PARENT 5 7 5 8 3 13 10 18 76 50 50 61
REMARK Flexibility Score: inf
ROOT
ATOM      1  C   UNL A   1      45.910  24.263  25.250  1.00  0.00     0.274 C 
ENDROOT
BRANCH   1   2
ATOM      2  O   UNL A   1      45.700  23.606  23.980  1.00  0.00    -0.458 OA
BRANCH   2   3
ATOM      3  C   UNL A   1      44.653  22.744  23.964  1.00  0.00     0.365 C 
ATOM      4  O   UNL A   1      44.142  22.302  22.935  1.00  0.00    -0.245 OA
BRANCH   3   5
ATOM      5  C   UNL A   1      44.122  22.332  25.350  1.00  0.00     0.302 C 
BRANCH   5   6
ATOM      6  N   UNL A   1      44.710  21.021  25.741  1.00  0.00    -0.332 N 
ATOM      7  H   UNL A   1      45.698  21.033  25.486  1.00  0.00     0.347 HD
ATOM      8  H   UNL A   1      44.544  20.929  26.743  1.00  0.00     0.347 HD
BRANCH   6   9
ATOM      9  C   UNL A   1      44.097  19.840  25.122  1.00  0.00     0.292 C 
BRANCH   9  10
ATOM     10  C   UNL A   1      45.106  19.147  24.182  1.00  0.00     0.166 C 
ATOM     11  C   UNL A   1      46.534  19.588  24.474  1.00  0.00     0.044 C 
BRANCH  10  12
ATOM     12  O   UNL A   1      44.813  19.468  22.818  1.00  0.00    -0.388 OA
ATOM     13  H   UNL A   1      45.610  19.347  22.278  1.00  0.00     0.211 HD
ENDBRANCH  10  12
ENDBRANCH   9  10
ENDBRANCH   6   9
ENDBRANCH   5   6
BRANCH   5  14
ATOM     14  C   UNL A   1      42.643  22.567  25.653  1.00  0.00     0.177 C 
BRANCH  14  15
ATOM     15  C   UNL A   1      42.216  22.523  27.120  1.00  0.00     0.231 C 
ATOM     16  O   UNL A   1      43.068  22.378  28.002  1.00  0.00    -0.274 OA
ATOM     17  N   UNL A   1      40.950  22.826  27.538  1.00  0.00    -0.325 N 
ATOM     18  H   UNL A   1      40.888  23.059  28.492  1.00  0.00     0.169 HD
BRANCH  17  19
ATOM     19  C   UNL A   1      39.720  22.868  26.859  1.00  0.00     0.049 A 
ATOM     20  C   UNL A   1      39.101  24.100  26.631  1.00  0.00     0.027 A 
ATOM     21  C   UNL A   1      39.208  21.708  26.224  1.00  0.00     0.005 A 
ATOM     22  C   UNL A   1      37.884  24.186  25.967  1.00  0.00     0.003 A 
ATOM     23  C   UNL A   1      37.977  21.807  25.522  1.00  0.00    -0.016 A 
ATOM     24  C   UNL A   1      39.850  20.448  26.250  1.00  0.00     0.011 A 
ATOM     25  C   UNL A   1      37.310  23.036  25.440  1.00  0.00     0.009 A 
ATOM     26  C   UNL A   1      37.437  20.680  24.887  1.00  0.00     0.009 A 
ATOM     27  C   UNL A   1      39.311  19.341  25.588  1.00  0.00     0.001 A 
ATOM     28  C   UNL A   1      38.104  19.458  24.909  1.00  0.00     0.001 A 
ENDBRANCH  17  19
ENDBRANCH  14  15
ENDBRANCH   5  14
ENDBRANCH   3   5
ENDBRANCH   2   3
ENDBRANCH   1   2
BRANCH   1  29
ATOM     29  C   UNL A   1      45.237  25.636  25.313  1.00  0.00     0.275 C 
BRANCH  29  30
ATOM     30  O   UNL A   1      44.234  25.696  26.344  1.00  0.00    -0.458 OA
BRANCH  30  31
ATOM     31  C   UNL A   1      43.034  26.170  25.935  1.00  0.00     0.338 C 
ATOM     32  O   UNL A   1      42.496  25.972  24.860  1.00  0.00    -0.246 OA
BRANCH  31  33
ATOM     33  C   UNL A   1      42.412  26.966  27.006  1.00  0.00     0.060 A 
ATOM     34  C   UNL A   1      42.720  28.321  27.112  1.00  0.00     0.016 A 
ATOM     35  C   UNL A   1      41.650  26.340  27.990  1.00  0.00     0.016 A 
ATOM     36  C   UNL A   1      42.336  29.044  28.239  1.00  0.00     0.010 A 
ATOM     37  C   UNL A   1      41.208  27.082  29.093  1.00  0.00     0.010 A 
ATOM     38  C   UNL A   1      41.575  28.431  29.242  1.00  0.00    -0.014 A 
BRANCH  38  39
ATOM     39  C   UNL A   1      41.193  29.192  30.460  1.00  0.00     0.031 A 
ATOM     40  C   UNL A   1      40.001  30.107  30.439  1.00  0.00     0.074 A 
ATOM     41  C   UNL A   1      41.909  29.058  31.592  1.00  0.00     0.049 A 
ATOM     42  N   UNL A   1      39.596  30.961  31.346  1.00  0.00    -0.248 NA
ATOM     43  C   UNL A   1      39.152  30.057  29.238  1.00  0.00     0.031 C 
ATOM     44  C   UNL A   1      43.057  28.167  31.768  1.00  0.00     0.029 A 
ATOM     45  N   UNL A   1      41.779  29.677  32.811  1.00  0.00    -0.354 N 
ATOM     46  C   UNL A   1      38.471  31.577  30.811  1.00  0.00     0.074 A 
ATOM     47  C   UNL A   1      38.257  31.000  29.500  1.00  0.00     0.031 C 
ATOM     48  C   UNL A   1      43.519  28.290  33.022  1.00  0.00     0.029 A 
ATOM     49  C   UNL A   1      42.742  29.312  33.718  1.00  0.00     0.049 A 
ATOM     50  H   UNL A   1      41.063  30.322  33.014  1.00  0.00     0.167 HD
ATOM     51  C   UNL A   1      37.689  32.534  31.364  1.00  0.00     0.037 A 
ATOM     52  C   UNL A   1      42.998  29.774  34.956  1.00  0.00     0.037 A 
ATOM     53  C   UNL A   1      37.879  33.084  32.681  1.00  0.00     0.049 A 
ATOM     54  C   UNL A   1      42.148  30.872  35.526  1.00  0.00     0.074 A 
ATOM     55  C   UNL A   1      37.130  34.051  33.330  1.00  0.00     0.029 A 
ATOM     56  N   UNL A   1      38.887  32.708  33.556  1.00  0.00    -0.354 N 
ATOM     57  N   UNL A   1      41.112  31.474  34.997  1.00  0.00    -0.248 NA
ATOM     58  C   UNL A   1      42.515  31.366  36.861  1.00  0.00     0.031 C 
ATOM     59  C   UNL A   1      37.702  34.280  34.586  1.00  0.00     0.029 A 
ATOM     60  C   UNL A   1      38.787  33.433  34.732  1.00  0.00     0.049 A 
ATOM     61  H   UNL A   1      39.571  32.026  33.367  1.00  0.00     0.167 HD
ATOM     62  C   UNL A   1      40.696  32.409  35.936  1.00  0.00     0.074 A 
ATOM     63  C   UNL A   1      41.581  32.283  37.075  1.00  0.00     0.031 C 
ATOM     64  C   UNL A   1      39.674  33.295  35.857  1.00  0.00     0.037 A 
BRANCH  51  65
ATOM     65  C   UNL A   1      36.566  33.074  30.531  1.00  0.00     0.057 A 
ATOM     66  C   UNL A   1      35.234  32.695  30.746  1.00  0.00     0.134 A 
ATOM     67  C   UNL A   1      36.817  34.016  29.526  1.00  0.00     0.134 A 
ATOM     68  F   UNL A   1      34.930  31.788  31.686  1.00  0.00    -0.206 F 
ATOM     69  C   UNL A   1      34.195  33.221  29.976  1.00  0.00     0.040 A 
ATOM     70  C   UNL A   1      35.784  34.564  28.763  1.00  0.00     0.040 A 
ATOM     71  F   UNL A   1      38.069  34.426  29.275  1.00  0.00    -0.206 F 
ATOM     72  C   UNL A   1      34.468  34.163  28.985  1.00  0.00     0.006 A 
ENDBRANCH  51  65
BRANCH  52  73
ATOM     73  C   UNL A   1      44.138  29.222  35.728  1.00  0.00     0.057 A 
ATOM     74  C   UNL A   1      43.966  28.142  36.599  1.00  0.00     0.134 A 
ATOM     75  C   UNL A   1      45.424  29.767  35.617  1.00  0.00     0.134 A 
ATOM     76  F   UNL A   1      42.751  27.597  36.764  1.00  0.00    -0.206 F 
ATOM     77  C   UNL A   1      45.029  27.625  37.339  1.00  0.00     0.040 A 
ATOM     78  C   UNL A   1      46.502  29.246  36.334  1.00  0.00     0.040 A 
ATOM     79  F   UNL A   1      45.652  30.804  34.799  1.00  0.00    -0.206 F 
ATOM     80  C   UNL A   1      46.303  28.174  37.202  1.00  0.00     0.006 A 
ENDBRANCH  52  73
BRANCH  64  81
ATOM     81  C   UNL A   1      39.447  34.179  37.046  1.00  0.00     0.057 A 
ATOM     82  C   UNL A   1      38.760  33.725  38.178  1.00  0.00     0.134 A 
ATOM     83  C   UNL A   1      39.943  35.488  37.068  1.00  0.00     0.134 A 
ATOM     84  F   UNL A   1      38.247  32.485  38.210  1.00  0.00    -0.206 F 
ATOM     85  C   UNL A   1      38.558  34.549  39.286  1.00  0.00     0.040 A 
ATOM     86  C   UNL A   1      39.763  36.315  38.178  1.00  0.00     0.040 A 
ATOM     87  F   UNL A   1      40.613  35.981  36.016  1.00  0.00    -0.206 F 
ATOM     88  C   UNL A   1      39.066  35.847  39.290  1.00  0.00     0.006 A 
ENDBRANCH  64  81
ENDBRANCH  38  39
ENDBRANCH  31  33
ENDBRANCH  30  31
ENDBRANCH  29  30
ENDBRANCH   1  29
TORSDOF 18
ENDMDL
