MODEL 1
REMARK VINA RESULT:     -11.5      0.000      0.000
REMARK SMILES C[C@H]1CCCCN1S(=O)(=O)c1ccc(Br)c(C(=O)OCCOC(=O)c2ccc(-c3c4nc(c(-c5c(F)cccc5F)c5ccc([nH]5)c(-c5c(F)cccc5F)c5nc(c(-c6c(F)cccc6F)c6ccc3[nH]6)C=C5)C=C4)cc2)c1
REMARK SMILES IDX 20 1 19 2 17 3 18 4 16 5 11 6 12 7 79 8 13 9 14 10 15 11
REMARK SMILES IDX 8 12 9 13 10 14 7 15 1 16 2 17 3 18 4 19 6 20 5 21 21 22
REMARK SMILES IDX 22 23 23 24 24 25 25 26 26 27 78 28 27 29 77 30 28 31 29 32
REMARK SMILES IDX 30 33 71 34 31 35 76 36 70 37 72 38 32 39 75 40 69 41 68 42
REMARK SMILES IDX 33 44 59 45 42 46 58 47 43 48 46 49 57 50 73 51 44 52 45 53
REMARK SMILES IDX 56 55 74 56 47 57 34 58 35 59 40 60 36 61 37 62 39 63 41 64
REMARK SMILES IDX 38 65 60 66 61 67 66 68 62 69 63 70 65 71 67 72 64 73 48 74
REMARK SMILES IDX 49 75 54 76 50 77 51 78 53 79 55 80 52 81
REMARK H PARENT 72 43 46 54
REMARK Flexibility Score: inf
ROOT
ATOM      1  C   UNL A   1      32.920  29.273  24.969  1.00  0.00     0.275 C 
ENDROOT
BRANCH   1   2
ATOM      2  O   UNL A   1      32.675  29.229  23.549  1.00  0.00    -0.458 OA
BRANCH   2   3
ATOM      3  C   UNL A   1      32.668  28.029  22.921  1.00  0.00     0.339 C 
ATOM      4  O   UNL A   1      33.497  27.616  22.129  1.00  0.00    -0.246 OA
BRANCH   3   5
ATOM      5  C   UNL A   1      31.581  27.183  23.487  1.00  0.00     0.075 A 
ATOM      6  C   UNL A   1      31.009  25.261  24.873  1.00  0.00     0.083 A 
ATOM      7  C   UNL A   1      29.705  25.749  24.994  1.00  0.00     0.023 A 
ATOM      8  C   UNL A   1      31.952  25.980  24.129  1.00  0.00     0.038 A 
ATOM      9  C   UNL A   1      29.305  26.856  24.246  1.00  0.00     0.018 A 
ATOM     10  C   UNL A   1      30.233  27.564  23.477  1.00  0.00     0.032 A 
ATOM     11  Br  UNL A   1      29.538  28.953  22.378  1.00  0.00    -0.050 Br
BRANCH   6  12
ATOM     12  S   UNL A   1      31.501  23.861  25.857  1.00  0.00     0.243 S 
ATOM     13  O   UNL A   1      30.651  22.744  25.487  1.00  0.00    -0.207 OA
ATOM     14  O   UNL A   1      31.535  24.329  27.226  1.00  0.00    -0.207 OA
BRANCH  12  15
ATOM     15  N   UNL A   1      33.134  23.423  25.416  1.00  0.00    -0.195 NA
ATOM     16  C   UNL A   1      32.776  22.468  23.102  1.00  0.00     0.026 C 
ATOM     17  C   UNL A   1      33.297  22.213  24.515  1.00  0.00     0.070 C 
ATOM     18  C   UNL A   1      34.786  21.849  24.345  1.00  0.00     0.020 C 
ATOM     19  C   UNL A   1      35.490  21.629  25.667  1.00  0.00     0.003 C 
ATOM     20  C   UNL A   1      33.900  23.236  26.719  1.00  0.00     0.103 C 
ATOM     21  C   UNL A   1      35.364  22.886  26.501  1.00  0.00     0.017 C 
ENDBRANCH  12  15
ENDBRANCH   6  12
ENDBRANCH   3   5
ENDBRANCH   2   3
ENDBRANCH   1   2
BRANCH   1  22
ATOM     22  C   UNL A   1      31.932  30.229  25.640  1.00  0.00     0.275 C 
BRANCH  22  23
ATOM     23  O   UNL A   1      32.316  30.450  27.009  1.00  0.00    -0.458 OA
BRANCH  23  24
ATOM     24  C   UNL A   1      32.961  31.616  27.233  1.00  0.00     0.338 C 
ATOM     25  O   UNL A   1      32.510  32.748  27.181  1.00  0.00    -0.246 OA
BRANCH  24  26
ATOM     26  C   UNL A   1      34.314  31.331  27.718  1.00  0.00     0.060 A 
ATOM     27  C   UNL A   1      34.606  30.010  28.035  1.00  0.00     0.016 A 
ATOM     28  C   UNL A   1      35.222  32.344  28.008  1.00  0.00     0.016 A 
ATOM     29  C   UNL A   1      35.755  29.703  28.749  1.00  0.00     0.010 A 
ATOM     30  C   UNL A   1      36.430  32.016  28.638  1.00  0.00     0.010 A 
ATOM     31  C   UNL A   1      36.692  30.697  29.057  1.00  0.00    -0.014 A 
BRANCH  31  32
ATOM     32  C   UNL A   1      37.910  30.353  29.849  1.00  0.00     0.031 A 
ATOM     33  C   UNL A   1      39.007  29.521  29.236  1.00  0.00     0.074 A 
ATOM     34  C   UNL A   1      38.055  30.806  31.111  1.00  0.00     0.049 A 
ATOM     35  N   UNL A   1      40.056  28.978  29.805  1.00  0.00    -0.248 NA
ATOM     36  C   UNL A   1      38.900  29.247  27.796  1.00  0.00     0.031 C 
ATOM     37  C   UNL A   1      37.111  31.675  31.815  1.00  0.00     0.029 A 
ATOM     38  N   UNL A   1      39.063  30.609  32.023  1.00  0.00    -0.354 N 
ATOM     39  C   UNL A   1      40.697  28.253  28.808  1.00  0.00     0.074 A 
ATOM     40  C   UNL A   1      39.908  28.409  27.603  1.00  0.00     0.031 C 
ATOM     41  C   UNL A   1      37.604  31.977  33.024  1.00  0.00     0.029 A 
ATOM     42  C   UNL A   1      38.845  31.239  33.225  1.00  0.00     0.049 A 
ATOM     43  H   UNL A   1      39.864  30.068  31.835  1.00  0.00     0.167 HD
ATOM     44  C   UNL A   1      41.837  27.525  28.888  1.00  0.00     0.037 A 
ATOM     45  C   UNL A   1      39.535  31.195  34.380  1.00  0.00     0.037 A 
ATOM     46  C   UNL A   1      42.644  27.415  30.078  1.00  0.00     0.049 A 
ATOM     47  C   UNL A   1      40.758  30.329  34.468  1.00  0.00     0.074 A 
ATOM     48  C   UNL A   1      43.829  26.721  30.257  1.00  0.00     0.029 A 
ATOM     49  N   UNL A   1      42.354  28.024  31.291  1.00  0.00    -0.354 N 
ATOM     50  N   UNL A   1      41.329  29.607  33.536  1.00  0.00    -0.248 NA
ATOM     51  C   UNL A   1      41.421  30.258  35.777  1.00  0.00     0.031 C 
ATOM     52  C   UNL A   1      44.222  26.860  31.593  1.00  0.00     0.029 A 
ATOM     53  C   UNL A   1      43.320  27.696  32.231  1.00  0.00     0.049 A 
ATOM     54  H   UNL A   1      41.575  28.603  31.459  1.00  0.00     0.167 HD
ATOM     55  C   UNL A   1      42.429  29.012  34.136  1.00  0.00     0.074 A 
ATOM     56  C   UNL A   1      42.454  29.472  35.510  1.00  0.00     0.031 C 
ATOM     57  C   UNL A   1      43.336  28.161  33.597  1.00  0.00     0.037 A 
BRANCH  44  58
ATOM     58  C   UNL A   1      42.250  26.745  27.669  1.00  0.00     0.057 A 
ATOM     59  C   UNL A   1      43.071  27.284  26.668  1.00  0.00     0.134 A 
ATOM     60  C   UNL A   1      41.817  25.423  27.496  1.00  0.00     0.134 A 
ATOM     61  F   UNL A   1      43.518  28.545  26.761  1.00  0.00    -0.206 F 
ATOM     62  C   UNL A   1      43.404  26.556  25.523  1.00  0.00     0.040 A 
ATOM     63  C   UNL A   1      42.173  24.672  26.374  1.00  0.00     0.040 A 
ATOM     64  F   UNL A   1      41.041  24.834  28.420  1.00  0.00    -0.206 F 
ATOM     65  C   UNL A   1      42.959  25.243  25.377  1.00  0.00     0.006 A 
ENDBRANCH  44  58
BRANCH  45  66
ATOM     66  C   UNL A   1      39.057  31.971  35.553  1.00  0.00     0.057 A 
ATOM     67  C   UNL A   1      38.216  31.391  36.508  1.00  0.00     0.134 A 
ATOM     68  C   UNL A   1      39.447  33.301  35.760  1.00  0.00     0.134 A 
ATOM     69  F   UNL A   1      37.787  30.130  36.353  1.00  0.00    -0.206 F 
ATOM     70  C   UNL A   1      37.778  32.105  37.626  1.00  0.00     0.040 A 
ATOM     71  C   UNL A   1      39.044  34.014  36.889  1.00  0.00     0.040 A 
ATOM     72  F   UNL A   1      40.254  33.916  34.883  1.00  0.00    -0.206 F 
ATOM     73  C   UNL A   1      38.202  33.417  37.824  1.00  0.00     0.006 A 
ENDBRANCH  45  66
BRANCH  57  74
ATOM     74  C   UNL A   1      44.459  27.706  34.483  1.00  0.00     0.057 A 
ATOM     75  C   UNL A   1      44.384  26.526  35.236  1.00  0.00     0.134 A 
ATOM     76  C   UNL A   1      45.645  28.449  34.565  1.00  0.00     0.134 A 
ATOM     77  F   UNL A   1      43.272  25.776  35.215  1.00  0.00    -0.206 F 
ATOM     78  C   UNL A   1      45.436  26.117  36.057  1.00  0.00     0.040 A 
ATOM     79  C   UNL A   1      46.715  28.033  35.359  1.00  0.00     0.040 A 
ATOM     80  F   UNL A   1      45.787  29.585  33.866  1.00  0.00    -0.206 F 
ATOM     81  C   UNL A   1      46.609  26.867  36.115  1.00  0.00     0.006 A 
ENDBRANCH  57  74
ENDBRANCH  31  32
ENDBRANCH  24  26
ENDBRANCH  23  24
ENDBRANCH  22  23
ENDBRANCH   1  22
TORSDOF 13
ENDMDL
MODEL 2
REMARK VINA RESULT:     -11.3      1.353      2.351
REMARK SMILES C[C@H]1CCCCN1S(=O)(=O)c1ccc(Br)c(C(=O)OCCOC(=O)c2ccc(-c3c4nc(c(-c5c(F)cccc5F)c5ccc([nH]5)c(-c5c(F)cccc5F)c5nc(c(-c6c(F)cccc6F)c6ccc3[nH]6)C=C5)C=C4)cc2)c1
REMARK SMILES IDX 20 1 19 2 17 3 18 4 16 5 11 6 12 7 79 8 13 9 14 10 15 11
REMARK SMILES IDX 8 12 9 13 10 14 7 15 1 16 2 17 3 18 4 19 6 20 5 21 21 22
REMARK SMILES IDX 22 23 23 24 24 25 25 26 26 27 78 28 27 29 77 30 28 31 29 32
REMARK SMILES IDX 30 33 71 34 31 35 76 36 70 37 72 38 32 39 75 40 69 41 68 42
REMARK SMILES IDX 33 44 59 45 42 46 58 47 43 48 46 49 57 50 73 51 44 52 45 53
REMARK SMILES IDX 56 55 74 56 47 57 34 58 35 59 40 60 36 61 37 62 39 63 41 64
REMARK SMILES IDX 38 65 60 66 61 67 66 68 62 69 63 70 65 71 67 72 64 73 48 74
REMARK SMILES IDX 49 75 54 76 50 77 51 78 53 79 55 80 52 81
REMARK H PARENT 72 43 46 54
REMARK Flexibility Score: inf
ROOT
ATOM      1  C   UNL A   1      31.419  28.653  27.631  1.00  0.00     0.275 C 
ENDROOT
BRANCH   1   2
ATOM      2  O   UNL A   1      32.253  27.731  26.900  1.00  0.00    -0.458 OA
BRANCH   2   3
ATOM      3  C   UNL A   1      31.671  26.697  26.245  1.00  0.00     0.339 C 
ATOM      4  O   UNL A   1      30.602  26.177  26.510  1.00  0.00    -0.246 OA
BRANCH   3   5
ATOM      5  C   UNL A   1      32.447  26.399  25.010  1.00  0.00     0.075 A 
ATOM      6  C   UNL A   1      34.096  24.960  23.938  1.00  0.00     0.083 A 
ATOM      7  C   UNL A   1      33.659  25.406  22.688  1.00  0.00     0.023 A 
ATOM      8  C   UNL A   1      33.486  25.445  25.100  1.00  0.00     0.038 A 
ATOM      9  C   UNL A   1      32.735  26.448  22.606  1.00  0.00     0.018 A 
ATOM     10  C   UNL A   1      32.141  26.961  23.763  1.00  0.00     0.032 A 
ATOM     11  Br  UNL A   1      31.023  28.483  23.537  1.00  0.00    -0.050 Br
BRANCH   6  12
ATOM     12  S   UNL A   1      35.257  23.611  24.015  1.00  0.00     0.243 S 
ATOM     13  O   UNL A   1      36.294  23.980  24.962  1.00  0.00    -0.207 OA
ATOM     14  O   UNL A   1      35.599  23.302  22.644  1.00  0.00    -0.207 OA
BRANCH  12  15
ATOM     15  N   UNL A   1      34.440  22.216  24.676  1.00  0.00    -0.195 NA
ATOM     16  C   UNL A   1      36.403  20.745  25.289  1.00  0.00     0.026 C 
ATOM     17  C   UNL A   1      35.115  20.871  24.478  1.00  0.00     0.070 C 
ATOM     18  C   UNL A   1      34.208  19.722  24.963  1.00  0.00     0.020 C 
ATOM     19  C   UNL A   1      32.843  19.736  24.308  1.00  0.00     0.003 C 
ATOM     20  C   UNL A   1      33.038  22.212  24.080  1.00  0.00     0.103 C 
ATOM     21  C   UNL A   1      32.179  21.066  24.594  1.00  0.00     0.017 C 
ENDBRANCH  12  15
ENDBRANCH   6  12
ENDBRANCH   3   5
ENDBRANCH   2   3
ENDBRANCH   1   2
BRANCH   1  22
ATOM     22  C   UNL A   1      31.468  30.034  26.973  1.00  0.00     0.275 C 
BRANCH  22  23
ATOM     23  O   UNL A   1      32.817  30.344  26.581  1.00  0.00    -0.458 OA
BRANCH  23  24
ATOM     24  C   UNL A   1      33.318  31.474  27.125  1.00  0.00     0.338 C 
ATOM     25  O   UNL A   1      32.750  32.538  27.306  1.00  0.00    -0.246 OA
BRANCH  24  26
ATOM     26  C   UNL A   1      34.665  31.205  27.635  1.00  0.00     0.060 A 
ATOM     27  C   UNL A   1      34.979  29.883  27.926  1.00  0.00     0.016 A 
ATOM     28  C   UNL A   1      35.543  32.230  27.972  1.00  0.00     0.016 A 
ATOM     29  C   UNL A   1      36.117  29.583  28.659  1.00  0.00     0.010 A 
ATOM     30  C   UNL A   1      36.743  31.913  28.622  1.00  0.00     0.010 A 
ATOM     31  C   UNL A   1      37.024  30.589  29.014  1.00  0.00    -0.014 A 
BRANCH  31  32
ATOM     32  C   UNL A   1      38.230  30.251  29.826  1.00  0.00     0.031 A 
ATOM     33  C   UNL A   1      39.321  29.387  29.246  1.00  0.00     0.074 A 
ATOM     34  C   UNL A   1      38.372  30.738  31.075  1.00  0.00     0.049 A 
ATOM     35  N   UNL A   1      40.358  28.846  29.839  1.00  0.00    -0.248 NA
ATOM     36  C   UNL A   1      39.222  29.073  27.814  1.00  0.00     0.031 C 
ATOM     37  C   UNL A   1      37.434  31.640  31.747  1.00  0.00     0.029 A 
ATOM     38  N   UNL A   1      39.369  30.553  32.002  1.00  0.00    -0.354 N 
ATOM     39  C   UNL A   1      40.997  28.084  28.869  1.00  0.00     0.074 A 
ATOM     40  C   UNL A   1      40.220  28.217  27.654  1.00  0.00     0.031 C 
ATOM     41  C   UNL A   1      37.921  31.968  32.951  1.00  0.00     0.029 A 
ATOM     42  C   UNL A   1      39.150  31.220  33.183  1.00  0.00     0.049 A 
ATOM     43  H   UNL A   1      40.164  29.997  31.836  1.00  0.00     0.167 HD
ATOM     44  C   UNL A   1      42.126  27.343  28.979  1.00  0.00     0.037 A 
ATOM     45  C   UNL A   1      39.830  31.200  34.345  1.00  0.00     0.037 A 
ATOM     46  C   UNL A   1      42.922  27.256  30.179  1.00  0.00     0.049 A 
ATOM     47  C   UNL A   1      41.040  30.320  34.468  1.00  0.00     0.074 A 
ATOM     48  C   UNL A   1      44.095  26.552  30.389  1.00  0.00     0.029 A 
ATOM     49  N   UNL A   1      42.630  27.903  31.372  1.00  0.00    -0.354 N 
ATOM     50  N   UNL A   1      41.609  29.564  33.562  1.00  0.00    -0.248 NA
ATOM     51  C   UNL A   1      41.691  30.277  35.785  1.00  0.00     0.031 C 
ATOM     52  C   UNL A   1      44.479  26.724  31.723  1.00  0.00     0.029 A 
ATOM     53  C   UNL A   1      43.583  27.589  32.329  1.00  0.00     0.049 A 
ATOM     54  H   UNL A   1      41.858  28.498  31.517  1.00  0.00     0.167 HD
ATOM     55  C   UNL A   1      42.695  28.971  34.188  1.00  0.00     0.074 A 
ATOM     56  C   UNL A   1      42.715  29.469  35.549  1.00  0.00     0.031 C 
ATOM     57  C   UNL A   1      43.595  28.093  33.681  1.00  0.00     0.037 A 
BRANCH  44  58
ATOM     58  C   UNL A   1      42.539  26.523  27.787  1.00  0.00     0.057 A 
ATOM     59  C   UNL A   1      42.106  25.204  27.590  1.00  0.00     0.134 A 
ATOM     60  C   UNL A   1      43.386  27.070  26.813  1.00  0.00     0.134 A 
ATOM     61  F   UNL A   1      41.299  24.612  28.483  1.00  0.00    -0.206 F 
ATOM     62  C   UNL A   1      42.537  24.447  26.498  1.00  0.00     0.040 A 
ATOM     63  C   UNL A   1      43.796  26.335  25.698  1.00  0.00     0.040 A 
ATOM     64  F   UNL A   1      43.830  28.332  26.926  1.00  0.00    -0.206 F 
ATOM     65  C   UNL A   1      43.381  25.015  25.545  1.00  0.00     0.006 A 
ENDBRANCH  44  58
BRANCH  45  66
ATOM     66  C   UNL A   1      39.353  32.015  35.492  1.00  0.00     0.057 A 
ATOM     67  C   UNL A   1      38.463  31.487  36.432  1.00  0.00     0.134 A 
ATOM     68  C   UNL A   1      39.791  33.332  35.687  1.00  0.00     0.134 A 
ATOM     69  F   UNL A   1      37.987  30.242  36.287  1.00  0.00    -0.206 F 
ATOM     70  C   UNL A   1      38.025  32.237  37.526  1.00  0.00     0.040 A 
ATOM     71  C   UNL A   1      39.388  34.081  36.793  1.00  0.00     0.040 A 
ATOM     72  F   UNL A   1      40.646  33.898  34.822  1.00  0.00    -0.206 F 
ATOM     73  C   UNL A   1      38.497  33.535  37.713  1.00  0.00     0.006 A 
ENDBRANCH  45  66
BRANCH  57  74
ATOM     74  C   UNL A   1      44.704  27.648  34.590  1.00  0.00     0.057 A 
ATOM     75  C   UNL A   1      45.905  28.362  34.705  1.00  0.00     0.134 A 
ATOM     76  C   UNL A   1      44.557  26.501  35.382  1.00  0.00     0.134 A 
ATOM     77  F   UNL A   1      46.118  29.459  33.964  1.00  0.00    -0.206 F 
ATOM     78  C   UNL A   1      46.928  27.934  35.553  1.00  0.00     0.040 A 
ATOM     79  C   UNL A   1      45.561  26.083  36.257  1.00  0.00     0.040 A 
ATOM     80  F   UNL A   1      43.430  25.775  35.327  1.00  0.00    -0.206 F 
ATOM     81  C   UNL A   1      46.755  26.796  36.337  1.00  0.00     0.006 A 
ENDBRANCH  57  74
ENDBRANCH  31  32
ENDBRANCH  24  26
ENDBRANCH  23  24
ENDBRANCH  22  23
ENDBRANCH   1  22
TORSDOF 13
ENDMDL
MODEL 3
REMARK VINA RESULT:     -11.3      0.816      6.383
REMARK SMILES C[C@H]1CCCCN1S(=O)(=O)c1ccc(Br)c(C(=O)OCCOC(=O)c2ccc(-c3c4nc(c(-c5c(F)cccc5F)c5ccc([nH]5)c(-c5c(F)cccc5F)c5nc(c(-c6c(F)cccc6F)c6ccc3[nH]6)C=C5)C=C4)cc2)c1
REMARK SMILES IDX 20 1 19 2 17 3 18 4 16 5 11 6 12 7 79 8 13 9 14 10 15 11
REMARK SMILES IDX 8 12 9 13 10 14 7 15 1 16 2 17 3 18 4 19 6 20 5 21 21 22
REMARK SMILES IDX 22 23 23 24 24 25 25 26 26 27 78 28 27 29 77 30 28 31 29 32
REMARK SMILES IDX 30 33 71 34 31 35 76 36 70 37 72 38 32 39 75 40 69 41 68 42
REMARK SMILES IDX 33 44 59 45 42 46 58 47 43 48 46 49 57 50 73 51 44 52 45 53
REMARK SMILES IDX 56 55 74 56 47 57 34 58 35 59 40 60 36 61 37 62 39 63 41 64
REMARK SMILES IDX 38 65 60 66 61 67 66 68 62 69 63 70 65 71 67 72 64 73 48 74
REMARK SMILES IDX 49 75 54 76 50 77 51 78 53 79 55 80 52 81
REMARK H PARENT 72 43 46 54
REMARK Flexibility Score: inf
ROOT
ATOM      1  C   UNL A   1      31.649  30.466  26.599  1.00  0.00     0.275 C 
ENDROOT
BRANCH   1   2
ATOM      2  O   UNL A   1      31.198  30.116  25.276  1.00  0.00    -0.458 OA
BRANCH   2   3
ATOM      3  C   UNL A   1      31.951  29.275  24.526  1.00  0.00     0.339 C 
ATOM      4  O   UNL A   1      33.115  29.432  24.203  1.00  0.00    -0.246 OA
BRANCH   3   5
ATOM      5  C   UNL A   1      31.201  28.009  24.304  1.00  0.00     0.075 A 
ATOM      6  C   UNL A   1      30.933  25.665  24.916  1.00  0.00     0.083 A 
ATOM      7  C   UNL A   1      29.651  25.676  24.359  1.00  0.00     0.023 A 
ATOM      8  C   UNL A   1      31.707  26.831  24.899  1.00  0.00     0.038 A 
ATOM      9  C   UNL A   1      29.211  26.792  23.649  1.00  0.00     0.018 A 
ATOM     10  C   UNL A   1      29.989  27.953  23.602  1.00  0.00     0.032 A 
ATOM     11  Br  UNL A   1      29.359  29.348  22.472  1.00  0.00    -0.050 Br
BRANCH   6  12
ATOM     12  S   UNL A   1      31.462  24.236  25.839  1.00  0.00     0.243 S 
ATOM     13  O   UNL A   1      30.626  23.120  25.436  1.00  0.00    -0.207 OA
ATOM     14  O   UNL A   1      31.506  24.651  27.224  1.00  0.00    -0.207 OA
BRANCH  12  15
ATOM     15  N   UNL A   1      33.096  23.844  25.360  1.00  0.00    -0.195 NA
ATOM     16  C   UNL A   1      32.817  23.546  22.865  1.00  0.00     0.026 C 
ATOM     17  C   UNL A   1      33.255  22.904  24.179  1.00  0.00     0.070 C 
ATOM     18  C   UNL A   1      34.735  22.519  23.977  1.00  0.00     0.020 C 
ATOM     19  C   UNL A   1      35.362  21.925  25.220  1.00  0.00     0.003 C 
ATOM     20  C   UNL A   1      33.787  23.283  26.597  1.00  0.00     0.103 C 
ATOM     21  C   UNL A   1      35.244  22.926  26.350  1.00  0.00     0.017 C 
ENDBRANCH  12  15
ENDBRANCH   6  12
ENDBRANCH   3   5
ENDBRANCH   2   3
ENDBRANCH   1   2
BRANCH   1  22
ATOM     22  C   UNL A   1      31.411  31.956  26.855  1.00  0.00     0.275 C 
BRANCH  22  23
ATOM     23  O   UNL A   1      32.615  32.698  26.592  1.00  0.00    -0.458 OA
BRANCH  23  24
ATOM     24  C   UNL A   1      33.103  33.379  27.652  1.00  0.00     0.338 C 
ATOM     25  O   UNL A   1      32.561  34.265  28.290  1.00  0.00    -0.246 OA
BRANCH  24  26
ATOM     26  C   UNL A   1      34.380  32.787  28.056  1.00  0.00     0.060 A 
ATOM     27  C   UNL A   1      34.394  31.419  28.302  1.00  0.00     0.016 A 
ATOM     28  C   UNL A   1      35.496  33.567  28.343  1.00  0.00     0.016 A 
ATOM     29  C   UNL A   1      35.478  30.838  28.944  1.00  0.00     0.010 A 
ATOM     30  C   UNL A   1      36.629  32.957  28.897  1.00  0.00     0.010 A 
ATOM     31  C   UNL A   1      36.618  31.593  29.246  1.00  0.00    -0.014 A 
BRANCH  31  32
ATOM     32  C   UNL A   1      37.764  30.956  29.961  1.00  0.00     0.031 A 
ATOM     33  C   UNL A   1      37.987  31.219  31.428  1.00  0.00     0.074 A 
ATOM     34  C   UNL A   1      38.593  30.115  29.310  1.00  0.00     0.049 A 
ATOM     35  N   UNL A   1      39.010  30.900  32.184  1.00  0.00    -0.248 NA
ATOM     36  C   UNL A   1      36.931  31.958  32.133  1.00  0.00     0.031 C 
ATOM     37  C   UNL A   1      38.464  29.711  27.908  1.00  0.00     0.029 A 
ATOM     38  N   UNL A   1      39.704  29.435  29.747  1.00  0.00    -0.354 N 
ATOM     39  C   UNL A   1      38.745  31.448  33.433  1.00  0.00     0.074 A 
ATOM     40  C   UNL A   1      37.476  32.137  33.328  1.00  0.00     0.031 C 
ATOM     41  C   UNL A   1      39.422  28.820  27.616  1.00  0.00     0.029 A 
ATOM     42  C   UNL A   1      40.297  28.670  28.771  1.00  0.00     0.049 A 
ATOM     43  H   UNL A   1      40.044  29.492  30.669  1.00  0.00     0.167 HD
ATOM     44  C   UNL A   1      39.490  31.383  34.564  1.00  0.00     0.037 A 
ATOM     45  C   UNL A   1      41.441  27.961  28.782  1.00  0.00     0.037 A 
ATOM     46  C   UNL A   1      40.729  30.653  34.674  1.00  0.00     0.049 A 
ATOM     47  C   UNL A   1      42.286  27.957  30.023  1.00  0.00     0.074 A 
ATOM     48  C   UNL A   1      41.549  30.505  35.780  1.00  0.00     0.029 A 
ATOM     49  N   UNL A   1      41.322  29.938  33.642  1.00  0.00    -0.354 N 
ATOM     50  N   UNL A   1      42.055  28.519  31.183  1.00  0.00    -0.248 NA
ATOM     51  C   UNL A   1      43.564  27.235  29.947  1.00  0.00     0.031 C 
ATOM     52  C   UNL A   1      42.667  29.753  35.401  1.00  0.00     0.029 A 
ATOM     53  C   UNL A   1      42.512  29.375  34.077  1.00  0.00     0.049 A 
ATOM     54  H   UNL A   1      40.952  29.846  32.734  1.00  0.00     0.167 HD
ATOM     55  C   UNL A   1      43.143  28.203  31.984  1.00  0.00     0.074 A 
ATOM     56  C   UNL A   1      44.028  27.385  31.179  1.00  0.00     0.031 C 
ATOM     57  C   UNL A   1      43.386  28.560  33.269  1.00  0.00     0.037 A 
BRANCH  44  58
ATOM     58  C   UNL A   1      39.013  32.168  35.756  1.00  0.00     0.057 A 
ATOM     59  C   UNL A   1      38.206  31.608  36.756  1.00  0.00     0.134 A 
ATOM     60  C   UNL A   1      39.374  33.514  35.905  1.00  0.00     0.134 A 
ATOM     61  F   UNL A   1      37.815  30.327  36.677  1.00  0.00    -0.206 F 
ATOM     62  C   UNL A   1      37.738  32.368  37.831  1.00  0.00     0.040 A 
ATOM     63  C   UNL A   1      38.943  34.275  36.993  1.00  0.00     0.040 A 
ATOM     64  F   UNL A   1      40.157  34.115  34.995  1.00  0.00    -0.206 F 
ATOM     65  C   UNL A   1      38.112  33.705  37.954  1.00  0.00     0.006 A 
ENDBRANCH  44  58
BRANCH  45  66
ATOM     66  C   UNL A   1      41.866  27.229  27.561  1.00  0.00     0.057 A 
ATOM     67  C   UNL A   1      41.542  25.881  27.379  1.00  0.00     0.134 A 
ATOM     68  C   UNL A   1      42.584  27.864  26.538  1.00  0.00     0.134 A 
ATOM     69  F   UNL A   1      40.878  25.211  28.332  1.00  0.00    -0.206 F 
ATOM     70  C   UNL A   1      41.917  25.189  26.225  1.00  0.00     0.040 A 
ATOM     71  C   UNL A   1      42.936  27.193  25.367  1.00  0.00     0.040 A 
ATOM     72  F   UNL A   1      42.925  29.157  26.650  1.00  0.00    -0.206 F 
ATOM     73  C   UNL A   1      42.607  25.850  25.211  1.00  0.00     0.006 A 
ENDBRANCH  45  66
BRANCH  57  74
ATOM     74  C   UNL A   1      44.641  28.029  33.900  1.00  0.00     0.057 A 
ATOM     75  C   UNL A   1      45.844  28.748  33.887  1.00  0.00     0.134 A 
ATOM     76  C   UNL A   1      44.637  26.789  34.553  1.00  0.00     0.134 A 
ATOM     77  F   UNL A   1      45.921  29.934  33.265  1.00  0.00    -0.206 F 
ATOM     78  C   UNL A   1      47.003  28.239  34.477  1.00  0.00     0.040 A 
ATOM     79  C   UNL A   1      45.782  26.286  35.174  1.00  0.00     0.040 A 
ATOM     80  F   UNL A   1      43.518  26.051  34.610  1.00  0.00    -0.206 F 
ATOM     81  C   UNL A   1      46.972  27.009  35.129  1.00  0.00     0.006 A 
ENDBRANCH  57  74
ENDBRANCH  31  32
ENDBRANCH  24  26
ENDBRANCH  23  24
ENDBRANCH  22  23
ENDBRANCH   1  22
TORSDOF 13
ENDMDL
