MODEL 1
REMARK VINA RESULT:     -11.7      0.000      0.000
REMARK SMILES Cc1nn(C)c(C)c1[C@H](C)N1C(=O)CC[C@@H](C(=O)OCCOC(=O)c2ccc(-c3c4nc(c(-c5c(F)cccc5F)c5ccc([nH]5)c(-c5c(F)cccc5F)c5nc(c(-c6c(F)cccc6F)c6ccc3[nH]6)C=C5)C=C4)cc2)[C@@H]1c1ccco1
REMARK SMILES IDX 20 1 19 2 17 3 18 4 16 5 11 6 12 7 79 8 13 9 14 10 15 11
REMARK SMILES IDX 9 12 10 13 8 14 1 15 2 16 3 17 4 18 6 19 5 20 7 21 80 22
REMARK SMILES IDX 81 23 84 24 82 25 83 26 21 27 22 28 23 29 24 30 25 31 26 32
REMARK SMILES IDX 78 33 27 34 77 35 28 36 29 37 30 38 71 39 31 40 76 41 70 42
REMARK SMILES IDX 72 43 32 44 75 45 69 46 68 47 33 49 59 50 42 51 58 52 43 53
REMARK SMILES IDX 46 54 57 55 73 56 44 57 45 58 56 60 74 61 47 62 34 63 35 64
REMARK SMILES IDX 40 65 36 66 37 67 39 68 41 69 38 70 60 71 61 72 66 73 62 74
REMARK SMILES IDX 63 75 65 76 67 77 64 78 48 79 49 80 54 81 50 82 51 83 53 84
REMARK SMILES IDX 55 85 52 86
REMARK H PARENT 72 48 46 59
REMARK Flexibility Score: inf
ROOT
ATOM      1  C   UNL A   1      34.828  21.241  24.819  1.00  0.00     0.274 C 
ENDROOT
BRANCH   1   2
ATOM      2  O   UNL A   1      34.856  22.430  25.644  1.00  0.00    -0.462 OA
BRANCH   2   3
ATOM      3  C   UNL A   1      34.519  23.586  25.007  1.00  0.00     0.311 C 
ATOM      4  O   UNL A   1      34.633  23.752  23.802  1.00  0.00    -0.252 OA
BRANCH   3   5
ATOM      5  C   UNL A   1      34.067  24.660  25.982  1.00  0.00     0.130 C 
ATOM      6  N   UNL A   1      31.871  25.176  24.871  1.00  0.00    -0.325 N 
ATOM      7  C   UNL A   1      31.144  24.451  25.810  1.00  0.00     0.223 C 
ATOM      8  C   UNL A   1      33.189  25.700  25.265  1.00  0.00     0.166 C 
ATOM      9  O   UNL A   1      29.941  24.215  25.713  1.00  0.00    -0.275 OA
ATOM     10  C   UNL A   1      31.885  23.812  26.980  1.00  0.00     0.101 C 
ATOM     11  C   UNL A   1      33.357  24.104  27.200  1.00  0.00     0.028 C 
BRANCH   6  12
ATOM     12  C   UNL A   1      31.346  25.392  23.475  1.00  0.00     0.117 C 
ATOM     13  C   UNL A   1      30.410  24.303  22.928  1.00  0.00     0.036 C 
BRANCH  12  14
ATOM     14  C   UNL A   1      30.780  26.793  23.249  1.00  0.00     0.018 A 
ATOM     15  C   UNL A   1      32.881  28.326  22.673  1.00  0.00     0.069 C 
ATOM     16  C   UNL A   1      31.443  28.006  22.861  1.00  0.00     0.065 A 
ATOM     17  N   UNL A   1      30.575  29.012  22.691  1.00  0.00    -0.178 NA
ATOM     18  N   UNL A   1      29.384  28.483  22.972  1.00  0.00    -0.272 N 
ATOM     19  C   UNL A   1      29.460  27.205  23.453  1.00  0.00     0.040 A 
ATOM     20  C   UNL A   1      28.203  29.275  22.723  1.00  0.00     0.174 C 
ATOM     21  C   UNL A   1      28.271  26.497  23.996  1.00  0.00     0.067 C 
ENDBRANCH  12  14
ENDBRANCH   6  12
BRANCH   8  22
ATOM     22  C   UNL A   1      32.991  26.942  26.104  1.00  0.00     0.127 A 
ATOM     23  C   UNL A   1      31.875  27.546  26.650  1.00  0.00     0.048 A 
ATOM     24  O   UNL A   1      34.103  27.665  26.438  1.00  0.00    -0.467 OA
ATOM     25  C   UNL A   1      32.336  28.685  27.356  1.00  0.00     0.042 A 
ATOM     26  C   UNL A   1      33.700  28.705  27.204  1.00  0.00     0.195 A 
ENDBRANCH   8  22
ENDBRANCH   3   5
ENDBRANCH   2   3
ENDBRANCH   1   2
BRANCH   1  27
ATOM     27  C   UNL A   1      36.115  20.428  24.947  1.00  0.00     0.275 C 
BRANCH  27  28
ATOM     28  O   UNL A   1      37.255  21.292  24.806  1.00  0.00    -0.458 OA
BRANCH  28  29
ATOM     29  C   UNL A   1      38.368  20.928  25.480  1.00  0.00     0.338 C 
ATOM     30  O   UNL A   1      38.869  19.811  25.523  1.00  0.00    -0.246 OA
BRANCH  29  31
ATOM     31  C   UNL A   1      38.955  22.098  26.165  1.00  0.00     0.060 A 
ATOM     32  C   UNL A   1      38.453  23.370  25.922  1.00  0.00     0.016 A 
ATOM     33  C   UNL A   1      40.103  21.952  26.949  1.00  0.00     0.016 A 
ATOM     34  C   UNL A   1      39.151  24.489  26.368  1.00  0.00     0.010 A 
ATOM     35  C   UNL A   1      40.752  23.085  27.467  1.00  0.00     0.010 A 
ATOM     36  C   UNL A   1      40.311  24.377  27.140  1.00  0.00    -0.014 A 
BRANCH  36  37
ATOM     37  C   UNL A   1      41.085  25.605  27.499  1.00  0.00     0.031 A 
ATOM     38  C   UNL A   1      40.485  26.632  28.426  1.00  0.00     0.074 A 
ATOM     39  C   UNL A   1      42.361  25.775  27.094  1.00  0.00     0.049 A 
ATOM     40  N   UNL A   1      40.893  27.848  28.694  1.00  0.00    -0.248 NA
ATOM     41  C   UNL A   1      39.258  26.244  29.142  1.00  0.00     0.031 C 
ATOM     42  C   UNL A   1      43.139  24.824  26.298  1.00  0.00     0.029 A 
ATOM     43  N   UNL A   1      43.247  26.802  27.328  1.00  0.00    -0.354 N 
ATOM     44  C   UNL A   1      39.940  28.390  29.549  1.00  0.00     0.074 A 
ATOM     45  C   UNL A   1      38.939  27.369  29.768  1.00  0.00     0.031 C 
ATOM     46  C   UNL A   1      44.398  25.269  26.180  1.00  0.00     0.029 A 
ATOM     47  C   UNL A   1      44.488  26.598  26.775  1.00  0.00     0.049 A 
ATOM     48  H   UNL A   1      43.013  27.607  27.843  1.00  0.00     0.167 HD
ATOM     49  C   UNL A   1      39.900  29.632  30.091  1.00  0.00     0.037 A 
ATOM     50  C   UNL A   1      45.565  27.404  26.702  1.00  0.00     0.037 A 
ATOM     51  C   UNL A   1      40.935  30.622  29.936  1.00  0.00     0.049 A 
ATOM     52  C   UNL A   1      45.474  28.800  27.250  1.00  0.00     0.074 A 
ATOM     53  C   UNL A   1      40.964  31.924  30.406  1.00  0.00     0.029 A 
ATOM     54  N   UNL A   1      42.141  30.403  29.291  1.00  0.00    -0.354 N 
ATOM     55  N   UNL A   1      44.499  29.365  27.918  1.00  0.00    -0.248 NA
ATOM     56  C   UNL A   1      46.617  29.688  26.990  1.00  0.00     0.031 C 
ATOM     57  C   UNL A   1      42.178  32.503  30.019  1.00  0.00     0.029 A 
ATOM     58  C   UNL A   1      42.918  31.549  29.341  1.00  0.00     0.049 A 
ATOM     59  H   UNL A   1      42.407  29.559  28.861  1.00  0.00     0.167 HD
ATOM     60  C   UNL A   1      44.907  30.670  28.155  1.00  0.00     0.074 A 
ATOM     61  C   UNL A   1      46.232  30.806  27.588  1.00  0.00     0.031 C 
ATOM     62  C   UNL A   1      44.235  31.671  28.775  1.00  0.00     0.037 A 
BRANCH  49  63
ATOM     63  C   UNL A   1      38.666  30.016  30.850  1.00  0.00     0.057 A 
ATOM     64  C   UNL A   1      38.543  29.826  32.231  1.00  0.00     0.134 A 
ATOM     65  C   UNL A   1      37.594  30.624  30.183  1.00  0.00     0.134 A 
ATOM     66  F   UNL A   1      39.525  29.236  32.928  1.00  0.00    -0.206 F 
ATOM     67  C   UNL A   1      37.389  30.213  32.919  1.00  0.00     0.040 A 
ATOM     68  C   UNL A   1      36.446  31.035  30.862  1.00  0.00     0.040 A 
ATOM     69  F   UNL A   1      37.652  30.840  28.859  1.00  0.00    -0.206 F 
ATOM     70  C   UNL A   1      36.340  30.825  32.234  1.00  0.00     0.006 A 
ENDBRANCH  49  63
BRANCH  50  71
ATOM     71  C   UNL A   1      46.795  26.948  26.003  1.00  0.00     0.057 A 
ATOM     72  C   UNL A   1      47.805  26.262  26.684  1.00  0.00     0.134 A 
ATOM     73  C   UNL A   1      46.998  27.205  24.640  1.00  0.00     0.134 A 
ATOM     74  F   UNL A   1      47.689  26.016  27.997  1.00  0.00    -0.206 F 
ATOM     75  C   UNL A   1      48.974  25.850  26.038  1.00  0.00     0.040 A 
ATOM     76  C   UNL A   1      48.144  26.772  23.974  1.00  0.00     0.040 A 
ATOM     77  F   UNL A   1      46.073  27.868  23.930  1.00  0.00    -0.206 F 
ATOM     78  C   UNL A   1      49.141  26.098  24.677  1.00  0.00     0.006 A 
ENDBRANCH  50  71
BRANCH  62  79
ATOM     79  C   UNL A   1      44.932  32.993  28.884  1.00  0.00     0.057 A 
ATOM     80  C   UNL A   1      45.809  33.274  29.939  1.00  0.00     0.134 A 
ATOM     81  C   UNL A   1      44.744  33.984  27.914  1.00  0.00     0.134 A 
ATOM     82  F   UNL A   1      46.019  32.370  30.908  1.00  0.00    -0.206 F 
ATOM     83  C   UNL A   1      46.463  34.503  30.034  1.00  0.00     0.040 A 
ATOM     84  C   UNL A   1      45.408  35.209  27.987  1.00  0.00     0.040 A 
ATOM     85  F   UNL A   1      43.921  33.775  26.876  1.00  0.00    -0.206 F 
ATOM     86  C   UNL A   1      46.267  35.473  29.052  1.00  0.00     0.006 A 
ENDBRANCH  62  79
ENDBRANCH  36  37
ENDBRANCH  29  31
ENDBRANCH  28  29
ENDBRANCH  27  28
ENDBRANCH   1  27
TORSDOF 14
ENDMDL
MODEL 2
REMARK VINA RESULT:     -11.6      3.731      8.677
REMARK SMILES Cc1nn(C)c(C)c1[C@H](C)N1C(=O)CC[C@@H](C(=O)OCCOC(=O)c2ccc(-c3c4nc(c(-c5c(F)cccc5F)c5ccc([nH]5)c(-c5c(F)cccc5F)c5nc(c(-c6c(F)cccc6F)c6ccc3[nH]6)C=C5)C=C4)cc2)[C@@H]1c1ccco1
REMARK SMILES IDX 20 1 19 2 17 3 18 4 16 5 11 6 12 7 79 8 13 9 14 10 15 11
REMARK SMILES IDX 9 12 10 13 8 14 1 15 2 16 3 17 4 18 6 19 5 20 7 21 80 22
REMARK SMILES IDX 81 23 84 24 82 25 83 26 21 27 22 28 23 29 24 30 25 31 26 32
REMARK SMILES IDX 78 33 27 34 77 35 28 36 29 37 30 38 71 39 31 40 76 41 70 42
REMARK SMILES IDX 72 43 32 44 75 45 69 46 68 47 33 49 59 50 42 51 58 52 43 53
REMARK SMILES IDX 46 54 57 55 73 56 44 57 45 58 56 60 74 61 47 62 34 63 35 64
REMARK SMILES IDX 40 65 36 66 37 67 39 68 41 69 38 70 60 71 61 72 66 73 62 74
REMARK SMILES IDX 63 75 65 76 67 77 64 78 48 79 49 80 54 81 50 82 51 83 53 84
REMARK SMILES IDX 55 85 52 86
REMARK H PARENT 72 48 46 59
REMARK Flexibility Score: inf
ROOT
ATOM      1  C   UNL A   1      31.239  29.244  25.158  1.00  0.00     0.274 C 
ENDROOT
BRANCH   1   2
ATOM      2  O   UNL A   1      32.472  28.576  24.797  1.00  0.00    -0.462 OA
BRANCH   2   3
ATOM      3  C   UNL A   1      32.679  27.375  25.407  1.00  0.00     0.311 C 
ATOM      4  O   UNL A   1      31.994  26.958  26.329  1.00  0.00    -0.252 OA
BRANCH   3   5
ATOM      5  C   UNL A   1      33.907  26.666  24.860  1.00  0.00     0.130 C 
ATOM      6  N   UNL A   1      32.704  24.687  23.879  1.00  0.00    -0.325 N 
ATOM      7  C   UNL A   1      32.793  25.185  22.584  1.00  0.00     0.223 C 
ATOM      8  C   UNL A   1      33.694  25.142  24.869  1.00  0.00     0.166 C 
ATOM      9  O   UNL A   1      32.228  24.679  21.615  1.00  0.00    -0.275 OA
ATOM     10  C   UNL A   1      33.541  26.493  22.347  1.00  0.00     0.101 C 
ATOM     11  C   UNL A   1      34.311  27.145  23.480  1.00  0.00     0.028 C 
BRANCH   6  12
ATOM     12  C   UNL A   1      31.604  23.736  24.278  1.00  0.00     0.117 C 
ATOM     13  C   UNL A   1      30.341  23.760  23.403  1.00  0.00     0.036 C 
BRANCH  12  14
ATOM     14  C   UNL A   1      32.095  22.311  24.527  1.00  0.00     0.018 A 
ATOM     15  C   UNL A   1      32.933  22.279  27.055  1.00  0.00     0.069 C 
ATOM     16  C   UNL A   1      32.605  21.706  25.725  1.00  0.00     0.065 A 
ATOM     17  N   UNL A   1      32.855  20.402  25.554  1.00  0.00    -0.178 NA
ATOM     18  N   UNL A   1      32.536  20.160  24.281  1.00  0.00    -0.272 N 
ATOM     19  C   UNL A   1      32.216  21.289  23.581  1.00  0.00     0.040 A 
ATOM     20  C   UNL A   1      32.537  18.792  23.820  1.00  0.00     0.174 C 
ATOM     21  C   UNL A   1      32.005  21.269  22.109  1.00  0.00     0.067 C 
ENDBRANCH  12  14
ENDBRANCH   6  12
BRANCH   8  22
ATOM     22  C   UNL A   1      34.988  24.393  24.647  1.00  0.00     0.127 A 
ATOM     23  C   UNL A   1      35.460  23.609  23.612  1.00  0.00     0.048 A 
ATOM     24  O   UNL A   1      35.940  24.468  25.626  1.00  0.00    -0.467 OA
ATOM     25  C   UNL A   1      36.765  23.197  23.980  1.00  0.00     0.042 A 
ATOM     26  C   UNL A   1      37.012  23.755  25.210  1.00  0.00     0.195 A 
ENDBRANCH   8  22
ENDBRANCH   3   5
ENDBRANCH   2   3
ENDBRANCH   1   2
BRANCH   1  27
ATOM     27  C   UNL A   1      31.494  30.636  25.735  1.00  0.00     0.275 C 
BRANCH  27  28
ATOM     28  O   UNL A   1      32.330  30.536  26.900  1.00  0.00    -0.458 OA
BRANCH  28  29
ATOM     29  C   UNL A   1      33.018  31.648  27.238  1.00  0.00     0.338 C 
ATOM     30  O   UNL A   1      32.607  32.802  27.217  1.00  0.00    -0.246 OA
BRANCH  29  31
ATOM     31  C   UNL A   1      34.378  31.290  27.691  1.00  0.00     0.060 A 
ATOM     32  C   UNL A   1      34.692  29.965  27.965  1.00  0.00     0.016 A 
ATOM     33  C   UNL A   1      35.311  32.290  27.979  1.00  0.00     0.016 A 
ATOM     34  C   UNL A   1      35.881  29.654  28.619  1.00  0.00     0.010 A 
ATOM     35  C   UNL A   1      36.545  31.957  28.561  1.00  0.00     0.010 A 
ATOM     36  C   UNL A   1      36.828  30.633  28.936  1.00  0.00    -0.014 A 
BRANCH  36  37
ATOM     37  C   UNL A   1      38.036  30.266  29.737  1.00  0.00     0.031 A 
ATOM     38  C   UNL A   1      39.143  29.458  29.107  1.00  0.00     0.074 A 
ATOM     39  C   UNL A   1      38.214  30.727  30.993  1.00  0.00     0.049 A 
ATOM     40  N   UNL A   1      40.162  28.862  29.675  1.00  0.00    -0.248 NA
ATOM     41  C   UNL A   1      39.093  29.291  27.645  1.00  0.00     0.031 C 
ATOM     42  C   UNL A   1      37.305  31.622  31.711  1.00  0.00     0.029 A 
ATOM     43  N   UNL A   1      39.247  30.533  31.881  1.00  0.00    -0.354 N 
ATOM     44  C   UNL A   1      40.830  28.195  28.654  1.00  0.00     0.074 A 
ATOM     45  C   UNL A   1      40.112  28.469  27.429  1.00  0.00     0.031 C 
ATOM     46  C   UNL A   1      37.854  31.962  32.886  1.00  0.00     0.029 A 
ATOM     47  C   UNL A   1      39.090  31.209  33.067  1.00  0.00     0.049 A 
ATOM     48  H   UNL A   1      40.026  29.964  31.684  1.00  0.00     0.167 HD
ATOM     49  C   UNL A   1      41.936  27.415  28.736  1.00  0.00     0.037 A 
ATOM     50  C   UNL A   1      39.821  31.187  34.198  1.00  0.00     0.037 A 
ATOM     51  C   UNL A   1      42.697  27.206  29.941  1.00  0.00     0.049 A 
ATOM     52  C   UNL A   1      41.003  30.265  34.289  1.00  0.00     0.074 A 
ATOM     53  C   UNL A   1      43.803  26.396  30.136  1.00  0.00     0.029 A 
ATOM     54  N   UNL A   1      42.450  27.841  31.147  1.00  0.00    -0.354 N 
ATOM     55  N   UNL A   1      41.535  29.507  33.363  1.00  0.00    -0.248 NA
ATOM     56  C   UNL A   1      41.659  30.158  35.601  1.00  0.00     0.031 C 
ATOM     57  C   UNL A   1      44.209  26.520  31.469  1.00  0.00     0.029 A 
ATOM     58  C   UNL A   1      43.376  27.435  32.094  1.00  0.00     0.049 A 
ATOM     59  H   UNL A   1      41.724  28.486  31.308  1.00  0.00     0.167 HD
ATOM     60  C   UNL A   1      42.582  28.834  33.977  1.00  0.00     0.074 A 
ATOM     61  C   UNL A   1      42.632  29.295  35.348  1.00  0.00     0.031 C 
ATOM     62  C   UNL A   1      43.416  27.903  33.453  1.00  0.00     0.037 A 
BRANCH  49  63
ATOM     63  C   UNL A   1      42.356  26.677  27.501  1.00  0.00     0.057 A 
ATOM     64  C   UNL A   1      41.897  25.390  27.200  1.00  0.00     0.134 A 
ATOM     65  C   UNL A   1      43.212  27.291  26.576  1.00  0.00     0.134 A 
ATOM     66  F   UNL A   1      41.088  24.740  28.050  1.00  0.00    -0.206 F 
ATOM     67  C   UNL A   1      42.288  24.732  26.030  1.00  0.00     0.040 A 
ATOM     68  C   UNL A   1      43.592  26.654  25.394  1.00  0.00     0.040 A 
ATOM     69  F   UNL A   1      43.683  28.527  26.802  1.00  0.00    -0.206 F 
ATOM     70  C   UNL A   1      43.133  25.368  25.121  1.00  0.00     0.006 A 
ENDBRANCH  49  63
BRANCH  50  71
ATOM     71  C   UNL A   1      39.405  31.998  35.373  1.00  0.00     0.057 A 
ATOM     72  C   UNL A   1      38.494  31.503  36.311  1.00  0.00     0.134 A 
ATOM     73  C   UNL A   1      39.896  33.295  35.575  1.00  0.00     0.134 A 
ATOM     74  F   UNL A   1      37.959  30.283  36.156  1.00  0.00    -0.206 F 
ATOM     75  C   UNL A   1      38.080  32.269  37.405  1.00  0.00     0.040 A 
ATOM     76  C   UNL A   1      39.518  34.059  36.679  1.00  0.00     0.040 A 
ATOM     77  F   UNL A   1      40.765  33.835  34.707  1.00  0.00    -0.206 F 
ATOM     78  C   UNL A   1      38.601  33.548  37.595  1.00  0.00     0.006 A 
ENDBRANCH  50  71
BRANCH  62  79
ATOM     79  C   UNL A   1      44.463  27.337  34.364  1.00  0.00     0.057 A 
ATOM     80  C   UNL A   1      45.711  27.956  34.520  1.00  0.00     0.134 A 
ATOM     81  C   UNL A   1      44.214  26.181  35.112  1.00  0.00     0.134 A 
ATOM     82  F   UNL A   1      46.015  29.059  33.819  1.00  0.00    -0.206 F 
ATOM     83  C   UNL A   1      46.681  27.431  35.375  1.00  0.00     0.040 A 
ATOM     84  C   UNL A   1      45.169  25.659  35.985  1.00  0.00     0.040 A 
ATOM     85  F   UNL A   1      43.037  25.545  35.011  1.00  0.00    -0.206 F 
ATOM     86  C   UNL A   1      46.408  26.283  36.115  1.00  0.00     0.006 A 
ENDBRANCH  62  79
ENDBRANCH  36  37
ENDBRANCH  29  31
ENDBRANCH  28  29
ENDBRANCH  27  28
ENDBRANCH   1  27
TORSDOF 14
ENDMDL
MODEL 3
REMARK VINA RESULT:     -11.5      1.290      3.069
REMARK SMILES Cc1nn(C)c(C)c1[C@H](C)N1C(=O)CC[C@@H](C(=O)OCCOC(=O)c2ccc(-c3c4nc(c(-c5c(F)cccc5F)c5ccc([nH]5)c(-c5c(F)cccc5F)c5nc(c(-c6c(F)cccc6F)c6ccc3[nH]6)C=C5)C=C4)cc2)[C@@H]1c1ccco1
REMARK SMILES IDX 20 1 19 2 17 3 18 4 16 5 11 6 12 7 79 8 13 9 14 10 15 11
REMARK SMILES IDX 9 12 10 13 8 14 1 15 2 16 3 17 4 18 6 19 5 20 7 21 80 22
REMARK SMILES IDX 81 23 84 24 82 25 83 26 21 27 22 28 23 29 24 30 25 31 26 32
REMARK SMILES IDX 78 33 27 34 77 35 28 36 29 37 30 38 71 39 31 40 76 41 70 42
REMARK SMILES IDX 72 43 32 44 75 45 69 46 68 47 33 49 59 50 42 51 58 52 43 53
REMARK SMILES IDX 46 54 57 55 73 56 44 57 45 58 56 60 74 61 47 62 34 63 35 64
REMARK SMILES IDX 40 65 36 66 37 67 39 68 41 69 38 70 60 71 61 72 66 73 62 74
REMARK SMILES IDX 63 75 65 76 67 77 64 78 48 79 49 80 54 81 50 82 51 83 53 84
REMARK SMILES IDX 55 85 52 86
REMARK H PARENT 72 48 46 59
REMARK Flexibility Score: inf
ROOT
ATOM      1  C   UNL A   1      36.233  23.304  23.726  1.00  0.00     0.274 C 
ENDROOT
BRANCH   1   2
ATOM      2  O   UNL A   1      34.931  23.910  23.910  1.00  0.00    -0.462 OA
BRANCH   2   3
ATOM      3  C   UNL A   1      34.838  24.776  24.958  1.00  0.00     0.311 C 
ATOM      4  O   UNL A   1      35.270  24.534  26.075  1.00  0.00    -0.252 OA
BRANCH   3   5
ATOM      5  C   UNL A   1      34.066  26.032  24.589  1.00  0.00     0.130 C 
ATOM      6  N   UNL A   1      31.762  25.068  24.872  1.00  0.00    -0.325 N 
ATOM      7  C   UNL A   1      31.577  25.687  26.104  1.00  0.00     0.223 C 
ATOM      8  C   UNL A   1      32.726  25.664  23.932  1.00  0.00     0.166 C 
ATOM      9  O   UNL A   1      30.617  25.471  26.843  1.00  0.00    -0.275 OA
ATOM     10  C   UNL A   1      32.668  26.610  26.636  1.00  0.00     0.101 C 
ATOM     11  C   UNL A   1      33.853  26.971  25.760  1.00  0.00     0.028 C 
BRANCH   6  12
ATOM     12  C   UNL A   1      31.027  23.801  24.516  1.00  0.00     0.117 C 
ATOM     13  C   UNL A   1      30.374  23.767  23.125  1.00  0.00     0.036 C 
BRANCH  12  14
ATOM     14  C   UNL A   1      31.831  22.533  24.797  1.00  0.00     0.018 A 
ATOM     15  C   UNL A   1      32.527  22.685  27.363  1.00  0.00     0.069 C 
ATOM     16  C   UNL A   1      32.412  22.059  26.021  1.00  0.00     0.065 A 
ATOM     17  N   UNL A   1      32.974  20.854  25.869  1.00  0.00    -0.178 NA
ATOM     18  N   UNL A   1      32.785  20.552  24.584  1.00  0.00    -0.272 N 
ATOM     19  C   UNL A   1      32.240  21.577  23.862  1.00  0.00     0.040 A 
ATOM     20  C   UNL A   1      33.136  19.227  24.130  1.00  0.00     0.174 C 
ATOM     21  C   UNL A   1      32.112  21.517  22.382  1.00  0.00     0.067 C 
ENDBRANCH  12  14
ENDBRANCH   6  12
BRANCH   8  22
ATOM     22  C   UNL A   1      32.082  26.856  23.261  1.00  0.00     0.127 A 
ATOM     23  C   UNL A   1      30.789  27.132  22.863  1.00  0.00     0.048 A 
ATOM     24  O   UNL A   1      32.883  27.924  22.965  1.00  0.00    -0.467 OA
ATOM     25  C   UNL A   1      30.807  28.435  22.306  1.00  0.00     0.042 A 
ATOM     26  C   UNL A   1      32.104  28.876  22.401  1.00  0.00     0.195 A 
ENDBRANCH   8  22
ENDBRANCH   3   5
ENDBRANCH   2   3
ENDBRANCH   1   2
BRANCH   1  27
ATOM     27  C   UNL A   1      36.267  21.862  24.231  1.00  0.00     0.275 C 
BRANCH  27  28
ATOM     28  O   UNL A   1      36.785  21.827  25.571  1.00  0.00    -0.458 OA
BRANCH  28  29
ATOM     29  C   UNL A   1      38.102  21.550  25.695  1.00  0.00     0.338 C 
ATOM     30  O   UNL A   1      38.685  20.553  25.286  1.00  0.00    -0.246 OA
BRANCH  29  31
ATOM     31  C   UNL A   1      38.794  22.657  26.385  1.00  0.00     0.060 A 
ATOM     32  C   UNL A   1      38.287  23.948  26.309  1.00  0.00     0.016 A 
ATOM     33  C   UNL A   1      40.032  22.442  26.997  1.00  0.00     0.016 A 
ATOM     34  C   UNL A   1      39.056  25.024  26.743  1.00  0.00     0.010 A 
ATOM     35  C   UNL A   1      40.763  23.526  27.511  1.00  0.00     0.010 A 
ATOM     36  C   UNL A   1      40.305  24.843  27.345  1.00  0.00    -0.014 A 
BRANCH  36  37
ATOM     37  C   UNL A   1      41.141  26.033  27.692  1.00  0.00     0.031 A 
ATOM     38  C   UNL A   1      40.606  27.083  28.634  1.00  0.00     0.074 A 
ATOM     39  C   UNL A   1      42.416  26.147  27.263  1.00  0.00     0.049 A 
ATOM     40  N   UNL A   1      41.075  28.278  28.898  1.00  0.00    -0.248 NA
ATOM     41  C   UNL A   1      39.378  26.748  29.372  1.00  0.00     0.031 C 
ATOM     42  C   UNL A   1      43.134  25.165  26.449  1.00  0.00     0.029 A 
ATOM     43  N   UNL A   1      43.351  27.132  27.483  1.00  0.00    -0.354 N 
ATOM     44  C   UNL A   1      40.164  28.860  29.772  1.00  0.00     0.074 A 
ATOM     45  C   UNL A   1      39.122  27.884  30.008  1.00  0.00     0.031 C 
ATOM     46  C   UNL A   1      44.410  25.553  26.308  1.00  0.00     0.029 A 
ATOM     47  C   UNL A   1      44.571  26.874  26.905  1.00  0.00     0.049 A 
ATOM     48  H   UNL A   1      43.164  27.945  28.005  1.00  0.00     0.167 HD
ATOM     49  C   UNL A   1      40.190  30.100  30.319  1.00  0.00     0.037 A 
ATOM     50  C   UNL A   1      45.682  27.631  26.813  1.00  0.00     0.037 A 
ATOM     51  C   UNL A   1      41.266  31.042  30.147  1.00  0.00     0.049 A 
ATOM     52  C   UNL A   1      45.664  29.028  27.367  1.00  0.00     0.074 A 
ATOM     53  C   UNL A   1      41.363  32.340  30.620  1.00  0.00     0.029 A 
ATOM     54  N   UNL A   1      42.448  30.772  29.477  1.00  0.00    -0.354 N 
ATOM     55  N   UNL A   1      44.729  29.634  28.055  1.00  0.00    -0.248 NA
ATOM     56  C   UNL A   1      46.841  29.864  27.087  1.00  0.00     0.031 C 
ATOM     57  C   UNL A   1      42.593  32.866  30.211  1.00  0.00     0.029 A 
ATOM     58  C   UNL A   1      43.277  31.881  29.515  1.00  0.00     0.049 A 
ATOM     59  H   UNL A   1      42.667  29.918  29.040  1.00  0.00     0.167 HD
ATOM     60  C   UNL A   1      45.201  30.918  28.289  1.00  0.00     0.074 A 
ATOM     61  C   UNL A   1      46.519  30.996  27.696  1.00  0.00     0.031 C 
ATOM     62  C   UNL A   1      44.587  31.945  28.924  1.00  0.00     0.037 A 
BRANCH  49  63
ATOM     63  C   UNL A   1      38.990  30.536  31.103  1.00  0.00     0.057 A 
ATOM     64  C   UNL A   1      37.892  31.170  30.510  1.00  0.00     0.134 A 
ATOM     65  C   UNL A   1      38.923  30.280  32.479  1.00  0.00     0.134 A 
ATOM     66  F   UNL A   1      37.899  31.459  29.201  1.00  0.00    -0.206 F 
ATOM     67  C   UNL A   1      36.776  31.548  31.262  1.00  0.00     0.040 A 
ATOM     68  C   UNL A   1      37.805  30.632  33.237  1.00  0.00     0.040 A 
ATOM     69  F   UNL A   1      39.940  29.669  33.108  1.00  0.00    -0.206 F 
ATOM     70  C   UNL A   1      36.729  31.272  32.629  1.00  0.00     0.006 A 
ENDBRANCH  49  63
BRANCH  50  71
ATOM     71  C   UNL A   1      46.876  27.122  26.089  1.00  0.00     0.057 A 
ATOM     72  C   UNL A   1      47.896  26.440  26.759  1.00  0.00     0.134 A 
ATOM     73  C   UNL A   1      47.034  27.324  24.711  1.00  0.00     0.134 A 
ATOM     74  F   UNL A   1      47.823  26.246  28.084  1.00  0.00    -0.206 F 
ATOM     75  C   UNL A   1      49.032  25.980  26.089  1.00  0.00     0.040 A 
ATOM     76  C   UNL A   1      48.147  26.842  24.022  1.00  0.00     0.040 A 
ATOM     77  F   UNL A   1      46.099  27.980  24.009  1.00  0.00    -0.206 F 
ATOM     78  C   UNL A   1      49.155  26.173  24.714  1.00  0.00     0.006 A 
ENDBRANCH  50  71
BRANCH  62  79
ATOM     79  C   UNL A   1      45.344  33.234  29.023  1.00  0.00     0.057 A 
ATOM     80  C   UNL A   1      45.203  34.243  28.061  1.00  0.00     0.134 A 
ATOM     81  C   UNL A   1      46.201  33.481  30.102  1.00  0.00     0.134 A 
ATOM     82  F   UNL A   1      44.408  34.060  26.996  1.00  0.00    -0.206 F 
ATOM     83  C   UNL A   1      45.904  35.446  28.161  1.00  0.00     0.040 A 
ATOM     84  C   UNL A   1      46.891  34.688  30.223  1.00  0.00     0.040 A 
ATOM     85  F   UNL A   1      46.375  32.558  31.059  1.00  0.00    -0.206 F 
ATOM     86  C   UNL A   1      46.746  35.673  29.248  1.00  0.00     0.006 A 
ENDBRANCH  62  79
ENDBRANCH  36  37
ENDBRANCH  29  31
ENDBRANCH  28  29
ENDBRANCH  27  28
ENDBRANCH   1  27
TORSDOF 14
ENDMDL
