MODEL 1
REMARK VINA RESULT:     -11.3      0.000      0.000
REMARK SMILES CC(C)(C)OC(=O)N1C[C@H](Cc2ccccc2)[C@H](C(=O)OCCOC(=O)c2ccc(-c3c4nc(c(-c5c(F)cccc5F)c5ccc([nH]5)c(-c5c(F)cccc5F)c5nc(c(-c6c(F)cccc6F)c6ccc3[nH]6)C=C5)C=C4)cc2)C1
REMARK SMILES IDX 22 1 21 2 19 3 20 4 18 5 8 6 9 7 81 8 10 9 6 10 7 11 5 12
REMARK SMILES IDX 2 13 1 14 3 15 4 16 11 17 12 18 13 19 17 20 14 21 16 22
REMARK SMILES IDX 15 23 23 24 24 25 25 26 26 27 27 28 28 29 80 30 29 31 79 32
REMARK SMILES IDX 30 33 31 34 32 35 73 36 33 37 78 38 72 39 74 40 34 41 77 42
REMARK SMILES IDX 71 43 70 44 35 46 61 47 44 48 60 49 45 50 48 51 59 52 75 53
REMARK SMILES IDX 46 54 47 55 58 57 76 58 49 59 36 60 37 61 42 62 38 63 39 64
REMARK SMILES IDX 41 65 43 66 40 67 62 68 63 69 68 70 64 71 65 72 67 73 69 74
REMARK SMILES IDX 66 75 50 76 51 77 56 78 52 79 53 80 55 81 57 82 54 83
REMARK H PARENT 74 45 48 56
REMARK Flexibility Score: inf
ROOT
ATOM      1  C   UNL A   1      31.738  30.845  26.841  1.00  0.00     0.274 C 
ENDROOT
BRANCH   1   2
ATOM      2  O   UNL A   1      31.644  30.373  25.482  1.00  0.00    -0.462 OA
BRANCH   2   3
ATOM      3  C   UNL A   1      32.390  29.294  25.159  1.00  0.00     0.311 C 
ATOM      4  O   UNL A   1      33.401  29.334  24.468  1.00  0.00    -0.252 OA
BRANCH   3   5
ATOM      5  C   UNL A   1      31.842  27.990  25.688  1.00  0.00     0.124 C 
ATOM      6  N   UNL A   1      32.323  25.695  25.653  1.00  0.00    -0.307 N 
ATOM      7  C   UNL A   1      30.883  25.810  25.518  1.00  0.00     0.128 C 
ATOM      8  C   UNL A   1      32.962  26.977  25.825  1.00  0.00     0.138 C 
ATOM      9  C   UNL A   1      30.660  27.243  25.012  1.00  0.00     0.029 C 
BRANCH   6  10
ATOM     10  C   UNL A   1      33.073  24.557  25.555  1.00  0.00     0.410 C 
ATOM     11  O   UNL A   1      33.918  24.247  26.386  1.00  0.00    -0.224 OA
BRANCH  10  12
ATOM     12  O   UNL A   1      32.841  23.905  24.393  1.00  0.00    -0.444 OA
BRANCH  12  13
ATOM     13  C   UNL A   1      33.737  24.063  23.265  1.00  0.00     0.106 C 
ATOM     14  C   UNL A   1      33.281  22.999  22.256  1.00  0.00     0.056 C 
ATOM     15  C   UNL A   1      35.167  23.769  23.718  1.00  0.00     0.056 C 
ATOM     16  C   UNL A   1      33.626  25.435  22.581  1.00  0.00     0.056 C 
ENDBRANCH  12  13
ENDBRANCH  10  12
ENDBRANCH   6  10
BRANCH   9  17
ATOM     17  C   UNL A   1      30.558  27.260  23.475  1.00  0.00     0.042 C 
BRANCH  17  18
ATOM     18  C   UNL A   1      29.623  28.339  22.961  1.00  0.00    -0.048 A 
ATOM     19  C   UNL A   1      30.113  29.400  22.188  1.00  0.00     0.004 A 
ATOM     20  C   UNL A   1      28.252  28.290  23.252  1.00  0.00     0.004 A 
ATOM     21  C   UNL A   1      29.246  30.381  21.703  1.00  0.00     0.000 A 
ATOM     22  C   UNL A   1      27.385  29.269  22.762  1.00  0.00     0.000 A 
ATOM     23  C   UNL A   1      27.882  30.313  21.987  1.00  0.00     0.000 A 
ENDBRANCH  17  18
ENDBRANCH   9  17
ENDBRANCH   3   5
ENDBRANCH   2   3
ENDBRANCH   1   2
BRANCH   1  24
ATOM     24  C   UNL A   1      31.479  32.354  26.934  1.00  0.00     0.275 C 
BRANCH  24  25
ATOM     25  O   UNL A   1      32.690  33.121  26.767  1.00  0.00    -0.458 OA
BRANCH  25  26
ATOM     26  C   UNL A   1      33.124  33.759  27.878  1.00  0.00     0.338 C 
ATOM     27  O   UNL A   1      32.522  34.595  28.533  1.00  0.00    -0.246 OA
BRANCH  26  28
ATOM     28  C   UNL A   1      34.395  33.176  28.342  1.00  0.00     0.060 A 
ATOM     29  C   UNL A   1      34.334  31.905  28.916  1.00  0.00     0.016 A 
ATOM     30  C   UNL A   1      35.603  33.874  28.297  1.00  0.00     0.016 A 
ATOM     31  C   UNL A   1      35.475  31.314  29.440  1.00  0.00     0.010 A 
ATOM     32  C   UNL A   1      36.753  33.284  28.840  1.00  0.00     0.010 A 
ATOM     33  C   UNL A   1      36.691  32.004  29.420  1.00  0.00    -0.014 A 
BRANCH  33  34
ATOM     34  C   UNL A   1      37.860  31.376  30.079  1.00  0.00     0.031 A 
ATOM     35  C   UNL A   1      38.135  31.645  31.529  1.00  0.00     0.074 A 
ATOM     36  C   UNL A   1      38.603  30.483  29.401  1.00  0.00     0.049 A 
ATOM     37  N   UNL A   1      39.075  31.155  32.297  1.00  0.00    -0.248 NA
ATOM     38  C   UNL A   1      37.230  32.585  32.208  1.00  0.00     0.031 C 
ATOM     39  C   UNL A   1      38.394  30.100  28.005  1.00  0.00     0.029 A 
ATOM     40  N   UNL A   1      39.667  29.718  29.805  1.00  0.00    -0.354 N 
ATOM     41  C   UNL A   1      38.883  31.733  33.545  1.00  0.00     0.074 A 
ATOM     42  C   UNL A   1      37.748  32.625  33.427  1.00  0.00     0.031 C 
ATOM     43  C   UNL A   1      39.289  29.155  27.673  1.00  0.00     0.029 A 
ATOM     44  C   UNL A   1      40.153  28.893  28.822  1.00  0.00     0.049 A 
ATOM     45  H   UNL A   1      40.046  29.756  30.713  1.00  0.00     0.167 HD
ATOM     46  C   UNL A   1      39.586  31.534  34.684  1.00  0.00     0.037 A 
ATOM     47  C   UNL A   1      41.186  28.028  28.843  1.00  0.00     0.037 A 
ATOM     48  C   UNL A   1      40.707  30.638  34.803  1.00  0.00     0.049 A 
ATOM     49  C   UNL A   1      41.974  27.857  30.110  1.00  0.00     0.074 A 
ATOM     50  C   UNL A   1      41.486  30.371  35.915  1.00  0.00     0.029 A 
ATOM     51  N   UNL A   1      41.205  29.858  33.770  1.00  0.00    -0.354 N 
ATOM     52  N   UNL A   1      41.793  28.422  31.279  1.00  0.00    -0.248 NA
ATOM     53  C   UNL A   1      43.114  26.931  30.059  1.00  0.00     0.031 C 
ATOM     54  C   UNL A   1      42.477  29.455  35.546  1.00  0.00     0.029 A 
ATOM     55  C   UNL A   1      42.291  29.121  34.214  1.00  0.00     0.049 A 
ATOM     56  H   UNL A   1      40.840  29.830  32.856  1.00  0.00     0.167 HD
ATOM     57  C   UNL A   1      42.786  27.913  32.105  1.00  0.00     0.074 A 
ATOM     58  C   UNL A   1      43.553  26.976  31.309  1.00  0.00     0.031 C 
ATOM     59  C   UNL A   1      43.045  28.200  33.404  1.00  0.00     0.037 A 
BRANCH  46  60
ATOM     60  C   UNL A   1      39.181  32.331  35.888  1.00  0.00     0.057 A 
ATOM     61  C   UNL A   1      38.308  31.818  36.856  1.00  0.00     0.134 A 
ATOM     62  C   UNL A   1      39.691  33.619  36.093  1.00  0.00     0.134 A 
ATOM     63  F   UNL A   1      37.771  30.597  36.709  1.00  0.00    -0.206 F 
ATOM     64  C   UNL A   1      37.941  32.568  37.976  1.00  0.00     0.040 A 
ATOM     65  C   UNL A   1      39.348  34.370  37.218  1.00  0.00     0.040 A 
ATOM     66  F   UNL A   1      40.532  34.167  35.204  1.00  0.00    -0.206 F 
ATOM     67  C   UNL A   1      38.466  33.845  38.161  1.00  0.00     0.006 A 
ENDBRANCH  46  60
BRANCH  47  68
ATOM     68  C   UNL A   1      41.538  27.266  27.620  1.00  0.00     0.057 A 
ATOM     69  C   UNL A   1      42.403  27.796  26.657  1.00  0.00     0.134 A 
ATOM     70  C   UNL A   1      41.007  25.991  27.383  1.00  0.00     0.134 A 
ATOM     71  F   UNL A   1      42.922  29.021  26.817  1.00  0.00    -0.206 F 
ATOM     72  C   UNL A   1      42.721  27.090  25.495  1.00  0.00     0.040 A 
ATOM     73  C   UNL A   1      41.336  25.265  26.237  1.00  0.00     0.040 A 
ATOM     74  F   UNL A   1      40.172  25.430  28.269  1.00  0.00    -0.206 F 
ATOM     75  C   UNL A   1      42.191  25.818  25.287  1.00  0.00     0.006 A 
ENDBRANCH  47  68
BRANCH  59  76
ATOM     76  C   UNL A   1      44.198  27.480  34.040  1.00  0.00     0.057 A 
ATOM     77  C   UNL A   1      44.037  26.225  34.642  1.00  0.00     0.134 A 
ATOM     78  C   UNL A   1      45.480  28.041  34.041  1.00  0.00     0.134 A 
ATOM     79  F   UNL A   1      42.830  25.642  34.687  1.00  0.00    -0.206 F 
ATOM     80  C   UNL A   1      45.108  25.567  35.247  1.00  0.00     0.040 A 
ATOM     81  C   UNL A   1      46.563  27.382  34.622  1.00  0.00     0.040 A 
ATOM     82  F   UNL A   1      45.701  29.237  33.473  1.00  0.00    -0.206 F 
ATOM     83  C   UNL A   1      46.377  26.144  35.234  1.00  0.00     0.006 A 
ENDBRANCH  59  76
ENDBRANCH  33  34
ENDBRANCH  26  28
ENDBRANCH  25  26
ENDBRANCH  24  25
ENDBRANCH   1  24
TORSDOF 16
ENDMDL
MODEL 2
REMARK VINA RESULT:     -11.1      0.959      1.628
REMARK SMILES CC(C)(C)OC(=O)N1C[C@H](Cc2ccccc2)[C@H](C(=O)OCCOC(=O)c2ccc(-c3c4nc(c(-c5c(F)cccc5F)c5ccc([nH]5)c(-c5c(F)cccc5F)c5nc(c(-c6c(F)cccc6F)c6ccc3[nH]6)C=C5)C=C4)cc2)C1
REMARK SMILES IDX 22 1 21 2 19 3 20 4 18 5 8 6 9 7 81 8 10 9 6 10 7 11 5 12
REMARK SMILES IDX 2 13 1 14 3 15 4 16 11 17 12 18 13 19 17 20 14 21 16 22
REMARK SMILES IDX 15 23 23 24 24 25 25 26 26 27 27 28 28 29 80 30 29 31 79 32
REMARK SMILES IDX 30 33 31 34 32 35 73 36 33 37 78 38 72 39 74 40 34 41 77 42
REMARK SMILES IDX 71 43 70 44 35 46 61 47 44 48 60 49 45 50 48 51 59 52 75 53
REMARK SMILES IDX 46 54 47 55 58 57 76 58 49 59 36 60 37 61 42 62 38 63 39 64
REMARK SMILES IDX 41 65 43 66 40 67 62 68 63 69 68 70 64 71 65 72 67 73 69 74
REMARK SMILES IDX 66 75 50 76 51 77 56 78 52 79 53 80 55 81 57 82 54 83
REMARK H PARENT 74 45 48 56
REMARK Flexibility Score: inf
ROOT
ATOM      1  C   UNL A   1      31.794  30.732  26.733  1.00  0.00     0.274 C 
ENDROOT
BRANCH   1   2
ATOM      2  O   UNL A   1      31.983  30.335  25.360  1.00  0.00    -0.462 OA
BRANCH   2   3
ATOM      3  C   UNL A   1      32.414  29.073  25.144  1.00  0.00     0.311 C 
ATOM      4  O   UNL A   1      33.571  28.775  24.873  1.00  0.00    -0.252 OA
BRANCH   3   5
ATOM      5  C   UNL A   1      31.322  28.032  25.217  1.00  0.00     0.124 C 
ATOM      6  N   UNL A   1      30.858  25.863  24.457  1.00  0.00    -0.307 N 
ATOM      7  C   UNL A   1      29.619  26.609  24.341  1.00  0.00     0.128 C 
ATOM      8  C   UNL A   1      31.917  26.648  25.042  1.00  0.00     0.138 C 
ATOM      9  C   UNL A   1      30.058  28.080  24.317  1.00  0.00     0.029 C 
BRANCH   6  10
ATOM     10  C   UNL A   1      31.102  24.594  24.012  1.00  0.00     0.410 C 
ATOM     11  O   UNL A   1      30.381  24.027  23.201  1.00  0.00    -0.224 OA
BRANCH  10  12
ATOM     12  O   UNL A   1      32.149  24.032  24.659  1.00  0.00    -0.444 OA
BRANCH  12  13
ATOM     13  C   UNL A   1      31.934  23.016  25.670  1.00  0.00     0.106 C 
ATOM     14  C   UNL A   1      33.089  23.208  26.663  1.00  0.00     0.056 C 
ATOM     15  C   UNL A   1      32.031  21.636  25.021  1.00  0.00     0.056 C 
ATOM     16  C   UNL A   1      30.618  23.192  26.445  1.00  0.00     0.056 C 
ENDBRANCH  12  13
ENDBRANCH  10  12
ENDBRANCH   6  10
BRANCH   9  17
ATOM     17  C   UNL A   1      30.203  28.574  22.865  1.00  0.00     0.042 C 
BRANCH  17  18
ATOM     18  C   UNL A   1      29.476  29.882  22.615  1.00  0.00    -0.048 A 
ATOM     19  C   UNL A   1      29.062  30.234  21.324  1.00  0.00     0.004 A 
ATOM     20  C   UNL A   1      29.207  30.759  23.676  1.00  0.00     0.004 A 
ATOM     21  C   UNL A   1      28.378  31.431  21.102  1.00  0.00     0.000 A 
ATOM     22  C   UNL A   1      28.518  31.954  23.453  1.00  0.00     0.000 A 
ATOM     23  C   UNL A   1      28.103  32.288  22.167  1.00  0.00     0.000 A 
ENDBRANCH  17  18
ENDBRANCH   9  17
ENDBRANCH   3   5
ENDBRANCH   2   3
ENDBRANCH   1   2
BRANCH   1  24
ATOM     24  C   UNL A   1      31.546  32.241  26.855  1.00  0.00     0.275 C 
BRANCH  24  25
ATOM     25  O   UNL A   1      32.761  33.002  26.700  1.00  0.00    -0.458 OA
BRANCH  25  26
ATOM     26  C   UNL A   1      33.179  33.652  27.810  1.00  0.00     0.338 C 
ATOM     27  O   UNL A   1      32.563  34.486  28.454  1.00  0.00    -0.246 OA
BRANCH  26  28
ATOM     28  C   UNL A   1      34.452  33.086  28.289  1.00  0.00     0.060 A 
ATOM     29  C   UNL A   1      34.415  31.782  28.786  1.00  0.00     0.016 A 
ATOM     30  C   UNL A   1      35.635  33.825  28.333  1.00  0.00     0.016 A 
ATOM     31  C   UNL A   1      35.556  31.199  29.320  1.00  0.00     0.010 A 
ATOM     32  C   UNL A   1      36.784  33.243  28.886  1.00  0.00     0.010 A 
ATOM     33  C   UNL A   1      36.746  31.929  29.388  1.00  0.00    -0.014 A 
BRANCH  33  34
ATOM     34  C   UNL A   1      37.912  31.303  30.054  1.00  0.00     0.031 A 
ATOM     35  C   UNL A   1      38.170  31.563  31.509  1.00  0.00     0.074 A 
ATOM     36  C   UNL A   1      38.666  30.418  29.379  1.00  0.00     0.049 A 
ATOM     37  N   UNL A   1      39.104  31.073  32.284  1.00  0.00    -0.248 NA
ATOM     38  C   UNL A   1      37.253  32.494  32.184  1.00  0.00     0.031 C 
ATOM     39  C   UNL A   1      38.474  30.043  27.978  1.00  0.00     0.029 A 
ATOM     40  N   UNL A   1      39.730  29.655  29.789  1.00  0.00    -0.354 N 
ATOM     41  C   UNL A   1      38.896  31.642  33.533  1.00  0.00     0.074 A 
ATOM     42  C   UNL A   1      37.758  32.529  33.410  1.00  0.00     0.031 C 
ATOM     43  C   UNL A   1      39.377  29.104  27.650  1.00  0.00     0.029 A 
ATOM     44  C   UNL A   1      40.230  28.839  28.805  1.00  0.00     0.049 A 
ATOM     45  H   UNL A   1      40.098  29.689  30.701  1.00  0.00     0.167 HD
ATOM     46  C   UNL A   1      39.588  31.439  34.679  1.00  0.00     0.037 A 
ATOM     47  C   UNL A   1      41.266  27.979  28.832  1.00  0.00     0.037 A 
ATOM     48  C   UNL A   1      40.712  30.547  34.803  1.00  0.00     0.049 A 
ATOM     49  C   UNL A   1      42.043  27.804  30.106  1.00  0.00     0.074 A 
ATOM     50  C   UNL A   1      41.481  30.278  35.922  1.00  0.00     0.029 A 
ATOM     51  N   UNL A   1      41.224  29.777  33.770  1.00  0.00    -0.354 N 
ATOM     52  N   UNL A   1      41.846  28.360  31.277  1.00  0.00    -0.248 NA
ATOM     53  C   UNL A   1      43.188  26.885  30.061  1.00  0.00     0.031 C 
ATOM     54  C   UNL A   1      42.480  29.368  35.557  1.00  0.00     0.029 A 
ATOM     55  C   UNL A   1      42.309  29.042  34.221  1.00  0.00     0.049 A 
ATOM     56  H   UNL A   1      40.869  29.753  32.853  1.00  0.00     0.167 HD
ATOM     57  C   UNL A   1      42.833  27.851  32.110  1.00  0.00     0.074 A 
ATOM     58  C   UNL A   1      43.613  26.923  31.316  1.00  0.00     0.031 C 
ATOM     59  C   UNL A   1      43.077  28.130  33.414  1.00  0.00     0.037 A 
BRANCH  46  60
ATOM     60  C   UNL A   1      39.166  32.226  35.884  1.00  0.00     0.057 A 
ATOM     61  C   UNL A   1      38.280  31.705  36.835  1.00  0.00     0.134 A 
ATOM     62  C   UNL A   1      39.673  33.512  36.106  1.00  0.00     0.134 A 
ATOM     63  F   UNL A   1      37.745  30.485  36.670  1.00  0.00    -0.206 F 
ATOM     64  C   UNL A   1      37.897  32.445  37.956  1.00  0.00     0.040 A 
ATOM     65  C   UNL A   1      39.314  34.253  37.233  1.00  0.00     0.040 A 
ATOM     66  F   UNL A   1      40.527  34.067  35.234  1.00  0.00    -0.206 F 
ATOM     67  C   UNL A   1      38.419  33.721  38.159  1.00  0.00     0.006 A 
ENDBRANCH  46  60
BRANCH  47  68
ATOM     68  C   UNL A   1      41.636  27.227  27.607  1.00  0.00     0.057 A 
ATOM     69  C   UNL A   1      42.469  27.787  26.634  1.00  0.00     0.134 A 
ATOM     70  C   UNL A   1      41.152  25.932  27.380  1.00  0.00     0.134 A 
ATOM     71  F   UNL A   1      42.942  29.032  26.785  1.00  0.00    -0.206 F 
ATOM     72  C   UNL A   1      42.802  27.090  25.471  1.00  0.00     0.040 A 
ATOM     73  C   UNL A   1      41.497  25.215  26.234  1.00  0.00     0.040 A 
ATOM     74  F   UNL A   1      40.348  25.343  28.276  1.00  0.00    -0.206 F 
ATOM     75  C   UNL A   1      42.320  25.798  25.273  1.00  0.00     0.006 A 
ENDBRANCH  47  68
BRANCH  59  76
ATOM     76  C   UNL A   1      44.226  27.412  34.057  1.00  0.00     0.057 A 
ATOM     77  C   UNL A   1      45.512  27.967  34.091  1.00  0.00     0.134 A 
ATOM     78  C   UNL A   1      44.044  26.159  34.654  1.00  0.00     0.134 A 
ATOM     79  F   UNL A   1      45.754  29.158  33.523  1.00  0.00    -0.206 F 
ATOM     80  C   UNL A   1      46.582  27.287  34.676  1.00  0.00     0.040 A 
ATOM     81  C   UNL A   1      45.100  25.480  35.261  1.00  0.00     0.040 A 
ATOM     82  F   UNL A   1      42.835  25.577  34.661  1.00  0.00    -0.206 F 
ATOM     83  C   UNL A   1      46.376  26.042  35.267  1.00  0.00     0.006 A 
ENDBRANCH  59  76
ENDBRANCH  33  34
ENDBRANCH  26  28
ENDBRANCH  25  26
ENDBRANCH  24  25
ENDBRANCH   1  24
TORSDOF 16
ENDMDL
MODEL 3
REMARK VINA RESULT:     -11.1      0.441      6.282
REMARK SMILES CC(C)(C)OC(=O)N1C[C@H](Cc2ccccc2)[C@H](C(=O)OCCOC(=O)c2ccc(-c3c4nc(c(-c5c(F)cccc5F)c5ccc([nH]5)c(-c5c(F)cccc5F)c5nc(c(-c6c(F)cccc6F)c6ccc3[nH]6)C=C5)C=C4)cc2)C1
REMARK SMILES IDX 22 1 21 2 19 3 20 4 18 5 8 6 9 7 81 8 10 9 6 10 7 11 5 12
REMARK SMILES IDX 2 13 1 14 3 15 4 16 11 17 12 18 13 19 17 20 14 21 16 22
REMARK SMILES IDX 15 23 23 24 24 25 25 26 26 27 27 28 28 29 80 30 29 31 79 32
REMARK SMILES IDX 30 33 31 34 32 35 73 36 33 37 78 38 72 39 74 40 34 41 77 42
REMARK SMILES IDX 71 43 70 44 35 46 61 47 44 48 60 49 45 50 48 51 59 52 75 53
REMARK SMILES IDX 46 54 47 55 58 57 76 58 49 59 36 60 37 61 42 62 38 63 39 64
REMARK SMILES IDX 41 65 43 66 40 67 62 68 63 69 68 70 64 71 65 72 67 73 69 74
REMARK SMILES IDX 66 75 50 76 51 77 56 78 52 79 53 80 55 81 57 82 54 83
REMARK H PARENT 74 45 48 56
REMARK Flexibility Score: inf
ROOT
ATOM      1  C   UNL A   1      31.750  30.848  26.815  1.00  0.00     0.274 C 
ENDROOT
BRANCH   1   2
ATOM      2  O   UNL A   1      31.596  30.296  25.492  1.00  0.00    -0.462 OA
BRANCH   2   3
ATOM      3  C   UNL A   1      32.328  29.199  25.200  1.00  0.00     0.311 C 
ATOM      4  O   UNL A   1      33.299  29.195  24.451  1.00  0.00    -0.252 OA
BRANCH   3   5
ATOM      5  C   UNL A   1      31.819  27.933  25.846  1.00  0.00     0.124 C 
ATOM      6  N   UNL A   1      32.353  25.654  25.993  1.00  0.00    -0.307 N 
ATOM      7  C   UNL A   1      30.908  25.727  25.877  1.00  0.00     0.128 C 
ATOM      8  C   UNL A   1      32.964  26.959  26.046  1.00  0.00     0.138 C 
ATOM      9  C   UNL A   1      30.643  27.108  25.258  1.00  0.00     0.029 C 
BRANCH   6  10
ATOM     10  C   UNL A   1      33.126  24.527  25.976  1.00  0.00     0.410 C 
ATOM     11  O   UNL A   1      33.013  23.634  26.806  1.00  0.00    -0.224 OA
BRANCH  10  12
ATOM     12  O   UNL A   1      34.078  24.591  25.017  1.00  0.00    -0.444 OA
BRANCH  12  13
ATOM     13  C   UNL A   1      33.798  24.149  23.665  1.00  0.00     0.106 C 
ATOM     14  C   UNL A   1      35.019  23.306  23.272  1.00  0.00     0.056 C 
ATOM     15  C   UNL A   1      33.695  25.371  22.752  1.00  0.00     0.056 C 
ATOM     16  C   UNL A   1      32.555  23.251  23.560  1.00  0.00     0.056 C 
ENDBRANCH  12  13
ENDBRANCH  10  12
ENDBRANCH   6  10
BRANCH   9  17
ATOM     17  C   UNL A   1      30.514  26.993  23.727  1.00  0.00     0.042 C 
BRANCH  17  18
ATOM     18  C   UNL A   1      29.637  28.079  23.130  1.00  0.00    -0.048 A 
ATOM     19  C   UNL A   1      28.247  28.046  23.294  1.00  0.00     0.004 A 
ATOM     20  C   UNL A   1      30.210  29.133  22.402  1.00  0.00     0.004 A 
ATOM     21  C   UNL A   1      27.447  29.057  22.756  1.00  0.00     0.000 A 
ATOM     22  C   UNL A   1      29.409  30.146  21.870  1.00  0.00     0.000 A 
ATOM     23  C   UNL A   1      28.028  30.108  22.048  1.00  0.00     0.000 A 
ENDBRANCH  17  18
ENDBRANCH   9  17
ENDBRANCH   3   5
ENDBRANCH   2   3
ENDBRANCH   1   2
BRANCH   1  24
ATOM     24  C   UNL A   1      31.506  32.363  26.827  1.00  0.00     0.275 C 
BRANCH  24  25
ATOM     25  O   UNL A   1      32.732  33.108  26.681  1.00  0.00    -0.458 OA
BRANCH  25  26
ATOM     26  C   UNL A   1      33.127  33.788  27.782  1.00  0.00     0.338 C 
ATOM     27  O   UNL A   1      32.525  34.684  28.352  1.00  0.00    -0.246 OA
BRANCH  26  28
ATOM     28  C   UNL A   1      34.339  33.179  28.355  1.00  0.00     0.060 A 
ATOM     29  C   UNL A   1      34.216  31.882  28.859  1.00  0.00     0.016 A 
ATOM     30  C   UNL A   1      35.543  33.872  28.478  1.00  0.00     0.016 A 
ATOM     31  C   UNL A   1      35.291  31.262  29.478  1.00  0.00     0.010 A 
ATOM     32  C   UNL A   1      36.627  33.252  29.117  1.00  0.00     0.010 A 
ATOM     33  C   UNL A   1      36.502  31.947  29.626  1.00  0.00    -0.014 A 
BRANCH  33  34
ATOM     34  C   UNL A   1      37.591  31.284  30.379  1.00  0.00     0.031 A 
ATOM     35  C   UNL A   1      38.516  30.334  29.678  1.00  0.00     0.074 A 
ATOM     36  C   UNL A   1      37.812  31.623  31.662  1.00  0.00     0.049 A 
ATOM     37  N   UNL A   1      39.556  29.693  30.147  1.00  0.00    -0.248 NA
ATOM     38  C   UNL A   1      38.237  30.073  28.257  1.00  0.00     0.031 C 
ATOM     39  C   UNL A   1      37.013  32.578  32.431  1.00  0.00     0.029 A 
ATOM     40  N   UNL A   1      38.790  31.221  32.536  1.00  0.00    -0.354 N 
ATOM     41  C   UNL A   1      40.051  28.946  29.087  1.00  0.00     0.074 A 
ATOM     42  C   UNL A   1      39.186  29.198  27.952  1.00  0.00     0.031 C 
ATOM     43  C   UNL A   1      37.547  32.705  33.657  1.00  0.00     0.029 A 
ATOM     44  C   UNL A   1      38.700  31.816  33.770  1.00  0.00     0.049 A 
ATOM     45  H   UNL A   1      39.489  30.570  32.301  1.00  0.00     0.167 HD
ATOM     46  C   UNL A   1      41.129  28.129  29.061  1.00  0.00     0.037 A 
ATOM     47  C   UNL A   1      39.460  31.656  34.870  1.00  0.00     0.037 A 
ATOM     48  C   UNL A   1      41.995  27.889  30.186  1.00  0.00     0.049 A 
ATOM     49  C   UNL A   1      40.627  30.711  34.825  1.00  0.00     0.074 A 
ATOM     50  C   UNL A   1      43.112  27.074  30.259  1.00  0.00     0.029 A 
ATOM     51  N   UNL A   1      41.842  28.468  31.437  1.00  0.00    -0.354 N 
ATOM     52  N   UNL A   1      41.076  29.998  33.821  1.00  0.00    -0.248 NA
ATOM     53  C   UNL A   1      41.392  30.547  36.069  1.00  0.00     0.031 C 
ATOM     54  C   UNL A   1      43.614  27.135  31.563  1.00  0.00     0.029 A 
ATOM     55  C   UNL A   1      42.834  28.018  32.293  1.00  0.00     0.049 A 
ATOM     56  H   UNL A   1      41.133  29.107  31.680  1.00  0.00     0.167 HD
ATOM     57  C   UNL A   1      42.179  29.309  34.306  1.00  0.00     0.074 A 
ATOM     58  C   UNL A   1      42.347  29.709  35.689  1.00  0.00     0.031 C 
ATOM     59  C   UNL A   1      42.979  28.421  33.667  1.00  0.00     0.037 A 
BRANCH  46  60
ATOM     60  C   UNL A   1      41.412  27.406  27.778  1.00  0.00     0.057 A 
ATOM     61  C   UNL A   1      42.177  27.983  26.756  1.00  0.00     0.134 A 
ATOM     62  C   UNL A   1      40.932  26.107  27.573  1.00  0.00     0.134 A 
ATOM     63  F   UNL A   1      42.651  29.232  26.884  1.00  0.00    -0.206 F 
ATOM     64  C   UNL A   1      42.437  27.299  25.567  1.00  0.00     0.040 A 
ATOM     65  C   UNL A   1      41.203  25.405  26.397  1.00  0.00     0.040 A 
ATOM     66  F   UNL A   1      40.194  25.498  28.513  1.00  0.00    -0.206 F 
ATOM     67  C   UNL A   1      41.954  26.004  25.388  1.00  0.00     0.006 A 
ENDBRANCH  46  60
BRANCH  47  68
ATOM     68  C   UNL A   1      39.132  32.400  36.111  1.00  0.00     0.057 A 
ATOM     69  C   UNL A   1      39.666  33.668  36.361  1.00  0.00     0.134 A 
ATOM     70  C   UNL A   1      38.282  31.852  37.081  1.00  0.00     0.134 A 
ATOM     71  F   UNL A   1      40.506  34.232  35.481  1.00  0.00    -0.206 F 
ATOM     72  C   UNL A   1      39.377  34.362  37.537  1.00  0.00     0.040 A 
ATOM     73  C   UNL A   1      37.965  32.546  38.249  1.00  0.00     0.040 A 
ATOM     74  F   UNL A   1      37.739  30.640  36.898  1.00  0.00    -0.206 F 
ATOM     75  C   UNL A   1      38.518  33.803  38.481  1.00  0.00     0.006 A 
ENDBRANCH  47  68
BRANCH  59  76
ATOM     76  C   UNL A   1      44.110  27.836  34.460  1.00  0.00     0.057 A 
ATOM     77  C   UNL A   1      45.361  28.463  34.526  1.00  0.00     0.134 A 
ATOM     78  C   UNL A   1      43.944  26.642  35.170  1.00  0.00     0.134 A 
ATOM     79  F   UNL A   1      45.587  29.603  33.855  1.00  0.00    -0.206 F 
ATOM     80  C   UNL A   1      46.415  27.907  35.251  1.00  0.00     0.040 A 
ATOM     81  C   UNL A   1      44.984  26.088  35.917  1.00  0.00     0.040 A 
ATOM     82  F   UNL A   1      42.768  25.996  35.153  1.00  0.00    -0.206 F 
ATOM     83  C   UNL A   1      46.227  26.717  35.953  1.00  0.00     0.006 A 
ENDBRANCH  59  76
ENDBRANCH  33  34
ENDBRANCH  26  28
ENDBRANCH  25  26
ENDBRANCH  24  25
ENDBRANCH   1  24
TORSDOF 16
ENDMDL
