MODEL 1
REMARK VINA RESULT:     -11.2      0.000      0.000
REMARK SMILES Cc1ccc(C(=O)N2CCC(CC(=O)OCCOC(=O)c3ccc(-c4c5nc(c(-c6c(F)cccc6F)c6ccc([nH]6)c(-c6c(F)cccc6F)c6nc(c(-c7c(F)cccc7F)c7ccc4[nH]7)C=C6)C=C5)cc3)CC2)cn1
REMARK SMILES IDX 16 1 15 2 13 3 14 4 12 5 11 6 6 7 7 8 8 9 9 10 76 11 10 12
REMARK SMILES IDX 75 13 5 14 1 15 2 16 3 17 78 18 4 19 77 20 17 21 18 22 19 23
REMARK SMILES IDX 20 24 21 25 22 26 74 27 23 28 73 29 24 30 25 31 26 32 67 33
REMARK SMILES IDX 27 34 72 35 66 36 68 37 28 38 71 39 65 40 64 41 29 43 55 44
REMARK SMILES IDX 38 45 54 46 39 47 42 48 53 49 69 50 40 51 41 52 52 54 70 55
REMARK SMILES IDX 43 56 30 57 31 58 36 59 32 60 33 61 35 62 37 63 34 64 56 65
REMARK SMILES IDX 57 66 62 67 58 68 59 69 61 70 63 71 60 72 44 73 45 74 50 75
REMARK SMILES IDX 46 76 47 77 49 78 51 79 48 80
REMARK H PARENT 68 42 42 53
REMARK Flexibility Score: inf
ROOT
ATOM      1  C   UNL A   1      34.415  34.218  31.226  1.00  0.00     0.274 C 
ENDROOT
BRANCH   1   2
ATOM      2  O   UNL A   1      34.049  33.405  30.096  1.00  0.00    -0.462 OA
BRANCH   2   3
ATOM      3  C   UNL A   1      34.341  33.884  28.861  1.00  0.00     0.306 C 
ATOM      4  O   UNL A   1      34.028  34.994  28.450  1.00  0.00    -0.252 OA
BRANCH   3   5
ATOM      5  C   UNL A   1      35.056  32.860  28.000  1.00  0.00     0.126 C 
BRANCH   5   6
ATOM      6  C   UNL A   1      34.475  31.436  28.048  1.00  0.00     0.003 C 
ATOM      7  C   UNL A   1      33.573  28.548  25.459  1.00  0.00     0.255 C 
ATOM      8  O   UNL A   1      33.435  29.336  24.529  1.00  0.00    -0.269 OA
ATOM      9  N   UNL A   1      33.645  28.956  26.784  1.00  0.00    -0.339 N 
ATOM     10  C   UNL A   1      32.647  29.895  27.256  1.00  0.00     0.120 C 
ATOM     11  C   UNL A   1      34.926  28.985  27.477  1.00  0.00     0.120 C 
ATOM     12  C   UNL A   1      33.174  31.322  27.235  1.00  0.00     0.026 C 
ATOM     13  C   UNL A   1      35.501  30.407  27.518  1.00  0.00     0.026 C 
BRANCH   7  14
ATOM     14  C   UNL A   1      33.476  27.084  25.225  1.00  0.00     0.058 A 
ATOM     15  C   UNL A   1      32.814  23.055  24.026  1.00  0.00     0.066 C 
ATOM     16  C   UNL A   1      33.091  24.451  24.498  1.00  0.00     0.037 A 
ATOM     17  C   UNL A   1      32.694  24.867  25.765  1.00  0.00     0.024 A 
ATOM     18  N   UNL A   1      33.682  25.285  23.611  1.00  0.00    -0.261 NA
ATOM     19  C   UNL A   1      32.890  26.199  26.131  1.00  0.00     0.017 A 
ATOM     20  C   UNL A   1      33.858  26.578  23.990  1.00  0.00     0.125 A 
ENDBRANCH   7  14
ENDBRANCH   5   6
ENDBRANCH   3   5
ENDBRANCH   2   3
ENDBRANCH   1   2
BRANCH   1  21
ATOM     21  C   UNL A   1      34.364  33.424  32.535  1.00  0.00     0.275 C 
BRANCH  21  22
ATOM     22  O   UNL A   1      35.054  32.168  32.405  1.00  0.00    -0.458 OA
BRANCH  22  23
ATOM     23  C   UNL A   1      36.222  32.082  33.081  1.00  0.00     0.338 C 
ATOM     24  O   UNL A   1      36.426  32.373  34.248  1.00  0.00    -0.246 OA
BRANCH  23  25
ATOM     25  C   UNL A   1      37.238  31.443  32.231  1.00  0.00     0.060 A 
ATOM     26  C   UNL A   1      38.313  30.807  32.860  1.00  0.00     0.016 A 
ATOM     27  C   UNL A   1      37.180  31.530  30.838  1.00  0.00     0.016 A 
ATOM     28  C   UNL A   1      39.347  30.270  32.099  1.00  0.00     0.010 A 
ATOM     29  C   UNL A   1      38.220  30.991  30.073  1.00  0.00     0.010 A 
ATOM     30  C   UNL A   1      39.319  30.378  30.701  1.00  0.00    -0.014 A 
BRANCH  30  31
ATOM     31  C   UNL A   1      40.487  29.912  29.916  1.00  0.00     0.031 A 
ATOM     32  C   UNL A   1      41.637  30.845  29.670  1.00  0.00     0.074 A 
ATOM     33  C   UNL A   1      40.538  28.643  29.471  1.00  0.00     0.049 A 
ATOM     34  N   UNL A   1      42.753  30.630  29.021  1.00  0.00    -0.248 NA
ATOM     35  C   UNL A   1      41.517  32.200  30.231  1.00  0.00     0.031 C 
ATOM     36  C   UNL A   1      39.498  27.634  29.675  1.00  0.00     0.029 A 
ATOM     37  N   UNL A   1      41.512  27.987  28.763  1.00  0.00    -0.354 N 
ATOM     38  C   UNL A   1      43.466  31.820  29.090  1.00  0.00     0.074 A 
ATOM     39  C   UNL A   1      42.645  32.762  29.822  1.00  0.00     0.031 C 
ATOM     40  C   UNL A   1      39.894  26.481  29.110  1.00  0.00     0.029 A 
ATOM     41  C   UNL A   1      41.199  26.680  28.482  1.00  0.00     0.049 A 
ATOM     42  H   UNL A   1      42.353  28.412  28.481  1.00  0.00     0.167 HD
ATOM     43  C   UNL A   1      44.696  32.098  28.599  1.00  0.00     0.037 A 
ATOM     44  C   UNL A   1      41.885  25.751  27.789  1.00  0.00     0.037 A 
ATOM     45  C   UNL A   1      45.517  31.161  27.878  1.00  0.00     0.049 A 
ATOM     46  C   UNL A   1      43.226  26.104  27.207  1.00  0.00     0.074 A 
ATOM     47  C   UNL A   1      46.784  31.349  27.353  1.00  0.00     0.029 A 
ATOM     48  N   UNL A   1      45.148  29.859  27.578  1.00  0.00    -0.354 N 
ATOM     49  N   UNL A   1      43.895  27.227  27.293  1.00  0.00    -0.248 NA
ATOM     50  C   UNL A   1      43.905  25.057  26.429  1.00  0.00     0.031 C 
ATOM     51  C   UNL A   1      47.167  30.169  26.704  1.00  0.00     0.029 A 
ATOM     52  C   UNL A   1      46.154  29.237  26.858  1.00  0.00     0.049 A 
ATOM     53  H   UNL A   1      44.296  29.439  27.838  1.00  0.00     0.167 HD
ATOM     54  C   UNL A   1      45.079  27.018  26.597  1.00  0.00     0.074 A 
ATOM     55  C   UNL A   1      45.044  25.655  26.109  1.00  0.00     0.031 C 
ATOM     56  C   UNL A   1      46.103  27.880  26.379  1.00  0.00     0.037 A 
BRANCH  43  57
ATOM     57  C   UNL A   1      45.222  33.486  28.812  1.00  0.00     0.057 A 
ATOM     58  C   UNL A   1      46.009  33.813  29.923  1.00  0.00     0.134 A 
ATOM     59  C   UNL A   1      44.964  34.497  27.879  1.00  0.00     0.134 A 
ATOM     60  F   UNL A   1      46.278  32.892  30.861  1.00  0.00    -0.206 F 
ATOM     61  C   UNL A   1      46.505  35.105  30.109  1.00  0.00     0.040 A 
ATOM     62  C   UNL A   1      45.471  35.788  28.044  1.00  0.00     0.040 A 
ATOM     63  F   UNL A   1      44.219  34.247  26.792  1.00  0.00    -0.206 F 
ATOM     64  C   UNL A   1      46.241  36.095  29.165  1.00  0.00     0.006 A 
ENDBRANCH  43  57
BRANCH  44  65
ATOM     65  C   UNL A   1      41.314  24.396  27.599  1.00  0.00     0.057 A 
ATOM     66  C   UNL A   1      40.261  24.171  26.705  1.00  0.00     0.134 A 
ATOM     67  C   UNL A   1      41.796  23.297  28.320  1.00  0.00     0.134 A 
ATOM     68  F   UNL A   1      39.742  25.190  26.005  1.00  0.00    -0.206 F 
ATOM     69  C   UNL A   1      39.698  22.904  26.545  1.00  0.00     0.040 A 
ATOM     70  C   UNL A   1      41.258  22.020  28.154  1.00  0.00     0.040 A 
ATOM     71  F   UNL A   1      42.803  23.449  29.194  1.00  0.00    -0.206 F 
ATOM     72  C   UNL A   1      40.201  21.823  27.268  1.00  0.00     0.006 A 
ENDBRANCH  44  65
BRANCH  56  73
ATOM     73  C   UNL A   1      47.273  27.365  25.595  1.00  0.00     0.057 A 
ATOM     74  C   UNL A   1      47.392  27.590  24.219  1.00  0.00     0.134 A 
ATOM     75  C   UNL A   1      48.305  26.663  26.231  1.00  0.00     0.134 A 
ATOM     76  F   UNL A   1      46.430  28.245  23.552  1.00  0.00    -0.206 F 
ATOM     77  C   UNL A   1      48.488  27.116  23.495  1.00  0.00     0.040 A 
ATOM     78  C   UNL A   1      49.416  26.203  25.522  1.00  0.00     0.040 A 
ATOM     79  F   UNL A   1      48.255  26.421  27.549  1.00  0.00    -0.206 F 
ATOM     80  C   UNL A   1      49.507  26.425  24.149  1.00  0.00     0.006 A 
ENDBRANCH  56  73
ENDBRANCH  30  31
ENDBRANCH  23  25
ENDBRANCH  22  23
ENDBRANCH  21  22
ENDBRANCH   1  21
TORSDOF 13
ENDMDL
MODEL 2
REMARK VINA RESULT:     -11.0      4.081      6.770
REMARK SMILES Cc1ccc(C(=O)N2CCC(CC(=O)OCCOC(=O)c3ccc(-c4c5nc(c(-c6c(F)cccc6F)c6ccc([nH]6)c(-c6c(F)cccc6F)c6nc(c(-c7c(F)cccc7F)c7ccc4[nH]7)C=C6)C=C5)cc3)CC2)cn1
REMARK SMILES IDX 16 1 15 2 13 3 14 4 12 5 11 6 6 7 7 8 8 9 9 10 76 11 10 12
REMARK SMILES IDX 75 13 5 14 1 15 2 16 3 17 78 18 4 19 77 20 17 21 18 22 19 23
REMARK SMILES IDX 20 24 21 25 22 26 74 27 23 28 73 29 24 30 25 31 26 32 67 33
REMARK SMILES IDX 27 34 72 35 66 36 68 37 28 38 71 39 65 40 64 41 29 43 55 44
REMARK SMILES IDX 38 45 54 46 39 47 42 48 53 49 69 50 40 51 41 52 52 54 70 55
REMARK SMILES IDX 43 56 30 57 31 58 36 59 32 60 33 61 35 62 37 63 34 64 56 65
REMARK SMILES IDX 57 66 62 67 58 68 59 69 61 70 63 71 60 72 44 73 45 74 50 75
REMARK SMILES IDX 46 76 47 77 49 78 51 79 48 80
REMARK H PARENT 68 42 42 53
REMARK Flexibility Score: inf
ROOT
ATOM      1  C   UNL A   1      31.358  31.900  26.701  1.00  0.00     0.274 C 
ENDROOT
BRANCH   1   2
ATOM      2  O   UNL A   1      32.046  30.802  26.073  1.00  0.00    -0.462 OA
BRANCH   2   3
ATOM      3  C   UNL A   1      32.619  29.878  26.884  1.00  0.00     0.306 C 
ATOM      4  O   UNL A   1      33.748  29.963  27.351  1.00  0.00    -0.252 OA
BRANCH   3   5
ATOM      5  C   UNL A   1      31.724  28.674  27.109  1.00  0.00     0.126 C 
BRANCH   5   6
ATOM      6  C   UNL A   1      31.713  27.639  25.970  1.00  0.00     0.003 C 
ATOM      7  C   UNL A   1      32.778  23.837  25.454  1.00  0.00     0.255 C 
ATOM      8  O   UNL A   1      33.598  23.875  26.366  1.00  0.00    -0.269 OA
ATOM      9  N   UNL A   1      32.204  24.978  24.913  1.00  0.00    -0.339 N 
ATOM     10  C   UNL A   1      33.086  26.072  24.554  1.00  0.00     0.120 C 
ATOM     11  C   UNL A   1      30.836  25.347  25.251  1.00  0.00     0.120 C 
ATOM     12  C   UNL A   1      33.128  27.130  25.646  1.00  0.00     0.026 C 
ATOM     13  C   UNL A   1      30.808  26.437  26.330  1.00  0.00     0.026 C 
BRANCH   7  14
ATOM     14  C   UNL A   1      32.499  22.560  24.747  1.00  0.00     0.058 A 
ATOM     15  C   UNL A   1      32.315  18.720  22.923  1.00  0.00     0.066 C 
ATOM     16  C   UNL A   1      32.313  20.083  23.547  1.00  0.00     0.037 A 
ATOM     17  C   UNL A   1      32.184  21.225  22.763  1.00  0.00     0.024 A 
ATOM     18  N   UNL A   1      32.505  20.138  24.886  1.00  0.00    -0.261 NA
ATOM     19  C   UNL A   1      32.278  22.477  23.371  1.00  0.00     0.017 A 
ATOM     20  C   UNL A   1      32.597  21.369  25.453  1.00  0.00     0.125 A 
ENDBRANCH   7  14
ENDBRANCH   5   6
ENDBRANCH   3   5
ENDBRANCH   2   3
ENDBRANCH   1   2
BRANCH   1  21
ATOM     21  C   UNL A   1      32.264  33.127  26.846  1.00  0.00     0.275 C 
BRANCH  21  22
ATOM     22  O   UNL A   1      32.143  33.707  28.157  1.00  0.00    -0.458 OA
BRANCH  22  23
ATOM     23  C   UNL A   1      33.138  34.555  28.504  1.00  0.00     0.338 C 
ATOM     24  O   UNL A   1      33.073  35.768  28.611  1.00  0.00    -0.246 OA
BRANCH  23  25
ATOM     25  C   UNL A   1      34.334  33.786  28.878  1.00  0.00     0.060 A 
ATOM     26  C   UNL A   1      34.150  32.582  29.565  1.00  0.00     0.016 A 
ATOM     27  C   UNL A   1      35.620  34.271  28.627  1.00  0.00     0.016 A 
ATOM     28  C   UNL A   1      35.252  31.865  30.023  1.00  0.00     0.010 A 
ATOM     29  C   UNL A   1      36.727  33.551  29.088  1.00  0.00     0.010 A 
ATOM     30  C   UNL A   1      36.548  32.356  29.807  1.00  0.00    -0.014 A 
BRANCH  30  31
ATOM     31  C   UNL A   1      37.700  31.644  30.409  1.00  0.00     0.031 A 
ATOM     32  C   UNL A   1      38.071  31.908  31.840  1.00  0.00     0.074 A 
ATOM     33  C   UNL A   1      38.377  30.729  29.692  1.00  0.00     0.049 A 
ATOM     34  N   UNL A   1      39.033  31.384  32.555  1.00  0.00    -0.248 NA
ATOM     35  C   UNL A   1      37.249  32.891  32.563  1.00  0.00     0.031 C 
ATOM     36  C   UNL A   1      38.092  30.363  28.305  1.00  0.00     0.029 A 
ATOM     37  N   UNL A   1      39.441  29.936  30.039  1.00  0.00    -0.354 N 
ATOM     38  C   UNL A   1      38.936  31.973  33.809  1.00  0.00     0.074 A 
ATOM     39  C   UNL A   1      37.838  32.916  33.750  1.00  0.00     0.031 C 
ATOM     40  C   UNL A   1      38.955  29.408  27.920  1.00  0.00     0.029 A 
ATOM     41  C   UNL A   1      39.870  29.118  29.023  1.00  0.00     0.049 A 
ATOM     42  H   UNL A   1      39.857  29.952  30.931  1.00  0.00     0.167 HD
ATOM     43  C   UNL A   1      39.686  31.743  34.912  1.00  0.00     0.037 A 
ATOM     44  C   UNL A   1      40.892  28.242  28.984  1.00  0.00     0.037 A 
ATOM     45  C   UNL A   1      40.774  30.802  34.976  1.00  0.00     0.049 A 
ATOM     46  C   UNL A   1      41.743  28.046  30.208  1.00  0.00     0.074 A 
ATOM     47  C   UNL A   1      41.582  30.490  36.055  1.00  0.00     0.029 A 
ATOM     48  N   UNL A   1      41.204  30.023  33.914  1.00  0.00    -0.354 N 
ATOM     49  N   UNL A   1      41.632  28.598  31.391  1.00  0.00    -0.248 NA
ATOM     50  C   UNL A   1      42.866  27.103  30.088  1.00  0.00     0.031 C 
ATOM     51  C   UNL A   1      42.527  29.546  35.634  1.00  0.00     0.029 A 
ATOM     52  C   UNL A   1      42.281  29.244  34.305  1.00  0.00     0.049 A 
ATOM     53  H   UNL A   1      40.804  30.023  33.014  1.00  0.00     0.167 HD
ATOM     54  C   UNL A   1      42.656  28.060  32.160  1.00  0.00     0.074 A 
ATOM     55  C   UNL A   1      43.368  27.123  31.314  1.00  0.00     0.031 C 
ATOM     56  C   UNL A   1      42.979  28.318  33.451  1.00  0.00     0.037 A 
BRANCH  43  57
ATOM     57  C   UNL A   1      39.365  32.541  36.140  1.00  0.00     0.057 A 
ATOM     58  C   UNL A   1      39.951  33.789  36.382  1.00  0.00     0.134 A 
ATOM     59  C   UNL A   1      38.435  32.069  37.074  1.00  0.00     0.134 A 
ATOM     60  F   UNL A   1      40.862  34.289  35.533  1.00  0.00    -0.206 F 
ATOM     61  C   UNL A   1      39.639  34.532  37.523  1.00  0.00     0.040 A 
ATOM     62  C   UNL A   1      38.099  32.811  38.208  1.00  0.00     0.040 A 
ATOM     63  F   UNL A   1      37.835  30.881  36.898  1.00  0.00    -0.206 F 
ATOM     64  C   UNL A   1      38.706  34.045  38.436  1.00  0.00     0.006 A 
ENDBRANCH  43  57
BRANCH  44  65
ATOM     65  C   UNL A   1      41.173  27.485  27.741  1.00  0.00     0.057 A 
ATOM     66  C   UNL A   1      40.585  26.238  27.503  1.00  0.00     0.134 A 
ATOM     67  C   UNL A   1      42.049  27.983  26.769  1.00  0.00     0.134 A 
ATOM     68  F   UNL A   1      39.756  25.699  28.409  1.00  0.00    -0.206 F 
ATOM     69  C   UNL A   1      40.869  25.505  26.350  1.00  0.00     0.040 A 
ATOM     70  C   UNL A   1      42.326  27.272  25.601  1.00  0.00     0.040 A 
ATOM     71  F   UNL A   1      42.645  29.173  26.941  1.00  0.00    -0.206 F 
ATOM     72  C   UNL A   1      41.739  26.026  25.392  1.00  0.00     0.006 A 
ENDBRANCH  44  65
BRANCH  56  73
ATOM     73  C   UNL A   1      44.140  27.566  34.028  1.00  0.00     0.057 A 
ATOM     74  C   UNL A   1      45.439  28.090  34.007  1.00  0.00     0.134 A 
ATOM     75  C   UNL A   1      43.952  26.319  34.637  1.00  0.00     0.134 A 
ATOM     76  F   UNL A   1      45.685  29.274  33.427  1.00  0.00    -0.206 F 
ATOM     77  C   UNL A   1      46.515  27.389  34.554  1.00  0.00     0.040 A 
ATOM     78  C   UNL A   1      45.017  25.619  35.206  1.00  0.00     0.040 A 
ATOM     79  F   UNL A   1      42.732  25.766  34.696  1.00  0.00    -0.206 F 
ATOM     80  C   UNL A   1      46.304  26.152  35.161  1.00  0.00     0.006 A 
ENDBRANCH  56  73
ENDBRANCH  30  31
ENDBRANCH  23  25
ENDBRANCH  22  23
ENDBRANCH  21  22
ENDBRANCH   1  21
TORSDOF 13
ENDMDL
MODEL 3
REMARK VINA RESULT:     -10.9      3.448      5.943
REMARK SMILES Cc1ccc(C(=O)N2CCC(CC(=O)OCCOC(=O)c3ccc(-c4c5nc(c(-c6c(F)cccc6F)c6ccc([nH]6)c(-c6c(F)cccc6F)c6nc(c(-c7c(F)cccc7F)c7ccc4[nH]7)C=C6)C=C5)cc3)CC2)cn1
REMARK SMILES IDX 16 1 15 2 13 3 14 4 12 5 11 6 6 7 7 8 8 9 9 10 76 11 10 12
REMARK SMILES IDX 75 13 5 14 1 15 2 16 3 17 78 18 4 19 77 20 17 21 18 22 19 23
REMARK SMILES IDX 20 24 21 25 22 26 74 27 23 28 73 29 24 30 25 31 26 32 67 33
REMARK SMILES IDX 27 34 72 35 66 36 68 37 28 38 71 39 65 40 64 41 29 43 55 44
REMARK SMILES IDX 38 45 54 46 39 47 42 48 53 49 69 50 40 51 41 52 52 54 70 55
REMARK SMILES IDX 43 56 30 57 31 58 36 59 32 60 33 61 35 62 37 63 34 64 56 65
REMARK SMILES IDX 57 66 62 67 58 68 59 69 61 70 63 71 60 72 44 73 45 74 50 75
REMARK SMILES IDX 46 76 47 77 49 78 51 79 48 80
REMARK H PARENT 68 42 42 53
REMARK Flexibility Score: inf
ROOT
ATOM      1  C   UNL A   1      33.776  34.349  28.551  1.00  0.00     0.274 C 
ENDROOT
BRANCH   1   2
ATOM      2  O   UNL A   1      32.719  34.658  29.479  1.00  0.00    -0.462 OA
BRANCH   2   3
ATOM      3  C   UNL A   1      32.934  35.668  30.358  1.00  0.00     0.306 C 
ATOM      4  O   UNL A   1      32.846  36.859  30.090  1.00  0.00    -0.252 OA
BRANCH   3   5
ATOM      5  C   UNL A   1      33.365  35.162  31.722  1.00  0.00     0.126 C 
BRANCH   5   6
ATOM      6  C   UNL A   1      34.787  34.577  31.790  1.00  0.00     0.003 C 
ATOM      7  C   UNL A   1      37.034  32.633  34.441  1.00  0.00     0.255 C 
ATOM      8  O   UNL A   1      36.408  33.081  35.397  1.00  0.00    -0.269 OA
ATOM      9  N   UNL A   1      36.914  33.148  33.158  1.00  0.00    -0.339 N 
ATOM     10  C   UNL A   1      36.998  34.586  32.997  1.00  0.00     0.120 C 
ATOM     11  C   UNL A   1      36.140  32.438  32.148  1.00  0.00     0.120 C 
ATOM     12  C   UNL A   1      35.615  35.216  32.918  1.00  0.00     0.026 C 
ATOM     13  C   UNL A   1      34.740  33.045  31.996  1.00  0.00     0.026 C 
BRANCH   7  14
ATOM     14  C   UNL A   1      38.108  31.629  34.650  1.00  0.00     0.058 A 
ATOM     15  C   UNL A   1      41.353  29.122  35.787  1.00  0.00     0.066 C 
ATOM     16  C   UNL A   1      40.195  29.958  35.336  1.00  0.00     0.037 A 
ATOM     17  C   UNL A   1      40.199  30.567  34.084  1.00  0.00     0.024 A 
ATOM     18  N   UNL A   1      39.191  30.137  36.227  1.00  0.00    -0.261 NA
ATOM     19  C   UNL A   1      39.143  31.411  33.739  1.00  0.00     0.017 A 
ATOM     20  C   UNL A   1      38.177  30.967  35.869  1.00  0.00     0.125 A 
ENDBRANCH   7  14
ENDBRANCH   5   6
ENDBRANCH   3   5
ENDBRANCH   2   3
ENDBRANCH   1   2
BRANCH   1  21
ATOM     21  C   UNL A   1      33.647  32.926  28.001  1.00  0.00     0.275 C 
BRANCH  21  22
ATOM     22  O   UNL A   1      34.539  32.025  28.682  1.00  0.00    -0.458 OA
BRANCH  22  23
ATOM     23  C   UNL A   1      34.523  30.750  28.232  1.00  0.00     0.338 C 
ATOM     24  O   UNL A   1      33.592  30.162  27.707  1.00  0.00    -0.246 OA
BRANCH  23  25
ATOM     25  C   UNL A   1      35.870  30.171  28.342  1.00  0.00     0.060 A 
ATOM     26  C   UNL A   1      36.278  29.694  29.592  1.00  0.00     0.016 A 
ATOM     27  C   UNL A   1      36.749  30.161  27.257  1.00  0.00     0.016 A 
ATOM     28  C   UNL A   1      37.575  29.224  29.769  1.00  0.00     0.010 A 
ATOM     29  C   UNL A   1      38.054  29.690  27.435  1.00  0.00     0.010 A 
ATOM     30  C   UNL A   1      38.480  29.239  28.697  1.00  0.00    -0.014 A 
BRANCH  30  31
ATOM     31  C   UNL A   1      39.890  28.851  28.936  1.00  0.00     0.031 A 
ATOM     32  C   UNL A   1      40.805  29.789  29.669  1.00  0.00     0.074 A 
ATOM     33  C   UNL A   1      40.333  27.643  28.543  1.00  0.00     0.049 A 
ATOM     34  N   UNL A   1      42.064  29.636  29.989  1.00  0.00    -0.248 NA
ATOM     35  C   UNL A   1      40.225  31.070  30.102  1.00  0.00     0.031 C 
ATOM     36  C   UNL A   1      39.532  26.632  27.853  1.00  0.00     0.029 A 
ATOM     37  N   UNL A   1      41.568  27.060  28.680  1.00  0.00    -0.354 N 
ATOM     38  C   UNL A   1      42.430  30.798  30.655  1.00  0.00     0.074 A 
ATOM     39  C   UNL A   1      41.267  31.660  30.670  1.00  0.00     0.031 C 
ATOM     40  C   UNL A   1      40.295  25.548  27.632  1.00  0.00     0.029 A 
ATOM     41  C   UNL A   1      41.642  25.800  28.140  1.00  0.00     0.049 A 
ATOM     42  H   UNL A   1      42.328  27.503  29.121  1.00  0.00     0.167 HD
ATOM     43  C   UNL A   1      43.622  31.114  31.212  1.00  0.00     0.037 A 
ATOM     44  C   UNL A   1      42.682  24.949  28.057  1.00  0.00     0.037 A 
ATOM     45  C   UNL A   1      44.779  30.256  31.204  1.00  0.00     0.049 A 
ATOM     46  C   UNL A   1      44.011  25.348  28.636  1.00  0.00     0.074 A 
ATOM     47  C   UNL A   1      46.027  30.486  31.756  1.00  0.00     0.029 A 
ATOM     48  N   UNL A   1      44.826  29.005  30.611  1.00  0.00    -0.354 N 
ATOM     49  N   UNL A   1      44.339  26.443  29.277  1.00  0.00    -0.248 NA
ATOM     50  C   UNL A   1      45.116  24.390  28.479  1.00  0.00     0.031 C 
ATOM     51  C   UNL A   1      46.842  29.385  31.466  1.00  0.00     0.029 A 
ATOM     52  C   UNL A   1      46.089  28.456  30.766  1.00  0.00     0.049 A 
ATOM     53  H   UNL A   1      44.074  28.569  30.149  1.00  0.00     0.167 HD
ATOM     54  C   UNL A   1      45.680  26.301  29.613  1.00  0.00     0.074 A 
ATOM     55  C   UNL A   1      46.100  25.005  29.120  1.00  0.00     0.031 C 
ATOM     56  C   UNL A   1      46.491  27.166  30.269  1.00  0.00     0.037 A 
BRANCH  43  57
ATOM     57  C   UNL A   1      43.741  32.459  31.864  1.00  0.00     0.057 A 
ATOM     58  C   UNL A   1      44.020  33.615  31.124  1.00  0.00     0.134 A 
ATOM     59  C   UNL A   1      43.543  32.603  33.242  1.00  0.00     0.134 A 
ATOM     60  F   UNL A   1      44.235  33.540  29.802  1.00  0.00    -0.206 F 
ATOM     61  C   UNL A   1      44.118  34.866  31.737  1.00  0.00     0.040 A 
ATOM     62  C   UNL A   1      43.618  33.852  33.863  1.00  0.00     0.040 A 
ATOM     63  F   UNL A   1      43.269  31.535  34.007  1.00  0.00    -0.206 F 
ATOM     64  C   UNL A   1      43.911  34.987  33.109  1.00  0.00     0.006 A 
ENDBRANCH  43  57
BRANCH  44  65
ATOM     65  C   UNL A   1      42.514  23.634  27.392  1.00  0.00     0.057 A 
ATOM     66  C   UNL A   1      42.725  23.485  26.017  1.00  0.00     0.134 A 
ATOM     67  C   UNL A   1      42.122  22.500  28.114  1.00  0.00     0.134 A 
ATOM     68  F   UNL A   1      43.078  24.541  25.270  1.00  0.00    -0.206 F 
ATOM     69  C   UNL A   1      42.537  22.257  25.379  1.00  0.00     0.040 A 
ATOM     70  C   UNL A   1      41.953  21.262  27.494  1.00  0.00     0.040 A 
ATOM     71  F   UNL A   1      41.903  22.581  29.435  1.00  0.00    -0.206 F 
ATOM     72  C   UNL A   1      42.155  21.140  26.121  1.00  0.00     0.006 A 
ENDBRANCH  44  65
BRANCH  56  73
ATOM     73  C   UNL A   1      47.906  26.730  30.505  1.00  0.00     0.057 A 
ATOM     74  C   UNL A   1      48.259  25.949  31.613  1.00  0.00     0.134 A 
ATOM     75  C   UNL A   1      48.918  27.068  29.599  1.00  0.00     0.134 A 
ATOM     76  F   UNL A   1      47.336  25.604  32.523  1.00  0.00    -0.206 F 
ATOM     77  C   UNL A   1      49.576  25.538  31.824  1.00  0.00     0.040 A 
ATOM     78  C   UNL A   1      50.234  26.644  29.788  1.00  0.00     0.040 A 
ATOM     79  F   UNL A   1      48.644  27.806  28.514  1.00  0.00    -0.206 F 
ATOM     80  C   UNL A   1      50.567  25.881  30.905  1.00  0.00     0.006 A 
ENDBRANCH  56  73
ENDBRANCH  30  31
ENDBRANCH  23  25
ENDBRANCH  22  23
ENDBRANCH  21  22
ENDBRANCH   1  21
TORSDOF 13
ENDMDL
