MODEL 1
REMARK VINA RESULT:     -11.4      0.000      0.000
REMARK SMILES Cc1cc(F)c([C@@H](C)[N@@H+]2C[C@H](C)[C@H](C(=O)OCCOC(=O)c3ccc(-c4c5nc(c(-c6c(F)cccc6F)c6ccc([nH]6)c(-c6c(F)cccc6F)c6nc(c(-c7c(F)cccc7F)c7ccc4[nH]7)C=C6)C=C5)cc3)C2)cc1F
REMARK SMILES IDX 17 1 16 2 14 3 15 4 13 5 9 6 10 7 76 8 11 10 12 11 7 12 8 13
REMARK SMILES IDX 6 14 1 15 2 16 3 17 78 18 4 19 77 20 79 21 5 22 18 23 19 24
REMARK SMILES IDX 20 25 21 26 22 27 23 28 75 29 24 30 74 31 25 32 26 33 27 34
REMARK SMILES IDX 68 35 28 36 73 37 67 38 69 39 29 40 72 41 66 42 65 43 30 45
REMARK SMILES IDX 56 46 39 47 55 48 40 49 43 50 54 51 70 52 41 53 42 54 53 56
REMARK SMILES IDX 71 57 44 58 31 59 32 60 37 61 33 62 34 63 36 64 38 65 35 66
REMARK SMILES IDX 57 67 58 68 63 69 59 70 60 71 62 72 64 73 61 74 45 75 46 76
REMARK SMILES IDX 51 77 47 78 48 79 50 80 52 81 49 82
REMARK H PARENT 9 9 69 44 43 55
REMARK Flexibility Score: inf
ROOT
ATOM      1  C   UNL A   1      31.049  29.519  24.541  1.00  0.00     0.274 C 
ENDROOT
BRANCH   1   2
ATOM      2  O   UNL A   1      30.573  28.217  24.155  1.00  0.00    -0.462 OA
BRANCH   2   3
ATOM      3  C   UNL A   1      30.556  27.953  22.832  1.00  0.00     0.315 C 
ATOM      4  O   UNL A   1      29.974  28.648  22.001  1.00  0.00    -0.252 OA
BRANCH   3   5
ATOM      5  C   UNL A   1      31.362  26.741  22.415  1.00  0.00     0.162 C 
ATOM      6  N   UNL A   1      32.445  24.943  23.540  1.00  0.00    -0.328 N 
ATOM      7  C   UNL A   1      33.339  25.392  22.480  1.00  0.00     0.267 C 
ATOM      8  C   UNL A   1      31.187  25.660  23.465  1.00  0.00     0.278 C 
ATOM      9  H   UNL A   1      32.233  23.964  23.345  1.00  0.00     0.348 HD
ATOM     10  C   UNL A   1      32.834  26.759  22.004  1.00  0.00     0.061 C 
ATOM     11  C   UNL A   1      33.720  27.906  22.461  1.00  0.00     0.015 C 
BRANCH   6  12
ATOM     12  C   UNL A   1      33.016  24.687  24.863  1.00  0.00     0.215 C 
ATOM     13  C   UNL A   1      33.264  25.976  25.665  1.00  0.00     0.081 C 
BRANCH  12  14
ATOM     14  C   UNL A   1      34.224  23.766  24.900  1.00  0.00     0.048 A 
ATOM     15  C   UNL A   1      37.778  21.284  25.001  1.00  0.00     0.047 C 
ATOM     16  C   UNL A   1      36.553  22.142  24.987  1.00  0.00    -0.012 A 
ATOM     17  C   UNL A   1      35.319  21.598  24.626  1.00  0.00     0.046 A 
ATOM     18  C   UNL A   1      36.612  23.500  25.300  1.00  0.00     0.126 A 
ATOM     19  C   UNL A   1      34.180  22.405  24.572  1.00  0.00     0.132 A 
ATOM     20  C   UNL A   1      35.472  24.301  25.267  1.00  0.00     0.052 A 
ATOM     21  F   UNL A   1      37.781  24.064  25.633  1.00  0.00    -0.207 F 
ATOM     22  F   UNL A   1      33.035  21.819  24.206  1.00  0.00    -0.206 F 
ENDBRANCH  12  14
ENDBRANCH   6  12
ENDBRANCH   3   5
ENDBRANCH   2   3
ENDBRANCH   1   2
BRANCH   1  23
ATOM     23  C   UNL A   1      31.773  29.442  25.889  1.00  0.00     0.275 C 
BRANCH  23  24
ATOM     24  O   UNL A   1      33.031  30.144  25.861  1.00  0.00    -0.458 OA
BRANCH  24  25
ATOM     25  C   UNL A   1      33.185  31.115  26.792  1.00  0.00     0.338 C 
ATOM     26  O   UNL A   1      32.404  32.003  27.081  1.00  0.00    -0.246 OA
BRANCH  25  27
ATOM     27  C   UNL A   1      34.433  30.871  27.527  1.00  0.00     0.060 A 
ATOM     28  C   UNL A   1      35.323  31.910  27.777  1.00  0.00     0.016 A 
ATOM     29  C   UNL A   1      34.691  29.587  28.009  1.00  0.00     0.016 A 
ATOM     30  C   UNL A   1      36.498  31.639  28.481  1.00  0.00     0.010 A 
ATOM     31  C   UNL A   1      35.827  29.327  28.758  1.00  0.00     0.010 A 
ATOM     32  C   UNL A   1      36.758  30.344  28.967  1.00  0.00    -0.014 A 
BRANCH  32  33
ATOM     33  C   UNL A   1      38.013  30.034  29.682  1.00  0.00     0.031 A 
ATOM     34  C   UNL A   1      38.248  30.578  31.064  1.00  0.00     0.074 A 
ATOM     35  C   UNL A   1      38.946  29.289  29.066  1.00  0.00     0.049 A 
ATOM     36  N   UNL A   1      39.257  30.371  31.870  1.00  0.00    -0.248 NA
ATOM     37  C   UNL A   1      37.227  31.491  31.605  1.00  0.00     0.031 C 
ATOM     38  C   UNL A   1      38.845  28.776  27.697  1.00  0.00     0.029 A 
ATOM     39  N   UNL A   1      40.155  28.828  29.509  1.00  0.00    -0.354 N 
ATOM     40  C   UNL A   1      38.987  31.116  33.011  1.00  0.00     0.074 A 
ATOM     41  C   UNL A   1      37.758  31.837  32.768  1.00  0.00     0.031 C 
ATOM     42  C   UNL A   1      39.929  28.030  27.431  1.00  0.00     0.029 A 
ATOM     43  C   UNL A   1      40.808  28.041  28.594  1.00  0.00     0.049 A 
ATOM     44  H   UNL A   1      40.521  29.040  30.398  1.00  0.00     0.167 HD
ATOM     45  C   UNL A   1      39.685  31.167  34.170  1.00  0.00     0.037 A 
ATOM     46  C   UNL A   1      41.984  27.397  28.694  1.00  0.00     0.037 A 
ATOM     47  C   UNL A   1      40.913  30.450  34.396  1.00  0.00     0.049 A 
ATOM     48  C   UNL A   1      42.752  27.489  29.983  1.00  0.00     0.074 A 
ATOM     49  C   UNL A   1      41.684  30.392  35.542  1.00  0.00     0.029 A 
ATOM     50  N   UNL A   1      41.555  29.672  33.442  1.00  0.00    -0.354 N 
ATOM     51  N   UNL A   1      42.442  28.121  31.090  1.00  0.00    -0.248 NA
ATOM     52  C   UNL A   1      44.032  26.772  30.037  1.00  0.00     0.031 C 
ATOM     53  C   UNL A   1      42.818  29.620  35.267  1.00  0.00     0.029 A 
ATOM     54  C   UNL A   1      42.725  29.150  33.965  1.00  0.00     0.049 A 
ATOM     55  H   UNL A   1      41.225  29.515  32.527  1.00  0.00     0.167 HD
ATOM     56  C   UNL A   1      43.473  27.856  31.981  1.00  0.00     0.074 A 
ATOM     57  C   UNL A   1      44.406  26.989  31.290  1.00  0.00     0.031 C 
ATOM     58  C   UNL A   1      43.638  28.291  33.255  1.00  0.00     0.037 A 
BRANCH  45  59
ATOM     59  C   UNL A   1      39.131  32.022  35.274  1.00  0.00     0.057 A 
ATOM     60  C   UNL A   1      38.310  31.474  36.267  1.00  0.00     0.134 A 
ATOM     61  C   UNL A   1      39.397  33.397  35.347  1.00  0.00     0.134 A 
ATOM     62  F   UNL A   1      38.007  30.167  36.257  1.00  0.00    -0.206 F 
ATOM     63  C   UNL A   1      37.779  32.259  37.293  1.00  0.00     0.040 A 
ATOM     64  C   UNL A   1      38.897  34.187  36.384  1.00  0.00     0.040 A 
ATOM     65  F   UNL A   1      40.185  33.987  34.435  1.00  0.00    -0.206 F 
ATOM     66  C   UNL A   1      38.080  33.619  37.359  1.00  0.00     0.006 A 
ENDBRANCH  45  59
BRANCH  46  67
ATOM     67  C   UNL A   1      42.487  26.582  27.561  1.00  0.00     0.057 A 
ATOM     68  C   UNL A   1      42.190  25.218  27.453  1.00  0.00     0.134 A 
ATOM     69  C   UNL A   1      43.266  27.154  26.549  1.00  0.00     0.134 A 
ATOM     70  F   UNL A   1      41.458  24.608  28.396  1.00  0.00    -0.206 F 
ATOM     71  C   UNL A   1      42.648  24.453  26.380  1.00  0.00     0.040 A 
ATOM     72  C   UNL A   1      43.707  26.407  25.456  1.00  0.00     0.040 A 
ATOM     73  F   UNL A   1      43.574  28.459  26.590  1.00  0.00    -0.206 F 
ATOM     74  C   UNL A   1      43.401  25.051  25.371  1.00  0.00     0.006 A 
ENDBRANCH  46  67
BRANCH  58  75
ATOM     75  C   UNL A   1      44.856  27.803  33.982  1.00  0.00     0.057 A 
ATOM     76  C   UNL A   1      44.818  26.609  34.714  1.00  0.00     0.134 A 
ATOM     77  C   UNL A   1      46.061  28.518  33.973  1.00  0.00     0.134 A 
ATOM     78  F   UNL A   1      43.693  25.881  34.772  1.00  0.00    -0.206 F 
ATOM     79  C   UNL A   1      45.935  26.142  35.406  1.00  0.00     0.040 A 
ATOM     80  C   UNL A   1      47.195  28.045  34.635  1.00  0.00     0.040 A 
ATOM     81  F   UNL A   1      46.168  29.662  33.279  1.00  0.00    -0.206 F 
ATOM     82  C   UNL A   1      47.131  26.856  35.358  1.00  0.00     0.006 A 
ENDBRANCH  58  75
ENDBRANCH  32  33
ENDBRANCH  25  27
ENDBRANCH  24  25
ENDBRANCH  23  24
ENDBRANCH   1  23
TORSDOF 13
ENDMDL
MODEL 2
REMARK VINA RESULT:     -11.4      4.310      8.646
REMARK SMILES Cc1cc(F)c([C@@H](C)[N@@H+]2C[C@H](C)[C@H](C(=O)OCCOC(=O)c3ccc(-c4c5nc(c(-c6c(F)cccc6F)c6ccc([nH]6)c(-c6c(F)cccc6F)c6nc(c(-c7c(F)cccc7F)c7ccc4[nH]7)C=C6)C=C5)cc3)C2)cc1F
REMARK SMILES IDX 17 1 16 2 14 3 15 4 13 5 9 6 10 7 76 8 11 10 12 11 7 12 8 13
REMARK SMILES IDX 6 14 1 15 2 16 3 17 78 18 4 19 77 20 79 21 5 22 18 23 19 24
REMARK SMILES IDX 20 25 21 26 22 27 23 28 75 29 24 30 74 31 25 32 26 33 27 34
REMARK SMILES IDX 68 35 28 36 73 37 67 38 69 39 29 40 72 41 66 42 65 43 30 45
REMARK SMILES IDX 56 46 39 47 55 48 40 49 43 50 54 51 70 52 41 53 42 54 53 56
REMARK SMILES IDX 71 57 44 58 31 59 32 60 37 61 33 62 34 63 36 64 38 65 35 66
REMARK SMILES IDX 57 67 58 68 63 69 59 70 60 71 62 72 64 73 61 74 45 75 46 76
REMARK SMILES IDX 51 77 47 78 48 79 50 80 52 81 49 82
REMARK H PARENT 9 9 69 44 43 55
REMARK Flexibility Score: inf
ROOT
ATOM      1  C   UNL A   1      38.585  20.981  25.873  1.00  0.00     0.274 C 
ENDROOT
BRANCH   1   2
ATOM      2  O   UNL A   1      38.189  21.734  24.712  1.00  0.00    -0.462 OA
BRANCH   2   3
ATOM      3  C   UNL A   1      36.864  21.932  24.549  1.00  0.00     0.315 C 
ATOM      4  O   UNL A   1      36.370  22.519  23.587  1.00  0.00    -0.252 OA
BRANCH   3   5
ATOM      5  C   UNL A   1      35.993  21.326  25.629  1.00  0.00     0.162 C 
ATOM      6  N   UNL A   1      33.839  20.313  25.714  1.00  0.00    -0.328 N 
ATOM      7  C   UNL A   1      33.949  21.194  26.869  1.00  0.00     0.267 C 
ATOM      8  C   UNL A   1      35.098  20.277  24.995  1.00  0.00     0.278 C 
ATOM      9  H   UNL A   1      33.687  19.372  26.080  1.00  0.00     0.348 HD
ATOM     10  C   UNL A   1      35.149  22.117  26.628  1.00  0.00     0.061 C 
ATOM     11  C   UNL A   1      34.739  23.541  26.293  1.00  0.00     0.015 C 
BRANCH   6  12
ATOM     12  C   UNL A   1      32.601  20.346  24.935  1.00  0.00     0.215 C 
ATOM     13  C   UNL A   1      32.541  19.244  23.863  1.00  0.00     0.081 C 
BRANCH  12  14
ATOM     14  C   UNL A   1      32.207  21.699  24.365  1.00  0.00     0.048 A 
ATOM     15  C   UNL A   1      31.239  25.560  22.646  1.00  0.00     0.047 C 
ATOM     16  C   UNL A   1      31.565  24.219  23.223  1.00  0.00    -0.012 A 
ATOM     17  C   UNL A   1      30.927  23.781  24.385  1.00  0.00     0.046 A 
ATOM     18  C   UNL A   1      32.524  23.390  22.642  1.00  0.00     0.126 A 
ATOM     19  C   UNL A   1      31.258  22.547  24.950  1.00  0.00     0.132 A 
ATOM     20  C   UNL A   1      32.839  22.149  23.193  1.00  0.00     0.052 A 
ATOM     21  F   UNL A   1      33.171  23.782  21.536  1.00  0.00    -0.207 F 
ATOM     22  F   UNL A   1      30.616  22.198  26.071  1.00  0.00    -0.206 F 
ENDBRANCH  12  14
ENDBRANCH   6  12
ENDBRANCH   3   5
ENDBRANCH   2   3
ENDBRANCH   1   2
BRANCH   1  23
ATOM     23  C   UNL A   1      39.320  19.705  25.453  1.00  0.00     0.275 C 
BRANCH  23  24
ATOM     24  O   UNL A   1      40.393  19.384  26.360  1.00  0.00    -0.458 OA
BRANCH  24  25
ATOM     25  C   UNL A   1      41.629  19.776  25.972  1.00  0.00     0.338 C 
ATOM     26  O   UNL A   1      42.374  19.228  25.180  1.00  0.00    -0.246 OA
BRANCH  25  27
ATOM     27  C   UNL A   1      41.921  21.083  26.578  1.00  0.00     0.060 A 
ATOM     28  C   UNL A   1      41.868  21.253  27.958  1.00  0.00     0.016 A 
ATOM     29  C   UNL A   1      42.296  22.141  25.750  1.00  0.00     0.016 A 
ATOM     30  C   UNL A   1      42.153  22.508  28.495  1.00  0.00     0.010 A 
ATOM     31  C   UNL A   1      42.637  23.373  26.285  1.00  0.00     0.010 A 
ATOM     32  C   UNL A   1      42.532  23.576  27.660  1.00  0.00    -0.014 A 
BRANCH  32  33
ATOM     33  C   UNL A   1      42.802  24.919  28.211  1.00  0.00     0.031 A 
ATOM     34  C   UNL A   1      44.205  25.316  28.574  1.00  0.00     0.074 A 
ATOM     35  C   UNL A   1      41.773  25.760  28.410  1.00  0.00     0.049 A 
ATOM     36  N   UNL A   1      44.648  26.466  29.017  1.00  0.00    -0.248 NA
ATOM     37  C   UNL A   1      45.248  24.284  28.444  1.00  0.00     0.031 C 
ATOM     38  C   UNL A   1      40.365  25.442  28.160  1.00  0.00     0.029 A 
ATOM     39  N   UNL A   1      41.751  27.052  28.859  1.00  0.00    -0.354 N 
ATOM     40  C   UNL A   1      46.014  26.297  29.205  1.00  0.00     0.074 A 
ATOM     41  C   UNL A   1      46.318  24.917  28.900  1.00  0.00     0.031 C 
ATOM     42  C   UNL A   1      39.621  26.529  28.415  1.00  0.00     0.029 A 
ATOM     43  C   UNL A   1      40.494  27.603  28.874  1.00  0.00     0.049 A 
ATOM     44  H   UNL A   1      42.558  27.539  29.143  1.00  0.00     0.167 HD
ATOM     45  C   UNL A   1      46.936  27.219  29.568  1.00  0.00     0.037 A 
ATOM     46  C   UNL A   1      40.100  28.842  29.216  1.00  0.00     0.037 A 
ATOM     47  C   UNL A   1      46.618  28.588  29.877  1.00  0.00     0.049 A 
ATOM     48  C   UNL A   1      41.141  29.841  29.639  1.00  0.00     0.074 A 
ATOM     49  C   UNL A   1      47.473  29.621  30.215  1.00  0.00     0.029 A 
ATOM     50  N   UNL A   1      45.331  29.111  29.897  1.00  0.00    -0.354 N 
ATOM     51  N   UNL A   1      42.442  29.697  29.725  1.00  0.00    -0.248 NA
ATOM     52  C   UNL A   1      40.656  31.177  30.007  1.00  0.00     0.031 C 
ATOM     53  C   UNL A   1      46.700  30.756  30.487  1.00  0.00     0.029 A 
ATOM     54  C   UNL A   1      45.368  30.445  30.265  1.00  0.00     0.049 A 
ATOM     55  H   UNL A   1      44.514  28.606  29.680  1.00  0.00     0.167 HD
ATOM     56  C   UNL A   1      42.935  30.931  30.130  1.00  0.00     0.074 A 
ATOM     57  C   UNL A   1      41.793  31.814  30.252  1.00  0.00     0.031 C 
ATOM     58  C   UNL A   1      44.215  31.302  30.382  1.00  0.00     0.037 A 
BRANCH  45  59
ATOM     59  C   UNL A   1      48.368  26.772  29.644  1.00  0.00     0.057 A 
ATOM     60  C   UNL A   1      49.207  26.848  28.525  1.00  0.00     0.134 A 
ATOM     61  C   UNL A   1      48.917  26.249  30.824  1.00  0.00     0.134 A 
ATOM     62  F   UNL A   1      48.749  27.331  27.360  1.00  0.00    -0.206 F 
ATOM     63  C   UNL A   1      50.538  26.426  28.578  1.00  0.00     0.040 A 
ATOM     64  C   UNL A   1      50.253  25.852  30.898  1.00  0.00     0.040 A 
ATOM     65  F   UNL A   1      48.174  26.157  31.937  1.00  0.00    -0.206 F 
ATOM     66  C   UNL A   1      51.067  25.934  29.770  1.00  0.00     0.006 A 
ENDBRANCH  45  59
BRANCH  46  67
ATOM     67  C   UNL A   1      38.667  29.217  29.138  1.00  0.00     0.057 A 
ATOM     68  C   UNL A   1      37.835  29.163  30.262  1.00  0.00     0.134 A 
ATOM     69  C   UNL A   1      38.099  29.655  27.936  1.00  0.00     0.134 A 
ATOM     70  F   UNL A   1      38.316  28.741  31.441  1.00  0.00    -0.206 F 
ATOM     71  C   UNL A   1      36.490  29.530  30.195  1.00  0.00     0.040 A 
ATOM     72  C   UNL A   1      36.763  30.052  27.861  1.00  0.00     0.040 A 
ATOM     73  F   UNL A   1      38.848  29.740  26.827  1.00  0.00    -0.206 F 
ATOM     74  C   UNL A   1      35.954  29.987  28.993  1.00  0.00     0.006 A 
ENDBRANCH  46  67
BRANCH  58  75
ATOM     75  C   UNL A   1      44.438  32.731  30.779  1.00  0.00     0.057 A 
ATOM     76  C   UNL A   1      44.433  33.103  32.130  1.00  0.00     0.134 A 
ATOM     77  C   UNL A   1      44.645  33.741  29.831  1.00  0.00     0.134 A 
ATOM     78  F   UNL A   1      44.231  32.187  33.089  1.00  0.00    -0.206 F 
ATOM     79  C   UNL A   1      44.628  34.427  32.522  1.00  0.00     0.040 A 
ATOM     80  C   UNL A   1      44.873  35.064  30.211  1.00  0.00     0.040 A 
ATOM     81  F   UNL A   1      44.677  33.448  28.521  1.00  0.00    -0.206 F 
ATOM     82  C   UNL A   1      44.860  35.410  31.561  1.00  0.00     0.006 A 
ENDBRANCH  58  75
ENDBRANCH  32  33
ENDBRANCH  25  27
ENDBRANCH  24  25
ENDBRANCH  23  24
ENDBRANCH   1  23
TORSDOF 13
ENDMDL
MODEL 3
REMARK VINA RESULT:     -11.4      4.828      9.452
REMARK SMILES Cc1cc(F)c([C@@H](C)[N@@H+]2C[C@H](C)[C@H](C(=O)OCCOC(=O)c3ccc(-c4c5nc(c(-c6c(F)cccc6F)c6ccc([nH]6)c(-c6c(F)cccc6F)c6nc(c(-c7c(F)cccc7F)c7ccc4[nH]7)C=C6)C=C5)cc3)C2)cc1F
REMARK SMILES IDX 17 1 16 2 14 3 15 4 13 5 9 6 10 7 76 8 11 10 12 11 7 12 8 13
REMARK SMILES IDX 6 14 1 15 2 16 3 17 78 18 4 19 77 20 79 21 5 22 18 23 19 24
REMARK SMILES IDX 20 25 21 26 22 27 23 28 75 29 24 30 74 31 25 32 26 33 27 34
REMARK SMILES IDX 68 35 28 36 73 37 67 38 69 39 29 40 72 41 66 42 65 43 30 45
REMARK SMILES IDX 56 46 39 47 55 48 40 49 43 50 54 51 70 52 41 53 42 54 53 56
REMARK SMILES IDX 71 57 44 58 31 59 32 60 37 61 33 62 34 63 36 64 38 65 35 66
REMARK SMILES IDX 57 67 58 68 63 69 59 70 60 71 62 72 64 73 61 74 45 75 46 76
REMARK SMILES IDX 51 77 47 78 48 79 50 80 52 81 49 82
REMARK H PARENT 9 9 69 44 43 55
REMARK Flexibility Score: inf
ROOT
ATOM      1  C   UNL A   1      38.553  20.050  25.102  1.00  0.00     0.274 C 
ENDROOT
BRANCH   1   2
ATOM      2  O   UNL A   1      38.134  21.427  25.073  1.00  0.00    -0.462 OA
BRANCH   2   3
ATOM      3  C   UNL A   1      36.844  21.655  24.752  1.00  0.00     0.315 C 
ATOM      4  O   UNL A   1      36.481  22.197  23.709  1.00  0.00    -0.252 OA
BRANCH   3   5
ATOM      5  C   UNL A   1      35.838  21.143  25.761  1.00  0.00     0.162 C 
ATOM      6  N   UNL A   1      33.618  20.283  25.671  1.00  0.00    -0.328 N 
ATOM      7  C   UNL A   1      33.686  21.189  26.810  1.00  0.00     0.267 C 
ATOM      8  C   UNL A   1      34.932  20.140  25.073  1.00  0.00     0.278 C 
ATOM      9  H   UNL A   1      33.367  19.367  26.044  1.00  0.00     0.348 HD
ATOM     10  C   UNL A   1      34.965  22.020  26.659  1.00  0.00     0.061 C 
ATOM     11  C   UNL A   1      34.689  23.458  26.253  1.00  0.00     0.015 C 
BRANCH   6  12
ATOM     12  C   UNL A   1      32.461  20.377  24.781  1.00  0.00     0.215 C 
ATOM     13  C   UNL A   1      32.480  19.318  23.665  1.00  0.00     0.081 C 
BRANCH  12  14
ATOM     14  C   UNL A   1      32.154  21.761  24.231  1.00  0.00     0.048 A 
ATOM     15  C   UNL A   1      31.432  25.699  22.568  1.00  0.00     0.047 C 
ATOM     16  C   UNL A   1      31.672  24.332  23.125  1.00  0.00    -0.012 A 
ATOM     17  C   UNL A   1      31.006  23.918  24.280  1.00  0.00     0.046 A 
ATOM     18  C   UNL A   1      32.578  23.454  22.532  1.00  0.00     0.126 A 
ATOM     19  C   UNL A   1      31.259  22.658  24.827  1.00  0.00     0.132 A 
ATOM     20  C   UNL A   1      32.814  22.187  23.065  1.00  0.00     0.052 A 
ATOM     21  F   UNL A   1      33.250  23.821  21.433  1.00  0.00    -0.207 F 
ATOM     22  F   UNL A   1      30.594  22.333  25.942  1.00  0.00    -0.206 F 
ENDBRANCH  12  14
ENDBRANCH   6  12
ENDBRANCH   3   5
ENDBRANCH   2   3
ENDBRANCH   1   2
BRANCH   1  23
ATOM     23  C   UNL A   1      39.752  19.879  26.040  1.00  0.00     0.275 C 
BRANCH  23  24
ATOM     24  O   UNL A   1      40.804  19.110  25.427  1.00  0.00    -0.458 OA
BRANCH  24  25
ATOM     25  C   UNL A   1      41.967  19.048  26.117  1.00  0.00     0.338 C 
ATOM     26  O   UNL A   1      42.669  18.073  26.312  1.00  0.00    -0.246 OA
BRANCH  25  27
ATOM     27  C   UNL A   1      42.350  20.408  26.521  1.00  0.00     0.060 A 
ATOM     28  C   UNL A   1      42.281  20.798  27.854  1.00  0.00     0.016 A 
ATOM     29  C   UNL A   1      42.826  21.290  25.550  1.00  0.00     0.016 A 
ATOM     30  C   UNL A   1      42.655  22.097  28.198  1.00  0.00     0.010 A 
ATOM     31  C   UNL A   1      43.253  22.561  25.897  1.00  0.00     0.010 A 
ATOM     32  C   UNL A   1      43.135  22.987  27.220  1.00  0.00    -0.014 A 
BRANCH  32  33
ATOM     33  C   UNL A   1      43.501  24.376  27.563  1.00  0.00     0.031 A 
ATOM     34  C   UNL A   1      44.935  24.820  27.484  1.00  0.00     0.074 A 
ATOM     35  C   UNL A   1      42.539  25.219  27.974  1.00  0.00     0.049 A 
ATOM     36  N   UNL A   1      45.443  26.008  27.690  1.00  0.00    -0.248 NA
ATOM     37  C   UNL A   1      45.935  23.792  27.150  1.00  0.00     0.031 C 
ATOM     38  C   UNL A   1      41.129  24.865  28.156  1.00  0.00     0.029 A 
ATOM     39  N   UNL A   1      42.597  26.545  28.306  1.00  0.00    -0.354 N 
ATOM     40  C   UNL A   1      46.811  25.872  27.501  1.00  0.00     0.074 A 
ATOM     41  C   UNL A   1      47.067  24.474  27.235  1.00  0.00     0.031 C 
ATOM     42  C   UNL A   1      40.447  25.962  28.521  1.00  0.00     0.029 A 
ATOM     43  C   UNL A   1      41.375  27.081  28.629  1.00  0.00     0.049 A 
ATOM     44  H   UNL A   1      43.433  27.064  28.312  1.00  0.00     0.167 HD
ATOM     45  C   UNL A   1      47.765  26.833  27.515  1.00  0.00     0.037 A 
ATOM     46  C   UNL A   1      41.049  28.341  28.967  1.00  0.00     0.037 A 
ATOM     47  C   UNL A   1      47.497  28.220  27.790  1.00  0.00     0.049 A 
ATOM     48  C   UNL A   1      42.130  29.385  28.999  1.00  0.00     0.074 A 
ATOM     49  C   UNL A   1      48.376  29.289  27.790  1.00  0.00     0.029 A 
ATOM     50  N   UNL A   1      46.250  28.728  28.128  1.00  0.00    -0.354 N 
ATOM     51  N   UNL A   1      43.408  29.264  28.728  1.00  0.00    -0.248 NA
ATOM     52  C   UNL A   1      41.720  30.742  29.380  1.00  0.00     0.031 C 
ATOM     53  C   UNL A   1      47.669  30.433  28.176  1.00  0.00     0.029 A 
ATOM     54  C   UNL A   1      46.340  30.089  28.363  1.00  0.00     0.049 A 
ATOM     55  H   UNL A   1      45.423  28.196  28.191  1.00  0.00     0.167 HD
ATOM     56  C   UNL A   1      43.950  30.533  28.877  1.00  0.00     0.074 A 
ATOM     57  C   UNL A   1      42.857  31.411  29.244  1.00  0.00     0.031 C 
ATOM     58  C   UNL A   1      45.235  30.940  28.729  1.00  0.00     0.037 A 
BRANCH  45  59
ATOM     59  C   UNL A   1      49.176  26.411  27.221  1.00  0.00     0.057 A 
ATOM     60  C   UNL A   1      50.045  26.034  28.253  1.00  0.00     0.134 A 
ATOM     61  C   UNL A   1      49.685  26.391  25.914  1.00  0.00     0.134 A 
ATOM     62  F   UNL A   1      49.631  26.035  29.529  1.00  0.00    -0.206 F 
ATOM     63  C   UNL A   1      51.363  25.649  27.996  1.00  0.00     0.040 A 
ATOM     64  C   UNL A   1      50.990  25.980  25.641  1.00  0.00     0.040 A 
ATOM     65  F   UNL A   1      48.904  26.730  24.876  1.00  0.00    -0.206 F 
ATOM     66  C   UNL A   1      51.836  25.612  26.685  1.00  0.00     0.006 A 
ENDBRANCH  45  59
BRANCH  46  67
ATOM     67  C   UNL A   1      39.638  28.691  29.264  1.00  0.00     0.057 A 
ATOM     68  C   UNL A   1      38.779  29.168  28.268  1.00  0.00     0.134 A 
ATOM     69  C   UNL A   1      39.112  28.543  30.552  1.00  0.00     0.134 A 
ATOM     70  F   UNL A   1      39.225  29.344  27.015  1.00  0.00    -0.206 F 
ATOM     71  C   UNL A   1      37.447  29.484  28.541  1.00  0.00     0.040 A 
ATOM     72  C   UNL A   1      37.776  28.828  30.833  1.00  0.00     0.040 A 
ATOM     73  F   UNL A   1      39.884  28.079  31.547  1.00  0.00    -0.206 F 
ATOM     74  C   UNL A   1      36.940  29.303  29.826  1.00  0.00     0.006 A 
ENDBRANCH  46  67
BRANCH  58  75
ATOM     75  C   UNL A   1      45.510  32.400  28.932  1.00  0.00     0.057 A 
ATOM     76  C   UNL A   1      45.412  33.299  27.861  1.00  0.00     0.134 A 
ATOM     77  C   UNL A   1      45.883  32.918  30.179  1.00  0.00     0.134 A 
ATOM     78  F   UNL A   1      45.068  32.867  26.638  1.00  0.00    -0.206 F 
ATOM     79  C   UNL A   1      45.672  34.659  28.024  1.00  0.00     0.040 A 
ATOM     80  C   UNL A   1      46.116  34.282  30.362  1.00  0.00     0.040 A 
ATOM     81  F   UNL A   1      45.980  32.113  31.248  1.00  0.00    -0.206 F 
ATOM     82  C   UNL A   1      46.015  35.155  29.281  1.00  0.00     0.006 A 
ENDBRANCH  58  75
ENDBRANCH  32  33
ENDBRANCH  25  27
ENDBRANCH  24  25
ENDBRANCH  23  24
ENDBRANCH   1  23
TORSDOF 13
ENDMDL
