MODEL 1
REMARK VINA RESULT:     -11.5      0.000      0.000
REMARK SMILES CCc1cc(OC(F)(F)F)cc2c1O[C@@H](C(F)(F)F)C(C(=O)OCCOC(=O)c1ccc(-c3c4nc(c(-c5c(F)cccc5F)c5ccc([nH]5)c(-c5c(F)cccc5F)c5nc(c(-c6c(F)cccc6F)c6ccc3[nH]6)C=C5)C=C4)cc1)=C2
REMARK SMILES IDX 24 1 23 2 21 3 22 4 20 5 3 6 4 7 13 8 5 9 12 10 14 11 11 12
REMARK SMILES IDX 83 13 15 14 2 15 1 16 6 17 7 18 8 19 9 20 10 21 16 22 17 23
REMARK SMILES IDX 18 24 19 25 25 26 26 27 27 28 28 29 29 30 30 31 82 32 31 33
REMARK SMILES IDX 81 34 32 35 33 36 34 37 75 38 35 39 80 40 74 41 76 42 36 43
REMARK SMILES IDX 79 44 73 45 72 46 37 48 63 49 46 50 62 51 47 52 50 53 61 54
REMARK SMILES IDX 77 55 48 56 49 57 60 59 78 60 51 61 38 62 39 63 44 64 40 65
REMARK SMILES IDX 41 66 43 67 45 68 42 69 64 70 65 71 70 72 66 73 67 74 69 75
REMARK SMILES IDX 71 76 68 77 52 78 53 79 58 80 54 81 55 82 57 83 59 84 56 85
REMARK H PARENT 76 47 50 58
REMARK Flexibility Score: inf
ROOT
ATOM      1  C   UNL A   1      36.124  21.450  25.585  1.00  0.00     0.275 C 
ENDROOT
BRANCH   1   2
ATOM      2  O   UNL A   1      35.260  21.556  24.434  1.00  0.00    -0.459 OA
BRANCH   2   3
ATOM      3  C   UNL A   1      35.307  22.735  23.763  1.00  0.00     0.338 C 
ATOM      4  O   UNL A   1      36.042  22.982  22.822  1.00  0.00    -0.246 OA
BRANCH   3   5
ATOM      5  C   UNL A   1      34.300  23.695  24.269  1.00  0.00     0.087 C 
ATOM      6  C   UNL A   1      31.288  26.313  25.560  1.00  0.00    -0.002 A 
ATOM      7  C   UNL A   1      31.641  27.428  26.336  1.00  0.00     0.054 A 
ATOM      8  C   UNL A   1      32.319  25.498  25.058  1.00  0.00     0.131 A 
ATOM      9  C   UNL A   1      32.984  27.725  26.595  1.00  0.00     0.130 A 
ATOM     10  C   UNL A   1      33.662  25.747  25.357  1.00  0.00     0.021 A 
ATOM     11  O   UNL A   1      31.957  24.497  24.200  1.00  0.00    -0.475 OA
ATOM     12  C   UNL A   1      33.986  26.866  26.127  1.00  0.00     0.058 A 
ATOM     13  C   UNL A   1      34.693  24.849  24.838  1.00  0.00     0.027 C 
ATOM     14  C   UNL A   1      32.831  23.338  24.152  1.00  0.00     0.316 C 
BRANCH   6  15
ATOM     15  C   UNL A   1      29.848  25.922  25.283  1.00  0.00     0.036 C 
ATOM     16  C   UNL A   1      29.182  26.517  24.048  1.00  0.00     0.009 C 
ENDBRANCH   6  15
BRANCH   9  17
ATOM     17  O   UNL A   1      33.441  28.803  27.302  1.00  0.00    -0.406 OA
BRANCH  17  18
ATOM     18  C   UNL A   1      33.271  30.087  26.720  1.00  0.00     0.573 C 
ATOM     19  F   UNL A   1      34.231  30.945  27.128  1.00  0.00    -0.132 F 
ATOM     20  F   UNL A   1      33.278  30.009  25.373  1.00  0.00    -0.132 F 
ATOM     21  F   UNL A   1      32.075  30.584  27.106  1.00  0.00    -0.132 F 
ENDBRANCH  17  18
ENDBRANCH   9  17
BRANCH  14  22
ATOM     22  C   UNL A   1      32.372  22.481  22.956  1.00  0.00     0.430 C 
ATOM     23  F   UNL A   1      32.552  21.159  23.180  1.00  0.00    -0.167 F 
ATOM     24  F   UNL A   1      31.035  22.632  22.752  1.00  0.00    -0.167 F 
ATOM     25  F   UNL A   1      32.982  22.822  21.801  1.00  0.00    -0.167 F 
ENDBRANCH  14  22
ENDBRANCH   3   5
ENDBRANCH   2   3
ENDBRANCH   1   2
BRANCH   1  26
ATOM     26  C   UNL A   1      37.252  20.440  25.359  1.00  0.00     0.275 C 
BRANCH  26  27
ATOM     27  O   UNL A   1      38.510  21.102  25.127  1.00  0.00    -0.458 OA
BRANCH  27  28
ATOM     28  C   UNL A   1      39.456  20.858  26.065  1.00  0.00     0.338 C 
ATOM     29  O   UNL A   1      39.953  19.777  26.335  1.00  0.00    -0.246 OA
BRANCH  28  30
ATOM     30  C   UNL A   1      39.956  22.123  26.643  1.00  0.00     0.060 A 
ATOM     31  C   UNL A   1      39.414  23.305  26.127  1.00  0.00     0.016 A 
ATOM     32  C   UNL A   1      40.942  22.178  27.632  1.00  0.00     0.016 A 
ATOM     33  C   UNL A   1      39.816  24.541  26.623  1.00  0.00     0.010 A 
ATOM     34  C   UNL A   1      41.388  23.425  28.094  1.00  0.00     0.010 A 
ATOM     35  C   UNL A   1      40.828  24.610  27.587  1.00  0.00    -0.014 A 
BRANCH  35  36
ATOM     36  C   UNL A   1      41.397  25.938  27.916  1.00  0.00     0.031 A 
ATOM     37  C   UNL A   1      42.792  26.254  27.455  1.00  0.00     0.074 A 
ATOM     38  C   UNL A   1      40.663  26.874  28.542  1.00  0.00     0.049 A 
ATOM     39  N   UNL A   1      43.463  27.374  27.544  1.00  0.00    -0.248 NA
ATOM     40  C   UNL A   1      43.519  25.165  26.784  1.00  0.00     0.031 C 
ATOM     41  C   UNL A   1      39.280  26.711  28.986  1.00  0.00     0.029 A 
ATOM     42  N   UNL A   1      40.985  28.158  28.901  1.00  0.00    -0.354 N 
ATOM     43  C   UNL A   1      44.677  27.133  26.917  1.00  0.00     0.074 A 
ATOM     44  C   UNL A   1      44.664  25.755  26.477  1.00  0.00     0.031 C 
ATOM     45  C   UNL A   1      38.876  27.853  29.572  1.00  0.00     0.029 A 
ATOM     46  C   UNL A   1      39.974  28.817  29.555  1.00  0.00     0.049 A 
ATOM     47  H   UNL A   1      41.860  28.569  28.709  1.00  0.00     0.167 HD
ATOM     48  C   UNL A   1      45.710  27.984  26.722  1.00  0.00     0.037 A 
ATOM     49  C   UNL A   1      39.947  30.056  30.086  1.00  0.00     0.037 A 
ATOM     50  C   UNL A   1      45.751  29.338  27.203  1.00  0.00     0.049 A 
ATOM     51  C   UNL A   1      41.156  30.947  29.952  1.00  0.00     0.074 A 
ATOM     52  C   UNL A   1      46.770  30.267  27.086  1.00  0.00     0.029 A 
ATOM     53  N   UNL A   1      44.729  29.950  27.914  1.00  0.00    -0.354 N 
ATOM     54  N   UNL A   1      42.287  30.723  29.330  1.00  0.00    -0.248 NA
ATOM     55  C   UNL A   1      41.076  32.272  30.589  1.00  0.00     0.031 C 
ATOM     56  C   UNL A   1      46.382  31.428  27.764  1.00  0.00     0.029 A 
ATOM     57  C   UNL A   1      45.103  31.238  28.262  1.00  0.00     0.049 A 
ATOM     58  H   UNL A   1      43.866  29.532  28.137  1.00  0.00     0.167 HD
ATOM     59  C   UNL A   1      43.038  31.885  29.469  1.00  0.00     0.074 A 
ATOM     60  C   UNL A   1      42.231  32.815  30.231  1.00  0.00     0.031 C 
ATOM     61  C   UNL A   1      44.281  32.158  29.004  1.00  0.00     0.037 A 
BRANCH  48  62
ATOM     62  C   UNL A   1      46.899  27.449  25.982  1.00  0.00     0.057 A 
ATOM     63  C   UNL A   1      47.946  26.798  26.647  1.00  0.00     0.134 A 
ATOM     64  C   UNL A   1      46.995  27.584  24.592  1.00  0.00     0.134 A 
ATOM     65  F   UNL A   1      47.921  26.657  27.980  1.00  0.00    -0.206 F 
ATOM     66  C   UNL A   1      49.058  26.317  25.956  1.00  0.00     0.040 A 
ATOM     67  C   UNL A   1      48.093  27.088  23.887  1.00  0.00     0.040 A 
ATOM     68  F   UNL A   1      46.026  28.199  23.898  1.00  0.00    -0.206 F 
ATOM     69  C   UNL A   1      49.131  26.457  24.571  1.00  0.00     0.006 A 
ENDBRANCH  48  62
BRANCH  49  70
ATOM     70  C   UNL A   1      38.741  30.536  30.807  1.00  0.00     0.057 A 
ATOM     71  C   UNL A   1      37.749  31.277  30.156  1.00  0.00     0.134 A 
ATOM     72  C   UNL A   1      38.579  30.304  32.178  1.00  0.00     0.134 A 
ATOM     73  F   UNL A   1      37.863  31.556  28.850  1.00  0.00    -0.206 F 
ATOM     74  C   UNL A   1      36.649  31.791  30.847  1.00  0.00     0.040 A 
ATOM     75  C   UNL A   1      37.473  30.791  32.877  1.00  0.00     0.040 A 
ATOM     76  F   UNL A   1      39.499  29.606  32.862  1.00  0.00    -0.206 F 
ATOM     77  C   UNL A   1      36.508  31.545  32.211  1.00  0.00     0.006 A 
ENDBRANCH  49  70
BRANCH  61  78
ATOM     78  C   UNL A   1      44.830  33.532  29.259  1.00  0.00     0.057 A 
ATOM     79  C   UNL A   1      45.622  33.820  30.377  1.00  0.00     0.134 A 
ATOM     80  C   UNL A   1      44.601  34.568  28.344  1.00  0.00     0.134 A 
ATOM     81  F   UNL A   1      45.870  32.874  31.296  1.00  0.00    -0.206 F 
ATOM     82  C   UNL A   1      46.152  35.094  30.586  1.00  0.00     0.040 A 
ATOM     83  C   UNL A   1      45.145  35.839  28.529  1.00  0.00     0.040 A 
ATOM     84  F   UNL A   1      43.859  34.357  27.247  1.00  0.00    -0.206 F 
ATOM     85  C   UNL A   1      45.919  36.107  29.656  1.00  0.00     0.006 A 
ENDBRANCH  61  78
ENDBRANCH  35  36
ENDBRANCH  28  30
ENDBRANCH  27  28
ENDBRANCH  26  27
ENDBRANCH   1  26
TORSDOF 15
ENDMDL
MODEL 2
REMARK VINA RESULT:     -11.4      2.910      8.015
REMARK SMILES CCc1cc(OC(F)(F)F)cc2c1O[C@@H](C(F)(F)F)C(C(=O)OCCOC(=O)c1ccc(-c3c4nc(c(-c5c(F)cccc5F)c5ccc([nH]5)c(-c5c(F)cccc5F)c5nc(c(-c6c(F)cccc6F)c6ccc3[nH]6)C=C5)C=C4)cc1)=C2
REMARK SMILES IDX 24 1 23 2 21 3 22 4 20 5 3 6 4 7 13 8 5 9 12 10 14 11 11 12
REMARK SMILES IDX 83 13 15 14 2 15 1 16 6 17 7 18 8 19 9 20 10 21 16 22 17 23
REMARK SMILES IDX 18 24 19 25 25 26 26 27 27 28 28 29 29 30 30 31 82 32 31 33
REMARK SMILES IDX 81 34 32 35 33 36 34 37 75 38 35 39 80 40 74 41 76 42 36 43
REMARK SMILES IDX 79 44 73 45 72 46 37 48 63 49 46 50 62 51 47 52 50 53 61 54
REMARK SMILES IDX 77 55 48 56 49 57 60 59 78 60 51 61 38 62 39 63 44 64 40 65
REMARK SMILES IDX 41 66 43 67 45 68 42 69 64 70 65 71 70 72 66 73 67 74 69 75
REMARK SMILES IDX 71 76 68 77 52 78 53 79 58 80 54 81 55 82 57 83 59 84 56 85
REMARK H PARENT 76 47 50 58
REMARK Flexibility Score: inf
ROOT
ATOM      1  C   UNL A   1      34.395  33.436  30.322  1.00  0.00     0.275 C 
ENDROOT
BRANCH   1   2
ATOM      2  O   UNL A   1      34.415  32.170  29.628  1.00  0.00    -0.459 OA
BRANCH   2   3
ATOM      3  C   UNL A   1      34.711  32.224  28.304  1.00  0.00     0.338 C 
ATOM      4  O   UNL A   1      35.358  33.103  27.761  1.00  0.00    -0.246 OA
BRANCH   3   5
ATOM      5  C   UNL A   1      34.203  31.037  27.579  1.00  0.00     0.087 C 
ATOM      6  C   UNL A   1      32.976  27.571  25.560  1.00  0.00    -0.002 A 
ATOM      7  C   UNL A   1      31.766  27.591  24.847  1.00  0.00     0.054 A 
ATOM      8  C   UNL A   1      33.417  28.768  26.153  1.00  0.00     0.131 A 
ATOM      9  C   UNL A   1      31.026  28.771  24.723  1.00  0.00     0.130 A 
ATOM     10  C   UNL A   1      32.660  29.941  26.088  1.00  0.00     0.021 A 
ATOM     11  O   UNL A   1      34.658  28.755  26.729  1.00  0.00    -0.475 OA
ATOM     12  C   UNL A   1      31.464  29.935  25.369  1.00  0.00     0.058 A 
ATOM     13  C   UNL A   1      33.148  31.150  26.752  1.00  0.00     0.027 C 
ATOM     14  C   UNL A   1      34.880  29.699  27.809  1.00  0.00     0.316 C 
BRANCH   6  15
ATOM     15  C   UNL A   1      33.797  26.312  25.759  1.00  0.00     0.036 C 
ATOM     16  C   UNL A   1      33.051  25.033  26.119  1.00  0.00     0.009 C 
ENDBRANCH   6  15
BRANCH   9  17
ATOM     17  O   UNL A   1      29.861  28.912  24.021  1.00  0.00    -0.406 OA
BRANCH  17  18
ATOM     18  C   UNL A   1      29.936  29.529  22.744  1.00  0.00     0.573 C 
ATOM     19  F   UNL A   1      31.189  29.479  22.245  1.00  0.00    -0.132 F 
ATOM     20  F   UNL A   1      29.081  28.945  21.877  1.00  0.00    -0.132 F 
ATOM     21  F   UNL A   1      29.586  30.828  22.869  1.00  0.00    -0.132 F 
ENDBRANCH  17  18
ENDBRANCH   9  17
BRANCH  14  22
ATOM     22  C   UNL A   1      36.390  29.679  28.117  1.00  0.00     0.430 C 
ATOM     23  F   UNL A   1      37.020  30.776  27.637  1.00  0.00    -0.167 F 
ATOM     24  F   UNL A   1      36.598  29.705  29.462  1.00  0.00    -0.167 F 
ATOM     25  F   UNL A   1      37.008  28.574  27.649  1.00  0.00    -0.167 F 
ENDBRANCH  14  22
ENDBRANCH   3   5
ENDBRANCH   2   3
ENDBRANCH   1   2
BRANCH   1  26
ATOM     26  C   UNL A   1      34.577  33.260  31.832  1.00  0.00     0.275 C 
BRANCH  26  27
ATOM     27  O   UNL A   1      35.250  32.025  32.140  1.00  0.00    -0.458 OA
BRANCH  27  28
ATOM     28  C   UNL A   1      36.312  32.154  32.969  1.00  0.00     0.338 C 
ATOM     29  O   UNL A   1      36.281  32.451  34.153  1.00  0.00    -0.246 OA
BRANCH  28  30
ATOM     30  C   UNL A   1      37.555  31.726  32.295  1.00  0.00     0.060 A 
ATOM     31  C   UNL A   1      37.698  32.090  30.952  1.00  0.00     0.016 A 
ATOM     32  C   UNL A   1      38.546  30.965  32.923  1.00  0.00     0.016 A 
ATOM     33  C   UNL A   1      38.843  31.742  30.243  1.00  0.00     0.010 A 
ATOM     34  C   UNL A   1      39.676  30.566  32.194  1.00  0.00     0.010 A 
ATOM     35  C   UNL A   1      39.825  30.950  30.851  1.00  0.00    -0.014 A 
BRANCH  35  36
ATOM     36  C   UNL A   1      40.908  30.400  30.003  1.00  0.00     0.031 A 
ATOM     37  C   UNL A   1      42.088  31.276  29.689  1.00  0.00     0.074 A 
ATOM     38  C   UNL A   1      40.885  29.122  29.587  1.00  0.00     0.049 A 
ATOM     39  N   UNL A   1      43.190  30.987  29.048  1.00  0.00    -0.248 NA
ATOM     40  C   UNL A   1      42.020  32.660  30.182  1.00  0.00     0.031 C 
ATOM     41  C   UNL A   1      39.828  28.155  29.876  1.00  0.00     0.029 A 
ATOM     42  N   UNL A   1      41.793  28.418  28.836  1.00  0.00    -0.354 N 
ATOM     43  C   UNL A   1      43.960  32.141  29.086  1.00  0.00     0.074 A 
ATOM     44  C   UNL A   1      43.188  33.144  29.787  1.00  0.00     0.031 C 
ATOM     45  C   UNL A   1      40.143  26.982  29.295  1.00  0.00     0.029 A 
ATOM     46  C   UNL A   1      41.414  27.123  28.585  1.00  0.00     0.049 A 
ATOM     47  H   UNL A   1      42.636  28.806  28.506  1.00  0.00     0.167 HD
ATOM     48  C   UNL A   1      45.199  32.347  28.586  1.00  0.00     0.037 A 
ATOM     49  C   UNL A   1      42.023  26.166  27.858  1.00  0.00     0.037 A 
ATOM     50  C   UNL A   1      45.949  31.371  27.843  1.00  0.00     0.049 A 
ATOM     51  C   UNL A   1      43.356  26.458  27.215  1.00  0.00     0.074 A 
ATOM     52  C   UNL A   1      47.200  31.500  27.264  1.00  0.00     0.029 A 
ATOM     53  N   UNL A   1      45.505  30.089  27.560  1.00  0.00    -0.354 N 
ATOM     54  N   UNL A   1      44.090  27.542  27.283  1.00  0.00    -0.248 NA
ATOM     55  C   UNL A   1      43.948  25.385  26.400  1.00  0.00     0.031 C 
ATOM     56  C   UNL A   1      47.494  30.308  26.593  1.00  0.00     0.029 A 
ATOM     57  C   UNL A   1      46.448  29.422  26.795  1.00  0.00     0.049 A 
ATOM     58  H   UNL A   1      44.648  29.708  27.859  1.00  0.00     0.167 HD
ATOM     59  C   UNL A   1      45.242  27.271  26.553  1.00  0.00     0.074 A 
ATOM     60  C   UNL A   1      45.112  25.918  26.055  1.00  0.00     0.031 C 
ATOM     61  C   UNL A   1      46.312  28.069  26.321  1.00  0.00     0.037 A 
BRANCH  48  62
ATOM     62  C   UNL A   1      45.800  33.703  28.801  1.00  0.00     0.057 A 
ATOM     63  C   UNL A   1      46.571  33.994  29.933  1.00  0.00     0.134 A 
ATOM     64  C   UNL A   1      45.609  34.727  27.865  1.00  0.00     0.134 A 
ATOM     65  F   UNL A   1      46.773  33.061  30.876  1.00  0.00    -0.206 F 
ATOM     66  C   UNL A   1      47.115  35.263  30.137  1.00  0.00     0.040 A 
ATOM     67  C   UNL A   1      46.164  35.994  28.048  1.00  0.00     0.040 A 
ATOM     68  F   UNL A   1      44.878  34.511  26.760  1.00  0.00    -0.206 F 
ATOM     69  C   UNL A   1      46.915  36.265  29.190  1.00  0.00     0.006 A 
ENDBRANCH  48  62
BRANCH  49  70
ATOM     70  C   UNL A   1      41.383  24.838  27.680  1.00  0.00     0.057 A 
ATOM     71  C   UNL A   1      41.818  23.718  28.396  1.00  0.00     0.134 A 
ATOM     72  C   UNL A   1      40.353  24.651  26.750  1.00  0.00     0.134 A 
ATOM     73  F   UNL A   1      42.820  23.828  29.280  1.00  0.00    -0.206 F 
ATOM     74  C   UNL A   1      41.266  22.453  28.179  1.00  0.00     0.040 A 
ATOM     75  C   UNL A   1      39.777  23.398  26.540  1.00  0.00     0.040 A 
ATOM     76  F   UNL A   1      39.897  25.684  26.026  1.00  0.00    -0.206 F 
ATOM     77  C   UNL A   1      40.240  22.292  27.251  1.00  0.00     0.006 A 
ENDBRANCH  49  70
BRANCH  61  78
ATOM     78  C   UNL A   1      47.452  27.488  25.536  1.00  0.00     0.057 A 
ATOM     79  C   UNL A   1      48.506  26.803  26.153  1.00  0.00     0.134 A 
ATOM     80  C   UNL A   1      47.467  27.573  24.138  1.00  0.00     0.134 A 
ATOM     81  F   UNL A   1      48.556  26.695  27.490  1.00  0.00    -0.206 F 
ATOM     82  C   UNL A   1      49.545  26.240  25.409  1.00  0.00     0.040 A 
ATOM     83  C   UNL A   1      48.487  26.994  23.382  1.00  0.00     0.040 A 
ATOM     84  F   UNL A   1      46.483  28.207  23.484  1.00  0.00    -0.206 F 
ATOM     85  C   UNL A   1      49.533  26.329  24.018  1.00  0.00     0.006 A 
ENDBRANCH  61  78
ENDBRANCH  35  36
ENDBRANCH  28  30
ENDBRANCH  27  28
ENDBRANCH  26  27
ENDBRANCH   1  26
TORSDOF 15
ENDMDL
MODEL 3
REMARK VINA RESULT:     -11.4      3.759      8.860
REMARK SMILES CCc1cc(OC(F)(F)F)cc2c1O[C@@H](C(F)(F)F)C(C(=O)OCCOC(=O)c1ccc(-c3c4nc(c(-c5c(F)cccc5F)c5ccc([nH]5)c(-c5c(F)cccc5F)c5nc(c(-c6c(F)cccc6F)c6ccc3[nH]6)C=C5)C=C4)cc1)=C2
REMARK SMILES IDX 24 1 23 2 21 3 22 4 20 5 3 6 4 7 13 8 5 9 12 10 14 11 11 12
REMARK SMILES IDX 83 13 15 14 2 15 1 16 6 17 7 18 8 19 9 20 10 21 16 22 17 23
REMARK SMILES IDX 18 24 19 25 25 26 26 27 27 28 28 29 29 30 30 31 82 32 31 33
REMARK SMILES IDX 81 34 32 35 33 36 34 37 75 38 35 39 80 40 74 41 76 42 36 43
REMARK SMILES IDX 79 44 73 45 72 46 37 48 63 49 46 50 62 51 47 52 50 53 61 54
REMARK SMILES IDX 77 55 48 56 49 57 60 59 78 60 51 61 38 62 39 63 44 64 40 65
REMARK SMILES IDX 41 66 43 67 45 68 42 69 64 70 65 71 70 72 66 73 67 74 69 75
REMARK SMILES IDX 71 76 68 77 52 78 53 79 58 80 54 81 55 82 57 83 59 84 56 85
REMARK H PARENT 76 47 50 58
REMARK Flexibility Score: inf
ROOT
ATOM      1  C   UNL A   1      32.405  29.703  25.378  1.00  0.00     0.275 C 
ENDROOT
BRANCH   1   2
ATOM      2  O   UNL A   1      31.386  28.680  25.360  1.00  0.00    -0.459 OA
BRANCH   2   3
ATOM      3  C   UNL A   1      31.604  27.611  26.167  1.00  0.00     0.338 C 
ATOM      4  O   UNL A   1      31.280  27.534  27.340  1.00  0.00    -0.246 OA
BRANCH   3   5
ATOM      5  C   UNL A   1      32.242  26.492  25.436  1.00  0.00     0.087 C 
ATOM      6  C   UNL A   1      33.833  23.265  23.281  1.00  0.00    -0.002 A 
ATOM      7  C   UNL A   1      35.160  22.876  23.519  1.00  0.00     0.054 A 
ATOM      8  C   UNL A   1      33.287  24.287  24.078  1.00  0.00     0.131 A 
ATOM      9  C   UNL A   1      35.916  23.482  24.528  1.00  0.00     0.130 A 
ATOM     10  C   UNL A   1      34.046  24.944  25.050  1.00  0.00     0.021 A 
ATOM     11  O   UNL A   1      31.956  24.558  23.914  1.00  0.00    -0.475 OA
ATOM     12  C   UNL A   1      35.363  24.534  25.270  1.00  0.00     0.058 A 
ATOM     13  C   UNL A   1      33.441  26.025  25.828  1.00  0.00     0.027 C 
ATOM     14  C   UNL A   1      31.527  25.908  24.232  1.00  0.00     0.316 C 
BRANCH   6  15
ATOM     15  C   UNL A   1      32.983  22.669  22.175  1.00  0.00     0.036 C 
ATOM     16  C   UNL A   1      32.142  21.444  22.514  1.00  0.00     0.009 C 
ENDBRANCH   6  15
BRANCH   9  17
ATOM     17  O   UNL A   1      37.198  23.155  24.872  1.00  0.00    -0.406 OA
BRANCH  17  18
ATOM     18  C   UNL A   1      37.427  21.850  25.384  1.00  0.00     0.573 C 
ATOM     19  F   UNL A   1      38.507  21.820  26.194  1.00  0.00    -0.132 F 
ATOM     20  F   UNL A   1      36.345  21.402  26.056  1.00  0.00    -0.132 F 
ATOM     21  F   UNL A   1      37.656  21.012  24.350  1.00  0.00    -0.132 F 
ENDBRANCH  17  18
ENDBRANCH   9  17
BRANCH  14  22
ATOM     22  C   UNL A   1      29.985  25.901  24.221  1.00  0.00     0.430 C 
ATOM     23  F   UNL A   1      29.469  25.860  25.471  1.00  0.00    -0.167 F 
ATOM     24  F   UNL A   1      29.512  27.055  23.675  1.00  0.00    -0.167 F 
ATOM     25  F   UNL A   1      29.469  24.887  23.495  1.00  0.00    -0.167 F 
ENDBRANCH  14  22
ENDBRANCH   3   5
ENDBRANCH   2   3
ENDBRANCH   1   2
BRANCH   1  26
ATOM     26  C   UNL A   1      31.912  30.985  26.055  1.00  0.00     0.275 C 
BRANCH  26  27
ATOM     27  O   UNL A   1      32.507  31.155  27.355  1.00  0.00    -0.458 OA
BRANCH  27  28
ATOM     28  C   UNL A   1      33.351  32.209  27.454  1.00  0.00     0.338 C 
ATOM     29  O   UNL A   1      33.068  33.387  27.303  1.00  0.00    -0.246 OA
BRANCH  28  30
ATOM     30  C   UNL A   1      34.676  31.772  27.942  1.00  0.00     0.060 A 
ATOM     31  C   UNL A   1      34.794  30.431  28.319  1.00  0.00     0.016 A 
ATOM     32  C   UNL A   1      35.770  32.633  28.065  1.00  0.00     0.016 A 
ATOM     33  C   UNL A   1      36.009  29.929  28.775  1.00  0.00     0.010 A 
ATOM     34  C   UNL A   1      36.981  32.142  28.578  1.00  0.00     0.010 A 
ATOM     35  C   UNL A   1      37.101  30.789  28.938  1.00  0.00    -0.014 A 
BRANCH  35  36
ATOM     36  C   UNL A   1      38.298  30.280  29.647  1.00  0.00     0.031 A 
ATOM     37  C   UNL A   1      38.545  30.738  31.057  1.00  0.00     0.074 A 
ATOM     38  C   UNL A   1      39.106  29.368  29.081  1.00  0.00     0.049 A 
ATOM     39  N   UNL A   1      39.468  30.362  31.903  1.00  0.00    -0.248 NA
ATOM     40  C   UNL A   1      37.610  31.742  31.588  1.00  0.00     0.031 C 
ATOM     41  C   UNL A   1      38.940  28.800  27.745  1.00  0.00     0.029 A 
ATOM     42  N   UNL A   1      40.229  28.751  29.574  1.00  0.00    -0.354 N 
ATOM     43  C   UNL A   1      39.209  31.060  33.074  1.00  0.00     0.074 A 
ATOM     44  C   UNL A   1      38.061  31.903  32.823  1.00  0.00     0.031 C 
ATOM     45  C   UNL A   1      39.937  27.924  27.519  1.00  0.00     0.029 A 
ATOM     46  C   UNL A   1      40.815  27.882  28.688  1.00  0.00     0.049 A 
ATOM     47  H   UNL A   1      40.582  28.918  30.479  1.00  0.00     0.167 HD
ATOM     48  C   UNL A   1      39.866  31.001  34.255  1.00  0.00     0.037 A 
ATOM     49  C   UNL A   1      41.937  27.146  28.809  1.00  0.00     0.037 A 
ATOM     50  C   UNL A   1      41.038  30.205  34.495  1.00  0.00     0.049 A 
ATOM     51  C   UNL A   1      42.714  27.184  30.100  1.00  0.00     0.074 A 
ATOM     52  C   UNL A   1      41.796  30.108  35.650  1.00  0.00     0.029 A 
ATOM     53  N   UNL A   1      41.636  29.383  33.552  1.00  0.00    -0.354 N 
ATOM     54  N   UNL A   1      42.445  27.822  31.212  1.00  0.00    -0.248 NA
ATOM     55  C   UNL A   1      43.952  26.389  30.152  1.00  0.00     0.031 C 
ATOM     56  C   UNL A   1      42.878  29.259  35.391  1.00  0.00     0.029 A 
ATOM     57  C   UNL A   1      42.766  28.791  34.092  1.00  0.00     0.049 A 
ATOM     58  H   UNL A   1      41.305  29.240  32.636  1.00  0.00     0.167 HD
ATOM     59  C   UNL A   1      43.454  27.479  32.105  1.00  0.00     0.074 A 
ATOM     60  C   UNL A   1      44.340  26.573  31.406  1.00  0.00     0.031 C 
ATOM     61  C   UNL A   1      43.628  27.876  33.389  1.00  0.00     0.037 A 
BRANCH  48  62
ATOM     62  C   UNL A   1      39.341  31.859  35.366  1.00  0.00     0.057 A 
ATOM     63  C   UNL A   1      39.742  33.192  35.518  1.00  0.00     0.134 A 
ATOM     64  C   UNL A   1      38.422  31.348  36.291  1.00  0.00     0.134 A 
ATOM     65  F   UNL A   1      40.635  33.733  34.675  1.00  0.00    -0.206 F 
ATOM     66  C   UNL A   1      39.263  33.982  36.563  1.00  0.00     0.040 A 
ATOM     67  C   UNL A   1      37.921  32.134  37.330  1.00  0.00     0.040 A 
ATOM     68  F   UNL A   1      38.001  30.077  36.201  1.00  0.00    -0.206 F 
ATOM     69  C   UNL A   1      38.346  33.454  37.470  1.00  0.00     0.006 A 
ENDBRANCH  48  62
BRANCH  49  70
ATOM     70  C   UNL A   1      42.410  26.311  27.676  1.00  0.00     0.057 A 
ATOM     71  C   UNL A   1      43.260  26.829  26.693  1.00  0.00     0.134 A 
ATOM     72  C   UNL A   1      41.981  24.987  27.524  1.00  0.00     0.134 A 
ATOM     73  F   UNL A   1      43.682  28.100  26.768  1.00  0.00    -0.206 F 
ATOM     74  C   UNL A   1      43.650  26.069  25.589  1.00  0.00     0.040 A 
ATOM     75  C   UNL A   1      42.382  24.207  26.439  1.00  0.00     0.040 A 
ATOM     76  F   UNL A   1      41.159  24.433  28.429  1.00  0.00    -0.206 F 
ATOM     77  C   UNL A   1      43.213  24.752  25.461  1.00  0.00     0.006 A 
ENDBRANCH  49  70
BRANCH  61  78
ATOM     78  C   UNL A   1      44.790  27.297  34.141  1.00  0.00     0.057 A 
ATOM     79  C   UNL A   1      44.690  26.093  34.850  1.00  0.00     0.134 A 
ATOM     80  C   UNL A   1      46.040  27.929  34.113  1.00  0.00     0.134 A 
ATOM     81  F   UNL A   1      43.519  25.443  34.925  1.00  0.00    -0.206 F 
ATOM     82  C   UNL A   1      45.788  25.549  35.521  1.00  0.00     0.040 A 
ATOM     83  C   UNL A   1      47.150  27.382  34.759  1.00  0.00     0.040 A 
ATOM     84  F   UNL A   1      46.207  29.079  33.445  1.00  0.00    -0.206 F 
ATOM     85  C   UNL A   1      47.024  26.191  35.470  1.00  0.00     0.006 A 
ENDBRANCH  61  78
ENDBRANCH  35  36
ENDBRANCH  28  30
ENDBRANCH  27  28
ENDBRANCH  26  27
ENDBRANCH   1  26
TORSDOF 15
ENDMDL
