MODEL 1
REMARK VINA RESULT:     -11.4      0.000      0.000
REMARK SMILES O=C(OCCOC(=O)C(Cl)(c1ccccc1)c1ccccc1)c1ccc(-c2c3nc(c(-c4c(F)cccc4F)c4ccc([nH]4)c(-c4c(F)cccc4F)c4nc(c(-c5c(F)cccc5F)c5ccc2[nH]5)C=C4)C=C3)cc1
REMARK SMILES IDX 4 1 3 2 2 3 1 4 23 5 24 6 76 7 25 8 75 9 26 10 27 11 28 12
REMARK SMILES IDX 69 13 29 14 74 15 68 16 70 17 30 18 73 19 67 20 66 21 31 23
REMARK SMILES IDX 57 24 40 25 56 26 41 27 44 28 55 29 71 30 42 31 43 32 54 34
REMARK SMILES IDX 72 35 45 36 32 37 33 38 38 39 34 40 35 41 37 42 39 43 36 44
REMARK SMILES IDX 58 45 59 46 64 47 60 48 61 49 63 50 65 51 62 52 46 53 47 54
REMARK SMILES IDX 52 55 48 56 49 57 51 58 53 59 50 60 5 61 6 62 7 63 8 64 9 65
REMARK SMILES IDX 10 66 11 67 12 68 16 69 13 70 15 71 14 72 17 73 18 74 22 75
REMARK SMILES IDX 19 76 21 77 20 78
REMARK H PARENT 70 22 44 33
REMARK Flexibility Score: inf
ROOT
ATOM      1  C   UNL A   1      31.331  32.016  26.683  1.00  0.00     0.275 C 
ENDROOT
BRANCH   1   2
ATOM      2  O   UNL A   1      32.288  33.083  26.712  1.00  0.00    -0.458 OA
BRANCH   2   3
ATOM      3  C   UNL A   1      32.971  33.543  27.788  1.00  0.00     0.338 C 
ATOM      4  O   UNL A   1      32.607  34.591  28.322  1.00  0.00    -0.246 OA
BRANCH   3   5
ATOM      5  C   UNL A   1      34.289  32.967  28.205  1.00  0.00     0.060 A 
ATOM      6  C   UNL A   1      35.532  33.607  28.160  1.00  0.00     0.016 A 
ATOM      7  C   UNL A   1      34.240  31.664  28.731  1.00  0.00     0.016 A 
ATOM      8  C   UNL A   1      36.669  33.024  28.737  1.00  0.00     0.010 A 
ATOM      9  C   UNL A   1      35.365  31.090  29.330  1.00  0.00     0.010 A 
ATOM     10  C   UNL A   1      36.588  31.781  29.365  1.00  0.00    -0.014 A 
BRANCH  10  11
ATOM     11  C   UNL A   1      37.787  31.147  29.966  1.00  0.00     0.031 A 
ATOM     12  C   UNL A   1      38.152  31.531  31.369  1.00  0.00     0.074 A 
ATOM     13  C   UNL A   1      38.553  30.268  29.285  1.00  0.00     0.049 A 
ATOM     14  N   UNL A   1      39.170  31.156  32.098  1.00  0.00    -0.248 NA
ATOM     15  C   UNL A   1      37.249  32.484  32.037  1.00  0.00     0.031 C 
ATOM     16  C   UNL A   1      38.317  29.803  27.917  1.00  0.00     0.029 A 
ATOM     17  N   UNL A   1      39.709  29.620  29.654  1.00  0.00    -0.354 N 
ATOM     18  C   UNL A   1      39.009  31.808  33.311  1.00  0.00     0.074 A 
ATOM     19  C   UNL A   1      37.880  32.699  33.177  1.00  0.00     0.031 C 
ATOM     20  C   UNL A   1      39.313  28.975  27.552  1.00  0.00     0.029 A 
ATOM     21  C   UNL A   1      40.261  28.855  28.653  1.00  0.00     0.049 A 
ATOM     22  H   UNL A   1      40.104  29.698  30.552  1.00  0.00     0.167 HD
ATOM     23  C   UNL A   1      39.688  31.628  34.467  1.00  0.00     0.037 A 
ATOM     24  C   UNL A   1      41.406  28.144  28.631  1.00  0.00     0.037 A 
ATOM     25  C   UNL A   1      40.802  30.739  34.609  1.00  0.00     0.049 A 
ATOM     26  C   UNL A   1      42.230  28.054  29.888  1.00  0.00     0.074 A 
ATOM     27  C   UNL A   1      41.545  30.453  35.738  1.00  0.00     0.029 A 
ATOM     28  N   UNL A   1      41.340  29.995  33.568  1.00  0.00    -0.354 N 
ATOM     29  N   UNL A   1      42.015  28.604  31.059  1.00  0.00    -0.248 NA
ATOM     30  C   UNL A   1      43.439  27.218  29.834  1.00  0.00     0.031 C 
ATOM     31  C   UNL A   1      42.552  29.553  35.374  1.00  0.00     0.029 A 
ATOM     32  C   UNL A   1      42.415  29.255  34.026  1.00  0.00     0.049 A 
ATOM     33  H   UNL A   1      41.006  29.993  32.643  1.00  0.00     0.167 HD
ATOM     34  C   UNL A   1      43.017  28.130  31.895  1.00  0.00     0.074 A 
ATOM     35  C   UNL A   1      43.857  27.266  31.092  1.00  0.00     0.031 C 
ATOM     36  C   UNL A   1      43.213  28.372  33.214  1.00  0.00     0.037 A 
BRANCH  23  37
ATOM     37  C   UNL A   1      39.180  32.397  35.647  1.00  0.00     0.057 A 
ATOM     38  C   UNL A   1      39.633  33.700  35.909  1.00  0.00     0.134 A 
ATOM     39  C   UNL A   1      38.325  31.807  36.582  1.00  0.00     0.134 A 
ATOM     40  F   UNL A   1      40.482  34.308  35.064  1.00  0.00    -0.206 F 
ATOM     41  C   UNL A   1      39.300  34.364  37.089  1.00  0.00     0.040 A 
ATOM     42  C   UNL A   1      37.963  32.474  37.753  1.00  0.00     0.040 A 
ATOM     43  F   UNL A   1      37.862  30.563  36.392  1.00  0.00    -0.206 F 
ATOM     44  C   UNL A   1      38.463  33.749  38.016  1.00  0.00     0.006 A 
ENDBRANCH  23  37
BRANCH  24  45
ATOM     45  C   UNL A   1      41.844  27.438  27.398  1.00  0.00     0.057 A 
ATOM     46  C   UNL A   1      41.600  26.072  27.212  1.00  0.00     0.134 A 
ATOM     47  C   UNL A   1      42.581  28.099  26.407  1.00  0.00     0.134 A 
ATOM     48  F   UNL A   1      40.923  25.377  28.137  1.00  0.00    -0.206 F 
ATOM     49  C   UNL A   1      42.096  25.382  26.102  1.00  0.00     0.040 A 
ATOM     50  C   UNL A   1      43.069  27.425  25.285  1.00  0.00     0.040 A 
ATOM     51  F   UNL A   1      42.852  29.407  26.523  1.00  0.00    -0.206 F 
ATOM     52  C   UNL A   1      42.835  26.060  25.134  1.00  0.00     0.006 A 
ENDBRANCH  24  45
BRANCH  36  53
ATOM     53  C   UNL A   1      44.322  27.631  33.895  1.00  0.00     0.057 A 
ATOM     54  C   UNL A   1      45.612  28.159  34.005  1.00  0.00     0.134 A 
ATOM     55  C   UNL A   1      44.068  26.398  34.510  1.00  0.00     0.134 A 
ATOM     56  F   UNL A   1      45.921  29.328  33.423  1.00  0.00    -0.206 F 
ATOM     57  C   UNL A   1      46.616  27.482  34.698  1.00  0.00     0.040 A 
ATOM     58  C   UNL A   1      45.056  25.724  35.227  1.00  0.00     0.040 A 
ATOM     59  F   UNL A   1      42.848  25.842  34.444  1.00  0.00    -0.206 F 
ATOM     60  C   UNL A   1      46.335  26.266  35.321  1.00  0.00     0.006 A 
ENDBRANCH  36  53
ENDBRANCH  10  11
ENDBRANCH   3   5
ENDBRANCH   2   3
ENDBRANCH   1   2
BRANCH   1  61
ATOM     61  C   UNL A   1      31.943  30.653  26.346  1.00  0.00     0.274 C 
BRANCH  61  62
ATOM     62  O   UNL A   1      31.327  29.999  25.221  1.00  0.00    -0.460 OA
BRANCH  62  63
ATOM     63  C   UNL A   1      32.139  29.190  24.459  1.00  0.00     0.336 C 
ATOM     64  O   UNL A   1      33.358  29.337  24.413  1.00  0.00    -0.249 OA
BRANCH  63  65
ATOM     65  C   UNL A   1      31.353  28.176  23.568  1.00  0.00     0.191 C 
ATOM     66  Cl  UNL A   1      32.419  27.727  22.171  1.00  0.00    -0.096 Cl
BRANCH  65  67
ATOM     67  C   UNL A   1      31.082  26.821  24.270  1.00  0.00    -0.011 A 
ATOM     68  C   UNL A   1      30.900  25.647  23.498  1.00  0.00     0.006 A 
ATOM     69  C   UNL A   1      31.021  26.691  25.667  1.00  0.00     0.006 A 
ATOM     70  C   UNL A   1      30.733  24.398  24.090  1.00  0.00     0.000 A 
ATOM     71  C   UNL A   1      30.839  25.436  26.259  1.00  0.00     0.000 A 
ATOM     72  C   UNL A   1      30.708  24.291  25.475  1.00  0.00     0.000 A 
ENDBRANCH  65  67
BRANCH  65  73
ATOM     73  C   UNL A   1      30.102  28.844  22.957  1.00  0.00    -0.011 A 
ATOM     74  C   UNL A   1      30.210  29.878  22.014  1.00  0.00     0.006 A 
ATOM     75  C   UNL A   1      28.800  28.432  23.329  1.00  0.00     0.006 A 
ATOM     76  C   UNL A   1      29.073  30.533  21.536  1.00  0.00     0.000 A 
ATOM     77  C   UNL A   1      27.667  29.098  22.861  1.00  0.00     0.000 A 
ATOM     78  C   UNL A   1      27.805  30.158  21.974  1.00  0.00     0.000 A 
ENDBRANCH  65  73
ENDBRANCH  63  65
ENDBRANCH  62  63
ENDBRANCH  61  62
ENDBRANCH   1  61
TORSDOF 13
ENDMDL
MODEL 2
REMARK VINA RESULT:     -11.2      1.145      2.522
REMARK SMILES O=C(OCCOC(=O)C(Cl)(c1ccccc1)c1ccccc1)c1ccc(-c2c3nc(c(-c4c(F)cccc4F)c4ccc([nH]4)c(-c4c(F)cccc4F)c4nc(c(-c5c(F)cccc5F)c5ccc2[nH]5)C=C4)C=C3)cc1
REMARK SMILES IDX 4 1 3 2 2 3 1 4 23 5 24 6 76 7 25 8 75 9 26 10 27 11 28 12
REMARK SMILES IDX 69 13 29 14 74 15 68 16 70 17 30 18 73 19 67 20 66 21 31 23
REMARK SMILES IDX 57 24 40 25 56 26 41 27 44 28 55 29 71 30 42 31 43 32 54 34
REMARK SMILES IDX 72 35 45 36 32 37 33 38 38 39 34 40 35 41 37 42 39 43 36 44
REMARK SMILES IDX 58 45 59 46 64 47 60 48 61 49 63 50 65 51 62 52 46 53 47 54
REMARK SMILES IDX 52 55 48 56 49 57 51 58 53 59 50 60 5 61 6 62 7 63 8 64 9 65
REMARK SMILES IDX 10 66 11 67 12 68 16 69 13 70 15 71 14 72 17 73 18 74 22 75
REMARK SMILES IDX 19 76 21 77 20 78
REMARK H PARENT 70 22 44 33
REMARK Flexibility Score: inf
ROOT
ATOM      1  C   UNL A   1      31.493  32.041  27.169  1.00  0.00     0.275 C 
ENDROOT
BRANCH   1   2
ATOM      2  O   UNL A   1      32.055  33.361  27.121  1.00  0.00    -0.458 OA
BRANCH   2   3
ATOM      3  C   UNL A   1      32.910  33.920  28.011  1.00  0.00     0.338 C 
ATOM      4  O   UNL A   1      32.724  35.084  28.366  1.00  0.00    -0.246 OA
BRANCH   3   5
ATOM      5  C   UNL A   1      34.204  33.272  28.391  1.00  0.00     0.060 A 
ATOM      6  C   UNL A   1      35.489  33.794  28.203  1.00  0.00     0.016 A 
ATOM      7  C   UNL A   1      34.090  32.030  29.041  1.00  0.00     0.016 A 
ATOM      8  C   UNL A   1      36.615  33.169  28.756  1.00  0.00     0.010 A 
ATOM      9  C   UNL A   1      35.208  31.416  29.616  1.00  0.00     0.010 A 
ATOM     10  C   UNL A   1      36.481  31.998  29.504  1.00  0.00    -0.014 A 
BRANCH  10  11
ATOM     11  C   UNL A   1      37.667  31.319  30.081  1.00  0.00     0.031 A 
ATOM     12  C   UNL A   1      38.058  31.669  31.485  1.00  0.00     0.074 A 
ATOM     13  C   UNL A   1      38.398  30.428  29.377  1.00  0.00     0.049 A 
ATOM     14  N   UNL A   1      39.073  31.252  32.196  1.00  0.00    -0.248 NA
ATOM     15  C   UNL A   1      37.193  32.638  32.179  1.00  0.00     0.031 C 
ATOM     16  C   UNL A   1      38.133  29.992  28.006  1.00  0.00     0.029 A 
ATOM     17  N   UNL A   1      39.537  29.740  29.723  1.00  0.00    -0.354 N 
ATOM     18  C   UNL A   1      38.945  31.889  33.421  1.00  0.00     0.074 A 
ATOM     19  C   UNL A   1      37.842  32.816  33.314  1.00  0.00     0.031 C 
ATOM     20  C   UNL A   1      39.099  29.140  27.616  1.00  0.00     0.029 A 
ATOM     21  C   UNL A   1      40.055  28.973  28.704  1.00  0.00     0.049 A 
ATOM     22  H   UNL A   1      39.945  29.791  30.618  1.00  0.00     0.167 HD
ATOM     23  C   UNL A   1      39.630  31.671  34.566  1.00  0.00     0.037 A 
ATOM     24  C   UNL A   1      41.177  28.229  28.658  1.00  0.00     0.037 A 
ATOM     25  C   UNL A   1      40.719  30.746  34.682  1.00  0.00     0.049 A 
ATOM     26  C   UNL A   1      42.012  28.094  29.905  1.00  0.00     0.074 A 
ATOM     27  C   UNL A   1      41.464  30.419  35.798  1.00  0.00     0.029 A 
ATOM     28  N   UNL A   1      41.222  30.002  33.624  1.00  0.00    -0.354 N 
ATOM     29  N   UNL A   1      41.827  28.632  31.086  1.00  0.00    -0.248 NA
ATOM     30  C   UNL A   1      43.195  27.222  29.823  1.00  0.00     0.031 C 
ATOM     31  C   UNL A   1      42.440  29.496  35.409  1.00  0.00     0.029 A 
ATOM     32  C   UNL A   1      42.278  29.223  34.058  1.00  0.00     0.049 A 
ATOM     33  H   UNL A   1      40.878  30.025  32.703  1.00  0.00     0.167 HD
ATOM     34  C   UNL A   1      42.823  28.114  31.903  1.00  0.00     0.074 A 
ATOM     35  C   UNL A   1      43.627  27.238  31.077  1.00  0.00     0.031 C 
ATOM     36  C   UNL A   1      43.040  28.329  33.223  1.00  0.00     0.037 A 
BRANCH  23  37
ATOM     37  C   UNL A   1      39.159  32.436  35.764  1.00  0.00     0.057 A 
ATOM     38  C   UNL A   1      39.650  33.723  36.038  1.00  0.00     0.134 A 
ATOM     39  C   UNL A   1      38.303  31.855  36.703  1.00  0.00     0.134 A 
ATOM     40  F   UNL A   1      40.502  34.320  35.188  1.00  0.00    -0.206 F 
ATOM     41  C   UNL A   1      39.351  34.379  37.231  1.00  0.00     0.040 A 
ATOM     42  C   UNL A   1      37.974  32.515  37.888  1.00  0.00     0.040 A 
ATOM     43  F   UNL A   1      37.804  30.626  36.503  1.00  0.00    -0.206 F 
ATOM     44  C   UNL A   1      38.511  33.773  38.161  1.00  0.00     0.006 A 
ENDBRANCH  23  37
BRANCH  24  45
ATOM     45  C   UNL A   1      41.580  27.530  27.409  1.00  0.00     0.057 A 
ATOM     46  C   UNL A   1      41.279  26.179  27.199  1.00  0.00     0.134 A 
ATOM     47  C   UNL A   1      42.339  28.179  26.427  1.00  0.00     0.134 A 
ATOM     48  F   UNL A   1      40.578  25.494  28.114  1.00  0.00    -0.206 F 
ATOM     49  C   UNL A   1      41.741  25.491  26.073  1.00  0.00     0.040 A 
ATOM     50  C   UNL A   1      42.793  27.507  25.290  1.00  0.00     0.040 A 
ATOM     51  F   UNL A   1      42.664  29.472  26.567  1.00  0.00    -0.206 F 
ATOM     52  C   UNL A   1      42.503  26.156  25.114  1.00  0.00     0.006 A 
ENDBRANCH  24  45
BRANCH  36  53
ATOM     53  C   UNL A   1      44.134  27.544  33.879  1.00  0.00     0.057 A 
ATOM     54  C   UNL A   1      43.910  26.285  34.444  1.00  0.00     0.134 A 
ATOM     55  C   UNL A   1      45.447  28.034  33.879  1.00  0.00     0.134 A 
ATOM     56  F   UNL A   1      42.672  25.769  34.489  1.00  0.00    -0.206 F 
ATOM     57  C   UNL A   1      44.955  25.540  34.994  1.00  0.00     0.040 A 
ATOM     58  C   UNL A   1      46.503  27.289  34.402  1.00  0.00     0.040 A 
ATOM     59  F   UNL A   1      45.726  29.234  33.347  1.00  0.00    -0.206 F 
ATOM     60  C   UNL A   1      46.257  26.038  34.963  1.00  0.00     0.006 A 
ENDBRANCH  36  53
ENDBRANCH  10  11
ENDBRANCH   3   5
ENDBRANCH   2   3
ENDBRANCH   1   2
BRANCH   1  61
ATOM     61  C   UNL A   1      31.949  31.140  26.018  1.00  0.00     0.274 C 
BRANCH  61  62
ATOM     62  O   UNL A   1      32.234  29.786  26.416  1.00  0.00    -0.460 OA
BRANCH  62  63
ATOM     63  C   UNL A   1      32.698  28.940  25.434  1.00  0.00     0.336 C 
ATOM     64  O   UNL A   1      33.570  29.275  24.635  1.00  0.00    -0.249 OA
BRANCH  63  65
ATOM     65  C   UNL A   1      31.919  27.589  25.352  1.00  0.00     0.191 C 
ATOM     66  Cl  UNL A   1      31.330  27.190  27.021  1.00  0.00    -0.096 Cl
BRANCH  65  67
ATOM     67  C   UNL A   1      30.617  27.678  24.517  1.00  0.00    -0.011 A 
ATOM     68  C   UNL A   1      29.663  26.631  24.578  1.00  0.00     0.006 A 
ATOM     69  C   UNL A   1      30.319  28.776  23.694  1.00  0.00     0.006 A 
ATOM     70  C   UNL A   1      28.446  26.708  23.905  1.00  0.00     0.000 A 
ATOM     71  C   UNL A   1      29.100  28.843  23.008  1.00  0.00     0.000 A 
ATOM     72  C   UNL A   1      28.162  27.820  23.123  1.00  0.00     0.000 A 
ENDBRANCH  65  67
BRANCH  65  73
ATOM     73  C   UNL A   1      32.866  26.439  24.944  1.00  0.00    -0.011 A 
ATOM     74  C   UNL A   1      33.628  25.743  25.896  1.00  0.00     0.006 A 
ATOM     75  C   UNL A   1      32.996  26.047  23.591  1.00  0.00     0.006 A 
ATOM     76  C   UNL A   1      34.545  24.765  25.505  1.00  0.00     0.000 A 
ATOM     77  C   UNL A   1      33.924  25.080  23.201  1.00  0.00     0.000 A 
ATOM     78  C   UNL A   1      34.708  24.449  24.159  1.00  0.00     0.000 A 
ENDBRANCH  65  73
ENDBRANCH  63  65
ENDBRANCH  62  63
ENDBRANCH  61  62
ENDBRANCH   1  61
TORSDOF 13
ENDMDL
MODEL 3
REMARK VINA RESULT:     -10.9      4.795      8.372
REMARK SMILES O=C(OCCOC(=O)C(Cl)(c1ccccc1)c1ccccc1)c1ccc(-c2c3nc(c(-c4c(F)cccc4F)c4ccc([nH]4)c(-c4c(F)cccc4F)c4nc(c(-c5c(F)cccc5F)c5ccc2[nH]5)C=C4)C=C3)cc1
REMARK SMILES IDX 4 1 3 2 2 3 1 4 23 5 24 6 76 7 25 8 75 9 26 10 27 11 28 12
REMARK SMILES IDX 69 13 29 14 74 15 68 16 70 17 30 18 73 19 67 20 66 21 31 23
REMARK SMILES IDX 57 24 40 25 56 26 41 27 44 28 55 29 71 30 42 31 43 32 54 34
REMARK SMILES IDX 72 35 45 36 32 37 33 38 38 39 34 40 35 41 37 42 39 43 36 44
REMARK SMILES IDX 58 45 59 46 64 47 60 48 61 49 63 50 65 51 62 52 46 53 47 54
REMARK SMILES IDX 52 55 48 56 49 57 51 58 53 59 50 60 5 61 6 62 7 63 8 64 9 65
REMARK SMILES IDX 10 66 11 67 12 68 16 69 13 70 15 71 14 72 17 73 18 74 22 75
REMARK SMILES IDX 19 76 21 77 20 78
REMARK H PARENT 70 22 44 33
REMARK Flexibility Score: inf
ROOT
ATOM      1  C   UNL A   1      38.577  19.850  24.882  1.00  0.00     0.275 C 
ENDROOT
BRANCH   1   2
ATOM      2  O   UNL A   1      39.557  19.185  25.691  1.00  0.00    -0.458 OA
BRANCH   2   3
ATOM      3  C   UNL A   1      40.826  19.590  25.940  1.00  0.00     0.338 C 
ATOM      4  O   UNL A   1      41.743  18.777  25.831  1.00  0.00    -0.246 OA
BRANCH   3   5
ATOM      5  C   UNL A   1      41.133  20.910  26.576  1.00  0.00     0.060 A 
ATOM      6  C   UNL A   1      41.050  21.221  27.938  1.00  0.00     0.016 A 
ATOM      7  C   UNL A   1      41.590  21.911  25.701  1.00  0.00     0.016 A 
ATOM      8  C   UNL A   1      41.527  22.442  28.433  1.00  0.00     0.010 A 
ATOM      9  C   UNL A   1      42.090  23.120  26.194  1.00  0.00     0.010 A 
ATOM     10  C   UNL A   1      42.091  23.385  27.573  1.00  0.00    -0.014 A 
BRANCH  10  11
ATOM     11  C   UNL A   1      42.586  24.688  28.083  1.00  0.00     0.031 A 
ATOM     12  C   UNL A   1      41.592  25.800  28.239  1.00  0.00     0.074 A 
ATOM     13  C   UNL A   1      43.886  24.895  28.382  1.00  0.00     0.049 A 
ATOM     14  N   UNL A   1      41.779  27.037  28.620  1.00  0.00    -0.248 NA
ATOM     15  C   UNL A   1      40.196  25.476  27.903  1.00  0.00     0.031 C 
ATOM     16  C   UNL A   1      44.959  23.906  28.281  1.00  0.00     0.029 A 
ATOM     17  N   UNL A   1      44.530  26.029  28.819  1.00  0.00    -0.354 N 
ATOM     18  C   UNL A   1      40.521  27.620  28.591  1.00  0.00     0.074 A 
ATOM     19  C   UNL A   1      39.608  26.651  28.032  1.00  0.00     0.031 C 
ATOM     20  C   UNL A   1      46.129  24.484  28.610  1.00  0.00     0.029 A 
ATOM     21  C   UNL A   1      45.892  25.884  28.939  1.00  0.00     0.049 A 
ATOM     22  H   UNL A   1      44.058  26.869  29.027  1.00  0.00     0.167 HD
ATOM     23  C   UNL A   1      40.136  28.828  29.061  1.00  0.00     0.037 A 
ATOM     24  C   UNL A   1      46.838  26.785  29.272  1.00  0.00     0.037 A 
ATOM     25  C   UNL A   1      41.035  29.790  29.625  1.00  0.00     0.049 A 
ATOM     26  C   UNL A   1      46.413  28.173  29.669  1.00  0.00     0.074 A 
ATOM     27  C   UNL A   1      40.753  31.031  30.163  1.00  0.00     0.029 A 
ATOM     28  N   UNL A   1      42.409  29.611  29.714  1.00  0.00    -0.354 N 
ATOM     29  N   UNL A   1      45.206  28.684  29.726  1.00  0.00    -0.248 NA
ATOM     30  C   UNL A   1      47.475  29.103  30.083  1.00  0.00     0.031 C 
ATOM     31  C   UNL A   1      41.962  31.617  30.552  1.00  0.00     0.029 A 
ATOM     32  C   UNL A   1      42.991  30.725  30.288  1.00  0.00     0.049 A 
ATOM     33  H   UNL A   1      42.895  28.810  29.414  1.00  0.00     0.167 HD
ATOM     34  C   UNL A   1      45.356  29.964  30.242  1.00  0.00     0.074 A 
ATOM     35  C   UNL A   1      46.774  30.163  30.460  1.00  0.00     0.031 C 
ATOM     36  C   UNL A   1      44.404  30.885  30.529  1.00  0.00     0.037 A 
BRANCH  23  37
ATOM     37  C   UNL A   1      38.667  29.112  29.002  1.00  0.00     0.057 A 
ATOM     38  C   UNL A   1      38.076  29.620  27.833  1.00  0.00     0.134 A 
ATOM     39  C   UNL A   1      37.859  28.985  30.135  1.00  0.00     0.134 A 
ATOM     40  F   UNL A   1      38.810  29.794  26.722  1.00  0.00    -0.206 F 
ATOM     41  C   UNL A   1      36.749  30.045  27.813  1.00  0.00     0.040 A 
ATOM     42  C   UNL A   1      36.521  29.382  30.117  1.00  0.00     0.040 A 
ATOM     43  F   UNL A   1      38.364  28.512  31.284  1.00  0.00    -0.206 F 
ATOM     44  C   UNL A   1      35.967  29.928  28.959  1.00  0.00     0.006 A 
ENDBRANCH  23  37
BRANCH  24  45
ATOM     45  C   UNL A   1      48.279  26.416  29.271  1.00  0.00     0.057 A 
ATOM     46  C   UNL A   1      49.069  26.560  28.124  1.00  0.00     0.134 A 
ATOM     47  C   UNL A   1      48.882  25.844  30.398  1.00  0.00     0.134 A 
ATOM     48  F   UNL A   1      48.543  27.076  27.004  1.00  0.00    -0.206 F 
ATOM     49  C   UNL A   1      50.396  26.122  28.087  1.00  0.00     0.040 A 
ATOM     50  C   UNL A   1      50.212  25.417  30.380  1.00  0.00     0.040 A 
ATOM     51  F   UNL A   1      48.183  25.676  31.529  1.00  0.00    -0.206 F 
ATOM     52  C   UNL A   1      50.971  25.547  29.219  1.00  0.00     0.006 A 
ENDBRANCH  24  45
BRANCH  36  53
ATOM     53  C   UNL A   1      44.847  32.154  31.188  1.00  0.00     0.057 A 
ATOM     54  C   UNL A   1      44.971  32.268  32.576  1.00  0.00     0.134 A 
ATOM     55  C   UNL A   1      45.223  33.256  30.408  1.00  0.00     0.134 A 
ATOM     56  F   UNL A   1      44.612  31.253  33.377  1.00  0.00    -0.206 F 
ATOM     57  C   UNL A   1      45.448  33.439  33.168  1.00  0.00     0.040 A 
ATOM     58  C   UNL A   1      45.724  34.422  30.986  1.00  0.00     0.040 A 
ATOM     59  F   UNL A   1      45.131  33.206  29.070  1.00  0.00    -0.206 F 
ATOM     60  C   UNL A   1      45.836  34.515  32.371  1.00  0.00     0.006 A 
ENDBRANCH  36  53
ENDBRANCH  10  11
ENDBRANCH   3   5
ENDBRANCH   2   3
ENDBRANCH   1   2
BRANCH   1  61
ATOM     61  C   UNL A   1      37.983  21.098  25.543  1.00  0.00     0.274 C 
BRANCH  61  62
ATOM     62  O   UNL A   1      37.042  21.805  24.714  1.00  0.00    -0.460 OA
BRANCH  62  63
ATOM     63  C   UNL A   1      36.148  22.627  25.361  1.00  0.00     0.336 C 
ATOM     64  O   UNL A   1      36.348  23.054  26.497  1.00  0.00    -0.249 OA
BRANCH  63  65
ATOM     65  C   UNL A   1      34.816  22.846  24.575  1.00  0.00     0.191 C 
ATOM     66  Cl  UNL A   1      35.248  23.326  22.880  1.00  0.00    -0.096 Cl
BRANCH  65  67
ATOM     67  C   UNL A   1      33.992  21.547  24.387  1.00  0.00    -0.011 A 
ATOM     68  C   UNL A   1      32.924  21.514  23.455  1.00  0.00     0.006 A 
ATOM     69  C   UNL A   1      34.265  20.368  25.099  1.00  0.00     0.006 A 
ATOM     70  C   UNL A   1      32.210  20.346  23.200  1.00  0.00     0.000 A 
ATOM     71  C   UNL A   1      33.535  19.199  24.849  1.00  0.00     0.000 A 
ATOM     72  C   UNL A   1      32.521  19.184  23.894  1.00  0.00     0.000 A 
ENDBRANCH  65  67
BRANCH  65  73
ATOM     73  C   UNL A   1      34.021  24.029  25.169  1.00  0.00    -0.011 A 
ATOM     74  C   UNL A   1      32.969  23.824  26.076  1.00  0.00     0.006 A 
ATOM     75  C   UNL A   1      34.328  25.364  24.817  1.00  0.00     0.006 A 
ATOM     76  C   UNL A   1      32.201  24.896  26.537  1.00  0.00     0.000 A 
ATOM     77  C   UNL A   1      33.550  26.432  25.268  1.00  0.00     0.000 A 
ATOM     78  C   UNL A   1      32.478  26.194  26.118  1.00  0.00     0.000 A 
ENDBRANCH  65  73
ENDBRANCH  63  65
ENDBRANCH  62  63
ENDBRANCH  61  62
ENDBRANCH   1  61
TORSDOF 13
ENDMDL
