MODEL 1
REMARK VINA RESULT:      -9.2      0.000      0.000
REMARK SMILES COCc1nc2ccccc2n1CC(=O)OCCOC(=O)c1ccc(-c2c3nc(c(-c4c(F)cccc4F)c4ccc([nH]4)c(-c4c(F)cccc4F)c4nc(c(-c5c(F)cccc5F)c5ccc2[nH]5)C=C4)C=C3)cc1
REMARK SMILES IDX 17 1 16 2 14 3 15 4 13 5 12 6 4 7 5 8 6 9 11 10 7 11 10 12
REMARK SMILES IDX 8 13 9 14 3 15 2 16 1 17 18 18 19 19 20 20 21 21 22 22 23 23
REMARK SMILES IDX 75 24 24 25 74 26 25 27 26 28 27 29 68 30 28 31 73 32 67 33
REMARK SMILES IDX 69 34 29 35 72 36 66 37 65 38 30 40 56 41 39 42 55 43 40 44
REMARK SMILES IDX 43 45 54 46 70 47 41 48 42 49 53 51 71 52 44 53 31 54 32 55
REMARK SMILES IDX 37 56 33 57 34 58 36 59 38 60 35 61 57 62 58 63 63 64 59 65
REMARK SMILES IDX 60 66 62 67 64 68 61 69 45 70 46 71 51 72 47 73 48 74 50 75
REMARK SMILES IDX 52 76 49 77
REMARK H PARENT 69 39 43 50
REMARK Flexibility Score: inf
ROOT
ATOM      1  C   UNL A   1      43.403  22.776  24.662  1.00  0.00     0.274 C 
ENDROOT
BRANCH   1   2
ATOM      2  O   UNL A   1      43.332  24.176  25.047  1.00  0.00    -0.461 OA
BRANCH   2   3
ATOM      3  C   UNL A   1      44.516  24.845  25.088  1.00  0.00     0.326 C 
ATOM      4  O   UNL A   1      45.557  24.432  24.584  1.00  0.00    -0.250 OA
BRANCH   3   5
ATOM      5  C   UNL A   1      44.423  26.231  25.671  1.00  0.00     0.246 C 
BRANCH   5   6
ATOM      6  N   UNL A   1      45.612  26.816  26.255  1.00  0.00    -0.315 N 
ATOM      7  C   UNL A   1      46.642  27.504  25.633  1.00  0.00     0.136 A 
ATOM      8  N   UNL A   1      47.570  27.824  26.518  1.00  0.00    -0.231 NA
ATOM      9  C   UNL A   1      47.257  27.136  27.656  1.00  0.00     0.089 A 
ATOM     10  C   UNL A   1      46.069  26.439  27.503  1.00  0.00     0.069 A 
ATOM     11  C   UNL A   1      47.981  27.013  28.847  1.00  0.00     0.030 A 
ATOM     12  C   UNL A   1      45.584  25.546  28.466  1.00  0.00     0.028 A 
ATOM     13  C   UNL A   1      47.513  26.125  29.825  1.00  0.00     0.002 A 
ATOM     14  C   UNL A   1      46.344  25.390  29.625  1.00  0.00     0.002 A 
BRANCH   7  15
ATOM     15  C   UNL A   1      46.778  27.819  24.175  1.00  0.00     0.235 C 
BRANCH  15  16
ATOM     16  O   UNL A   1      47.531  26.811  23.504  1.00  0.00    -0.377 OA
ATOM     17  C   UNL A   1      48.835  27.171  23.088  1.00  0.00     0.195 C 
ENDBRANCH  15  16
ENDBRANCH   7  15
ENDBRANCH   5   6
ENDBRANCH   3   5
ENDBRANCH   2   3
ENDBRANCH   1   2
BRANCH   1  18
ATOM     18  C   UNL A   1      42.798  21.887  25.757  1.00  0.00     0.275 C 
BRANCH  18  19
ATOM     19  O   UNL A   1      41.404  22.221  25.895  1.00  0.00    -0.458 OA
BRANCH  19  20
ATOM     20  C   UNL A   1      40.905  22.240  27.153  1.00  0.00     0.338 C 
ATOM     21  O   UNL A   1      40.762  21.297  27.921  1.00  0.00    -0.246 OA
BRANCH  20  22
ATOM     22  C   UNL A   1      41.041  23.636  27.576  1.00  0.00     0.060 A 
ATOM     23  C   UNL A   1      42.041  24.175  28.363  1.00  0.00     0.016 A 
ATOM     24  C   UNL A   1      39.987  24.429  27.154  1.00  0.00     0.016 A 
ATOM     25  C   UNL A   1      41.904  25.509  28.772  1.00  0.00     0.010 A 
ATOM     26  C   UNL A   1      39.873  25.758  27.501  1.00  0.00     0.010 A 
ATOM     27  C   UNL A   1      40.795  26.290  28.368  1.00  0.00    -0.014 A 
BRANCH  27  28
ATOM     28  C   UNL A   1      40.679  27.704  28.704  1.00  0.00     0.031 A 
ATOM     29  C   UNL A   1      41.733  28.536  28.096  1.00  0.00     0.074 A 
ATOM     30  C   UNL A   1      39.694  28.354  29.360  1.00  0.00     0.049 A 
ATOM     31  N   UNL A   1      42.832  28.878  28.670  1.00  0.00    -0.248 NA
ATOM     32  C   UNL A   1      41.633  28.912  26.685  1.00  0.00     0.031 C 
ATOM     33  C   UNL A   1      38.359  27.921  29.772  1.00  0.00     0.029 A 
ATOM     34  N   UNL A   1      39.741  29.649  29.795  1.00  0.00    -0.354 N 
ATOM     35  C   UNL A   1      43.509  29.669  27.760  1.00  0.00     0.074 A 
ATOM     36  C   UNL A   1      42.801  29.537  26.510  1.00  0.00     0.031 C 
ATOM     37  C   UNL A   1      37.671  28.983  30.263  1.00  0.00     0.029 A 
ATOM     38  C   UNL A   1      38.567  30.126  30.356  1.00  0.00     0.049 A 
ATOM     39  H   UNL A   1      40.550  30.203  29.716  1.00  0.00     0.167 HD
ATOM     40  C   UNL A   1      44.491  30.510  28.184  1.00  0.00     0.037 A 
ATOM     41  C   UNL A   1      38.372  31.366  30.873  1.00  0.00     0.037 A 
ATOM     42  C   UNL A   1      44.873  30.228  29.551  1.00  0.00     0.049 A 
ATOM     43  C   UNL A   1      39.706  31.904  31.249  1.00  0.00     0.074 A 
ATOM     44  C   UNL A   1      45.320  29.099  30.217  1.00  0.00     0.029 A 
ATOM     45  N   UNL A   1      44.419  31.071  30.540  1.00  0.00    -0.354 N 
ATOM     46  N   UNL A   1      40.417  31.457  32.248  1.00  0.00    -0.248 NA
ATOM     47  C   UNL A   1      40.443  32.676  30.260  1.00  0.00     0.031 C 
ATOM     48  C   UNL A   1      44.632  29.113  31.470  1.00  0.00     0.029 A 
ATOM     49  C   UNL A   1      43.860  30.275  31.509  1.00  0.00     0.049 A 
ATOM     50  H   UNL A   1      44.482  32.054  30.550  1.00  0.00     0.167 HD
ATOM     51  C   UNL A   1      41.727  31.501  31.796  1.00  0.00     0.074 A 
ATOM     52  C   UNL A   1      41.691  32.358  30.614  1.00  0.00     0.031 C 
ATOM     53  C   UNL A   1      42.669  30.624  32.252  1.00  0.00     0.037 A 
BRANCH  40  54
ATOM     54  C   UNL A   1      44.870  31.788  27.496  1.00  0.00     0.057 A 
ATOM     55  C   UNL A   1      44.188  33.008  27.663  1.00  0.00     0.134 A 
ATOM     56  C   UNL A   1      46.124  31.876  26.868  1.00  0.00     0.134 A 
ATOM     57  F   UNL A   1      43.024  33.096  28.320  1.00  0.00    -0.206 F 
ATOM     58  C   UNL A   1      44.723  34.231  27.253  1.00  0.00     0.040 A 
ATOM     59  C   UNL A   1      46.692  33.100  26.504  1.00  0.00     0.040 A 
ATOM     60  F   UNL A   1      46.869  30.779  26.663  1.00  0.00    -0.206 F 
ATOM     61  C   UNL A   1      45.994  34.284  26.703  1.00  0.00     0.006 A 
ENDBRANCH  40  54
BRANCH  41  62
ATOM     62  C   UNL A   1      37.150  32.196  30.939  1.00  0.00     0.057 A 
ATOM     63  C   UNL A   1      36.216  32.034  31.976  1.00  0.00     0.134 A 
ATOM     64  C   UNL A   1      36.721  32.960  29.841  1.00  0.00     0.134 A 
ATOM     65  F   UNL A   1      36.496  31.272  33.043  1.00  0.00    -0.206 F 
ATOM     66  C   UNL A   1      34.926  32.572  31.913  1.00  0.00     0.040 A 
ATOM     67  C   UNL A   1      35.430  33.501  29.764  1.00  0.00     0.040 A 
ATOM     68  F   UNL A   1      37.522  33.144  28.781  1.00  0.00    -0.206 F 
ATOM     69  C   UNL A   1      34.522  33.295  30.797  1.00  0.00     0.006 A 
ENDBRANCH  41  62
BRANCH  53  70
ATOM     70  C   UNL A   1      42.333  29.774  33.449  1.00  0.00     0.057 A 
ATOM     71  C   UNL A   1      42.749  30.197  34.718  1.00  0.00     0.134 A 
ATOM     72  C   UNL A   1      41.739  28.504  33.375  1.00  0.00     0.134 A 
ATOM     73  F   UNL A   1      43.375  31.374  34.867  1.00  0.00    -0.206 F 
ATOM     74  C   UNL A   1      42.571  29.407  35.858  1.00  0.00     0.040 A 
ATOM     75  C   UNL A   1      41.521  27.720  34.513  1.00  0.00     0.040 A 
ATOM     76  F   UNL A   1      41.403  27.959  32.199  1.00  0.00    -0.206 F 
ATOM     77  C   UNL A   1      41.944  28.169  35.759  1.00  0.00     0.006 A 
ENDBRANCH  53  70
ENDBRANCH  27  28
ENDBRANCH  20  22
ENDBRANCH  19  20
ENDBRANCH  18  19
ENDBRANCH   1  18
TORSDOF 14
ENDMDL
MODEL 2
REMARK VINA RESULT:      -9.1      5.410     10.935
REMARK SMILES COCc1nc2ccccc2n1CC(=O)OCCOC(=O)c1ccc(-c2c3nc(c(-c4c(F)cccc4F)c4ccc([nH]4)c(-c4c(F)cccc4F)c4nc(c(-c5c(F)cccc5F)c5ccc2[nH]5)C=C4)C=C3)cc1
REMARK SMILES IDX 17 1 16 2 14 3 15 4 13 5 12 6 4 7 5 8 6 9 11 10 7 11 10 12
REMARK SMILES IDX 8 13 9 14 3 15 2 16 1 17 18 18 19 19 20 20 21 21 22 22 23 23
REMARK SMILES IDX 75 24 24 25 74 26 25 27 26 28 27 29 68 30 28 31 73 32 67 33
REMARK SMILES IDX 69 34 29 35 72 36 66 37 65 38 30 40 56 41 39 42 55 43 40 44
REMARK SMILES IDX 43 45 54 46 70 47 41 48 42 49 53 51 71 52 44 53 31 54 32 55
REMARK SMILES IDX 37 56 33 57 34 58 36 59 38 60 35 61 57 62 58 63 63 64 59 65
REMARK SMILES IDX 60 66 62 67 64 68 61 69 45 70 46 71 51 72 47 73 48 74 50 75
REMARK SMILES IDX 52 76 49 77
REMARK H PARENT 69 39 43 50
REMARK Flexibility Score: inf
ROOT
ATOM      1  C   UNL A   1      33.454  30.157  27.019  1.00  0.00     0.274 C 
ENDROOT
BRANCH   1   2
ATOM      2  O   UNL A   1      32.261  29.369  27.277  1.00  0.00    -0.461 OA
BRANCH   2   3
ATOM      3  C   UNL A   1      31.722  28.730  26.204  1.00  0.00     0.326 C 
ATOM      4  O   UNL A   1      31.130  27.655  26.270  1.00  0.00    -0.250 OA
BRANCH   3   5
ATOM      5  C   UNL A   1      31.763  29.525  24.925  1.00  0.00     0.246 C 
BRANCH   5   6
ATOM      6  N   UNL A   1      30.847  29.170  23.862  1.00  0.00    -0.315 N 
ATOM      7  C   UNL A   1      31.016  28.255  22.834  1.00  0.00     0.136 A 
ATOM      8  N   UNL A   1      29.961  28.271  22.038  1.00  0.00    -0.231 NA
ATOM      9  C   UNL A   1      29.226  29.360  22.410  1.00  0.00     0.089 A 
ATOM     10  C   UNL A   1      29.791  29.987  23.510  1.00  0.00     0.069 A 
ATOM     11  C   UNL A   1      28.088  29.912  21.811  1.00  0.00     0.030 A 
ATOM     12  C   UNL A   1      29.316  31.203  24.017  1.00  0.00     0.028 A 
ATOM     13  C   UNL A   1      27.596  31.128  22.303  1.00  0.00     0.002 A 
ATOM     14  C   UNL A   1      28.215  31.770  23.375  1.00  0.00     0.002 A 
BRANCH   7  15
ATOM     15  C   UNL A   1      32.210  27.391  22.570  1.00  0.00     0.235 C 
BRANCH  15  16
ATOM     16  O   UNL A   1      32.299  26.338  23.528  1.00  0.00    -0.377 OA
ATOM     17  C   UNL A   1      32.528  25.038  23.016  1.00  0.00     0.195 C 
ENDBRANCH  15  16
ENDBRANCH   7  15
ENDBRANCH   5   6
ENDBRANCH   3   5
ENDBRANCH   2   3
ENDBRANCH   1   2
BRANCH   1  18
ATOM     18  C   UNL A   1      33.290  31.577  27.578  1.00  0.00     0.275 C 
BRANCH  18  19
ATOM     19  O   UNL A   1      34.371  31.832  28.495  1.00  0.00    -0.458 OA
BRANCH  19  20
ATOM     20  C   UNL A   1      35.422  32.535  28.014  1.00  0.00     0.338 C 
ATOM     21  O   UNL A   1      35.454  33.716  27.690  1.00  0.00    -0.246 OA
BRANCH  20  22
ATOM     22  C   UNL A   1      36.595  31.761  28.426  1.00  0.00     0.060 A 
ATOM     23  C   UNL A   1      37.623  32.178  29.249  1.00  0.00     0.016 A 
ATOM     24  C   UNL A   1      36.642  30.506  27.839  1.00  0.00     0.016 A 
ATOM     25  C   UNL A   1      38.727  31.327  29.399  1.00  0.00     0.010 A 
ATOM     26  C   UNL A   1      37.695  29.638  28.028  1.00  0.00     0.010 A 
ATOM     27  C   UNL A   1      38.776  30.068  28.755  1.00  0.00    -0.014 A 
BRANCH  27  28
ATOM     28  C   UNL A   1      39.871  29.129  28.971  1.00  0.00     0.031 A 
ATOM     29  C   UNL A   1      40.079  28.793  30.391  1.00  0.00     0.074 A 
ATOM     30  C   UNL A   1      40.605  28.443  28.070  1.00  0.00     0.049 A 
ATOM     31  N   UNL A   1      40.921  29.369  31.175  1.00  0.00    -0.248 NA
ATOM     32  C   UNL A   1      39.188  27.831  31.043  1.00  0.00     0.031 C 
ATOM     33  C   UNL A   1      40.437  28.256  26.628  1.00  0.00     0.029 A 
ATOM     34  N   UNL A   1      41.733  27.719  28.340  1.00  0.00    -0.354 N 
ATOM     35  C   UNL A   1      40.803  28.731  32.396  1.00  0.00     0.074 A 
ATOM     36  C   UNL A   1      39.628  27.900  32.303  1.00  0.00     0.031 C 
ATOM     37  C   UNL A   1      41.343  27.348  26.182  1.00  0.00     0.029 A 
ATOM     38  C   UNL A   1      42.257  27.019  27.265  1.00  0.00     0.049 A 
ATOM     39  H   UNL A   1      42.144  27.697  29.234  1.00  0.00     0.167 HD
ATOM     40  C   UNL A   1      41.808  28.815  33.309  1.00  0.00     0.037 A 
ATOM     41  C   UNL A   1      43.374  26.247  27.279  1.00  0.00     0.037 A 
ATOM     42  C   UNL A   1      42.769  29.834  32.943  1.00  0.00     0.049 A 
ATOM     43  C   UNL A   1      44.219  26.712  28.410  1.00  0.00     0.074 A 
ATOM     44  C   UNL A   1      42.685  31.187  32.661  1.00  0.00     0.029 A 
ATOM     45  N   UNL A   1      43.970  29.431  32.405  1.00  0.00    -0.354 N 
ATOM     46  N   UNL A   1      44.851  27.855  28.427  1.00  0.00    -0.248 NA
ATOM     47  C   UNL A   1      44.040  26.084  29.710  1.00  0.00     0.031 C 
ATOM     48  C   UNL A   1      43.552  31.386  31.543  1.00  0.00     0.029 A 
ATOM     49  C   UNL A   1      44.151  30.159  31.255  1.00  0.00     0.049 A 
ATOM     50  H   UNL A   1      44.581  28.751  32.773  1.00  0.00     0.167 HD
ATOM     51  C   UNL A   1      44.749  28.294  29.738  1.00  0.00     0.074 A 
ATOM     52  C   UNL A   1      44.338  27.119  30.501  1.00  0.00     0.031 C 
ATOM     53  C   UNL A   1      44.736  29.625  30.046  1.00  0.00     0.037 A 
BRANCH  40  54
ATOM     54  C   UNL A   1      42.107  27.770  34.342  1.00  0.00     0.057 A 
ATOM     55  C   UNL A   1      42.939  26.655  34.122  1.00  0.00     0.134 A 
ATOM     56  C   UNL A   1      41.787  28.030  35.685  1.00  0.00     0.134 A 
ATOM     57  F   UNL A   1      43.399  26.333  32.906  1.00  0.00    -0.206 F 
ATOM     58  C   UNL A   1      43.433  25.867  35.163  1.00  0.00     0.040 A 
ATOM     59  C   UNL A   1      42.320  27.281  36.738  1.00  0.00     0.040 A 
ATOM     60  F   UNL A   1      41.010  29.071  36.018  1.00  0.00    -0.206 F 
ATOM     61  C   UNL A   1      43.153  26.200  36.479  1.00  0.00     0.006 A 
ENDBRANCH  40  54
BRANCH  41  62
ATOM     62  C   UNL A   1      43.717  25.041  26.494  1.00  0.00     0.057 A 
ATOM     63  C   UNL A   1      43.408  23.754  26.967  1.00  0.00     0.134 A 
ATOM     64  C   UNL A   1      44.606  25.099  25.410  1.00  0.00     0.134 A 
ATOM     65  F   UNL A   1      42.619  23.584  28.039  1.00  0.00    -0.206 F 
ATOM     66  C   UNL A   1      43.972  22.599  26.416  1.00  0.00     0.040 A 
ATOM     67  C   UNL A   1      45.182  23.949  24.851  1.00  0.00     0.040 A 
ATOM     68  F   UNL A   1      44.995  26.280  24.906  1.00  0.00    -0.206 F 
ATOM     69  C   UNL A   1      44.876  22.694  25.365  1.00  0.00     0.006 A 
ENDBRANCH  41  62
BRANCH  53  70
ATOM     70  C   UNL A   1      45.100  30.610  28.965  1.00  0.00     0.057 A 
ATOM     71  C   UNL A   1      46.379  31.182  28.973  1.00  0.00     0.134 A 
ATOM     72  C   UNL A   1      44.196  31.108  28.013  1.00  0.00     0.134 A 
ATOM     73  F   UNL A   1      47.284  30.802  29.888  1.00  0.00    -0.206 F 
ATOM     74  C   UNL A   1      46.748  32.184  28.071  1.00  0.00     0.040 A 
ATOM     75  C   UNL A   1      44.565  32.084  27.081  1.00  0.00     0.040 A 
ATOM     76  F   UNL A   1      42.918  30.708  27.989  1.00  0.00    -0.206 F 
ATOM     77  C   UNL A   1      45.843  32.629  27.112  1.00  0.00     0.006 A 
ENDBRANCH  53  70
ENDBRANCH  27  28
ENDBRANCH  20  22
ENDBRANCH  19  20
ENDBRANCH  18  19
ENDBRANCH   1  18
TORSDOF 14
ENDMDL
MODEL 3
REMARK VINA RESULT:      -9.1      3.979      6.805
REMARK SMILES COCc1nc2ccccc2n1CC(=O)OCCOC(=O)c1ccc(-c2c3nc(c(-c4c(F)cccc4F)c4ccc([nH]4)c(-c4c(F)cccc4F)c4nc(c(-c5c(F)cccc5F)c5ccc2[nH]5)C=C4)C=C3)cc1
REMARK SMILES IDX 17 1 16 2 14 3 15 4 13 5 12 6 4 7 5 8 6 9 11 10 7 11 10 12
REMARK SMILES IDX 8 13 9 14 3 15 2 16 1 17 18 18 19 19 20 20 21 21 22 22 23 23
REMARK SMILES IDX 75 24 24 25 74 26 25 27 26 28 27 29 68 30 28 31 73 32 67 33
REMARK SMILES IDX 69 34 29 35 72 36 66 37 65 38 30 40 56 41 39 42 55 43 40 44
REMARK SMILES IDX 43 45 54 46 70 47 41 48 42 49 53 51 71 52 44 53 31 54 32 55
REMARK SMILES IDX 37 56 33 57 34 58 36 59 38 60 35 61 57 62 58 63 63 64 59 65
REMARK SMILES IDX 60 66 62 67 64 68 61 69 45 70 46 71 51 72 47 73 48 74 50 75
REMARK SMILES IDX 52 76 49 77
REMARK H PARENT 69 39 43 50
REMARK Flexibility Score: inf
ROOT
ATOM      1  C   UNL A   1      38.416  22.068  25.772  1.00  0.00     0.274 C 
ENDROOT
BRANCH   1   2
ATOM      2  O   UNL A   1      37.730  21.517  24.615  1.00  0.00    -0.461 OA
BRANCH   2   3
ATOM      3  C   UNL A   1      36.404  21.804  24.513  1.00  0.00     0.326 C 
ATOM      4  O   UNL A   1      35.917  22.490  23.618  1.00  0.00    -0.250 OA
BRANCH   3   5
ATOM      5  C   UNL A   1      35.535  21.077  25.505  1.00  0.00     0.246 C 
BRANCH   5   6
ATOM      6  N   UNL A   1      34.283  20.514  25.044  1.00  0.00    -0.315 N 
ATOM      7  C   UNL A   1      32.992  20.979  25.242  1.00  0.00     0.136 A 
ATOM      8  N   UNL A   1      32.124  20.142  24.703  1.00  0.00    -0.231 NA
ATOM      9  C   UNL A   1      32.835  19.023  24.375  1.00  0.00     0.089 A 
ATOM     10  C   UNL A   1      34.184  19.198  24.639  1.00  0.00     0.069 A 
ATOM     11  C   UNL A   1      32.380  17.788  23.899  1.00  0.00     0.030 A 
ATOM     12  C   UNL A   1      35.121  18.163  24.520  1.00  0.00     0.028 A 
ATOM     13  C   UNL A   1      33.300  16.739  23.773  1.00  0.00     0.002 A 
ATOM     14  C   UNL A   1      34.644  16.922  24.099  1.00  0.00     0.002 A 
BRANCH   7  15
ATOM     15  C   UNL A   1      32.569  22.204  25.992  1.00  0.00     0.235 C 
BRANCH  15  16
ATOM     16  O   UNL A   1      33.131  23.378  25.410  1.00  0.00    -0.377 OA
ATOM     17  C   UNL A   1      32.311  24.082  24.495  1.00  0.00     0.195 C 
ENDBRANCH  15  16
ENDBRANCH   7  15
ENDBRANCH   5   6
ENDBRANCH   3   5
ENDBRANCH   2   3
ENDBRANCH   1   2
BRANCH   1  18
ATOM     18  C   UNL A   1      39.638  21.211  26.130  1.00  0.00     0.275 C 
BRANCH  18  19
ATOM     19  O   UNL A   1      40.473  21.964  27.029  1.00  0.00    -0.458 OA
BRANCH  19  20
ATOM     20  C   UNL A   1      41.574  22.542  26.495  1.00  0.00     0.338 C 
ATOM     21  O   UNL A   1      42.165  22.232  25.468  1.00  0.00    -0.246 OA
BRANCH  20  22
ATOM     22  C   UNL A   1      41.611  23.876  27.098  1.00  0.00     0.060 A 
ATOM     23  C   UNL A   1      42.349  24.277  28.195  1.00  0.00     0.016 A 
ATOM     24  C   UNL A   1      40.742  24.766  26.485  1.00  0.00     0.016 A 
ATOM     25  C   UNL A   1      42.127  25.566  28.698  1.00  0.00     0.010 A 
ATOM     26  C   UNL A   1      40.561  26.055  26.936  1.00  0.00     0.010 A 
ATOM     27  C   UNL A   1      41.201  26.444  28.085  1.00  0.00    -0.014 A 
BRANCH  27  28
ATOM     28  C   UNL A   1      41.022  27.819  28.535  1.00  0.00     0.031 A 
ATOM     29  C   UNL A   1      42.077  28.731  28.055  1.00  0.00     0.074 A 
ATOM     30  C   UNL A   1      39.986  28.381  29.192  1.00  0.00     0.049 A 
ATOM     31  N   UNL A   1      43.135  29.054  28.711  1.00  0.00    -0.248 NA
ATOM     32  C   UNL A   1      42.032  29.225  26.677  1.00  0.00     0.031 C 
ATOM     33  C   UNL A   1      38.647  27.875  29.497  1.00  0.00     0.029 A 
ATOM     34  N   UNL A   1      39.969  29.634  29.738  1.00  0.00    -0.354 N 
ATOM     35  C   UNL A   1      43.828  29.940  27.907  1.00  0.00     0.074 A 
ATOM     36  C   UNL A   1      43.186  29.896  26.616  1.00  0.00     0.031 C 
ATOM     37  C   UNL A   1      37.902  28.871  30.042  1.00  0.00     0.029 A 
ATOM     38  C   UNL A   1      38.754  30.027  30.278  1.00  0.00     0.049 A 
ATOM     39  H   UNL A   1      40.762  30.216  29.748  1.00  0.00     0.167 HD
ATOM     40  C   UNL A   1      44.760  30.769  28.451  1.00  0.00     0.037 A 
ATOM     41  C   UNL A   1      38.493  31.211  30.888  1.00  0.00     0.037 A 
ATOM     42  C   UNL A   1      45.084  30.380  29.807  1.00  0.00     0.049 A 
ATOM     43  C   UNL A   1      39.789  31.752  31.376  1.00  0.00     0.074 A 
ATOM     44  C   UNL A   1      45.536  29.211  30.396  1.00  0.00     0.029 A 
ATOM     45  N   UNL A   1      44.555  31.120  30.840  1.00  0.00    -0.354 N 
ATOM     46  N   UNL A   1      40.465  31.241  32.368  1.00  0.00    -0.248 NA
ATOM     47  C   UNL A   1      40.546  32.628  30.495  1.00  0.00     0.031 C 
ATOM     48  C   UNL A   1      44.787  29.096  31.609  1.00  0.00     0.029 A 
ATOM     49  C   UNL A   1      43.977  30.228  31.708  1.00  0.00     0.049 A 
ATOM     50  H   UNL A   1      44.585  32.100  30.937  1.00  0.00     0.167 HD
ATOM     51  C   UNL A   1      41.793  31.362  31.989  1.00  0.00     0.074 A 
ATOM     52  C   UNL A   1      41.786  32.317  30.884  1.00  0.00     0.031 C 
ATOM     53  C   UNL A   1      42.741  30.476  32.416  1.00  0.00     0.037 A 
BRANCH  40  54
ATOM     54  C   UNL A   1      45.129  32.112  27.895  1.00  0.00     0.057 A 
ATOM     55  C   UNL A   1      46.299  32.367  27.155  1.00  0.00     0.134 A 
ATOM     56  C   UNL A   1      44.153  33.121  27.851  1.00  0.00     0.134 A 
ATOM     57  F   UNL A   1      47.281  31.464  27.031  1.00  0.00    -0.206 F 
ATOM     58  C   UNL A   1      46.478  33.532  26.408  1.00  0.00     0.040 A 
ATOM     59  C   UNL A   1      44.298  34.266  27.063  1.00  0.00     0.040 A 
ATOM     60  F   UNL A   1      42.992  32.985  28.510  1.00  0.00    -0.206 F 
ATOM     61  C   UNL A   1      45.462  34.471  26.331  1.00  0.00     0.006 A 
ENDBRANCH  40  54
BRANCH  41  62
ATOM     62  C   UNL A   1      37.242  31.997  30.962  1.00  0.00     0.057 A 
ATOM     63  C   UNL A   1      36.425  31.957  32.104  1.00  0.00     0.134 A 
ATOM     64  C   UNL A   1      36.668  32.572  29.816  1.00  0.00     0.134 A 
ATOM     65  F   UNL A   1      36.849  31.373  33.235  1.00  0.00    -0.206 F 
ATOM     66  C   UNL A   1      35.109  32.432  32.101  1.00  0.00     0.040 A 
ATOM     67  C   UNL A   1      35.349  33.048  29.799  1.00  0.00     0.040 A 
ATOM     68  F   UNL A   1      37.349  32.625  28.663  1.00  0.00    -0.206 F 
ATOM     69  C   UNL A   1      34.560  32.965  30.941  1.00  0.00     0.006 A 
ENDBRANCH  41  62
BRANCH  53  70
ATOM     70  C   UNL A   1      42.375  29.516  33.517  1.00  0.00     0.057 A 
ATOM     71  C   UNL A   1      42.757  29.816  34.831  1.00  0.00     0.134 A 
ATOM     72  C   UNL A   1      41.787  28.259  33.307  1.00  0.00     0.134 A 
ATOM     73  F   UNL A   1      43.377  30.974  35.108  1.00  0.00    -0.206 F 
ATOM     74  C   UNL A   1      42.552  28.921  35.886  1.00  0.00     0.040 A 
ATOM     75  C   UNL A   1      41.541  27.370  34.359  1.00  0.00     0.040 A 
ATOM     76  F   UNL A   1      41.482  27.828  32.076  1.00  0.00    -0.206 F 
ATOM     77  C   UNL A   1      41.930  27.698  35.653  1.00  0.00     0.006 A 
ENDBRANCH  53  70
ENDBRANCH  27  28
ENDBRANCH  20  22
ENDBRANCH  19  20
ENDBRANCH  18  19
ENDBRANCH   1  18
TORSDOF 14
ENDMDL
