MODEL 1
REMARK VINA RESULT:     -10.3      0.000      0.000
REMARK SMILES CCOCCC(=O)Nc1cc(C(=O)OCCOC(=O)c2ccc(-c3c4nc(c(-c5c(F)cccc5F)c5ccc([nH]5)c(-c5c(F)cccc5F)c5nc(c(-c6c(F)cccc6F)c6ccc3[nH]6)C=C5)C=C4)cc2)ccc1Cl
REMARK SMILES IDX 14 1 12 2 13 3 11 4 9 5 10 6 76 7 75 8 77 9 74 10 8 11 6 12
REMARK SMILES IDX 7 13 5 15 4 16 3 17 2 18 1 19 15 20 16 21 17 22 18 23 19 24
REMARK SMILES IDX 20 25 21 26 73 27 22 28 72 29 23 30 24 31 25 32 66 33 26 34
REMARK SMILES IDX 71 35 65 36 67 37 27 38 70 39 64 40 63 41 28 43 54 44 37 45
REMARK SMILES IDX 53 46 38 47 41 48 52 49 68 50 39 51 40 52 51 54 69 55 42 56
REMARK SMILES IDX 29 57 30 58 35 59 31 60 32 61 34 62 36 63 33 64 55 65 56 66
REMARK SMILES IDX 61 67 57 68 58 69 60 70 62 71 59 72 43 73 44 74 49 75 45 76
REMARK SMILES IDX 46 77 48 78 50 79 47 80
REMARK H PARENT 8 14 67 42 41 53
REMARK Flexibility Score: inf
ROOT
ATOM      1  O   UNL A   1      41.337  21.233  25.768  1.00  0.00    -0.458 OA
ENDROOT
BRANCH   1   2
ATOM      2  C   UNL A   1      40.461  21.378  26.794  1.00  0.00     0.338 C 
ATOM      3  O   UNL A   1      40.630  21.051  27.948  1.00  0.00    -0.246 OA
BRANCH   2   4
ATOM      4  C   UNL A   1      39.293  22.172  26.341  1.00  0.00     0.062 A 
ATOM      5  C   UNL A   1      37.034  22.058  25.388  1.00  0.00     0.060 A 
ATOM      6  C   UNL A   1      38.266  21.472  25.704  1.00  0.00     0.043 A 
ATOM      7  C   UNL A   1      36.876  23.420  25.680  1.00  0.00     0.064 A 
ATOM      8  C   UNL A   1      37.950  24.154  26.223  1.00  0.00     0.023 A 
ATOM      9  Cl  UNL A   1      35.390  24.283  25.633  1.00  0.00    -0.082 Cl
ATOM     10  C   UNL A   1      39.150  23.533  26.571  1.00  0.00     0.017 A 
BRANCH   5  11
ATOM     11  N   UNL A   1      36.115  21.113  24.891  1.00  0.00    -0.325 N 
ATOM     12  C   UNL A   1      34.846  20.743  25.192  1.00  0.00     0.226 C 
ATOM     13  O   UNL A   1      34.331  19.881  24.470  1.00  0.00    -0.275 OA
ATOM     14  H   UNL A   1      36.483  20.594  24.140  1.00  0.00     0.169 HD
BRANCH  12  15
ATOM     15  C   UNL A   1      34.046  21.393  26.275  1.00  0.00     0.129 C 
BRANCH  15  16
ATOM     16  C   UNL A   1      32.581  21.557  25.875  1.00  0.00     0.170 C 
BRANCH  16  17
ATOM     17  O   UNL A   1      32.229  22.763  25.196  1.00  0.00    -0.381 OA
BRANCH  17  18
ATOM     18  C   UNL A   1      32.135  22.652  23.776  1.00  0.00     0.156 C 
ATOM     19  C   UNL A   1      32.689  23.909  23.140  1.00  0.00     0.035 C 
ENDBRANCH  17  18
ENDBRANCH  16  17
ENDBRANCH  15  16
ENDBRANCH  12  15
ENDBRANCH   5  11
ENDBRANCH   2   4
ENDBRANCH   1   2
BRANCH   1  20
ATOM     20  C   UNL A   1      42.703  20.981  26.145  1.00  0.00     0.275 C 
BRANCH  20  21
ATOM     21  C   UNL A   1      43.679  21.840  25.335  1.00  0.00     0.275 C 
BRANCH  21  22
ATOM     22  O   UNL A   1      43.088  23.080  24.893  1.00  0.00    -0.458 OA
BRANCH  22  23
ATOM     23  C   UNL A   1      43.841  24.183  25.101  1.00  0.00     0.338 C 
ATOM     24  O   UNL A   1      44.892  24.477  24.553  1.00  0.00    -0.246 OA
BRANCH  23  25
ATOM     25  C   UNL A   1      43.176  25.090  26.047  1.00  0.00     0.060 A 
ATOM     26  C   UNL A   1      43.452  26.450  25.933  1.00  0.00     0.016 A 
ATOM     27  C   UNL A   1      42.425  24.618  27.121  1.00  0.00     0.016 A 
ATOM     28  C   UNL A   1      43.054  27.345  26.920  1.00  0.00     0.010 A 
ATOM     29  C   UNL A   1      41.959  25.529  28.079  1.00  0.00     0.010 A 
ATOM     30  C   UNL A   1      42.293  26.898  28.004  1.00  0.00    -0.014 A 
BRANCH  30  31
ATOM     31  C   UNL A   1      41.880  27.839  29.083  1.00  0.00     0.031 A 
ATOM     32  C   UNL A   1      42.676  27.908  30.357  1.00  0.00     0.074 A 
ATOM     33  C   UNL A   1      40.797  28.625  28.935  1.00  0.00     0.049 A 
ATOM     34  N   UNL A   1      42.369  28.463  31.502  1.00  0.00    -0.248 NA
ATOM     35  C   UNL A   1      43.988  27.245  30.344  1.00  0.00     0.031 C 
ATOM     36  C   UNL A   1      39.979  28.730  27.725  1.00  0.00     0.029 A 
ATOM     37  N   UNL A   1      40.190  29.486  29.818  1.00  0.00    -0.354 N 
ATOM     38  C   UNL A   1      43.418  28.161  32.363  1.00  0.00     0.074 A 
ATOM     39  C   UNL A   1      44.365  27.368  31.608  1.00  0.00     0.031 C 
ATOM     40  C   UNL A   1      38.997  29.620  27.932  1.00  0.00     0.029 A 
ATOM     41  C   UNL A   1      39.055  30.074  29.317  1.00  0.00     0.049 A 
ATOM     42  H   UNL A   1      40.537  29.664  30.722  1.00  0.00     0.167 HD
ATOM     43  C   UNL A   1      43.570  28.509  33.664  1.00  0.00     0.037 A 
ATOM     44  C   UNL A   1      38.132  30.850  29.917  1.00  0.00     0.037 A 
ATOM     45  C   UNL A   1      42.640  29.336  34.390  1.00  0.00     0.049 A 
ATOM     46  C   UNL A   1      38.274  31.160  31.379  1.00  0.00     0.074 A 
ATOM     47  C   UNL A   1      42.703  29.757  35.706  1.00  0.00     0.029 A 
ATOM     48  N   UNL A   1      41.480  29.876  33.852  1.00  0.00    -0.354 N 
ATOM     49  N   UNL A   1      39.231  30.817  32.206  1.00  0.00    -0.248 NA
ATOM     50  C   UNL A   1      37.197  31.945  31.997  1.00  0.00     0.031 C 
ATOM     51  C   UNL A   1      41.555  30.510  35.980  1.00  0.00     0.029 A 
ATOM     52  C   UNL A   1      40.808  30.609  34.817  1.00  0.00     0.049 A 
ATOM     53  H   UNL A   1      41.179  29.756  32.923  1.00  0.00     0.167 HD
ATOM     54  C   UNL A   1      38.894  31.374  33.432  1.00  0.00     0.074 A 
ATOM     55  C   UNL A   1      37.639  32.074  33.241  1.00  0.00     0.031 C 
ATOM     56  C   UNL A   1      39.570  31.318  34.606  1.00  0.00     0.037 A 
BRANCH  43  57
ATOM     57  C   UNL A   1      44.757  27.944  34.394  1.00  0.00     0.057 A 
ATOM     58  C   UNL A   1      44.721  26.705  35.046  1.00  0.00     0.134 A 
ATOM     59  C   UNL A   1      45.958  28.665  34.454  1.00  0.00     0.134 A 
ATOM     60  F   UNL A   1      43.602  25.965  35.040  1.00  0.00    -0.206 F 
ATOM     61  C   UNL A   1      45.817  26.226  35.769  1.00  0.00     0.040 A 
ATOM     62  C   UNL A   1      47.071  28.183  35.145  1.00  0.00     0.040 A 
ATOM     63  F   UNL A   1      46.069  29.856  33.845  1.00  0.00    -0.206 F 
ATOM     64  C   UNL A   1      46.997  26.966  35.818  1.00  0.00     0.006 A 
ENDBRANCH  43  57
BRANCH  44  65
ATOM     65  C   UNL A   1      36.980  31.363  29.132  1.00  0.00     0.057 A 
ATOM     66  C   UNL A   1      35.868  30.552  28.879  1.00  0.00     0.134 A 
ATOM     67  C   UNL A   1      36.945  32.676  28.645  1.00  0.00     0.134 A 
ATOM     68  F   UNL A   1      35.852  29.280  29.300  1.00  0.00    -0.206 F 
ATOM     69  C   UNL A   1      34.762  31.029  28.172  1.00  0.00     0.040 A 
ATOM     70  C   UNL A   1      35.835  33.173  27.960  1.00  0.00     0.040 A 
ATOM     71  F   UNL A   1      37.978  33.504  28.856  1.00  0.00    -0.206 F 
ATOM     72  C   UNL A   1      34.740  32.346  27.720  1.00  0.00     0.006 A 
ENDBRANCH  44  65
BRANCH  56  73
ATOM     73  C   UNL A   1      39.008  32.088  35.764  1.00  0.00     0.057 A 
ATOM     74  C   UNL A   1      38.207  31.488  36.742  1.00  0.00     0.134 A 
ATOM     75  C   UNL A   1      39.331  33.442  35.932  1.00  0.00     0.134 A 
ATOM     76  F   UNL A   1      37.848  30.200  36.631  1.00  0.00    -0.206 F 
ATOM     77  C   UNL A   1      37.740  32.209  37.843  1.00  0.00     0.040 A 
ATOM     78  C   UNL A   1      38.892  34.165  37.039  1.00  0.00     0.040 A 
ATOM     79  F   UNL A   1      40.100  34.075  35.032  1.00  0.00    -0.206 F 
ATOM     80  C   UNL A   1      38.091  33.549  37.999  1.00  0.00     0.006 A 
ENDBRANCH  56  73
ENDBRANCH  30  31
ENDBRANCH  23  25
ENDBRANCH  22  23
ENDBRANCH  21  22
ENDBRANCH  20  21
ENDBRANCH   1  20
TORSDOF 16
ENDMDL
MODEL 2
REMARK VINA RESULT:     -10.3      2.790      8.107
REMARK SMILES CCOCCC(=O)Nc1cc(C(=O)OCCOC(=O)c2ccc(-c3c4nc(c(-c5c(F)cccc5F)c5ccc([nH]5)c(-c5c(F)cccc5F)c5nc(c(-c6c(F)cccc6F)c6ccc3[nH]6)C=C5)C=C4)cc2)ccc1Cl
REMARK SMILES IDX 14 1 12 2 13 3 11 4 9 5 10 6 76 7 75 8 77 9 74 10 8 11 6 12
REMARK SMILES IDX 7 13 5 15 4 16 3 17 2 18 1 19 15 20 16 21 17 22 18 23 19 24
REMARK SMILES IDX 20 25 21 26 73 27 22 28 72 29 23 30 24 31 25 32 66 33 26 34
REMARK SMILES IDX 71 35 65 36 67 37 27 38 70 39 64 40 63 41 28 43 54 44 37 45
REMARK SMILES IDX 53 46 38 47 41 48 52 49 68 50 39 51 40 52 51 54 69 55 42 56
REMARK SMILES IDX 29 57 30 58 35 59 31 60 32 61 34 62 36 63 33 64 55 65 56 66
REMARK SMILES IDX 61 67 57 68 58 69 60 70 62 71 59 72 43 73 44 74 49 75 45 76
REMARK SMILES IDX 46 77 48 78 50 79 47 80
REMARK H PARENT 8 14 67 42 41 53
REMARK Flexibility Score: inf
ROOT
ATOM      1  O   UNL A   1      30.437  28.782  24.014  1.00  0.00    -0.458 OA
ENDROOT
BRANCH   1   2
ATOM      2  C   UNL A   1      30.467  27.717  23.174  1.00  0.00     0.338 C 
ATOM      3  O   UNL A   1      30.645  27.739  21.976  1.00  0.00    -0.246 OA
BRANCH   2   4
ATOM      4  C   UNL A   1      30.421  26.461  23.962  1.00  0.00     0.062 A 
ATOM      5  C   UNL A   1      30.815  24.039  23.905  1.00  0.00     0.060 A 
ATOM      6  C   UNL A   1      30.651  25.273  23.264  1.00  0.00     0.043 A 
ATOM      7  C   UNL A   1      30.678  24.016  25.300  1.00  0.00     0.064 A 
ATOM      8  C   UNL A   1      30.339  25.195  25.995  1.00  0.00     0.023 A 
ATOM      9  Cl  UNL A   1      31.095  22.696  26.319  1.00  0.00    -0.082 Cl
ATOM     10  C   UNL A   1      30.227  26.419  25.335  1.00  0.00     0.017 A 
BRANCH   5  11
ATOM     11  N   UNL A   1      31.185  23.023  23.002  1.00  0.00    -0.325 N 
ATOM     12  C   UNL A   1      32.275  22.239  22.816  1.00  0.00     0.226 C 
ATOM     13  O   UNL A   1      32.205  21.391  21.919  1.00  0.00    -0.275 OA
ATOM     14  H   UNL A   1      30.477  22.834  22.344  1.00  0.00     0.169 HD
BRANCH  12  15
ATOM     15  C   UNL A   1      33.481  22.305  23.696  1.00  0.00     0.129 C 
BRANCH  15  16
ATOM     16  C   UNL A   1      34.508  23.308  23.174  1.00  0.00     0.170 C 
BRANCH  16  17
ATOM     17  O   UNL A   1      35.120  24.166  24.139  1.00  0.00    -0.381 OA
BRANCH  17  18
ATOM     18  C   UNL A   1      34.348  24.396  25.317  1.00  0.00     0.156 C 
ATOM     19  C   UNL A   1      33.931  25.850  25.364  1.00  0.00     0.035 C 
ENDBRANCH  17  18
ENDBRANCH  16  17
ENDBRANCH  15  16
ENDBRANCH  12  15
ENDBRANCH   5  11
ENDBRANCH   2   4
ENDBRANCH   1   2
BRANCH   1  20
ATOM     20  C   UNL A   1      31.717  29.241  24.484  1.00  0.00     0.275 C 
BRANCH  20  21
ATOM     21  C   UNL A   1      31.570  30.367  25.513  1.00  0.00     0.275 C 
BRANCH  21  22
ATOM     22  O   UNL A   1      32.486  30.228  26.618  1.00  0.00    -0.458 OA
BRANCH  22  23
ATOM     23  C   UNL A   1      33.014  31.384  27.077  1.00  0.00     0.338 C 
ATOM     24  O   UNL A   1      32.462  32.470  27.158  1.00  0.00    -0.246 OA
BRANCH  23  25
ATOM     25  C   UNL A   1      34.376  31.163  27.585  1.00  0.00     0.060 A 
ATOM     26  C   UNL A   1      34.737  29.857  27.906  1.00  0.00     0.016 A 
ATOM     27  C   UNL A   1      35.231  32.219  27.893  1.00  0.00     0.016 A 
ATOM     28  C   UNL A   1      35.910  29.591  28.603  1.00  0.00     0.010 A 
ATOM     29  C   UNL A   1      36.449  31.945  28.529  1.00  0.00     0.010 A 
ATOM     30  C   UNL A   1      36.789  30.632  28.916  1.00  0.00    -0.014 A 
BRANCH  30  31
ATOM     31  C   UNL A   1      38.037  30.367  29.685  1.00  0.00     0.031 A 
ATOM     32  C   UNL A   1      39.125  29.527  29.074  1.00  0.00     0.074 A 
ATOM     33  C   UNL A   1      38.203  30.865  30.925  1.00  0.00     0.049 A 
ATOM     34  N   UNL A   1      40.170  28.976  29.639  1.00  0.00    -0.248 NA
ATOM     35  C   UNL A   1      39.008  29.254  27.634  1.00  0.00     0.031 C 
ATOM     36  C   UNL A   1      37.275  31.765  31.612  1.00  0.00     0.029 A 
ATOM     37  N   UNL A   1      39.215  30.677  31.836  1.00  0.00    -0.354 N 
ATOM     38  C   UNL A   1      40.797  28.241  28.640  1.00  0.00     0.074 A 
ATOM     39  C   UNL A   1      40.011  28.411  27.437  1.00  0.00     0.031 C 
ATOM     40  C   UNL A   1      37.770  32.070  32.821  1.00  0.00     0.029 A 
ATOM     41  C   UNL A   1      38.998  31.311  33.034  1.00  0.00     0.049 A 
ATOM     42  H   UNL A   1      40.017  30.139  31.646  1.00  0.00     0.167 HD
ATOM     43  C   UNL A   1      41.922  27.489  28.725  1.00  0.00     0.037 A 
ATOM     44  C   UNL A   1      39.679  31.251  34.194  1.00  0.00     0.037 A 
ATOM     45  C   UNL A   1      42.718  27.363  29.919  1.00  0.00     0.049 A 
ATOM     46  C   UNL A   1      40.876  30.351  34.294  1.00  0.00     0.074 A 
ATOM     47  C   UNL A   1      43.879  26.637  30.111  1.00  0.00     0.029 A 
ATOM     48  N   UNL A   1      42.436  27.993  31.124  1.00  0.00    -0.354 N 
ATOM     49  N   UNL A   1      41.428  29.605  33.368  1.00  0.00    -0.248 NA
ATOM     50  C   UNL A   1      41.534  30.265  35.605  1.00  0.00     0.031 C 
ATOM     51  C   UNL A   1      44.273  26.785  31.446  1.00  0.00     0.029 A 
ATOM     52  C   UNL A   1      43.390  27.653  32.069  1.00  0.00     0.049 A 
ATOM     53  H   UNL A   1      41.671  28.591  31.283  1.00  0.00     0.167 HD
ATOM     54  C   UNL A   1      42.517  28.990  33.971  1.00  0.00     0.074 A 
ATOM     55  C   UNL A   1      42.545  29.447  35.346  1.00  0.00     0.031 C 
ATOM     56  C   UNL A   1      43.417  28.134  33.429  1.00  0.00     0.037 A 
BRANCH  43  57
ATOM     57  C   UNL A   1      42.316  26.700  27.507  1.00  0.00     0.057 A 
ATOM     58  C   UNL A   1      41.914  25.373  27.306  1.00  0.00     0.134 A 
ATOM     59  C   UNL A   1      43.127  27.280  26.522  1.00  0.00     0.134 A 
ATOM     60  F   UNL A   1      41.147  24.749  28.212  1.00  0.00    -0.206 F 
ATOM     61  C   UNL A   1      42.342  24.640  26.196  1.00  0.00     0.040 A 
ATOM     62  C   UNL A   1      43.533  26.569  25.392  1.00  0.00     0.040 A 
ATOM     63  F   UNL A   1      43.542  28.551  26.642  1.00  0.00    -0.206 F 
ATOM     64  C   UNL A   1      43.153  25.239  25.234  1.00  0.00     0.006 A 
ENDBRANCH  43  57
BRANCH  44  65
ATOM     65  C   UNL A   1      39.222  32.052  35.359  1.00  0.00     0.057 A 
ATOM     66  C   UNL A   1      39.614  33.387  35.507  1.00  0.00     0.134 A 
ATOM     67  C   UNL A   1      38.363  31.520  36.329  1.00  0.00     0.134 A 
ATOM     68  F   UNL A   1      40.452  33.946  34.623  1.00  0.00    -0.206 F 
ATOM     69  C   UNL A   1      39.166  34.165  36.577  1.00  0.00     0.040 A 
ATOM     70  C   UNL A   1      37.888  32.294  37.388  1.00  0.00     0.040 A 
ATOM     71  F   UNL A   1      37.949  30.247  36.243  1.00  0.00    -0.206 F 
ATOM     72  C   UNL A   1      38.293  33.621  37.515  1.00  0.00     0.006 A 
ENDBRANCH  44  65
BRANCH  56  73
ATOM     73  C   UNL A   1      44.552  27.683  34.299  1.00  0.00     0.057 A 
ATOM     74  C   UNL A   1      45.738  28.416  34.420  1.00  0.00     0.134 A 
ATOM     75  C   UNL A   1      44.424  26.526  35.080  1.00  0.00     0.134 A 
ATOM     76  F   UNL A   1      45.930  29.525  33.688  1.00  0.00    -0.206 F 
ATOM     77  C   UNL A   1      46.761  28.010  35.279  1.00  0.00     0.040 A 
ATOM     78  C   UNL A   1      45.428  26.124  35.960  1.00  0.00     0.040 A 
ATOM     79  F   UNL A   1      43.309  25.781  35.015  1.00  0.00    -0.206 F 
ATOM     80  C   UNL A   1      46.603  26.866  36.060  1.00  0.00     0.006 A 
ENDBRANCH  56  73
ENDBRANCH  30  31
ENDBRANCH  23  25
ENDBRANCH  22  23
ENDBRANCH  21  22
ENDBRANCH  20  21
ENDBRANCH   1  20
TORSDOF 16
ENDMDL
MODEL 3
REMARK VINA RESULT:     -10.1      4.005      8.216
REMARK SMILES CCOCCC(=O)Nc1cc(C(=O)OCCOC(=O)c2ccc(-c3c4nc(c(-c5c(F)cccc5F)c5ccc([nH]5)c(-c5c(F)cccc5F)c5nc(c(-c6c(F)cccc6F)c6ccc3[nH]6)C=C5)C=C4)cc2)ccc1Cl
REMARK SMILES IDX 14 1 12 2 13 3 11 4 9 5 10 6 76 7 75 8 77 9 74 10 8 11 6 12
REMARK SMILES IDX 7 13 5 15 4 16 3 17 2 18 1 19 15 20 16 21 17 22 18 23 19 24
REMARK SMILES IDX 20 25 21 26 73 27 22 28 72 29 23 30 24 31 25 32 66 33 26 34
REMARK SMILES IDX 71 35 65 36 67 37 27 38 70 39 64 40 63 41 28 43 54 44 37 45
REMARK SMILES IDX 53 46 38 47 41 48 52 49 68 50 39 51 40 52 51 54 69 55 42 56
REMARK SMILES IDX 29 57 30 58 35 59 31 60 32 61 34 62 36 63 33 64 55 65 56 66
REMARK SMILES IDX 61 67 57 68 58 69 60 70 62 71 59 72 43 73 44 74 49 75 45 76
REMARK SMILES IDX 46 77 48 78 50 79 47 80
REMARK H PARENT 8 14 67 42 41 53
REMARK Flexibility Score: inf
ROOT
ATOM      1  O   UNL A   1      34.710  22.245  25.387  1.00  0.00    -0.458 OA
ENDROOT
BRANCH   1   2
ATOM      2  C   UNL A   1      33.915  22.471  26.464  1.00  0.00     0.338 C 
ATOM      3  O   UNL A   1      34.043  22.006  27.575  1.00  0.00    -0.246 OA
BRANCH   2   4
ATOM      4  C   UNL A   1      32.931  23.533  26.140  1.00  0.00     0.062 A 
ATOM      5  C   UNL A   1      32.270  25.223  24.487  1.00  0.00     0.060 A 
ATOM      6  C   UNL A   1      33.195  24.311  25.010  1.00  0.00     0.043 A 
ATOM      7  C   UNL A   1      31.063  25.384  25.181  1.00  0.00     0.064 A 
ATOM      8  C   UNL A   1      30.841  24.680  26.382  1.00  0.00     0.023 A 
ATOM      9  Cl  UNL A   1      29.684  26.229  24.598  1.00  0.00    -0.082 Cl
ATOM     10  C   UNL A   1      31.761  23.744  26.855  1.00  0.00     0.017 A 
BRANCH   5  11
ATOM     11  N   UNL A   1      32.706  25.770  23.263  1.00  0.00    -0.325 N 
ATOM     12  C   UNL A   1      33.416  26.861  22.887  1.00  0.00     0.226 C 
ATOM     13  O   UNL A   1      33.655  26.981  21.679  1.00  0.00    -0.275 OA
ATOM     14  H   UNL A   1      32.428  25.225  22.492  1.00  0.00     0.169 HD
BRANCH  12  15
ATOM     15  C   UNL A   1      33.981  27.839  23.865  1.00  0.00     0.129 C 
BRANCH  15  16
ATOM     16  C   UNL A   1      32.914  28.799  24.386  1.00  0.00     0.170 C 
BRANCH  16  17
ATOM     17  O   UNL A   1      33.024  29.209  25.749  1.00  0.00    -0.381 OA
BRANCH  17  18
ATOM     18  C   UNL A   1      31.788  29.273  26.461  1.00  0.00     0.156 C 
ATOM     19  C   UNL A   1      31.767  28.194  27.523  1.00  0.00     0.035 C 
ENDBRANCH  17  18
ENDBRANCH  16  17
ENDBRANCH  15  16
ENDBRANCH  12  15
ENDBRANCH   5  11
ENDBRANCH   2   4
ENDBRANCH   1   2
BRANCH   1  20
ATOM     20  C   UNL A   1      34.841  20.869  24.987  1.00  0.00     0.275 C 
BRANCH  20  21
ATOM     21  C   UNL A   1      36.305  20.419  24.986  1.00  0.00     0.275 C 
BRANCH  21  22
ATOM     22  O   UNL A   1      37.216  21.501  25.265  1.00  0.00    -0.458 OA
BRANCH  22  23
ATOM     23  C   UNL A   1      38.429  21.128  25.730  1.00  0.00     0.338 C 
ATOM     24  O   UNL A   1      38.979  20.049  25.584  1.00  0.00    -0.246 OA
BRANCH  23  25
ATOM     25  C   UNL A   1      39.095  22.258  26.395  1.00  0.00     0.060 A 
ATOM     26  C   UNL A   1      38.615  23.536  26.122  1.00  0.00     0.016 A 
ATOM     27  C   UNL A   1      40.258  22.094  27.144  1.00  0.00     0.016 A 
ATOM     28  C   UNL A   1      39.324  24.665  26.519  1.00  0.00     0.010 A 
ATOM     29  C   UNL A   1      40.934  23.230  27.609  1.00  0.00     0.010 A 
ATOM     30  C   UNL A   1      40.490  24.528  27.278  1.00  0.00    -0.014 A 
BRANCH  30  31
ATOM     31  C   UNL A   1      41.274  25.726  27.690  1.00  0.00     0.031 A 
ATOM     32  C   UNL A   1      40.631  26.778  28.550  1.00  0.00     0.074 A 
ATOM     33  C   UNL A   1      42.553  25.882  27.295  1.00  0.00     0.049 A 
ATOM     34  N   UNL A   1      41.035  27.994  28.822  1.00  0.00    -0.248 NA
ATOM     35  C   UNL A   1      39.349  26.419  29.173  1.00  0.00     0.031 C 
ATOM     36  C   UNL A   1      43.334  24.906  26.533  1.00  0.00     0.029 A 
ATOM     37  N   UNL A   1      43.421  26.931  27.477  1.00  0.00    -0.354 N 
ATOM     38  C   UNL A   1      40.028  28.564  29.591  1.00  0.00     0.074 A 
ATOM     39  C   UNL A   1      38.993  27.564  29.736  1.00  0.00     0.031 C 
ATOM     40  C   UNL A   1      44.570  25.390  26.335  1.00  0.00     0.029 A 
ATOM     41  C   UNL A   1      44.638  26.747  26.868  1.00  0.00     0.049 A 
ATOM     42  H   UNL A   1      43.193  27.737  27.995  1.00  0.00     0.167 HD
ATOM     43  C   UNL A   1      39.974  29.811  30.121  1.00  0.00     0.037 A 
ATOM     44  C   UNL A   1      45.675  27.590  26.707  1.00  0.00     0.037 A 
ATOM     45  C   UNL A   1      41.032  30.782  30.005  1.00  0.00     0.049 A 
ATOM     46  C   UNL A   1      45.566  28.993  27.231  1.00  0.00     0.074 A 
ATOM     47  C   UNL A   1      41.084  32.068  30.511  1.00  0.00     0.029 A 
ATOM     48  N   UNL A   1      42.232  30.564  29.342  1.00  0.00    -0.354 N 
ATOM     49  N   UNL A   1      44.586  29.550  27.899  1.00  0.00    -0.248 NA
ATOM     50  C   UNL A   1      46.696  29.891  26.959  1.00  0.00     0.031 C 
ATOM     51  C   UNL A   1      42.294  32.647  30.111  1.00  0.00     0.029 A 
ATOM     52  C   UNL A   1      43.021  31.700  29.408  1.00  0.00     0.049 A 
ATOM     53  H   UNL A   1      42.484  29.726  28.891  1.00  0.00     0.167 HD
ATOM     54  C   UNL A   1      44.994  30.851  28.161  1.00  0.00     0.074 A 
ATOM     55  C   UNL A   1      46.310  31.002  27.573  1.00  0.00     0.031 C 
ATOM     56  C   UNL A   1      44.339  31.828  28.836  1.00  0.00     0.037 A 
BRANCH  43  57
ATOM     57  C   UNL A   1      38.703  30.207  30.820  1.00  0.00     0.057 A 
ATOM     58  C   UNL A   1      37.650  30.854  30.160  1.00  0.00     0.134 A 
ATOM     59  C   UNL A   1      38.537  29.945  32.187  1.00  0.00     0.134 A 
ATOM     60  F   UNL A   1      37.743  31.147  28.854  1.00  0.00    -0.206 F 
ATOM     61  C   UNL A   1      36.502  31.267  30.842  1.00  0.00     0.040 A 
ATOM     62  C   UNL A   1      37.381  30.322  32.873  1.00  0.00     0.040 A 
ATOM     63  F   UNL A   1      39.500  29.319  32.883  1.00  0.00    -0.206 F 
ATOM     64  C   UNL A   1      36.366  30.999  32.203  1.00  0.00     0.006 A 
ENDBRANCH  43  57
BRANCH  44  65
ATOM     65  C   UNL A   1      46.895  27.129  25.996  1.00  0.00     0.057 A 
ATOM     66  C   UNL A   1      47.029  27.308  24.615  1.00  0.00     0.134 A 
ATOM     67  C   UNL A   1      47.965  26.532  26.676  1.00  0.00     0.134 A 
ATOM     68  F   UNL A   1      46.031  27.854  23.906  1.00  0.00    -0.206 F 
ATOM     69  C   UNL A   1      48.183  26.912  23.935  1.00  0.00     0.040 A 
ATOM     70  C   UNL A   1      49.133  26.155  26.013  1.00  0.00     0.040 A 
ATOM     71  F   UNL A   1      47.899  26.333  28.000  1.00  0.00    -0.206 F 
ATOM     72  C   UNL A   1      49.243  26.343  24.637  1.00  0.00     0.006 A 
ENDBRANCH  44  65
BRANCH  56  73
ATOM     73  C   UNL A   1      45.059  33.127  29.040  1.00  0.00     0.057 A 
ATOM     74  C   UNL A   1      45.928  33.339  30.116  1.00  0.00     0.134 A 
ATOM     75  C   UNL A   1      44.925  34.161  28.102  1.00  0.00     0.134 A 
ATOM     76  F   UNL A   1      46.088  32.396  31.058  1.00  0.00    -0.206 F 
ATOM     77  C   UNL A   1      46.632  34.537  30.258  1.00  0.00     0.040 A 
ATOM     78  C   UNL A   1      45.643  35.350  28.219  1.00  0.00     0.040 A 
ATOM     79  F   UNL A   1      44.112  34.018  27.044  1.00  0.00    -0.206 F 
ATOM     80  C   UNL A   1      46.499  35.542  29.302  1.00  0.00     0.006 A 
ENDBRANCH  56  73
ENDBRANCH  30  31
ENDBRANCH  23  25
ENDBRANCH  22  23
ENDBRANCH  21  22
ENDBRANCH  20  21
ENDBRANCH   1  20
TORSDOF 16
ENDMDL
