MODEL 1
REMARK VINA RESULT:     -12.4      0.000      0.000
REMARK SMILES COc1cc2c(CC(=O)OCCOC(=O)c3ccc(-c4c5nc(c(-c6c(F)cccc6F)c6ccc([nH]6)c(-c6c(F)cccc6F)c6nc(c(-c7c(F)cccc7F)c7ccc4[nH]7)C=C6)C=C5)cc3)c(C)n(C(=O)c3ccc(Cl)cc3)c2cc1Cl
REMARK SMILES IDX 11 1 10 2 8 3 9 4 7 5 6 6 3 7 4 8 84 9 5 10 83 11 85 12
REMARK SMILES IDX 82 13 70 14 72 15 71 16 2 17 1 18 73 19 74 20 75 21 76 22
REMARK SMILES IDX 81 23 77 24 80 25 78 26 79 27 12 28 13 29 14 30 15 31 16 32
REMARK SMILES IDX 17 33 69 34 18 35 68 36 19 37 20 38 21 39 62 40 22 41 67 42
REMARK SMILES IDX 61 43 63 44 23 45 66 46 60 47 59 48 24 50 50 51 33 52 49 53
REMARK SMILES IDX 34 54 37 55 48 56 64 57 35 58 36 59 47 61 65 62 38 63 25 64
REMARK SMILES IDX 26 65 31 66 27 67 28 68 30 69 32 70 29 71 51 72 52 73 57 74
REMARK SMILES IDX 53 75 54 76 56 77 58 78 55 79 39 80 40 81 45 82 41 83 42 84
REMARK SMILES IDX 44 85 46 86 43 87
REMARK H PARENT 63 49 37 60
REMARK Flexibility Score: inf
ROOT
ATOM      1  C   UNL A   1      31.140  27.757  25.174  1.00  0.00     0.274 C 
ENDROOT
BRANCH   1   2
ATOM      2  O   UNL A   1      31.497  27.132  26.427  1.00  0.00    -0.462 OA
BRANCH   2   3
ATOM      3  C   UNL A   1      31.911  25.846  26.337  1.00  0.00     0.310 C 
ATOM      4  O   UNL A   1      31.480  24.933  27.037  1.00  0.00    -0.252 OA
BRANCH   3   5
ATOM      5  C   UNL A   1      33.001  25.589  25.337  1.00  0.00     0.160 C 
BRANCH   5   6
ATOM      6  C   UNL A   1      33.373  24.195  24.905  1.00  0.00    -0.008 A 
ATOM      7  C   UNL A   1      36.889  22.726  25.683  1.00  0.00     0.138 A 
ATOM      8  C   UNL A   1      35.809  23.633  25.769  1.00  0.00     0.058 A 
ATOM      9  C   UNL A   1      36.726  21.576  24.926  1.00  0.00     0.085 A 
ATOM     10  C   UNL A   1      34.581  23.440  25.082  1.00  0.00     0.008 A 
ATOM     11  C   UNL A   1      35.539  21.371  24.214  1.00  0.00     0.051 A 
ATOM     12  Cl  UNL A   1      37.853  20.265  24.871  1.00  0.00    -0.080 Cl
ATOM     13  C   UNL A   1      34.453  22.269  24.327  1.00  0.00     0.058 A 
ATOM     14  C   UNL A   1      32.576  23.470  24.022  1.00  0.00     0.028 A 
ATOM     15  N   UNL A   1      33.142  22.214  23.827  1.00  0.00    -0.280 N 
ATOM     16  C   UNL A   1      31.298  23.940  23.394  1.00  0.00     0.065 C 
BRANCH   7  17
ATOM     17  O   UNL A   1      37.978  23.071  26.440  1.00  0.00    -0.495 OA
ATOM     18  C   UNL A   1      38.377  24.440  26.439  1.00  0.00     0.278 C 
ENDBRANCH   7  17
BRANCH  15  19
ATOM     19  C   UNL A   1      32.508  21.086  23.233  1.00  0.00     0.262 C 
ATOM     20  O   UNL A   1      31.907  21.215  22.170  1.00  0.00    -0.268 OA
BRANCH  19  21
ATOM     21  C   UNL A   1      32.500  19.740  23.817  1.00  0.00     0.040 A 
ATOM     22  C   UNL A   1      32.540  19.579  25.207  1.00  0.00     0.015 A 
ATOM     23  C   UNL A   1      32.551  18.642  22.954  1.00  0.00     0.015 A 
ATOM     24  C   UNL A   1      32.705  18.299  25.734  1.00  0.00     0.021 A 
ATOM     25  C   UNL A   1      32.710  17.366  23.490  1.00  0.00     0.021 A 
ATOM     26  C   UNL A   1      32.802  17.201  24.875  1.00  0.00     0.041 A 
ATOM     27  Cl  UNL A   1      33.068  15.632  25.527  1.00  0.00    -0.084 Cl
ENDBRANCH  19  21
ENDBRANCH  15  19
ENDBRANCH   5   6
ENDBRANCH   3   5
ENDBRANCH   2   3
ENDBRANCH   1   2
BRANCH   1  28
ATOM     28  C   UNL A   1      31.430  29.260  25.224  1.00  0.00     0.275 C 
BRANCH  28  29
ATOM     29  O   UNL A   1      32.133  29.550  26.441  1.00  0.00    -0.458 OA
BRANCH  29  30
ATOM     30  C   UNL A   1      32.279  30.859  26.774  1.00  0.00     0.338 C 
ATOM     31  O   UNL A   1      31.435  31.721  26.784  1.00  0.00    -0.246 OA
BRANCH  30  32
ATOM     32  C   UNL A   1      33.595  30.943  27.442  1.00  0.00     0.060 A 
ATOM     33  C   UNL A   1      34.060  32.166  27.917  1.00  0.00     0.016 A 
ATOM     34  C   UNL A   1      34.441  29.829  27.382  1.00  0.00     0.016 A 
ATOM     35  C   UNL A   1      35.409  32.302  28.211  1.00  0.00     0.010 A 
ATOM     36  C   UNL A   1      35.799  29.978  27.638  1.00  0.00     0.010 A 
ATOM     37  C   UNL A   1      36.289  31.226  28.010  1.00  0.00    -0.014 A 
BRANCH  37  38
ATOM     38  C   UNL A   1      37.637  31.357  28.541  1.00  0.00     0.031 A 
ATOM     39  C   UNL A   1      38.415  30.116  28.334  1.00  0.00     0.074 A 
ATOM     40  C   UNL A   1      38.243  32.400  29.134  1.00  0.00     0.049 A 
ATOM     41  N   UNL A   1      38.631  29.200  29.215  1.00  0.00    -0.248 NA
ATOM     42  C   UNL A   1      38.865  29.783  26.978  1.00  0.00     0.031 C 
ATOM     43  C   UNL A   1      37.860  33.805  29.207  1.00  0.00     0.029 A 
ATOM     44  N   UNL A   1      39.439  32.366  29.797  1.00  0.00    -0.354 N 
ATOM     45  C   UNL A   1      39.389  28.232  28.576  1.00  0.00     0.074 A 
ATOM     46  C   UNL A   1      39.374  28.566  27.175  1.00  0.00     0.031 C 
ATOM     47  C   UNL A   1      38.895  34.518  29.723  1.00  0.00     0.029 A 
ATOM     48  C   UNL A   1      39.951  33.605  30.146  1.00  0.00     0.049 A 
ATOM     49  H   UNL A   1      39.901  31.523  30.010  1.00  0.00     0.167 HD
ATOM     50  C   UNL A   1      40.136  27.353  29.294  1.00  0.00     0.037 A 
ATOM     51  C   UNL A   1      41.164  33.837  30.713  1.00  0.00     0.037 A 
ATOM     52  C   UNL A   1      39.716  27.308  30.676  1.00  0.00     0.049 A 
ATOM     53  C   UNL A   1      41.600  32.581  31.380  1.00  0.00     0.074 A 
ATOM     54  C   UNL A   1      38.505  27.092  31.314  1.00  0.00     0.029 A 
ATOM     55  N   UNL A   1      40.522  27.888  31.627  1.00  0.00    -0.354 N 
ATOM     56  N   UNL A   1      41.089  32.121  32.486  1.00  0.00    -0.248 NA
ATOM     57  C   UNL A   1      42.363  31.615  30.600  1.00  0.00     0.031 C 
ATOM     58  C   UNL A   1      38.491  28.013  32.404  1.00  0.00     0.029 A 
ATOM     59  C   UNL A   1      39.711  28.687  32.391  1.00  0.00     0.049 A 
ATOM     60  H   UNL A   1      41.491  27.755  31.737  1.00  0.00     0.167 HD
ATOM     61  C   UNL A   1      41.069  30.746  32.317  1.00  0.00     0.074 A 
ATOM     62  C   UNL A   1      41.963  30.487  31.193  1.00  0.00     0.031 C 
ATOM     63  C   UNL A   1      40.120  29.968  32.916  1.00  0.00     0.037 A 
BRANCH  50  64
ATOM     64  C   UNL A   1      41.469  26.826  28.835  1.00  0.00     0.057 A 
ATOM     65  C   UNL A   1      42.651  27.593  28.781  1.00  0.00     0.134 A 
ATOM     66  C   UNL A   1      41.652  25.436  28.740  1.00  0.00     0.134 A 
ATOM     67  F   UNL A   1      42.657  28.923  28.922  1.00  0.00    -0.206 F 
ATOM     68  C   UNL A   1      43.919  27.019  28.684  1.00  0.00     0.040 A 
ATOM     69  C   UNL A   1      42.920  24.849  28.699  1.00  0.00     0.040 A 
ATOM     70  F   UNL A   1      40.603  24.599  28.782  1.00  0.00    -0.206 F 
ATOM     71  C   UNL A   1      44.060  25.641  28.683  1.00  0.00     0.006 A 
ENDBRANCH  50  64
BRANCH  51  72
ATOM     72  C   UNL A   1      42.072  35.001  30.606  1.00  0.00     0.057 A 
ATOM     73  C   UNL A   1      42.572  35.433  29.367  1.00  0.00     0.134 A 
ATOM     74  C   UNL A   1      42.702  35.541  31.742  1.00  0.00     0.134 A 
ATOM     75  F   UNL A   1      42.096  34.936  28.217  1.00  0.00    -0.206 F 
ATOM     76  C   UNL A   1      43.648  36.323  29.261  1.00  0.00     0.040 A 
ATOM     77  C   UNL A   1      43.785  36.426  31.649  1.00  0.00     0.040 A 
ATOM     78  F   UNL A   1      42.330  35.169  32.974  1.00  0.00    -0.206 F 
ATOM     79  C   UNL A   1      44.270  36.810  30.404  1.00  0.00     0.006 A 
ENDBRANCH  51  72
BRANCH  63  80
ATOM     80  C   UNL A   1      39.274  30.568  34.004  1.00  0.00     0.057 A 
ATOM     81  C   UNL A   1      38.170  31.351  33.639  1.00  0.00     0.134 A 
ATOM     82  C   UNL A   1      39.577  30.507  35.374  1.00  0.00     0.134 A 
ATOM     83  F   UNL A   1      37.847  31.504  32.345  1.00  0.00    -0.206 F 
ATOM     84  C   UNL A   1      37.393  32.025  34.584  1.00  0.00     0.040 A 
ATOM     85  C   UNL A   1      38.782  31.143  36.332  1.00  0.00     0.040 A 
ATOM     86  F   UNL A   1      40.676  29.881  35.820  1.00  0.00    -0.206 F 
ATOM     87  C   UNL A   1      37.690  31.909  35.939  1.00  0.00     0.006 A 
ENDBRANCH  63  80
ENDBRANCH  37  38
ENDBRANCH  30  32
ENDBRANCH  29  30
ENDBRANCH  28  29
ENDBRANCH   1  28
TORSDOF 15
ENDMDL
MODEL 2
REMARK VINA RESULT:     -12.4      2.878      7.038
REMARK SMILES COc1cc2c(CC(=O)OCCOC(=O)c3ccc(-c4c5nc(c(-c6c(F)cccc6F)c6ccc([nH]6)c(-c6c(F)cccc6F)c6nc(c(-c7c(F)cccc7F)c7ccc4[nH]7)C=C6)C=C5)cc3)c(C)n(C(=O)c3ccc(Cl)cc3)c2cc1Cl
REMARK SMILES IDX 11 1 10 2 8 3 9 4 7 5 6 6 3 7 4 8 84 9 5 10 83 11 85 12
REMARK SMILES IDX 82 13 70 14 72 15 71 16 2 17 1 18 73 19 74 20 75 21 76 22
REMARK SMILES IDX 81 23 77 24 80 25 78 26 79 27 12 28 13 29 14 30 15 31 16 32
REMARK SMILES IDX 17 33 69 34 18 35 68 36 19 37 20 38 21 39 62 40 22 41 67 42
REMARK SMILES IDX 61 43 63 44 23 45 66 46 60 47 59 48 24 50 50 51 33 52 49 53
REMARK SMILES IDX 34 54 37 55 48 56 64 57 35 58 36 59 47 61 65 62 38 63 25 64
REMARK SMILES IDX 26 65 31 66 27 67 28 68 30 69 32 70 29 71 51 72 52 73 57 74
REMARK SMILES IDX 53 75 54 76 56 77 58 78 55 79 39 80 40 81 45 82 41 83 42 84
REMARK SMILES IDX 44 85 46 86 43 87
REMARK H PARENT 63 49 37 60
REMARK Flexibility Score: inf
ROOT
ATOM      1  C   UNL A   1      40.375  21.249  26.917  1.00  0.00     0.274 C 
ENDROOT
BRANCH   1   2
ATOM      2  O   UNL A   1      39.338  21.033  25.934  1.00  0.00    -0.462 OA
BRANCH   2   3
ATOM      3  C   UNL A   1      38.500  22.078  25.735  1.00  0.00     0.310 C 
ATOM      4  O   UNL A   1      38.547  23.129  26.370  1.00  0.00    -0.252 OA
BRANCH   3   5
ATOM      5  C   UNL A   1      37.439  21.864  24.695  1.00  0.00     0.160 C 
BRANCH   5   6
ATOM      6  C   UNL A   1      36.006  21.588  25.066  1.00  0.00    -0.008 A 
ATOM      7  C   UNL A   1      34.456  18.053  24.590  1.00  0.00     0.138 A 
ATOM      8  C   UNL A   1      35.476  19.028  24.664  1.00  0.00     0.058 A 
ATOM      9  C   UNL A   1      33.157  18.432  24.893  1.00  0.00     0.085 A 
ATOM     10  C   UNL A   1      35.224  20.386  24.995  1.00  0.00     0.008 A 
ATOM     11  C   UNL A   1      32.873  19.768  25.195  1.00  0.00     0.051 A 
ATOM     12  Cl  UNL A   1      31.825  17.341  25.053  1.00  0.00    -0.080 Cl
ATOM     13  C   UNL A   1      33.902  20.732  25.295  1.00  0.00     0.058 A 
ATOM     14  C   UNL A   1      35.121  22.621  25.369  1.00  0.00     0.028 A 
ATOM     15  N   UNL A   1      33.884  22.076  25.702  1.00  0.00    -0.280 N 
ATOM     16  C   UNL A   1      35.438  24.086  25.368  1.00  0.00     0.065 C 
BRANCH   7  17
ATOM     17  O   UNL A   1      34.900  16.793  24.283  1.00  0.00    -0.495 OA
ATOM     18  C   UNL A   1      35.275  15.942  25.366  1.00  0.00     0.278 C 
ENDBRANCH   7  17
BRANCH  15  19
ATOM     19  C   UNL A   1      32.807  22.755  26.337  1.00  0.00     0.262 C 
ATOM     20  O   UNL A   1      32.512  22.478  27.497  1.00  0.00    -0.268 OA
BRANCH  19  21
ATOM     21  C   UNL A   1      31.981  23.780  25.690  1.00  0.00     0.040 A 
ATOM     22  C   UNL A   1      31.565  24.904  26.414  1.00  0.00     0.015 A 
ATOM     23  C   UNL A   1      31.546  23.556  24.381  1.00  0.00     0.015 A 
ATOM     24  C   UNL A   1      30.642  25.776  25.837  1.00  0.00     0.021 A 
ATOM     25  C   UNL A   1      30.630  24.436  23.810  1.00  0.00     0.021 A 
ATOM     26  C   UNL A   1      30.170  25.532  24.545  1.00  0.00     0.041 A 
ATOM     27  Cl  UNL A   1      28.986  26.576  23.862  1.00  0.00    -0.084 Cl
ENDBRANCH  19  21
ENDBRANCH  15  19
ENDBRANCH   5   6
ENDBRANCH   3   5
ENDBRANCH   2   3
ENDBRANCH   1   2
BRANCH   1  28
ATOM     28  C   UNL A   1      41.753  20.969  26.310  1.00  0.00     0.275 C 
BRANCH  28  29
ATOM     29  O   UNL A   1      42.642  22.031  26.686  1.00  0.00    -0.458 OA
BRANCH  29  30
ATOM     30  C   UNL A   1      42.784  23.058  25.808  1.00  0.00     0.338 C 
ATOM     31  O   UNL A   1      43.027  22.998  24.627  1.00  0.00    -0.246 OA
BRANCH  30  32
ATOM     32  C   UNL A   1      42.251  24.244  26.510  1.00  0.00     0.060 A 
ATOM     33  C   UNL A   1      41.518  25.199  25.811  1.00  0.00     0.016 A 
ATOM     34  C   UNL A   1      42.687  24.492  27.818  1.00  0.00     0.016 A 
ATOM     35  C   UNL A   1      41.332  26.451  26.380  1.00  0.00     0.010 A 
ATOM     36  C   UNL A   1      42.536  25.759  28.368  1.00  0.00     0.010 A 
ATOM     37  C   UNL A   1      41.897  26.750  27.630  1.00  0.00    -0.014 A 
BRANCH  37  38
ATOM     38  C   UNL A   1      41.486  27.990  28.269  1.00  0.00     0.031 A 
ATOM     39  C   UNL A   1      42.488  29.058  28.056  1.00  0.00     0.074 A 
ATOM     40  C   UNL A   1      40.374  28.288  28.963  1.00  0.00     0.049 A 
ATOM     41  N   UNL A   1      43.386  29.435  28.899  1.00  0.00    -0.248 NA
ATOM     42  C   UNL A   1      42.607  29.657  26.722  1.00  0.00     0.031 C 
ATOM     43  C   UNL A   1      39.109  27.572  29.082  1.00  0.00     0.029 A 
ATOM     44  N   UNL A   1      40.168  29.413  29.712  1.00  0.00    -0.354 N 
ATOM     45  C   UNL A   1      44.098  30.443  28.270  1.00  0.00     0.074 A 
ATOM     46  C   UNL A   1      43.679  30.434  26.891  1.00  0.00     0.031 C 
ATOM     47  C   UNL A   1      38.209  28.370  29.713  1.00  0.00     0.029 A 
ATOM     48  C   UNL A   1      38.871  29.587  30.166  1.00  0.00     0.049 A 
ATOM     49  H   UNL A   1      40.890  30.053  29.915  1.00  0.00     0.167 HD
ATOM     50  C   UNL A   1      44.823  31.335  28.994  1.00  0.00     0.037 A 
ATOM     51  C   UNL A   1      38.398  30.670  30.836  1.00  0.00     0.037 A 
ATOM     52  C   UNL A   1      45.065  30.854  30.335  1.00  0.00     0.049 A 
ATOM     53  C   UNL A   1      39.558  31.357  31.465  1.00  0.00     0.074 A 
ATOM     54  C   UNL A   1      45.607  29.696  30.865  1.00  0.00     0.029 A 
ATOM     55  N   UNL A   1      44.378  31.436  31.375  1.00  0.00    -0.354 N 
ATOM     56  N   UNL A   1      40.204  30.905  32.503  1.00  0.00    -0.248 NA
ATOM     57  C   UNL A   1      40.256  32.377  30.695  1.00  0.00     0.031 C 
ATOM     58  C   UNL A   1      44.796  29.392  31.999  1.00  0.00     0.029 A 
ATOM     59  C   UNL A   1      43.851  30.410  32.117  1.00  0.00     0.049 A 
ATOM     60  H   UNL A   1      44.284  32.400  31.552  1.00  0.00     0.167 HD
ATOM     61  C   UNL A   1      41.528  31.230  32.259  1.00  0.00     0.074 A 
ATOM     62  C   UNL A   1      41.487  32.227  31.194  1.00  0.00     0.031 C 
ATOM     63  C   UNL A   1      42.551  30.463  32.740  1.00  0.00     0.037 A 
BRANCH  50  64
ATOM     64  C   UNL A   1      44.983  32.782  28.610  1.00  0.00     0.057 A 
ATOM     65  C   UNL A   1      43.923  33.709  28.546  1.00  0.00     0.134 A 
ATOM     66  C   UNL A   1      46.271  33.343  28.608  1.00  0.00     0.134 A 
ATOM     67  F   UNL A   1      42.637  33.344  28.605  1.00  0.00    -0.206 F 
ATOM     68  C   UNL A   1      44.128  35.090  28.524  1.00  0.00     0.040 A 
ATOM     69  C   UNL A   1      46.485  34.724  28.643  1.00  0.00     0.040 A 
ATOM     70  F   UNL A   1      47.363  32.564  28.669  1.00  0.00    -0.206 F 
ATOM     71  C   UNL A   1      45.410  35.603  28.614  1.00  0.00     0.006 A 
ENDBRANCH  50  64
BRANCH  51  72
ATOM     72  C   UNL A   1      37.046  31.274  30.862  1.00  0.00     0.057 A 
ATOM     73  C   UNL A   1      36.498  31.899  29.731  1.00  0.00     0.134 A 
ATOM     74  C   UNL A   1      36.376  31.508  32.076  1.00  0.00     0.134 A 
ATOM     75  F   UNL A   1      37.089  31.804  28.532  1.00  0.00    -0.206 F 
ATOM     76  C   UNL A   1      35.370  32.727  29.804  1.00  0.00     0.040 A 
ATOM     77  C   UNL A   1      35.252  32.342  32.164  1.00  0.00     0.040 A 
ATOM     78  F   UNL A   1      36.835  30.992  33.225  1.00  0.00    -0.206 F 
ATOM     79  C   UNL A   1      34.753  32.965  31.026  1.00  0.00     0.006 A 
ENDBRANCH  51  72
BRANCH  63  80
ATOM     80  C   UNL A   1      42.249  29.432  33.791  1.00  0.00     0.057 A 
ATOM     81  C   UNL A   1      42.627  29.694  35.115  1.00  0.00     0.134 A 
ATOM     82  C   UNL A   1      41.721  28.158  33.529  1.00  0.00     0.134 A 
ATOM     83  F   UNL A   1      43.191  30.869  35.438  1.00  0.00    -0.206 F 
ATOM     84  C   UNL A   1      42.474  28.749  36.132  1.00  0.00     0.040 A 
ATOM     85  C   UNL A   1      41.523  27.218  34.546  1.00  0.00     0.040 A 
ATOM     86  F   UNL A   1      41.433  27.764  32.279  1.00  0.00    -0.206 F 
ATOM     87  C   UNL A   1      41.905  27.511  35.851  1.00  0.00     0.006 A 
ENDBRANCH  63  80
ENDBRANCH  37  38
ENDBRANCH  30  32
ENDBRANCH  29  30
ENDBRANCH  28  29
ENDBRANCH   1  28
TORSDOF 15
ENDMDL
MODEL 3
REMARK VINA RESULT:     -12.2      3.525      7.854
REMARK SMILES COc1cc2c(CC(=O)OCCOC(=O)c3ccc(-c4c5nc(c(-c6c(F)cccc6F)c6ccc([nH]6)c(-c6c(F)cccc6F)c6nc(c(-c7c(F)cccc7F)c7ccc4[nH]7)C=C6)C=C5)cc3)c(C)n(C(=O)c3ccc(Cl)cc3)c2cc1Cl
REMARK SMILES IDX 11 1 10 2 8 3 9 4 7 5 6 6 3 7 4 8 84 9 5 10 83 11 85 12
REMARK SMILES IDX 82 13 70 14 72 15 71 16 2 17 1 18 73 19 74 20 75 21 76 22
REMARK SMILES IDX 81 23 77 24 80 25 78 26 79 27 12 28 13 29 14 30 15 31 16 32
REMARK SMILES IDX 17 33 69 34 18 35 68 36 19 37 20 38 21 39 62 40 22 41 67 42
REMARK SMILES IDX 61 43 63 44 23 45 66 46 60 47 59 48 24 50 50 51 33 52 49 53
REMARK SMILES IDX 34 54 37 55 48 56 64 57 35 58 36 59 47 61 65 62 38 63 25 64
REMARK SMILES IDX 26 65 31 66 27 67 28 68 30 69 32 70 29 71 51 72 52 73 57 74
REMARK SMILES IDX 53 75 54 76 56 77 58 78 55 79 39 80 40 81 45 82 41 83 42 84
REMARK SMILES IDX 44 85 46 86 43 87
REMARK H PARENT 63 49 37 60
REMARK Flexibility Score: inf
ROOT
ATOM      1  C   UNL A   1      33.241  32.016  27.792  1.00  0.00     0.274 C 
ENDROOT
BRANCH   1   2
ATOM      2  O   UNL A   1      34.096  31.218  26.943  1.00  0.00    -0.462 OA
BRANCH   2   3
ATOM      3  C   UNL A   1      34.070  29.885  27.182  1.00  0.00     0.310 C 
ATOM      4  O   UNL A   1      35.045  29.231  27.546  1.00  0.00    -0.252 OA
BRANCH   3   5
ATOM      5  C   UNL A   1      32.755  29.210  26.922  1.00  0.00     0.160 C 
BRANCH   5   6
ATOM      6  C   UNL A   1      32.326  28.810  25.535  1.00  0.00    -0.008 A 
ATOM      7  C   UNL A   1      29.483  30.718  23.688  1.00  0.00     0.138 A 
ATOM      8  C   UNL A   1      30.456  30.477  24.684  1.00  0.00     0.058 A 
ATOM      9  C   UNL A   1      29.403  29.839  22.618  1.00  0.00     0.085 A 
ATOM     10  C   UNL A   1      31.327  29.356  24.659  1.00  0.00     0.008 A 
ATOM     11  C   UNL A   1      30.229  28.710  22.579  1.00  0.00     0.051 A 
ATOM     12  Cl  UNL A   1      28.422  30.083  21.215  1.00  0.00    -0.080 Cl
ATOM     13  C   UNL A   1      31.219  28.492  23.564  1.00  0.00     0.058 A 
ATOM     14  C   UNL A   1      32.755  27.619  24.956  1.00  0.00     0.028 A 
ATOM     15  N   UNL A   1      32.232  27.524  23.669  1.00  0.00    -0.280 N 
ATOM     16  C   UNL A   1      33.658  26.602  25.589  1.00  0.00     0.065 C 
BRANCH   7  17
ATOM     17  O   UNL A   1      28.757  31.865  23.873  1.00  0.00    -0.495 OA
ATOM     18  C   UNL A   1      29.002  32.952  22.982  1.00  0.00     0.278 C 
ENDBRANCH   7  17
BRANCH  15  19
ATOM     19  C   UNL A   1      32.647  26.619  22.654  1.00  0.00     0.262 C 
ATOM     20  O   UNL A   1      33.207  27.047  21.648  1.00  0.00    -0.268 OA
BRANCH  19  21
ATOM     21  C   UNL A   1      32.437  25.168  22.704  1.00  0.00     0.040 A 
ATOM     22  C   UNL A   1      31.314  24.645  23.355  1.00  0.00     0.015 A 
ATOM     23  C   UNL A   1      33.428  24.335  22.177  1.00  0.00     0.015 A 
ATOM     24  C   UNL A   1      31.223  23.265  23.541  1.00  0.00     0.021 A 
ATOM     25  C   UNL A   1      33.326  22.958  22.362  1.00  0.00     0.021 A 
ATOM     26  C   UNL A   1      32.233  22.431  23.055  1.00  0.00     0.041 A 
ATOM     27  Cl  UNL A   1      32.147  20.737  23.342  1.00  0.00    -0.084 Cl
ENDBRANCH  19  21
ENDBRANCH  15  19
ENDBRANCH   5   6
ENDBRANCH   3   5
ENDBRANCH   2   3
ENDBRANCH   1   2
BRANCH   1  28
ATOM     28  C   UNL A   1      34.041  33.148  28.443  1.00  0.00     0.275 C 
BRANCH  28  29
ATOM     29  O   UNL A   1      35.274  32.608  28.944  1.00  0.00    -0.458 OA
BRANCH  29  30
ATOM     30  C   UNL A   1      35.328  32.320  30.270  1.00  0.00     0.338 C 
ATOM     31  O   UNL A   1      34.477  32.502  31.105  1.00  0.00    -0.246 OA
BRANCH  30  32
ATOM     32  C   UNL A   1      36.500  31.433  30.425  1.00  0.00     0.060 A 
ATOM     33  C   UNL A   1      37.778  31.909  30.142  1.00  0.00     0.016 A 
ATOM     34  C   UNL A   1      36.276  30.067  30.637  1.00  0.00     0.016 A 
ATOM     35  C   UNL A   1      38.806  30.998  29.948  1.00  0.00     0.010 A 
ATOM     36  C   UNL A   1      37.296  29.154  30.402  1.00  0.00     0.010 A 
ATOM     37  C   UNL A   1      38.549  29.619  30.015  1.00  0.00    -0.014 A 
BRANCH  37  38
ATOM     38  C   UNL A   1      39.697  28.725  30.022  1.00  0.00     0.031 A 
ATOM     39  C   UNL A   1      40.298  28.639  31.371  1.00  0.00     0.074 A 
ATOM     40  C   UNL A   1      40.238  27.991  29.034  1.00  0.00     0.049 A 
ATOM     41  N   UNL A   1      41.344  29.273  31.777  1.00  0.00    -0.248 NA
ATOM     42  C   UNL A   1      39.582  27.902  32.417  1.00  0.00     0.031 C 
ATOM     43  C   UNL A   1      39.716  27.637  27.720  1.00  0.00     0.029 A 
ATOM     44  N   UNL A   1      41.445  27.350  29.074  1.00  0.00    -0.354 N 
ATOM     45  C   UNL A   1      41.527  28.896  33.098  1.00  0.00     0.074 A 
ATOM     46  C   UNL A   1      40.338  28.177  33.481  1.00  0.00     0.031 C 
ATOM     47  C   UNL A   1      40.524  26.699  27.162  1.00  0.00     0.029 A 
ATOM     48  C   UNL A   1      41.690  26.494  28.013  1.00  0.00     0.049 A 
ATOM     49  H   UNL A   1      42.092  27.486  29.805  1.00  0.00     0.167 HD
ATOM     50  C   UNL A   1      42.739  29.034  33.696  1.00  0.00     0.037 A 
ATOM     51  C   UNL A   1      42.764  25.672  27.882  1.00  0.00     0.037 A 
ATOM     52  C   UNL A   1      43.590  29.942  32.962  1.00  0.00     0.049 A 
ATOM     53  C   UNL A   1      43.856  26.213  28.735  1.00  0.00     0.074 A 
ATOM     54  C   UNL A   1      43.454  31.244  32.508  1.00  0.00     0.029 A 
ATOM     55  N   UNL A   1      44.642  29.422  32.246  1.00  0.00    -0.354 N 
ATOM     56  N   UNL A   1      44.547  27.281  28.454  1.00  0.00    -0.248 NA
ATOM     57  C   UNL A   1      43.930  25.773  30.122  1.00  0.00     0.031 C 
ATOM     58  C   UNL A   1      44.060  31.251  31.217  1.00  0.00     0.029 A 
ATOM     59  C   UNL A   1      44.571  29.974  30.993  1.00  0.00     0.049 A 
ATOM     60  H   UNL A   1      45.315  28.780  32.570  1.00  0.00     0.167 HD
ATOM     61  C   UNL A   1      44.757  27.894  29.678  1.00  0.00     0.074 A 
ATOM     62  C   UNL A   1      44.456  26.870  30.674  1.00  0.00     0.031 C 
ATOM     63  C   UNL A   1      44.885  29.249  29.784  1.00  0.00     0.037 A 
BRANCH  50  64
ATOM     64  C   UNL A   1      43.275  28.070  34.720  1.00  0.00     0.057 A 
ATOM     65  C   UNL A   1      43.529  26.706  34.471  1.00  0.00     0.134 A 
ATOM     66  C   UNL A   1      43.849  28.581  35.897  1.00  0.00     0.134 A 
ATOM     67  F   UNL A   1      43.110  26.082  33.364  1.00  0.00    -0.206 F 
ATOM     68  C   UNL A   1      44.327  25.921  35.305  1.00  0.00     0.040 A 
ATOM     69  C   UNL A   1      44.696  27.819  36.708  1.00  0.00     0.040 A 
ATOM     70  F   UNL A   1      43.682  29.867  36.242  1.00  0.00    -0.206 F 
ATOM     71  C   UNL A   1      44.947  26.488  36.406  1.00  0.00     0.006 A 
ENDBRANCH  50  64
BRANCH  51  72
ATOM     72  C   UNL A   1      42.898  24.360  27.208  1.00  0.00     0.057 A 
ATOM     73  C   UNL A   1      43.189  24.263  25.838  1.00  0.00     0.134 A 
ATOM     74  C   UNL A   1      42.459  23.175  27.826  1.00  0.00     0.134 A 
ATOM     75  F   UNL A   1      43.551  25.340  25.129  1.00  0.00    -0.206 F 
ATOM     76  C   UNL A   1      43.029  23.071  25.120  1.00  0.00     0.040 A 
ATOM     77  C   UNL A   1      42.286  21.979  27.117  1.00  0.00     0.040 A 
ATOM     78  F   UNL A   1      42.117  23.164  29.122  1.00  0.00    -0.206 F 
ATOM     79  C   UNL A   1      42.560  21.927  25.755  1.00  0.00     0.006 A 
ENDBRANCH  51  72
BRANCH  63  80
ATOM     80  C   UNL A   1      45.098  30.056  28.534  1.00  0.00     0.057 A 
ATOM     81  C   UNL A   1      46.392  30.509  28.242  1.00  0.00     0.134 A 
ATOM     82  C   UNL A   1      44.070  30.501  27.688  1.00  0.00     0.134 A 
ATOM     83  F   UNL A   1      47.423  30.173  29.035  1.00  0.00    -0.206 F 
ATOM     84  C   UNL A   1      46.658  31.346  27.157  1.00  0.00     0.040 A 
ATOM     85  C   UNL A   1      44.330  31.305  26.573  1.00  0.00     0.040 A 
ATOM     86  F   UNL A   1      42.784  30.220  27.943  1.00  0.00    -0.206 F 
ATOM     87  C   UNL A   1      45.626  31.735  26.308  1.00  0.00     0.006 A 
ENDBRANCH  63  80
ENDBRANCH  37  38
ENDBRANCH  30  32
ENDBRANCH  29  30
ENDBRANCH  28  29
ENDBRANCH   1  28
TORSDOF 15
ENDMDL
