MODEL 1
REMARK VINA RESULT:     -11.7      0.000      0.000
REMARK SMILES Cc1nn(C)cc1-c1ccnc2nc(CCC(=O)OCCOC(=O)c3ccc(-c4c5nc(c(-c6c(F)cccc6F)c6ccc([nH]6)c(-c6c(F)cccc6F)c6nc(c(-c7c(F)cccc7F)c7ccc4[nH]7)C=C6)C=C5)cc3)nn12
REMARK SMILES IDX 20 1 19 2 17 3 18 4 16 5 15 6 14 7 8 8 9 9 80 10 10 11 12 12
REMARK SMILES IDX 79 13 11 14 13 15 7 16 1 17 2 18 3 19 4 20 6 21 5 22 21 23
REMARK SMILES IDX 22 24 23 25 24 26 25 27 26 28 78 29 27 30 77 31 28 32 29 33
REMARK SMILES IDX 30 34 71 35 31 36 76 37 70 38 72 39 32 40 75 41 69 42 68 43
REMARK SMILES IDX 33 45 59 46 42 47 58 48 43 49 46 50 57 51 73 52 44 53 45 54
REMARK SMILES IDX 56 56 74 57 47 58 34 59 35 60 40 61 36 62 37 63 39 64 41 65
REMARK SMILES IDX 38 66 60 67 61 68 66 69 62 70 63 71 65 72 67 73 64 74 48 75
REMARK SMILES IDX 49 76 54 77 50 78 51 79 53 80 55 81 52 82
REMARK H PARENT 72 44 46 55
REMARK Flexibility Score: inf
ROOT
ATOM      1  C   UNL A   1      42.636  21.335  26.085  1.00  0.00     0.274 C 
ENDROOT
BRANCH   1   2
ATOM      2  O   UNL A   1      41.304  21.646  25.640  1.00  0.00    -0.462 OA
BRANCH   2   3
ATOM      3  C   UNL A   1      40.281  21.439  26.498  1.00  0.00     0.306 C 
ATOM      4  O   UNL A   1      40.402  20.990  27.631  1.00  0.00    -0.252 OA
BRANCH   3   5
ATOM      5  C   UNL A   1      38.940  21.772  25.885  1.00  0.00     0.131 C 
BRANCH   5   6
ATOM      6  C   UNL A   1      38.183  20.558  25.352  1.00  0.00     0.091 C 
BRANCH   6   7
ATOM      7  C   UNL A   1      36.734  20.824  25.163  1.00  0.00     0.154 A 
ATOM      8  C   UNL A   1      33.381  19.964  24.803  1.00  0.00     0.081 A 
ATOM      9  C   UNL A   1      32.336  20.792  24.992  1.00  0.00     0.049 A 
ATOM     10  N   UNL A   1      34.677  20.496  24.915  1.00  0.00    -0.196 N 
ATOM     11  C   UNL A   1      32.668  22.207  25.304  1.00  0.00     0.117 A 
ATOM     12  C   UNL A   1      34.890  21.837  25.270  1.00  0.00     0.252 A 
ATOM     13  N   UNL A   1      35.876  19.886  24.767  1.00  0.00    -0.149 NA
ATOM     14  N   UNL A   1      33.854  22.710  25.439  1.00  0.00    -0.220 NA
ATOM     15  N   UNL A   1      36.178  22.036  25.454  1.00  0.00    -0.194 NA
BRANCH   8  16
ATOM     16  C   UNL A   1      33.192  18.570  24.552  1.00  0.00     0.041 A 
ATOM     17  C   UNL A   1      32.528  18.467  22.018  1.00  0.00     0.069 C 
ATOM     18  C   UNL A   1      32.820  17.903  23.358  1.00  0.00     0.069 A 
ATOM     19  N   UNL A   1      32.739  16.578  23.548  1.00  0.00    -0.178 NA
ATOM     20  N   UNL A   1      33.079  16.405  24.836  1.00  0.00    -0.275 N 
ATOM     21  C   UNL A   1      33.336  17.573  25.490  1.00  0.00     0.119 A 
ATOM     22  C   UNL A   1      33.148  15.069  25.376  1.00  0.00     0.173 C 
ENDBRANCH   8  16
ENDBRANCH   6   7
ENDBRANCH   5   6
ENDBRANCH   3   5
ENDBRANCH   2   3
ENDBRANCH   1   2
BRANCH   1  23
ATOM     23  C   UNL A   1      43.683  22.036  25.218  1.00  0.00     0.275 C 
BRANCH  23  24
ATOM     24  O   UNL A   1      43.212  23.352  24.880  1.00  0.00    -0.458 OA
BRANCH  24  25
ATOM     25  C   UNL A   1      44.043  24.372  25.187  1.00  0.00     0.338 C 
ATOM     26  O   UNL A   1      45.071  24.700  24.625  1.00  0.00    -0.246 OA
BRANCH  25  27
ATOM     27  C   UNL A   1      43.415  25.175  26.243  1.00  0.00     0.060 A 
ATOM     28  C   UNL A   1      43.945  26.442  26.502  1.00  0.00     0.016 A 
ATOM     29  C   UNL A   1      42.336  24.684  26.979  1.00  0.00     0.016 A 
ATOM     30  C   UNL A   1      43.395  27.233  27.503  1.00  0.00     0.010 A 
ATOM     31  C   UNL A   1      41.788  25.476  27.989  1.00  0.00     0.010 A 
ATOM     32  C   UNL A   1      42.322  26.748  28.261  1.00  0.00    -0.014 A 
BRANCH  32  33
ATOM     33  C   UNL A   1      41.815  27.558  29.389  1.00  0.00     0.031 A 
ATOM     34  C   UNL A   1      42.524  27.508  30.708  1.00  0.00     0.074 A 
ATOM     35  C   UNL A   1      40.753  28.363  29.207  1.00  0.00     0.049 A 
ATOM     36  N   UNL A   1      42.246  28.137  31.822  1.00  0.00    -0.248 NA
ATOM     37  C   UNL A   1      43.704  26.633  30.785  1.00  0.00     0.031 C 
ATOM     38  C   UNL A   1      40.012  28.513  27.955  1.00  0.00     0.029 A 
ATOM     39  N   UNL A   1      40.121  29.212  30.078  1.00  0.00    -0.354 N 
ATOM     40  C   UNL A   1      43.211  27.729  32.732  1.00  0.00     0.074 A 
ATOM     41  C   UNL A   1      44.063  26.777  32.051  1.00  0.00     0.031 C 
ATOM     42  C   UNL A   1      39.027  29.409  28.137  1.00  0.00     0.029 A 
ATOM     43  C   UNL A   1      39.053  29.871  29.522  1.00  0.00     0.049 A 
ATOM     44  H   UNL A   1      40.405  29.336  31.012  1.00  0.00     0.167 HD
ATOM     45  C   UNL A   1      43.375  28.122  34.017  1.00  0.00     0.037 A 
ATOM     46  C   UNL A   1      38.191  30.743  30.076  1.00  0.00     0.037 A 
ATOM     47  C   UNL A   1      42.522  29.068  34.687  1.00  0.00     0.049 A 
ATOM     48  C   UNL A   1      38.368  31.127  31.518  1.00  0.00     0.074 A 
ATOM     49  C   UNL A   1      42.597  29.534  35.988  1.00  0.00     0.029 A 
ATOM     50  N   UNL A   1      41.430  29.695  34.102  1.00  0.00    -0.354 N 
ATOM     51  N   UNL A   1      39.285  30.741  32.372  1.00  0.00    -0.248 NA
ATOM     52  C   UNL A   1      37.390  32.072  32.073  1.00  0.00     0.031 C 
ATOM     53  C   UNL A   1      41.529  30.412  36.201  1.00  0.00     0.029 A 
ATOM     54  C   UNL A   1      40.814  30.530  35.019  1.00  0.00     0.049 A 
ATOM     55  H   UNL A   1      41.136  29.565  33.171  1.00  0.00     0.167 HD
ATOM     56  C   UNL A   1      39.012  31.412  33.557  1.00  0.00     0.074 A 
ATOM     57  C   UNL A   1      37.851  32.243  33.304  1.00  0.00     0.031 C 
ATOM     58  C   UNL A   1      39.659  31.347  34.746  1.00  0.00     0.037 A 
BRANCH  45  59
ATOM     59  C   UNL A   1      44.507  27.502  34.784  1.00  0.00     0.057 A 
ATOM     60  C   UNL A   1      44.337  26.332  35.538  1.00  0.00     0.134 A 
ATOM     61  C   UNL A   1      45.782  28.079  34.765  1.00  0.00     0.134 A 
ATOM     62  F   UNL A   1      43.137  25.739  35.613  1.00  0.00    -0.206 F 
ATOM     63  C   UNL A   1      45.390  25.776  36.267  1.00  0.00     0.040 A 
ATOM     64  C   UNL A   1      46.848  27.518  35.470  1.00  0.00     0.040 A 
ATOM     65  F   UNL A   1      46.013  29.199  34.063  1.00  0.00    -0.206 F 
ATOM     66  C   UNL A   1      46.651  26.367  36.230  1.00  0.00     0.006 A 
ENDBRANCH  45  59
BRANCH  46  67
ATOM     67  C   UNL A   1      37.090  31.315  29.263  1.00  0.00     0.057 A 
ATOM     68  C   UNL A   1      37.168  32.616  28.752  1.00  0.00     0.134 A 
ATOM     69  C   UNL A   1      35.933  30.579  28.981  1.00  0.00     0.134 A 
ATOM     70  F   UNL A   1      38.242  33.377  29.006  1.00  0.00    -0.206 F 
ATOM     71  C   UNL A   1      36.129  33.169  28.001  1.00  0.00     0.040 A 
ATOM     72  C   UNL A   1      34.897  31.111  28.212  1.00  0.00     0.040 A 
ATOM     73  F   UNL A   1      35.798  29.326  29.441  1.00  0.00    -0.206 F 
ATOM     74  C   UNL A   1      34.992  32.413  27.725  1.00  0.00     0.006 A 
ENDBRANCH  46  67
BRANCH  58  75
ATOM     75  C   UNL A   1      39.138  32.222  35.848  1.00  0.00     0.057 A 
ATOM     76  C   UNL A   1      39.546  33.555  35.988  1.00  0.00     0.134 A 
ATOM     77  C   UNL A   1      38.213  31.726  36.775  1.00  0.00     0.134 A 
ATOM     78  F   UNL A   1      40.441  34.086  35.141  1.00  0.00    -0.206 F 
ATOM     79  C   UNL A   1      39.075  34.355  37.031  1.00  0.00     0.040 A 
ATOM     80  C   UNL A   1      37.716  32.523  37.807  1.00  0.00     0.040 A 
ATOM     81  F   UNL A   1      37.776  30.460  36.691  1.00  0.00    -0.206 F 
ATOM     82  C   UNL A   1      38.155  33.839  37.942  1.00  0.00     0.006 A 
ENDBRANCH  58  75
ENDBRANCH  32  33
ENDBRANCH  25  27
ENDBRANCH  24  25
ENDBRANCH  23  24
ENDBRANCH   1  23
TORSDOF 14
ENDMDL
MODEL 2
REMARK VINA RESULT:     -11.7      4.596      8.999
REMARK SMILES Cc1nn(C)cc1-c1ccnc2nc(CCC(=O)OCCOC(=O)c3ccc(-c4c5nc(c(-c6c(F)cccc6F)c6ccc([nH]6)c(-c6c(F)cccc6F)c6nc(c(-c7c(F)cccc7F)c7ccc4[nH]7)C=C6)C=C5)cc3)nn12
REMARK SMILES IDX 20 1 19 2 17 3 18 4 16 5 15 6 14 7 8 8 9 9 80 10 10 11 12 12
REMARK SMILES IDX 79 13 11 14 13 15 7 16 1 17 2 18 3 19 4 20 6 21 5 22 21 23
REMARK SMILES IDX 22 24 23 25 24 26 25 27 26 28 78 29 27 30 77 31 28 32 29 33
REMARK SMILES IDX 30 34 71 35 31 36 76 37 70 38 72 39 32 40 75 41 69 42 68 43
REMARK SMILES IDX 33 45 59 46 42 47 58 48 43 49 46 50 57 51 73 52 44 53 45 54
REMARK SMILES IDX 56 56 74 57 47 58 34 59 35 60 40 61 36 62 37 63 39 64 41 65
REMARK SMILES IDX 38 66 60 67 61 68 66 69 62 70 63 71 65 72 67 73 64 74 48 75
REMARK SMILES IDX 49 76 54 77 50 78 51 79 53 80 55 81 52 82
REMARK H PARENT 72 44 46 55
REMARK Flexibility Score: inf
ROOT
ATOM      1  C   UNL A   1      31.381  31.972  26.689  1.00  0.00     0.274 C 
ENDROOT
BRANCH   1   2
ATOM      2  O   UNL A   1      32.184  30.959  26.059  1.00  0.00    -0.462 OA
BRANCH   2   3
ATOM      3  C   UNL A   1      32.960  30.182  26.846  1.00  0.00     0.306 C 
ATOM      4  O   UNL A   1      34.171  30.312  26.977  1.00  0.00    -0.252 OA
BRANCH   3   5
ATOM      5  C   UNL A   1      32.175  29.079  27.518  1.00  0.00     0.131 C 
BRANCH   5   6
ATOM      6  C   UNL A   1      32.740  27.681  27.280  1.00  0.00     0.091 C 
BRANCH   6   7
ATOM      7  C   UNL A   1      32.529  27.206  25.888  1.00  0.00     0.154 A 
ATOM      8  C   UNL A   1      31.090  27.239  22.719  1.00  0.00     0.081 A 
ATOM      9  C   UNL A   1      31.603  26.652  21.622  1.00  0.00     0.049 A 
ATOM     10  N   UNL A   1      31.763  27.062  23.941  1.00  0.00    -0.196 N 
ATOM     11  C   UNL A   1      32.847  25.863  21.820  1.00  0.00     0.117 A 
ATOM     12  C   UNL A   1      32.966  26.344  24.017  1.00  0.00     0.252 A 
ATOM     13  N   UNL A   1      31.456  27.535  25.172  1.00  0.00    -0.149 NA
ATOM     14  N   UNL A   1      33.496  25.711  22.929  1.00  0.00    -0.220 NA
ATOM     15  N   UNL A   1      33.461  26.458  25.231  1.00  0.00    -0.194 NA
BRANCH   8  16
ATOM     16  C   UNL A   1      29.929  28.070  22.649  1.00  0.00     0.041 A 
ATOM     17  C   UNL A   1      28.084  26.685  23.893  1.00  0.00     0.069 C 
ATOM     18  C   UNL A   1      28.620  27.848  23.145  1.00  0.00     0.069 A 
ATOM     19  N   UNL A   1      27.811  28.877  22.856  1.00  0.00    -0.178 NA
ATOM     20  N   UNL A   1      28.601  29.749  22.208  1.00  0.00    -0.275 N 
ATOM     21  C   UNL A   1      29.876  29.301  22.036  1.00  0.00     0.119 A 
ATOM     22  C   UNL A   1      28.057  31.018  21.787  1.00  0.00     0.173 C 
ENDBRANCH   8  16
ENDBRANCH   6   7
ENDBRANCH   5   6
ENDBRANCH   3   5
ENDBRANCH   2   3
ENDBRANCH   1   2
BRANCH   1  23
ATOM     23  C   UNL A   1      32.133  33.303  26.763  1.00  0.00     0.275 C 
BRANCH  23  24
ATOM     24  O   UNL A   1      32.178  33.744  28.131  1.00  0.00    -0.458 OA
BRANCH  24  25
ATOM     25  C   UNL A   1      33.144  34.639  28.430  1.00  0.00     0.338 C 
ATOM     26  O   UNL A   1      33.062  35.852  28.466  1.00  0.00    -0.246 OA
BRANCH  25  27
ATOM     27  C   UNL A   1      34.325  33.901  28.895  1.00  0.00     0.060 A 
ATOM     28  C   UNL A   1      34.118  32.681  29.547  1.00  0.00     0.016 A 
ATOM     29  C   UNL A   1      35.612  34.408  28.714  1.00  0.00     0.016 A 
ATOM     30  C   UNL A   1      35.203  31.955  30.020  1.00  0.00     0.010 A 
ATOM     31  C   UNL A   1      36.702  33.681  29.196  1.00  0.00     0.010 A 
ATOM     32  C   UNL A   1      36.500  32.458  29.859  1.00  0.00    -0.014 A 
BRANCH  32  33
ATOM     33  C   UNL A   1      37.635  31.725  30.458  1.00  0.00     0.031 A 
ATOM     34  C   UNL A   1      37.988  31.960  31.895  1.00  0.00     0.074 A 
ATOM     35  C   UNL A   1      38.309  30.823  29.722  1.00  0.00     0.049 A 
ATOM     36  N   UNL A   1      38.941  31.424  32.613  1.00  0.00    -0.248 NA
ATOM     37  C   UNL A   1      37.155  32.931  32.623  1.00  0.00     0.031 C 
ATOM     38  C   UNL A   1      38.026  30.492  28.326  1.00  0.00     0.029 A 
ATOM     39  N   UNL A   1      39.366  30.016  30.054  1.00  0.00    -0.354 N 
ATOM     40  C   UNL A   1      38.828  31.995  33.873  1.00  0.00     0.074 A 
ATOM     41  C   UNL A   1      37.734  32.941  33.815  1.00  0.00     0.031 C 
ATOM     42  C   UNL A   1      38.886  29.542  27.922  1.00  0.00     0.029 A 
ATOM     43  C   UNL A   1      39.794  29.222  29.019  1.00  0.00     0.049 A 
ATOM     44  H   UNL A   1      39.778  30.007  30.948  1.00  0.00     0.167 HD
ATOM     45  C   UNL A   1      39.565  31.744  34.980  1.00  0.00     0.037 A 
ATOM     46  C   UNL A   1      40.811  28.342  28.968  1.00  0.00     0.037 A 
ATOM     47  C   UNL A   1      40.653  30.803  35.029  1.00  0.00     0.049 A 
ATOM     48  C   UNL A   1      41.644  28.117  30.198  1.00  0.00     0.074 A 
ATOM     49  C   UNL A   1      41.468  30.475  36.098  1.00  0.00     0.029 A 
ATOM     50  N   UNL A   1      41.079  30.036  33.953  1.00  0.00    -0.354 N 
ATOM     51  N   UNL A   1      41.528  28.657  31.388  1.00  0.00    -0.248 NA
ATOM     52  C   UNL A   1      42.748  27.155  30.079  1.00  0.00     0.031 C 
ATOM     53  C   UNL A   1      42.410  29.538  35.659  1.00  0.00     0.029 A 
ATOM     54  C   UNL A   1      42.155  29.248  34.328  1.00  0.00     0.049 A 
ATOM     55  H   UNL A   1      40.676  30.051  33.055  1.00  0.00     0.167 HD
ATOM     56  C   UNL A   1      42.526  28.086  32.166  1.00  0.00     0.074 A 
ATOM     57  C   UNL A   1      43.226  27.143  31.315  1.00  0.00     0.031 C 
ATOM     58  C   UNL A   1      42.837  28.318  33.464  1.00  0.00     0.037 A 
BRANCH  45  59
ATOM     59  C   UNL A   1      39.231  32.525  36.218  1.00  0.00     0.057 A 
ATOM     60  C   UNL A   1      38.328  32.044  37.176  1.00  0.00     0.134 A 
ATOM     61  C   UNL A   1      39.821  33.772  36.455  1.00  0.00     0.134 A 
ATOM     62  F   UNL A   1      37.714  30.864  36.999  1.00  0.00    -0.206 F 
ATOM     63  C   UNL A   1      38.005  32.787  38.312  1.00  0.00     0.040 A 
ATOM     64  C   UNL A   1      39.524  34.514  37.600  1.00  0.00     0.040 A 
ATOM     65  F   UNL A   1      40.694  34.292  35.579  1.00  0.00    -0.206 F 
ATOM     66  C   UNL A   1      38.608  34.025  38.529  1.00  0.00     0.006 A 
ENDBRANCH  45  59
BRANCH  46  67
ATOM     67  C   UNL A   1      41.091  27.606  27.711  1.00  0.00     0.057 A 
ATOM     68  C   UNL A   1      40.541  26.341  27.474  1.00  0.00     0.134 A 
ATOM     69  C   UNL A   1      41.918  28.147  26.719  1.00  0.00     0.134 A 
ATOM     70  F   UNL A   1      39.758  25.763  28.396  1.00  0.00    -0.206 F 
ATOM     71  C   UNL A   1      40.814  25.633  26.302  1.00  0.00     0.040 A 
ATOM     72  C   UNL A   1      42.181  27.461  25.532  1.00  0.00     0.040 A 
ATOM     73  F   UNL A   1      42.475  29.355  26.885  1.00  0.00    -0.206 F 
ATOM     74  C   UNL A   1      41.632  26.197  25.325  1.00  0.00     0.006 A 
ENDBRANCH  46  67
BRANCH  58  75
ATOM     75  C   UNL A   1      43.966  27.516  34.044  1.00  0.00     0.057 A 
ATOM     76  C   UNL A   1      45.288  27.976  34.018  1.00  0.00     0.134 A 
ATOM     77  C   UNL A   1      43.723  26.273  34.640  1.00  0.00     0.134 A 
ATOM     78  F   UNL A   1      45.589  29.153  33.449  1.00  0.00    -0.206 F 
ATOM     79  C   UNL A   1      46.335  27.212  34.537  1.00  0.00     0.040 A 
ATOM     80  C   UNL A   1      44.757  25.511  35.185  1.00  0.00     0.040 A 
ATOM     81  F   UNL A   1      42.477  25.779  34.704  1.00  0.00    -0.206 F 
ATOM     82  C   UNL A   1      46.069  25.977  35.126  1.00  0.00     0.006 A 
ENDBRANCH  58  75
ENDBRANCH  32  33
ENDBRANCH  25  27
ENDBRANCH  24  25
ENDBRANCH  23  24
ENDBRANCH   1  23
TORSDOF 14
ENDMDL
MODEL 3
REMARK VINA RESULT:     -11.5      1.142      2.776
REMARK SMILES Cc1nn(C)cc1-c1ccnc2nc(CCC(=O)OCCOC(=O)c3ccc(-c4c5nc(c(-c6c(F)cccc6F)c6ccc([nH]6)c(-c6c(F)cccc6F)c6nc(c(-c7c(F)cccc7F)c7ccc4[nH]7)C=C6)C=C5)cc3)nn12
REMARK SMILES IDX 20 1 19 2 17 3 18 4 16 5 15 6 14 7 8 8 9 9 80 10 10 11 12 12
REMARK SMILES IDX 79 13 11 14 13 15 7 16 1 17 2 18 3 19 4 20 6 21 5 22 21 23
REMARK SMILES IDX 22 24 23 25 24 26 25 27 26 28 78 29 27 30 77 31 28 32 29 33
REMARK SMILES IDX 30 34 71 35 31 36 76 37 70 38 72 39 32 40 75 41 69 42 68 43
REMARK SMILES IDX 33 45 59 46 42 47 58 48 43 49 46 50 57 51 73 52 44 53 45 54
REMARK SMILES IDX 56 56 74 57 47 58 34 59 35 60 40 61 36 62 37 63 39 64 41 65
REMARK SMILES IDX 38 66 60 67 61 68 66 69 62 70 63 71 65 72 67 73 64 74 48 75
REMARK SMILES IDX 49 76 54 77 50 78 51 79 53 80 55 81 52 82
REMARK H PARENT 72 44 46 55
REMARK Flexibility Score: inf
ROOT
ATOM      1  C   UNL A   1      42.657  21.341  26.268  1.00  0.00     0.274 C 
ENDROOT
BRANCH   1   2
ATOM      2  O   UNL A   1      41.350  21.451  25.676  1.00  0.00    -0.462 OA
BRANCH   2   3
ATOM      3  C   UNL A   1      40.279  21.483  26.499  1.00  0.00     0.306 C 
ATOM      4  O   UNL A   1      40.334  21.678  27.707  1.00  0.00    -0.252 OA
BRANCH   3   5
ATOM      5  C   UNL A   1      38.986  21.193  25.771  1.00  0.00     0.131 C 
BRANCH   5   6
ATOM      6  C   UNL A   1      38.005  22.363  25.759  1.00  0.00     0.091 C 
BRANCH   6   7
ATOM      7  C   UNL A   1      36.614  21.941  25.455  1.00  0.00     0.154 A 
ATOM      8  C   UNL A   1      33.384  22.343  24.221  1.00  0.00     0.081 A 
ATOM      9  C   UNL A   1      32.533  21.345  23.918  1.00  0.00     0.049 A 
ATOM     10  N   UNL A   1      34.627  22.006  24.784  1.00  0.00    -0.196 N 
ATOM     11  C   UNL A   1      33.003  19.968  24.218  1.00  0.00     0.117 A 
ATOM     12  C   UNL A   1      35.004  20.668  24.977  1.00  0.00     0.252 A 
ATOM     13  N   UNL A   1      35.643  22.809  25.178  1.00  0.00    -0.149 NA
ATOM     14  N   UNL A   1      34.153  19.635  24.710  1.00  0.00    -0.220 NA
ATOM     15  N   UNL A   1      36.260  20.626  25.371  1.00  0.00    -0.194 NA
BRANCH   8  16
ATOM     16  C   UNL A   1      33.071  23.707  23.929  1.00  0.00     0.041 A 
ATOM     17  C   UNL A   1      31.703  24.502  26.019  1.00  0.00     0.069 C 
ATOM     18  C   UNL A   1      32.342  24.655  24.689  1.00  0.00     0.069 A 
ATOM     19  N   UNL A   1      32.261  25.831  24.050  1.00  0.00    -0.178 NA
ATOM     20  N   UNL A   1      32.949  25.638  22.912  1.00  0.00    -0.275 N 
ATOM     21  C   UNL A   1      33.434  24.371  22.779  1.00  0.00     0.119 A 
ATOM     22  C   UNL A   1      33.112  26.736  21.989  1.00  0.00     0.173 C 
ENDBRANCH   8  16
ENDBRANCH   6   7
ENDBRANCH   5   6
ENDBRANCH   3   5
ENDBRANCH   2   3
ENDBRANCH   1   2
BRANCH   1  23
ATOM     23  C   UNL A   1      43.718  21.998  25.383  1.00  0.00     0.275 C 
BRANCH  23  24
ATOM     24  O   UNL A   1      43.241  23.285  24.951  1.00  0.00    -0.458 OA
BRANCH  24  25
ATOM     25  C   UNL A   1      44.050  24.333  25.220  1.00  0.00     0.338 C 
ATOM     26  O   UNL A   1      45.055  24.679  24.629  1.00  0.00    -0.246 OA
BRANCH  25  27
ATOM     27  C   UNL A   1      43.422  25.138  26.274  1.00  0.00     0.060 A 
ATOM     28  C   UNL A   1      43.961  26.400  26.541  1.00  0.00     0.016 A 
ATOM     29  C   UNL A   1      42.335  24.654  27.003  1.00  0.00     0.016 A 
ATOM     30  C   UNL A   1      43.412  27.191  27.542  1.00  0.00     0.010 A 
ATOM     31  C   UNL A   1      41.787  25.447  28.013  1.00  0.00     0.010 A 
ATOM     32  C   UNL A   1      42.331  26.713  28.292  1.00  0.00    -0.014 A 
BRANCH  32  33
ATOM     33  C   UNL A   1      41.824  27.523  29.420  1.00  0.00     0.031 A 
ATOM     34  C   UNL A   1      42.527  27.465  30.742  1.00  0.00     0.074 A 
ATOM     35  C   UNL A   1      40.769  28.337  29.236  1.00  0.00     0.049 A 
ATOM     36  N   UNL A   1      42.249  28.092  31.856  1.00  0.00    -0.248 NA
ATOM     37  C   UNL A   1      43.700  26.581  30.822  1.00  0.00     0.031 C 
ATOM     38  C   UNL A   1      40.035  28.496  27.980  1.00  0.00     0.029 A 
ATOM     39  N   UNL A   1      40.139  29.187  30.106  1.00  0.00    -0.354 N 
ATOM     40  C   UNL A   1      43.206  27.675  32.770  1.00  0.00     0.074 A 
ATOM     41  C   UNL A   1      44.054  26.719  32.091  1.00  0.00     0.031 C 
ATOM     42  C   UNL A   1      39.056  29.398  28.161  1.00  0.00     0.029 A 
ATOM     43  C   UNL A   1      39.079  29.855  29.547  1.00  0.00     0.049 A 
ATOM     44  H   UNL A   1      40.420  29.307  31.042  1.00  0.00     0.167 HD
ATOM     45  C   UNL A   1      43.367  28.063  34.057  1.00  0.00     0.037 A 
ATOM     46  C   UNL A   1      38.220  30.732  30.100  1.00  0.00     0.037 A 
ATOM     47  C   UNL A   1      42.517  29.014  34.725  1.00  0.00     0.049 A 
ATOM     48  C   UNL A   1      38.393  31.111  31.544  1.00  0.00     0.074 A 
ATOM     49  C   UNL A   1      42.590  29.475  36.028  1.00  0.00     0.029 A 
ATOM     50  N   UNL A   1      41.432  29.649  34.137  1.00  0.00    -0.354 N 
ATOM     51  N   UNL A   1      39.304  30.716  32.401  1.00  0.00    -0.248 NA
ATOM     52  C   UNL A   1      37.419  32.062  32.097  1.00  0.00     0.031 C 
ATOM     53  C   UNL A   1      41.527  30.360  36.239  1.00  0.00     0.029 A 
ATOM     54  C   UNL A   1      40.818  30.487  35.054  1.00  0.00     0.049 A 
ATOM     55  H   UNL A   1      41.143  29.524  33.205  1.00  0.00     0.167 HD
ATOM     56  C   UNL A   1      39.029  31.385  33.586  1.00  0.00     0.074 A 
ATOM     57  C   UNL A   1      37.876  32.226  33.330  1.00  0.00     0.031 C 
ATOM     58  C   UNL A   1      39.671  31.312  34.778  1.00  0.00     0.037 A 
BRANCH  45  59
ATOM     59  C   UNL A   1      44.491  27.433  34.827  1.00  0.00     0.057 A 
ATOM     60  C   UNL A   1      44.315  26.250  35.558  1.00  0.00     0.134 A 
ATOM     61  C   UNL A   1      45.764  28.014  34.835  1.00  0.00     0.134 A 
ATOM     62  F   UNL A   1      43.115  25.652  35.607  1.00  0.00    -0.206 F 
ATOM     63  C   UNL A   1      45.360  25.683  36.291  1.00  0.00     0.040 A 
ATOM     64  C   UNL A   1      46.823  27.443  35.544  1.00  0.00     0.040 A 
ATOM     65  F   UNL A   1      46.001  29.146  34.156  1.00  0.00    -0.206 F 
ATOM     66  C   UNL A   1      46.620  26.278  36.280  1.00  0.00     0.006 A 
ENDBRANCH  45  59
BRANCH  46  67
ATOM     67  C   UNL A   1      37.127  31.315  29.283  1.00  0.00     0.057 A 
ATOM     68  C   UNL A   1      37.214  32.619  28.782  1.00  0.00     0.134 A 
ATOM     69  C   UNL A   1      35.970  30.585  28.988  1.00  0.00     0.134 A 
ATOM     70  F   UNL A   1      38.289  33.374  29.049  1.00  0.00    -0.206 F 
ATOM     71  C   UNL A   1      36.182  33.182  28.028  1.00  0.00     0.040 A 
ATOM     72  C   UNL A   1      34.941  31.126  28.216  1.00  0.00     0.040 A 
ATOM     73  F   UNL A   1      35.827  29.330  29.438  1.00  0.00    -0.206 F 
ATOM     74  C   UNL A   1      35.044  32.432  27.739  1.00  0.00     0.006 A 
ENDBRANCH  46  67
BRANCH  58  75
ATOM     75  C   UNL A   1      39.151  32.188  35.880  1.00  0.00     0.057 A 
ATOM     76  C   UNL A   1      38.236  31.717  36.830  1.00  0.00     0.134 A 
ATOM     77  C   UNL A   1      39.577  33.517  35.995  1.00  0.00     0.134 A 
ATOM     78  F   UNL A   1      37.778  30.457  36.767  1.00  0.00    -0.206 F 
ATOM     79  C   UNL A   1      37.738  32.545  37.837  1.00  0.00     0.040 A 
ATOM     80  C   UNL A   1      39.107  34.348  37.012  1.00  0.00     0.040 A 
ATOM     81  F   UNL A   1      40.459  34.028  35.122  1.00  0.00    -0.206 F 
ATOM     82  C   UNL A   1      38.178  33.865  37.932  1.00  0.00     0.006 A 
ENDBRANCH  58  75
ENDBRANCH  32  33
ENDBRANCH  25  27
ENDBRANCH  24  25
ENDBRANCH  23  24
ENDBRANCH   1  23
TORSDOF 14
ENDMDL
