MODEL 1
REMARK VINA RESULT:     -10.8      0.000      0.000
REMARK SMILES C[NH2+][C@]1(C(=O)OCCOC(=O)c2ccc(-c3c4nc(c(-c5c(F)cccc5F)c5ccc([nH]5)c(-c5c(F)cccc5F)c5nc(c(-c6c(F)cccc6F)c6ccc3[nH]6)C=C5)C=C4)cc2)CCC[C@@H]1CCn1cc(C)cn1
REMARK SMILES IDX 7 1 6 2 4 3 5 4 3 5 66 6 69 7 67 8 68 9 2 10 1 11 70 14
REMARK SMILES IDX 71 15 72 16 73 17 77 18 74 19 76 20 75 21 8 22 9 23 10 24
REMARK SMILES IDX 11 25 12 26 13 27 65 28 14 29 64 30 15 31 16 32 17 33 58 34
REMARK SMILES IDX 18 35 63 36 57 37 59 38 19 39 62 40 56 41 55 42 20 44 46 45
REMARK SMILES IDX 29 46 45 47 30 48 33 49 44 50 60 51 31 52 32 53 43 55 61 56
REMARK SMILES IDX 34 57 21 58 22 59 27 60 23 61 24 62 26 63 28 64 25 65 47 66
REMARK SMILES IDX 48 67 53 68 49 69 50 70 52 71 54 72 51 73 35 74 36 75 41 76
REMARK SMILES IDX 37 77 38 78 40 79 42 80 39 81
REMARK H PARENT 2 12 2 13 59 43 33 54
REMARK Flexibility Score: inf
ROOT
ATOM      1  C   UNL A   1      32.305  29.962  26.574  1.00  0.00     0.274 C 
ENDROOT
BRANCH   1   2
ATOM      2  O   UNL A   1      32.773  28.614  26.364  1.00  0.00    -0.457 OA
BRANCH   2   3
ATOM      3  C   UNL A   1      31.898  27.645  26.751  1.00  0.00     0.368 C 
ATOM      4  O   UNL A   1      31.271  27.675  27.806  1.00  0.00    -0.245 OA
BRANCH   3   5
ATOM      5  C   UNL A   1      31.737  26.510  25.711  1.00  0.00     0.197 C 
ATOM      6  C   UNL A   1      31.383  25.142  26.323  1.00  0.00     0.081 C 
ATOM      7  C   UNL A   1      30.421  26.780  24.919  1.00  0.00     0.064 C 
ATOM      8  C   UNL A   1      30.716  24.368  25.189  1.00  0.00     0.008 C 
ATOM      9  C   UNL A   1      30.075  25.424  24.285  1.00  0.00     0.011 C 
BRANCH   5  10
ATOM     10  N   UNL A   1      32.882  26.456  24.764  1.00  0.00    -0.334 N 
ATOM     11  C   UNL A   1      33.986  25.607  25.185  1.00  0.00     0.331 C 
ATOM     12  H   UNL A   1      32.538  26.107  23.869  1.00  0.00     0.347 HD
ATOM     13  H   UNL A   1      33.255  27.404  24.712  1.00  0.00     0.347 HD
ENDBRANCH   5  10
BRANCH   7  14
ATOM     14  C   UNL A   1      30.453  27.934  23.892  1.00  0.00     0.034 C 
BRANCH  14  15
ATOM     15  C   UNL A   1      29.137  28.097  23.123  1.00  0.00     0.144 C 
BRANCH  15  16
ATOM     16  N   UNL A   1      28.879  29.466  22.709  1.00  0.00    -0.272 N 
ATOM     17  C   UNL A   1      29.202  30.607  23.388  1.00  0.00     0.112 A 
ATOM     18  N   UNL A   1      28.251  29.707  21.541  1.00  0.00    -0.181 NA
ATOM     19  C   UNL A   1      28.721  31.660  22.639  1.00  0.00    -0.013 A 
ATOM     20  C   UNL A   1      28.144  31.037  21.510  1.00  0.00     0.138 A 
ATOM     21  C   UNL A   1      28.777  33.107  22.939  1.00  0.00     0.048 C 
ENDBRANCH  15  16
ENDBRANCH  14  15
ENDBRANCH   7  14
ENDBRANCH   3   5
ENDBRANCH   2   3
ENDBRANCH   1   2
BRANCH   1  22
ATOM     22  C   UNL A   1      33.335  30.808  27.321  1.00  0.00     0.275 C 
BRANCH  22  23
ATOM     23  O   UNL A   1      34.397  29.977  27.818  1.00  0.00    -0.458 OA
BRANCH  23  24
ATOM     24  C   UNL A   1      35.294  30.586  28.626  1.00  0.00     0.338 C 
ATOM     25  O   UNL A   1      35.107  31.574  29.317  1.00  0.00    -0.246 OA
BRANCH  24  26
ATOM     26  C   UNL A   1      36.595  29.886  28.580  1.00  0.00     0.060 A 
ATOM     27  C   UNL A   1      37.130  29.276  29.715  1.00  0.00     0.016 A 
ATOM     28  C   UNL A   1      37.349  29.943  27.408  1.00  0.00     0.016 A 
ATOM     29  C   UNL A   1      38.446  28.810  29.713  1.00  0.00     0.010 A 
ATOM     30  C   UNL A   1      38.632  29.391  27.378  1.00  0.00     0.010 A 
ATOM     31  C   UNL A   1      39.211  28.852  28.541  1.00  0.00    -0.014 A 
BRANCH  31  32
ATOM     32  C   UNL A   1      40.626  28.385  28.526  1.00  0.00     0.031 A 
ATOM     33  C   UNL A   1      41.738  29.348  28.850  1.00  0.00     0.074 A 
ATOM     34  C   UNL A   1      40.931  27.110  28.215  1.00  0.00     0.049 A 
ATOM     35  N   UNL A   1      43.027  29.220  28.661  1.00  0.00    -0.248 NA
ATOM     36  C   UNL A   1      41.345  30.633  29.450  1.00  0.00     0.031 C 
ATOM     37  C   UNL A   1      39.966  26.049  27.923  1.00  0.00     0.029 A 
ATOM     38  N   UNL A   1      42.151  26.490  28.091  1.00  0.00    -0.354 N 
ATOM     39  C   UNL A   1      43.588  30.430  29.048  1.00  0.00     0.074 A 
ATOM     40  C   UNL A   1      42.503  31.276  29.499  1.00  0.00     0.031 C 
ATOM     41  C   UNL A   1      40.628  24.904  27.693  1.00  0.00     0.029 A 
ATOM     42  C   UNL A   1      42.062  25.168  27.734  1.00  0.00     0.049 A 
ATOM     43  H   UNL A   1      43.008  26.951  28.245  1.00  0.00     0.167 HD
ATOM     44  C   UNL A   1      44.890  30.806  29.020  1.00  0.00     0.037 A 
ATOM     45  C   UNL A   1      43.022  24.275  27.429  1.00  0.00     0.037 A 
ATOM     46  C   UNL A   1      45.978  29.944  28.641  1.00  0.00     0.049 A 
ATOM     47  C   UNL A   1      44.458  24.708  27.414  1.00  0.00     0.074 A 
ATOM     48  C   UNL A   1      47.331  30.232  28.585  1.00  0.00     0.029 A 
ATOM     49  N   UNL A   1      45.838  28.613  28.280  1.00  0.00    -0.354 N 
ATOM     50  N   UNL A   1      44.969  25.883  27.689  1.00  0.00    -0.248 NA
ATOM     51  C   UNL A   1      45.451  23.698  27.016  1.00  0.00     0.031 C 
ATOM     52  C   UNL A   1      48.009  29.078  28.178  1.00  0.00     0.029 A 
ATOM     53  C   UNL A   1      47.080  28.066  28.003  1.00  0.00     0.049 A 
ATOM     54  H   UNL A   1      44.982  28.129  28.228  1.00  0.00     0.167 HD
ATOM     55  C   UNL A   1      46.337  25.758  27.493  1.00  0.00     0.074 A 
ATOM     56  C   UNL A   1      46.581  24.385  27.101  1.00  0.00     0.031 C 
ATOM     57  C   UNL A   1      47.303  26.699  27.613  1.00  0.00     0.037 A 
BRANCH  44  58
ATOM     58  C   UNL A   1      45.207  32.225  29.379  1.00  0.00     0.057 A 
ATOM     59  C   UNL A   1      45.601  32.598  30.669  1.00  0.00     0.134 A 
ATOM     60  C   UNL A   1      45.147  33.230  28.403  1.00  0.00     0.134 A 
ATOM     61  F   UNL A   1      45.662  31.686  31.650  1.00  0.00    -0.206 F 
ATOM     62  C   UNL A   1      45.912  33.923  30.980  1.00  0.00     0.040 A 
ATOM     63  C   UNL A   1      45.474  34.554  28.697  1.00  0.00     0.040 A 
ATOM     64  F   UNL A   1      44.779  32.937  27.147  1.00  0.00    -0.206 F 
ATOM     65  C   UNL A   1      45.855  34.905  29.992  1.00  0.00     0.006 A 
ENDBRANCH  44  58
BRANCH  45  66
ATOM     66  C   UNL A   1      42.646  22.886  27.070  1.00  0.00     0.057 A 
ATOM     67  C   UNL A   1      42.291  21.959  28.055  1.00  0.00     0.134 A 
ATOM     68  C   UNL A   1      42.619  22.458  25.737  1.00  0.00     0.134 A 
ATOM     69  F   UNL A   1      42.323  22.305  29.350  1.00  0.00    -0.206 F 
ATOM     70  C   UNL A   1      41.923  20.653  27.729  1.00  0.00     0.040 A 
ATOM     71  C   UNL A   1      42.232  21.163  25.394  1.00  0.00     0.040 A 
ATOM     72  F   UNL A   1      42.948  23.302  24.748  1.00  0.00    -0.206 F 
ATOM     73  C   UNL A   1      41.884  20.255  26.393  1.00  0.00     0.006 A 
ENDBRANCH  45  66
BRANCH  57  74
ATOM     74  C   UNL A   1      48.709  26.270  27.329  1.00  0.00     0.057 A 
ATOM     75  C   UNL A   1      49.521  25.724  28.330  1.00  0.00     0.134 A 
ATOM     76  C   UNL A   1      49.245  26.382  26.042  1.00  0.00     0.134 A 
ATOM     77  F   UNL A   1      49.065  25.603  29.586  1.00  0.00    -0.206 F 
ATOM     78  C   UNL A   1      50.828  25.315  28.062  1.00  0.00     0.040 A 
ATOM     79  C   UNL A   1      50.546  25.964  25.758  1.00  0.00     0.040 A 
ATOM     80  F   UNL A   1      48.514  26.896  25.041  1.00  0.00    -0.206 F 
ATOM     81  C   UNL A   1      51.343  25.432  26.771  1.00  0.00     0.006 A 
ENDBRANCH  57  74
ENDBRANCH  31  32
ENDBRANCH  24  26
ENDBRANCH  23  24
ENDBRANCH  22  23
ENDBRANCH   1  22
TORSDOF 15
ENDMDL
MODEL 2
REMARK VINA RESULT:     -10.5      3.571      7.738
REMARK SMILES C[NH2+][C@]1(C(=O)OCCOC(=O)c2ccc(-c3c4nc(c(-c5c(F)cccc5F)c5ccc([nH]5)c(-c5c(F)cccc5F)c5nc(c(-c6c(F)cccc6F)c6ccc3[nH]6)C=C5)C=C4)cc2)CCC[C@@H]1CCn1cc(C)cn1
REMARK SMILES IDX 7 1 6 2 4 3 5 4 3 5 66 6 69 7 67 8 68 9 2 10 1 11 70 14
REMARK SMILES IDX 71 15 72 16 73 17 77 18 74 19 76 20 75 21 8 22 9 23 10 24
REMARK SMILES IDX 11 25 12 26 13 27 65 28 14 29 64 30 15 31 16 32 17 33 58 34
REMARK SMILES IDX 18 35 63 36 57 37 59 38 19 39 62 40 56 41 55 42 20 44 46 45
REMARK SMILES IDX 29 46 45 47 30 48 33 49 44 50 60 51 31 52 32 53 43 55 61 56
REMARK SMILES IDX 34 57 21 58 22 59 27 60 23 61 24 62 26 63 28 64 25 65 47 66
REMARK SMILES IDX 48 67 53 68 49 69 50 70 52 71 54 72 51 73 35 74 36 75 41 76
REMARK SMILES IDX 37 77 38 78 40 79 42 80 39 81
REMARK H PARENT 2 12 2 13 59 43 33 54
REMARK Flexibility Score: inf
ROOT
ATOM      1  C   UNL A   1      36.368  22.469  23.727  1.00  0.00     0.274 C 
ENDROOT
BRANCH   1   2
ATOM      2  O   UNL A   1      35.449  23.529  24.061  1.00  0.00    -0.457 OA
BRANCH   2   3
ATOM      3  C   UNL A   1      34.372  23.626  23.233  1.00  0.00     0.368 C 
ATOM      4  O   UNL A   1      34.408  23.357  22.035  1.00  0.00    -0.245 OA
BRANCH   3   5
ATOM      5  C   UNL A   1      33.079  24.075  23.954  1.00  0.00     0.197 C 
ATOM      6  C   UNL A   1      32.385  25.286  23.303  1.00  0.00     0.081 C 
ATOM      7  C   UNL A   1      31.992  22.989  23.691  1.00  0.00     0.064 C 
ATOM      8  C   UNL A   1      30.930  25.190  23.755  1.00  0.00     0.008 C 
ATOM      9  C   UNL A   1      30.663  23.701  23.991  1.00  0.00     0.011 C 
BRANCH   5  10
ATOM     10  N   UNL A   1      33.283  24.228  25.419  1.00  0.00    -0.334 N 
ATOM     11  C   UNL A   1      33.561  25.585  25.862  1.00  0.00     0.331 C 
ATOM     12  H   UNL A   1      32.437  23.907  25.892  1.00  0.00     0.347 HD
ATOM     13  H   UNL A   1      34.109  23.677  25.652  1.00  0.00     0.347 HD
ENDBRANCH   5  10
BRANCH   7  14
ATOM     14  C   UNL A   1      32.145  21.655  24.455  1.00  0.00     0.034 C 
BRANCH  14  15
ATOM     15  C   UNL A   1      32.565  20.487  23.555  1.00  0.00     0.144 C 
BRANCH  15  16
ATOM     16  N   UNL A   1      32.861  19.270  24.293  1.00  0.00    -0.272 N 
ATOM     17  C   UNL A   1      33.773  18.308  23.963  1.00  0.00     0.112 A 
ATOM     18  N   UNL A   1      32.194  18.997  25.432  1.00  0.00    -0.181 NA
ATOM     19  C   UNL A   1      33.671  17.324  24.925  1.00  0.00    -0.013 A 
ATOM     20  C   UNL A   1      32.678  17.811  25.804  1.00  0.00     0.138 A 
ATOM     21  C   UNL A   1      34.412  16.048  25.020  1.00  0.00     0.048 C 
ENDBRANCH  15  16
ENDBRANCH  14  15
ENDBRANCH   7  14
ENDBRANCH   3   5
ENDBRANCH   2   3
ENDBRANCH   1   2
BRANCH   1  22
ATOM     22  C   UNL A   1      36.243  21.288  24.688  1.00  0.00     0.275 C 
BRANCH  22  23
ATOM     23  O   UNL A   1      36.948  21.563  25.912  1.00  0.00    -0.458 OA
BRANCH  23  24
ATOM     24  C   UNL A   1      38.291  21.424  25.862  1.00  0.00     0.338 C 
ATOM     25  O   UNL A   1      38.916  20.482  25.403  1.00  0.00    -0.246 OA
BRANCH  24  26
ATOM     26  C   UNL A   1      38.957  22.602  26.457  1.00  0.00     0.060 A 
ATOM     27  C   UNL A   1      38.516  23.898  26.185  1.00  0.00     0.016 A 
ATOM     28  C   UNL A   1      40.120  22.413  27.203  1.00  0.00     0.016 A 
ATOM     29  C   UNL A   1      39.278  25.001  26.574  1.00  0.00     0.010 A 
ATOM     30  C   UNL A   1      40.833  23.518  27.675  1.00  0.00     0.010 A 
ATOM     31  C   UNL A   1      40.442  24.825  27.333  1.00  0.00    -0.014 A 
BRANCH  31  32
ATOM     32  C   UNL A   1      41.283  25.987  27.735  1.00  0.00     0.031 A 
ATOM     33  C   UNL A   1      40.712  27.055  28.631  1.00  0.00     0.074 A 
ATOM     34  C   UNL A   1      42.552  26.107  27.298  1.00  0.00     0.049 A 
ATOM     35  N   UNL A   1      41.176  28.249  28.900  1.00  0.00    -0.248 NA
ATOM     36  C   UNL A   1      39.439  26.741  29.301  1.00  0.00     0.031 C 
ATOM     37  C   UNL A   1      43.263  25.137  26.464  1.00  0.00     0.029 A 
ATOM     38  N   UNL A   1      43.473  27.108  27.499  1.00  0.00    -0.354 N 
ATOM     39  C   UNL A   1      40.220  28.854  29.705  1.00  0.00     0.074 A 
ATOM     40  C   UNL A   1      39.157  27.891  29.898  1.00  0.00     0.031 C 
ATOM     41  C   UNL A   1      44.516  25.570  26.257  1.00  0.00     0.029 A 
ATOM     42  C   UNL A   1      44.672  26.885  26.868  1.00  0.00     0.049 A 
ATOM     43  H   UNL A   1      43.291  27.907  28.044  1.00  0.00     0.167 HD
ATOM     44  C   UNL A   1      40.225  30.104  30.229  1.00  0.00     0.037 A 
ATOM     45  C   UNL A   1      45.761  27.668  26.753  1.00  0.00     0.037 A 
ATOM     46  C   UNL A   1      41.313  31.037  30.100  1.00  0.00     0.049 A 
ATOM     47  C   UNL A   1      45.751  29.045  27.349  1.00  0.00     0.074 A 
ATOM     48  C   UNL A   1      41.412  32.324  30.599  1.00  0.00     0.029 A 
ATOM     49  N   UNL A   1      42.505  30.769  29.445  1.00  0.00    -0.354 N 
ATOM     50  N   UNL A   1      44.802  29.643  28.027  1.00  0.00    -0.248 NA
ATOM     51  C   UNL A   1      46.950  29.868  27.137  1.00  0.00     0.031 C 
ATOM     52  C   UNL A   1      42.660  32.841  30.235  1.00  0.00     0.029 A 
ATOM     53  C   UNL A   1      43.346  31.865  29.530  1.00  0.00     0.049 A 
ATOM     54  H   UNL A   1      42.720  29.924  28.988  1.00  0.00     0.167 HD
ATOM     55  C   UNL A   1      45.285  30.911  28.318  1.00  0.00     0.074 A 
ATOM     56  C   UNL A   1      46.622  30.988  27.766  1.00  0.00     0.031 C 
ATOM     57  C   UNL A   1      44.672  31.925  28.973  1.00  0.00     0.037 A 
BRANCH  44  58
ATOM     58  C   UNL A   1      38.998  30.549  30.964  1.00  0.00     0.057 A 
ATOM     59  C   UNL A   1      38.839  30.347  32.340  1.00  0.00     0.134 A 
ATOM     60  C   UNL A   1      37.973  31.221  30.285  1.00  0.00     0.134 A 
ATOM     61  F   UNL A   1      39.777  29.696  33.044  1.00  0.00    -0.206 F 
ATOM     62  C   UNL A   1      37.697  30.787  33.013  1.00  0.00     0.040 A 
ATOM     63  C   UNL A   1      36.836  31.682  30.949  1.00  0.00     0.040 A 
ATOM     64  F   UNL A   1      38.066  31.448  28.966  1.00  0.00    -0.206 F 
ATOM     65  C   UNL A   1      36.694  31.462  32.318  1.00  0.00     0.006 A 
ENDBRANCH  44  58
BRANCH  45  66
ATOM     66  C   UNL A   1      46.943  27.177  26.002  1.00  0.00     0.057 A 
ATOM     67  C   UNL A   1      47.069  27.409  24.629  1.00  0.00     0.134 A 
ATOM     68  C   UNL A   1      47.976  26.481  26.641  1.00  0.00     0.134 A 
ATOM     69  F   UNL A   1      46.099  28.048  23.960  1.00  0.00    -0.206 F 
ATOM     70  C   UNL A   1      48.183  26.964  23.914  1.00  0.00     0.040 A 
ATOM     71  C   UNL A   1      49.105  26.051  25.944  1.00  0.00     0.040 A 
ATOM     72  F   UNL A   1      47.912  26.231  27.957  1.00  0.00    -0.206 F 
ATOM     73  C   UNL A   1      49.208  26.290  24.575  1.00  0.00     0.006 A 
ENDBRANCH  45  66
BRANCH  57  74
ATOM     74  C   UNL A   1      45.446  33.196  29.135  1.00  0.00     0.057 A 
ATOM     75  C   UNL A   1      45.348  34.233  28.200  1.00  0.00     0.134 A 
ATOM     76  C   UNL A   1      46.276  33.392  30.243  1.00  0.00     0.134 A 
ATOM     77  F   UNL A   1      44.577  34.097  27.111  1.00  0.00    -0.206 F 
ATOM     78  C   UNL A   1      46.063  35.422  28.357  1.00  0.00     0.040 A 
ATOM     79  C   UNL A   1      46.985  34.581  30.419  1.00  0.00     0.040 A 
ATOM     80  F   UNL A   1      46.409  32.434  31.174  1.00  0.00    -0.206 F 
ATOM     81  C   UNL A   1      46.883  35.598  29.471  1.00  0.00     0.006 A 
ENDBRANCH  57  74
ENDBRANCH  31  32
ENDBRANCH  24  26
ENDBRANCH  23  24
ENDBRANCH  22  23
ENDBRANCH   1  22
TORSDOF 15
ENDMDL
MODEL 3
REMARK VINA RESULT:     -10.4      4.386      8.377
REMARK SMILES C[NH2+][C@]1(C(=O)OCCOC(=O)c2ccc(-c3c4nc(c(-c5c(F)cccc5F)c5ccc([nH]5)c(-c5c(F)cccc5F)c5nc(c(-c6c(F)cccc6F)c6ccc3[nH]6)C=C5)C=C4)cc2)CCC[C@@H]1CCn1cc(C)cn1
REMARK SMILES IDX 7 1 6 2 4 3 5 4 3 5 66 6 69 7 67 8 68 9 2 10 1 11 70 14
REMARK SMILES IDX 71 15 72 16 73 17 77 18 74 19 76 20 75 21 8 22 9 23 10 24
REMARK SMILES IDX 11 25 12 26 13 27 65 28 14 29 64 30 15 31 16 32 17 33 58 34
REMARK SMILES IDX 18 35 63 36 57 37 59 38 19 39 62 40 56 41 55 42 20 44 46 45
REMARK SMILES IDX 29 46 45 47 30 48 33 49 44 50 60 51 31 52 32 53 43 55 61 56
REMARK SMILES IDX 34 57 21 58 22 59 27 60 23 61 24 62 26 63 28 64 25 65 47 66
REMARK SMILES IDX 48 67 53 68 49 69 50 70 52 71 54 72 51 73 35 74 36 75 41 76
REMARK SMILES IDX 37 77 38 78 40 79 42 80 39 81
REMARK H PARENT 2 12 2 13 59 43 33 54
REMARK Flexibility Score: inf
ROOT
ATOM      1  C   UNL A   1      31.216  28.185  25.144  1.00  0.00     0.274 C 
ENDROOT
BRANCH   1   2
ATOM      2  O   UNL A   1      31.692  27.245  26.128  1.00  0.00    -0.457 OA
BRANCH   2   3
ATOM      3  C   UNL A   1      31.409  25.942  25.850  1.00  0.00     0.368 C 
ATOM      4  O   UNL A   1      30.290  25.450  25.961  1.00  0.00    -0.245 OA
BRANCH   3   5
ATOM      5  C   UNL A   1      32.632  25.141  25.342  1.00  0.00     0.197 C 
ATOM      6  C   UNL A   1      33.939  25.953  25.293  1.00  0.00     0.081 C 
ATOM      7  C   UNL A   1      33.014  24.113  26.451  1.00  0.00     0.064 C 
ATOM      8  C   UNL A   1      35.050  24.908  25.353  1.00  0.00     0.008 C 
ATOM      9  C   UNL A   1      34.463  23.719  26.118  1.00  0.00     0.011 C 
BRANCH   5  10
ATOM     10  N   UNL A   1      32.337  24.418  24.076  1.00  0.00    -0.334 N 
ATOM     11  C   UNL A   1      32.089  25.272  22.925  1.00  0.00     0.331 C 
ATOM     12  H   UNL A   1      33.133  23.818  23.861  1.00  0.00     0.347 HD
ATOM     13  H   UNL A   1      31.473  23.900  24.238  1.00  0.00     0.347 HD
ENDBRANCH   5  10
BRANCH   7  14
ATOM     14  C   UNL A   1      32.082  22.892  26.617  1.00  0.00     0.034 C 
BRANCH  14  15
ATOM     15  C   UNL A   1      32.827  21.552  26.578  1.00  0.00     0.144 C 
BRANCH  15  16
ATOM     16  N   UNL A   1      32.642  20.828  25.331  1.00  0.00    -0.272 N 
ATOM     17  C   UNL A   1      32.742  19.479  25.140  1.00  0.00     0.112 A 
ATOM     18  N   UNL A   1      32.346  21.501  24.202  1.00  0.00    -0.181 NA
ATOM     19  C   UNL A   1      32.537  19.257  23.794  1.00  0.00    -0.013 A 
ATOM     20  C   UNL A   1      32.297  20.547  23.270  1.00  0.00     0.138 A 
ATOM     21  C   UNL A   1      32.569  17.976  23.056  1.00  0.00     0.048 C 
ENDBRANCH  15  16
ENDBRANCH  14  15
ENDBRANCH   7  14
ENDBRANCH   3   5
ENDBRANCH   2   3
ENDBRANCH   1   2
BRANCH   1  22
ATOM     22  C   UNL A   1      31.847  29.564  25.327  1.00  0.00     0.275 C 
BRANCH  22  23
ATOM     23  O   UNL A   1      31.982  29.870  26.725  1.00  0.00    -0.458 OA
BRANCH  23  24
ATOM     24  C   UNL A   1      32.577  31.048  27.017  1.00  0.00     0.338 C 
ATOM     25  O   UNL A   1      32.103  32.164  26.880  1.00  0.00    -0.246 OA
BRANCH  24  26
ATOM     26  C   UNL A   1      33.938  30.825  27.550  1.00  0.00     0.060 A 
ATOM     27  C   UNL A   1      34.451  29.538  27.711  1.00  0.00     0.016 A 
ATOM     28  C   UNL A   1      34.668  31.921  28.009  1.00  0.00     0.016 A 
ATOM     29  C   UNL A   1      35.641  29.333  28.410  1.00  0.00     0.010 A 
ATOM     30  C   UNL A   1      35.907  31.723  28.625  1.00  0.00     0.010 A 
ATOM     31  C   UNL A   1      36.390  30.424  28.868  1.00  0.00    -0.014 A 
BRANCH  31  32
ATOM     32  C   UNL A   1      37.649  30.227  29.640  1.00  0.00     0.031 A 
ATOM     33  C   UNL A   1      38.789  29.453  29.032  1.00  0.00     0.074 A 
ATOM     34  C   UNL A   1      37.782  30.722  30.886  1.00  0.00     0.049 A 
ATOM     35  N   UNL A   1      39.859  28.962  29.606  1.00  0.00    -0.248 NA
ATOM     36  C   UNL A   1      38.706  29.181  27.588  1.00  0.00     0.031 C 
ATOM     37  C   UNL A   1      36.789  31.531  31.594  1.00  0.00     0.029 A 
ATOM     38  N   UNL A   1      38.819  30.614  31.782  1.00  0.00    -0.354 N 
ATOM     39  C   UNL A   1      40.534  28.262  28.614  1.00  0.00     0.074 A 
ATOM     40  C   UNL A   1      39.765  28.405  27.397  1.00  0.00     0.031 C 
ATOM     41  C   UNL A   1      37.278  31.876  32.795  1.00  0.00     0.029 A 
ATOM     42  C   UNL A   1      38.579  31.243  32.978  1.00  0.00     0.049 A 
ATOM     43  H   UNL A   1      39.654  30.132  31.584  1.00  0.00     0.167 HD
ATOM     44  C   UNL A   1      41.686  27.556  28.713  1.00  0.00     0.037 A 
ATOM     45  C   UNL A   1      39.302  31.274  34.113  1.00  0.00     0.037 A 
ATOM     46  C   UNL A   1      42.490  27.472  29.903  1.00  0.00     0.049 A 
ATOM     47  C   UNL A   1      40.581  30.494  34.199  1.00  0.00     0.074 A 
ATOM     48  C   UNL A   1      43.676  26.786  30.100  1.00  0.00     0.029 A 
ATOM     49  N   UNL A   1      42.203  28.122  31.093  1.00  0.00    -0.354 N 
ATOM     50  N   UNL A   1      41.160  29.757  33.284  1.00  0.00    -0.248 NA
ATOM     51  C   UNL A   1      41.290  30.524  35.487  1.00  0.00     0.031 C 
ATOM     52  C   UNL A   1      44.100  27.009  31.414  1.00  0.00     0.029 A 
ATOM     53  C   UNL A   1      43.190  27.855  32.027  1.00  0.00     0.049 A 
ATOM     54  H   UNL A   1      41.414  28.689  31.252  1.00  0.00     0.167 HD
ATOM     55  C   UNL A   1      42.297  29.232  33.883  1.00  0.00     0.074 A 
ATOM     56  C   UNL A   1      42.340  29.756  35.233  1.00  0.00     0.031 C 
ATOM     57  C   UNL A   1      43.216  28.383  33.365  1.00  0.00     0.037 A 
BRANCH  44  58
ATOM     58  C   UNL A   1      42.130  26.788  27.506  1.00  0.00     0.057 A 
ATOM     59  C   UNL A   1      41.754  25.458  27.290  1.00  0.00     0.134 A 
ATOM     60  C   UNL A   1      42.921  27.406  26.529  1.00  0.00     0.134 A 
ATOM     61  F   UNL A   1      41.011  24.805  28.196  1.00  0.00    -0.206 F 
ATOM     62  C   UNL A   1      42.162  24.763  26.148  1.00  0.00     0.040 A 
ATOM     63  C   UNL A   1      43.319  26.729  25.375  1.00  0.00     0.040 A 
ATOM     64  F   UNL A   1      43.312  28.681  26.676  1.00  0.00    -0.206 F 
ATOM     65  C   UNL A   1      42.941  25.401  25.184  1.00  0.00     0.006 A 
ENDBRANCH  44  58
BRANCH  45  66
ATOM     66  C   UNL A   1      38.805  32.043  35.280  1.00  0.00     0.057 A 
ATOM     67  C   UNL A   1      38.150  31.403  36.337  1.00  0.00     0.134 A 
ATOM     68  C   UNL A   1      38.985  33.428  35.372  1.00  0.00     0.134 A 
ATOM     69  F   UNL A   1      37.927  30.082  36.292  1.00  0.00    -0.206 F 
ATOM     70  C   UNL A   1      37.690  32.114  37.447  1.00  0.00     0.040 A 
ATOM     71  C   UNL A   1      38.550  34.148  36.485  1.00  0.00     0.040 A 
ATOM     72  F   UNL A   1      39.607  34.097  34.390  1.00  0.00    -0.206 F 
ATOM     73  C   UNL A   1      37.898  33.490  37.526  1.00  0.00     0.006 A 
ENDBRANCH  45  66
BRANCH  57  74
ATOM     74  C   UNL A   1      44.346  27.979  34.259  1.00  0.00     0.057 A 
ATOM     75  C   UNL A   1      44.288  26.808  35.025  1.00  0.00     0.134 A 
ATOM     76  C   UNL A   1      45.509  28.752  34.337  1.00  0.00     0.134 A 
ATOM     77  F   UNL A   1      43.194  26.034  35.002  1.00  0.00    -0.206 F 
ATOM     78  C   UNL A   1      45.346  26.427  35.851  1.00  0.00     0.040 A 
ATOM     79  C   UNL A   1      46.581  28.375  35.147  1.00  0.00     0.040 A 
ATOM     80  F   UNL A   1      45.624  29.884  33.624  1.00  0.00    -0.206 F 
ATOM     81  C   UNL A   1      46.499  27.211  35.911  1.00  0.00     0.006 A 
ENDBRANCH  57  74
ENDBRANCH  31  32
ENDBRANCH  24  26
ENDBRANCH  23  24
ENDBRANCH  22  23
ENDBRANCH   1  22
TORSDOF 15
ENDMDL
