MODEL 1
REMARK VINA RESULT:     -11.0      0.000      0.000
REMARK SMILES CCOc1cc(C(=O)OCCOC(=O)c2ccc(-c3c4nc(c(-c5c(F)cccc5F)c5ccc([nH]5)c(-c5c(F)cccc5F)c5nc(c(-c6c(F)cccc6F)c6ccc3[nH]6)C=C5)C=C4)cc2)ccc1OCc1ccc(Cl)c(Cl)c1
REMARK SMILES IDX 10 1 9 2 7 3 8 4 6 5 4 6 5 7 71 8 70 9 69 10 3 11 2 12 1 13
REMARK SMILES IDX 72 14 73 15 74 16 75 17 81 18 76 19 79 20 77 21 80 22 78 23
REMARK SMILES IDX 11 24 12 25 13 26 14 27 15 28 16 29 68 30 17 31 67 32 18 33
REMARK SMILES IDX 19 34 20 35 61 36 21 37 66 38 60 39 62 40 22 41 65 42 59 43
REMARK SMILES IDX 58 44 23 46 49 47 32 48 48 49 33 50 36 51 47 52 63 53 34 54
REMARK SMILES IDX 35 55 46 57 64 58 37 59 24 60 25 61 30 62 26 63 27 64 29 65
REMARK SMILES IDX 31 66 28 67 50 68 51 69 56 70 52 71 53 72 55 73 57 74 54 75
REMARK SMILES IDX 38 76 39 77 44 78 40 79 41 80 43 81 45 82 42 83
REMARK H PARENT 62 45 36 56
REMARK Flexibility Score: inf
ROOT
ATOM      1  C   UNL A   1      34.051  33.941  29.178  1.00  0.00     0.275 C 
ENDROOT
BRANCH   1   2
ATOM      2  O   UNL A   1      33.791  32.638  28.616  1.00  0.00    -0.458 OA
BRANCH   2   3
ATOM      3  C   UNL A   1      32.870  32.565  27.628  1.00  0.00     0.338 C 
ATOM      4  O   UNL A   1      32.047  33.420  27.329  1.00  0.00    -0.246 OA
BRANCH   3   5
ATOM      5  C   UNL A   1      32.936  31.239  26.975  1.00  0.00     0.064 A 
ATOM      6  C   UNL A   1      31.937  29.338  25.832  1.00  0.00     0.162 A 
ATOM      7  C   UNL A   1      31.875  30.678  26.223  1.00  0.00     0.066 A 
ATOM      8  C   UNL A   1      32.985  28.553  26.334  1.00  0.00     0.161 A 
ATOM      9  C   UNL A   1      34.099  29.148  26.932  1.00  0.00     0.051 A 
ATOM     10  C   UNL A   1      34.081  30.493  27.248  1.00  0.00     0.020 A 
BRANCH   6  11
ATOM     11  O   UNL A   1      31.124  28.741  24.916  1.00  0.00    -0.490 OA
BRANCH  11  12
ATOM     12  C   UNL A   1      31.579  28.448  23.598  1.00  0.00     0.226 C 
ATOM     13  C   UNL A   1      30.548  27.483  23.009  1.00  0.00     0.049 C 
ENDBRANCH  11  12
ENDBRANCH   6  11
BRANCH   8  14
ATOM     14  O   UNL A   1      32.999  27.192  26.456  1.00  0.00    -0.485 OA
BRANCH  14  15
ATOM     15  C   UNL A   1      33.994  26.415  25.781  1.00  0.00     0.265 C 
BRANCH  15  16
ATOM     16  C   UNL A   1      33.680  25.103  25.052  1.00  0.00    -0.009 A 
ATOM     17  C   UNL A   1      33.929  25.070  23.667  1.00  0.00     0.009 A 
ATOM     18  C   UNL A   1      33.061  23.977  25.621  1.00  0.00     0.029 A 
ATOM     19  C   UNL A   1      33.496  24.005  22.871  1.00  0.00     0.022 A 
ATOM     20  C   UNL A   1      32.569  22.935  24.819  1.00  0.00     0.060 A 
ATOM     21  C   UNL A   1      32.783  22.951  23.439  1.00  0.00     0.059 A 
ATOM     22  Cl  UNL A   1      31.631  21.701  25.589  1.00  0.00    -0.083 Cl
ATOM     23  Cl  UNL A   1      32.179  21.723  22.384  1.00  0.00    -0.083 Cl
ENDBRANCH  15  16
ENDBRANCH  14  15
ENDBRANCH   8  14
ENDBRANCH   3   5
ENDBRANCH   2   3
ENDBRANCH   1   2
BRANCH   1  24
ATOM     24  C   UNL A   1      34.407  33.806  30.658  1.00  0.00     0.275 C 
BRANCH  24  25
ATOM     25  O   UNL A   1      34.532  32.414  31.007  1.00  0.00    -0.458 OA
BRANCH  25  26
ATOM     26  C   UNL A   1      35.497  32.143  31.913  1.00  0.00     0.338 C 
ATOM     27  O   UNL A   1      35.490  32.370  33.108  1.00  0.00    -0.246 OA
BRANCH  26  28
ATOM     28  C   UNL A   1      36.578  31.385  31.274  1.00  0.00     0.060 A 
ATOM     29  C   UNL A   1      37.503  30.749  32.092  1.00  0.00     0.016 A 
ATOM     30  C   UNL A   1      36.799  31.471  29.904  1.00  0.00     0.016 A 
ATOM     31  C   UNL A   1      38.719  30.326  31.587  1.00  0.00     0.010 A 
ATOM     32  C   UNL A   1      37.964  30.908  29.371  1.00  0.00     0.010 A 
ATOM     33  C   UNL A   1      38.956  30.368  30.213  1.00  0.00    -0.014 A 
BRANCH  33  34
ATOM     34  C   UNL A   1      40.249  29.868  29.679  1.00  0.00     0.031 A 
ATOM     35  C   UNL A   1      41.437  30.785  29.601  1.00  0.00     0.074 A 
ATOM     36  C   UNL A   1      40.367  28.583  29.288  1.00  0.00     0.049 A 
ATOM     37  N   UNL A   1      42.586  30.602  29.004  1.00  0.00    -0.248 NA
ATOM     38  C   UNL A   1      41.309  32.089  30.271  1.00  0.00     0.031 C 
ATOM     39  C   UNL A   1      39.316  27.565  29.380  1.00  0.00     0.029 A 
ATOM     40  N   UNL A   1      41.429  27.909  28.743  1.00  0.00    -0.354 N 
ATOM     41  C   UNL A   1      43.291  31.788  29.166  1.00  0.00     0.074 A 
ATOM     42  C   UNL A   1      42.434  32.689  29.908  1.00  0.00     0.031 C 
ATOM     43  C   UNL A   1      39.799  26.390  28.955  1.00  0.00     0.029 A 
ATOM     44  C   UNL A   1      41.149  26.596  28.449  1.00  0.00     0.049 A 
ATOM     45  H   UNL A   1      42.305  28.324  28.577  1.00  0.00     0.167 HD
ATOM     46  C   UNL A   1      44.537  32.095  28.732  1.00  0.00     0.037 A 
ATOM     47  C   UNL A   1      41.872  25.670  27.794  1.00  0.00     0.037 A 
ATOM     48  C   UNL A   1      45.390  31.173  28.027  1.00  0.00     0.049 A 
ATOM     49  C   UNL A   1      43.215  26.056  27.252  1.00  0.00     0.074 A 
ATOM     50  C   UNL A   1      46.676  31.373  27.555  1.00  0.00     0.029 A 
ATOM     51  N   UNL A   1      45.044  29.869  27.696  1.00  0.00    -0.354 N 
ATOM     52  N   UNL A   1      43.854  27.194  27.363  1.00  0.00    -0.248 NA
ATOM     53  C   UNL A   1      43.927  25.034  26.477  1.00  0.00     0.031 C 
ATOM     54  C   UNL A   1      47.083  30.212  26.889  1.00  0.00     0.029 A 
ATOM     55  C   UNL A   1      46.078  29.263  27.002  1.00  0.00     0.049 A 
ATOM     56  H   UNL A   1      44.187  29.438  27.922  1.00  0.00     0.167 HD
ATOM     57  C   UNL A   1      45.057  27.021  26.692  1.00  0.00     0.074 A 
ATOM     58  C   UNL A   1      45.060  25.661  26.190  1.00  0.00     0.031 C 
ATOM     59  C   UNL A   1      46.066  27.907  26.510  1.00  0.00     0.037 A 
BRANCH  46  60
ATOM     60  C   UNL A   1      45.018  33.502  28.959  1.00  0.00     0.057 A 
ATOM     61  C   UNL A   1      45.747  33.876  30.096  1.00  0.00     0.134 A 
ATOM     62  C   UNL A   1      44.733  34.505  28.021  1.00  0.00     0.134 A 
ATOM     63  F   UNL A   1      46.045  32.972  31.041  1.00  0.00    -0.206 F 
ATOM     64  C   UNL A   1      46.131  35.201  30.315  1.00  0.00     0.040 A 
ATOM     65  C   UNL A   1      45.142  35.825  28.212  1.00  0.00     0.040 A 
ATOM     66  F   UNL A   1      44.047  34.219  26.905  1.00  0.00    -0.206 F 
ATOM     67  C   UNL A   1      45.832  36.180  29.368  1.00  0.00     0.006 A 
ENDBRANCH  46  60
BRANCH  47  68
ATOM     68  C   UNL A   1      41.314  24.309  27.589  1.00  0.00     0.057 A 
ATOM     69  C   UNL A   1      41.770  23.225  28.346  1.00  0.00     0.134 A 
ATOM     70  C   UNL A   1      40.295  24.065  26.659  1.00  0.00     0.134 A 
ATOM     71  F   UNL A   1      42.758  23.392  29.236  1.00  0.00    -0.206 F 
ATOM     72  C   UNL A   1      41.234  21.947  28.185  1.00  0.00     0.040 A 
ATOM     73  C   UNL A   1      39.729  22.798  26.509  1.00  0.00     0.040 A 
ATOM     74  F   UNL A   1      39.809  25.064  25.906  1.00  0.00    -0.206 F 
ATOM     75  C   UNL A   1      40.204  21.734  27.272  1.00  0.00     0.006 A 
ENDBRANCH  47  68
BRANCH  59  76
ATOM     76  C   UNL A   1      47.278  27.414  25.775  1.00  0.00     0.057 A 
ATOM     77  C   UNL A   1      47.437  27.595  24.395  1.00  0.00     0.134 A 
ATOM     78  C   UNL A   1      48.312  26.770  26.466  1.00  0.00     0.134 A 
ATOM     79  F   UNL A   1      46.475  28.190  23.671  1.00  0.00    -0.206 F 
ATOM     80  C   UNL A   1      48.570  27.130  23.725  1.00  0.00     0.040 A 
ATOM     81  C   UNL A   1      49.463  26.329  25.812  1.00  0.00     0.040 A 
ATOM     82  F   UNL A   1      48.227  26.570  27.790  1.00  0.00    -0.206 F 
ATOM     83  C   UNL A   1      49.591  26.502  24.436  1.00  0.00     0.006 A 
ENDBRANCH  59  76
ENDBRANCH  33  34
ENDBRANCH  26  28
ENDBRANCH  25  26
ENDBRANCH  24  25
ENDBRANCH   1  24
TORSDOF 16
ENDMDL
MODEL 2
REMARK VINA RESULT:     -10.9      3.033      7.831
REMARK SMILES CCOc1cc(C(=O)OCCOC(=O)c2ccc(-c3c4nc(c(-c5c(F)cccc5F)c5ccc([nH]5)c(-c5c(F)cccc5F)c5nc(c(-c6c(F)cccc6F)c6ccc3[nH]6)C=C5)C=C4)cc2)ccc1OCc1ccc(Cl)c(Cl)c1
REMARK SMILES IDX 10 1 9 2 7 3 8 4 6 5 4 6 5 7 71 8 70 9 69 10 3 11 2 12 1 13
REMARK SMILES IDX 72 14 73 15 74 16 75 17 81 18 76 19 79 20 77 21 80 22 78 23
REMARK SMILES IDX 11 24 12 25 13 26 14 27 15 28 16 29 68 30 17 31 67 32 18 33
REMARK SMILES IDX 19 34 20 35 61 36 21 37 66 38 60 39 62 40 22 41 65 42 59 43
REMARK SMILES IDX 58 44 23 46 49 47 32 48 48 49 33 50 36 51 47 52 63 53 34 54
REMARK SMILES IDX 35 55 46 57 64 58 37 59 24 60 25 61 30 62 26 63 27 64 29 65
REMARK SMILES IDX 31 66 28 67 50 68 51 69 56 70 52 71 53 72 55 73 57 74 54 75
REMARK SMILES IDX 38 76 39 77 44 78 40 79 41 80 43 81 45 82 42 83
REMARK H PARENT 62 45 36 56
REMARK Flexibility Score: inf
ROOT
ATOM      1  C   UNL A   1      35.080  20.906  25.585  1.00  0.00     0.275 C 
ENDROOT
BRANCH   1   2
ATOM      2  O   UNL A   1      35.067  22.316  25.889  1.00  0.00    -0.458 OA
BRANCH   2   3
ATOM      3  C   UNL A   1      34.130  22.750  26.763  1.00  0.00     0.338 C 
ATOM      4  O   UNL A   1      34.130  22.593  27.976  1.00  0.00    -0.246 OA
BRANCH   3   5
ATOM      5  C   UNL A   1      33.024  23.404  26.029  1.00  0.00     0.064 A 
ATOM      6  C   UNL A   1      32.088  24.555  24.100  1.00  0.00     0.162 A 
ATOM      7  C   UNL A   1      33.082  23.744  24.655  1.00  0.00     0.066 A 
ATOM      8  C   UNL A   1      31.146  25.129  24.966  1.00  0.00     0.161 A 
ATOM      9  C   UNL A   1      31.002  24.662  26.275  1.00  0.00     0.051 A 
ATOM     10  C   UNL A   1      31.935  23.793  26.808  1.00  0.00     0.020 A 
BRANCH   6  11
ATOM     11  O   UNL A   1      31.884  24.759  22.769  1.00  0.00    -0.490 OA
BRANCH  11  12
ATOM     12  C   UNL A   1      32.960  24.707  21.836  1.00  0.00     0.226 C 
ATOM     13  C   UNL A   1      32.576  25.666  20.707  1.00  0.00     0.049 C 
ENDBRANCH  11  12
ENDBRANCH   6  11
BRANCH   8  14
ATOM     14  O   UNL A   1      30.404  26.253  24.735  1.00  0.00    -0.485 OA
BRANCH  14  15
ATOM     15  C   UNL A   1      30.997  27.396  24.111  1.00  0.00     0.265 C 
BRANCH  15  16
ATOM     16  C   UNL A   1      31.815  28.441  24.880  1.00  0.00    -0.009 A 
ATOM     17  C   UNL A   1      33.054  28.021  25.400  1.00  0.00     0.009 A 
ATOM     18  C   UNL A   1      31.386  29.738  25.208  1.00  0.00     0.029 A 
ATOM     19  C   UNL A   1      33.786  28.822  26.282  1.00  0.00     0.022 A 
ATOM     20  C   UNL A   1      32.085  30.521  26.141  1.00  0.00     0.060 A 
ATOM     21  C   UNL A   1      33.286  30.060  26.684  1.00  0.00     0.059 A 
ATOM     22  Cl  UNL A   1      31.362  32.010  26.644  1.00  0.00    -0.083 Cl
ATOM     23  Cl  UNL A   1      34.183  30.950  27.863  1.00  0.00    -0.083 Cl
ENDBRANCH  15  16
ENDBRANCH  14  15
ENDBRANCH   8  14
ENDBRANCH   3   5
ENDBRANCH   2   3
ENDBRANCH   1   2
BRANCH   1  24
ATOM     24  C   UNL A   1      36.426  20.518  24.977  1.00  0.00     0.275 C 
BRANCH  24  25
ATOM     25  O   UNL A   1      37.375  21.584  25.167  1.00  0.00    -0.458 OA
BRANCH  25  26
ATOM     26  C   UNL A   1      38.544  21.207  25.733  1.00  0.00     0.338 C 
ATOM     27  O   UNL A   1      39.115  20.139  25.632  1.00  0.00    -0.246 OA
BRANCH  26  28
ATOM     28  C   UNL A   1      39.146  22.348  26.432  1.00  0.00     0.060 A 
ATOM     29  C   UNL A   1      38.658  23.617  26.152  1.00  0.00     0.016 A 
ATOM     30  C   UNL A   1      40.305  22.194  27.185  1.00  0.00     0.016 A 
ATOM     31  C   UNL A   1      39.388  24.744  26.486  1.00  0.00     0.010 A 
ATOM     32  C   UNL A   1      40.963  23.337  27.652  1.00  0.00     0.010 A 
ATOM     33  C   UNL A   1      40.535  24.623  27.271  1.00  0.00    -0.014 A 
BRANCH  33  34
ATOM     34  C   UNL A   1      41.284  25.845  27.661  1.00  0.00     0.031 A 
ATOM     35  C   UNL A   1      40.630  26.888  28.523  1.00  0.00     0.074 A 
ATOM     36  C   UNL A   1      42.563  26.008  27.266  1.00  0.00     0.049 A 
ATOM     37  N   UNL A   1      41.040  28.096  28.817  1.00  0.00    -0.248 NA
ATOM     38  C   UNL A   1      39.333  26.533  29.120  1.00  0.00     0.031 C 
ATOM     39  C   UNL A   1      43.345  25.040  26.491  1.00  0.00     0.029 A 
ATOM     40  N   UNL A   1      43.436  27.045  27.469  1.00  0.00    -0.354 N 
ATOM     41  C   UNL A   1      40.025  28.667  29.574  1.00  0.00     0.074 A 
ATOM     42  C   UNL A   1      38.974  27.677  29.684  1.00  0.00     0.031 C 
ATOM     43  C   UNL A   1      44.591  25.506  26.328  1.00  0.00     0.029 A 
ATOM     44  C   UNL A   1      44.661  26.851  26.878  1.00  0.00     0.049 A 
ATOM     45  H   UNL A   1      43.208  27.850  27.987  1.00  0.00     0.167 HD
ATOM     46  C   UNL A   1      39.976  29.904  30.123  1.00  0.00     0.037 A 
ATOM     47  C   UNL A   1      45.710  27.681  26.740  1.00  0.00     0.037 A 
ATOM     48  C   UNL A   1      41.048  30.863  30.035  1.00  0.00     0.049 A 
ATOM     49  C   UNL A   1      45.604  29.074  27.285  1.00  0.00     0.074 A 
ATOM     50  C   UNL A   1      41.111  32.139  30.566  1.00  0.00     0.029 A 
ATOM     51  N   UNL A   1      42.250  30.647  29.374  1.00  0.00    -0.354 N 
ATOM     52  N   UNL A   1      44.621  29.626  27.955  1.00  0.00    -0.248 NA
ATOM     53  C   UNL A   1      46.744  29.964  27.038  1.00  0.00     0.031 C 
ATOM     54  C   UNL A   1      42.326  32.715  30.177  1.00  0.00     0.029 A 
ATOM     55  C   UNL A   1      43.050  31.776  29.459  1.00  0.00     0.049 A 
ATOM     56  H   UNL A   1      42.498  29.814  28.911  1.00  0.00     0.167 HD
ATOM     57  C   UNL A   1      45.032  30.923  28.231  1.00  0.00     0.074 A 
ATOM     58  C   UNL A   1      46.360  31.067  27.667  1.00  0.00     0.031 C 
ATOM     59  C   UNL A   1      44.370  31.903  28.893  1.00  0.00     0.037 A 
BRANCH  46  60
ATOM     60  C   UNL A   1      38.700  30.303  30.812  1.00  0.00     0.057 A 
ATOM     61  C   UNL A   1      37.650  30.946  30.142  1.00  0.00     0.134 A 
ATOM     62  C   UNL A   1      38.526  30.048  32.179  1.00  0.00     0.134 A 
ATOM     63  F   UNL A   1      37.752  31.232  28.835  1.00  0.00    -0.206 F 
ATOM     64  C   UNL A   1      36.499  31.362  30.814  1.00  0.00     0.040 A 
ATOM     65  C   UNL A   1      37.365  30.428  32.855  1.00  0.00     0.040 A 
ATOM     66  F   UNL A   1      39.485  29.429  32.884  1.00  0.00    -0.206 F 
ATOM     67  C   UNL A   1      36.353  31.099  32.175  1.00  0.00     0.006 A 
ENDBRANCH  46  60
BRANCH  47  68
ATOM     68  C   UNL A   1      46.926  27.221  26.023  1.00  0.00     0.057 A 
ATOM     69  C   UNL A   1      47.052  27.392  24.641  1.00  0.00     0.134 A 
ATOM     70  C   UNL A   1      48.001  26.631  26.702  1.00  0.00     0.134 A 
ATOM     71  F   UNL A   1      46.048  27.930  23.934  1.00  0.00    -0.206 F 
ATOM     72  C   UNL A   1      48.201  26.992  23.958  1.00  0.00     0.040 A 
ATOM     73  C   UNL A   1      49.168  26.254  26.037  1.00  0.00     0.040 A 
ATOM     74  F   UNL A   1      47.945  26.445  28.030  1.00  0.00    -0.206 F 
ATOM     75  C   UNL A   1      49.267  26.430  24.659  1.00  0.00     0.006 A 
ENDBRANCH  47  68
BRANCH  59  76
ATOM     76  C   UNL A   1      45.095  33.203  29.082  1.00  0.00     0.057 A 
ATOM     77  C   UNL A   1      44.965  34.266  28.180  1.00  0.00     0.134 A 
ATOM     78  C   UNL A   1      45.916  33.400  30.199  1.00  0.00     0.134 A 
ATOM     79  F   UNL A   1      44.207  34.136  27.079  1.00  0.00    -0.206 F 
ATOM     80  C   UNL A   1      45.647  35.470  28.368  1.00  0.00     0.040 A 
ATOM     81  C   UNL A   1      46.578  34.609  30.416  1.00  0.00     0.040 A 
ATOM     82  F   UNL A   1      46.080  32.425  31.107  1.00  0.00    -0.206 F 
ATOM     83  C   UNL A   1      46.450  35.646  29.494  1.00  0.00     0.006 A 
ENDBRANCH  59  76
ENDBRANCH  33  34
ENDBRANCH  26  28
ENDBRANCH  25  26
ENDBRANCH  24  25
ENDBRANCH   1  24
TORSDOF 16
ENDMDL
MODEL 3
REMARK VINA RESULT:     -10.9      3.435      8.354
REMARK SMILES CCOc1cc(C(=O)OCCOC(=O)c2ccc(-c3c4nc(c(-c5c(F)cccc5F)c5ccc([nH]5)c(-c5c(F)cccc5F)c5nc(c(-c6c(F)cccc6F)c6ccc3[nH]6)C=C5)C=C4)cc2)ccc1OCc1ccc(Cl)c(Cl)c1
REMARK SMILES IDX 10 1 9 2 7 3 8 4 6 5 4 6 5 7 71 8 70 9 69 10 3 11 2 12 1 13
REMARK SMILES IDX 72 14 73 15 74 16 75 17 81 18 76 19 79 20 77 21 80 22 78 23
REMARK SMILES IDX 11 24 12 25 13 26 14 27 15 28 16 29 68 30 17 31 67 32 18 33
REMARK SMILES IDX 19 34 20 35 61 36 21 37 66 38 60 39 62 40 22 41 65 42 59 43
REMARK SMILES IDX 58 44 23 46 49 47 32 48 48 49 33 50 36 51 47 52 63 53 34 54
REMARK SMILES IDX 35 55 46 57 64 58 37 59 24 60 25 61 30 62 26 63 27 64 29 65
REMARK SMILES IDX 31 66 28 67 50 68 51 69 56 70 52 71 53 72 55 73 57 74 54 75
REMARK SMILES IDX 38 76 39 77 44 78 40 79 41 80 43 81 45 82 42 83
REMARK H PARENT 62 45 36 56
REMARK Flexibility Score: inf
ROOT
ATOM      1  C   UNL A   1      38.606  19.992  24.913  1.00  0.00     0.275 C 
ENDROOT
BRANCH   1   2
ATOM      2  O   UNL A   1      37.627  20.838  25.552  1.00  0.00    -0.458 OA
BRANCH   2   3
ATOM      3  C   UNL A   1      37.910  22.159  25.628  1.00  0.00     0.338 C 
ATOM      4  O   UNL A   1      38.886  22.670  26.161  1.00  0.00    -0.246 OA
BRANCH   3   5
ATOM      5  C   UNL A   1      36.810  22.944  25.027  1.00  0.00     0.064 A 
ATOM      6  C   UNL A   1      34.788  24.292  25.161  1.00  0.00     0.162 A 
ATOM      7  C   UNL A   1      35.929  23.766  25.773  1.00  0.00     0.066 A 
ATOM      8  C   UNL A   1      34.477  23.859  23.864  1.00  0.00     0.161 A 
ATOM      9  C   UNL A   1      35.425  23.187  23.089  1.00  0.00     0.051 A 
ATOM     10  C   UNL A   1      36.597  22.734  23.666  1.00  0.00     0.020 A 
BRANCH   6  11
ATOM     11  O   UNL A   1      33.997  25.277  25.673  1.00  0.00    -0.490 OA
BRANCH  11  12
ATOM     12  C   UNL A   1      33.999  26.592  25.124  1.00  0.00     0.226 C 
ATOM     13  C   UNL A   1      33.591  27.519  26.270  1.00  0.00     0.049 C 
ENDBRANCH  11  12
ENDBRANCH   6  11
BRANCH   8  14
ATOM     14  O   UNL A   1      33.246  23.878  23.271  1.00  0.00    -0.485 OA
BRANCH  14  15
ATOM     15  C   UNL A   1      32.174  23.094  23.804  1.00  0.00     0.265 C 
BRANCH  15  16
ATOM     16  C   UNL A   1      32.296  21.590  24.085  1.00  0.00    -0.009 A 
ATOM     17  C   UNL A   1      32.727  21.218  25.373  1.00  0.00     0.009 A 
ATOM     18  C   UNL A   1      32.127  20.564  23.141  1.00  0.00     0.029 A 
ATOM     19  C   UNL A   1      33.064  19.895  25.677  1.00  0.00     0.022 A 
ATOM     20  C   UNL A   1      32.524  19.246  23.421  1.00  0.00     0.060 A 
ATOM     21  C   UNL A   1      32.997  18.912  24.691  1.00  0.00     0.059 A 
ATOM     22  Cl  UNL A   1      32.481  18.101  22.125  1.00  0.00    -0.083 Cl
ATOM     23  Cl  UNL A   1      33.536  17.321  25.099  1.00  0.00    -0.083 Cl
ENDBRANCH  15  16
ENDBRANCH  14  15
ENDBRANCH   8  14
ENDBRANCH   3   5
ENDBRANCH   2   3
ENDBRANCH   1   2
BRANCH   1  24
ATOM     24  C   UNL A   1      39.496  19.340  25.970  1.00  0.00     0.275 C 
BRANCH  24  25
ATOM     25  O   UNL A   1      40.806  19.097  25.424  1.00  0.00    -0.458 OA
BRANCH  25  26
ATOM     26  C   UNL A   1      41.827  19.334  26.278  1.00  0.00     0.338 C 
ATOM     27  O   UNL A   1      42.730  18.584  26.594  1.00  0.00    -0.246 OA
BRANCH  26  28
ATOM     28  C   UNL A   1      41.788  20.733  26.720  1.00  0.00     0.060 A 
ATOM     29  C   UNL A   1      42.113  21.718  25.796  1.00  0.00     0.016 A 
ATOM     30  C   UNL A   1      41.643  21.055  28.064  1.00  0.00     0.016 A 
ATOM     31  C   UNL A   1      42.440  22.996  26.213  1.00  0.00     0.010 A 
ATOM     32  C   UNL A   1      41.828  22.383  28.464  1.00  0.00     0.010 A 
ATOM     33  C   UNL A   1      42.270  23.358  27.549  1.00  0.00    -0.014 A 
BRANCH  33  34
ATOM     34  C   UNL A   1      42.583  24.746  27.975  1.00  0.00     0.031 A 
ATOM     35  C   UNL A   1      44.006  25.153  28.236  1.00  0.00     0.074 A 
ATOM     36  C   UNL A   1      41.592  25.653  28.101  1.00  0.00     0.049 A 
ATOM     37  N   UNL A   1      44.467  26.246  28.787  1.00  0.00    -0.248 NA
ATOM     38  C   UNL A   1      45.050  24.194  27.840  1.00  0.00     0.031 C 
ATOM     39  C   UNL A   1      40.176  25.414  27.807  1.00  0.00     0.029 A 
ATOM     40  N   UNL A   1      41.627  26.963  28.503  1.00  0.00    -0.354 N 
ATOM     41  C   UNL A   1      45.844  26.079  28.865  1.00  0.00     0.074 A 
ATOM     42  C   UNL A   1      46.142  24.773  28.317  1.00  0.00     0.031 C 
ATOM     43  C   UNL A   1      39.488  26.549  27.990  1.00  0.00     0.029 A 
ATOM     44  C   UNL A   1      40.388  27.559  28.528  1.00  0.00     0.049 A 
ATOM     45  H   UNL A   1      42.456  27.432  28.750  1.00  0.00     0.167 HD
ATOM     46  C   UNL A   1      46.770  26.938  29.354  1.00  0.00     0.037 A 
ATOM     47  C   UNL A   1      40.003  28.763  28.986  1.00  0.00     0.037 A 
ATOM     48  C   UNL A   1      46.460  28.250  29.862  1.00  0.00     0.049 A 
ATOM     49  C   UNL A   1      41.034  29.665  29.597  1.00  0.00     0.074 A 
ATOM     50  C   UNL A   1      47.322  29.208  30.367  1.00  0.00     0.029 A 
ATOM     51  N   UNL A   1      45.182  28.791  29.925  1.00  0.00    -0.354 N 
ATOM     52  N   UNL A   1      42.326  29.481  29.717  1.00  0.00    -0.248 NA
ATOM     53  C   UNL A   1      40.548  30.933  30.154  1.00  0.00     0.031 C 
ATOM     54  C   UNL A   1      46.560  30.303  30.789  1.00  0.00     0.029 A 
ATOM     55  C   UNL A   1      45.229  30.057  30.487  1.00  0.00     0.049 A 
ATOM     56  H   UNL A   1      44.362  28.341  29.617  1.00  0.00     0.167 HD
ATOM     57  C   UNL A   1      42.815  30.620  30.342  1.00  0.00     0.074 A 
ATOM     58  C   UNL A   1      41.679  31.493  30.562  1.00  0.00     0.031 C 
ATOM     59  C   UNL A   1      44.088  30.914  30.698  1.00  0.00     0.037 A 
BRANCH  46  60
ATOM     60  C   UNL A   1      48.194  26.454  29.414  1.00  0.00     0.057 A 
ATOM     61  C   UNL A   1      48.717  25.784  30.528  1.00  0.00     0.134 A 
ATOM     62  C   UNL A   1      49.062  26.679  28.336  1.00  0.00     0.134 A 
ATOM     63  F   UNL A   1      47.947  25.546  31.601  1.00  0.00    -0.206 F 
ATOM     64  C   UNL A   1      50.058  25.399  30.587  1.00  0.00     0.040 A 
ATOM     65  C   UNL A   1      50.395  26.267  28.368  1.00  0.00     0.040 A 
ATOM     66  F   UNL A   1      48.629  27.307  27.232  1.00  0.00    -0.206 F 
ATOM     67  C   UNL A   1      50.901  25.636  29.502  1.00  0.00     0.006 A 
ENDBRANCH  46  60
BRANCH  47  68
ATOM     68  C   UNL A   1      38.573  29.156  28.916  1.00  0.00     0.057 A 
ATOM     69  C   UNL A   1      37.742  29.045  30.035  1.00  0.00     0.134 A 
ATOM     70  C   UNL A   1      38.013  29.681  27.744  1.00  0.00     0.134 A 
ATOM     71  F   UNL A   1      38.216  28.529  31.178  1.00  0.00    -0.206 F 
ATOM     72  C   UNL A   1      36.404  29.438  29.992  1.00  0.00     0.040 A 
ATOM     73  C   UNL A   1      36.684  30.107  27.695  1.00  0.00     0.040 A 
ATOM     74  F   UNL A   1      38.758  29.820  26.638  1.00  0.00    -0.206 F 
ATOM     75  C   UNL A   1      35.875  29.981  28.822  1.00  0.00     0.006 A 
ENDBRANCH  47  68
BRANCH  59  76
ATOM     76  C   UNL A   1      44.325  32.259  31.322  1.00  0.00     0.057 A 
ATOM     77  C   UNL A   1      44.320  32.447  32.710  1.00  0.00     0.134 A 
ATOM     78  C   UNL A   1      44.585  33.376  30.519  1.00  0.00     0.134 A 
ATOM     79  F   UNL A   1      44.059  31.421  33.535  1.00  0.00    -0.206 F 
ATOM     80  C   UNL A   1      44.540  33.704  33.276  1.00  0.00     0.040 A 
ATOM     81  C   UNL A   1      44.838  34.632  31.074  1.00  0.00     0.040 A 
ATOM     82  F   UNL A   1      44.611  33.265  29.182  1.00  0.00    -0.206 F 
ATOM     83  C   UNL A   1      44.808  34.799  32.456  1.00  0.00     0.006 A 
ENDBRANCH  59  76
ENDBRANCH  33  34
ENDBRANCH  26  28
ENDBRANCH  25  26
ENDBRANCH  24  25
ENDBRANCH   1  24
TORSDOF 16
ENDMDL
