MODEL 1
REMARK VINA RESULT:     -11.5      0.000      0.000
REMARK SMILES N#C/C(=C/c1cc(Br)ccc1OCC(=O)OCCOC(=O)c1ccc(-c2c3nc(c(-c4c(F)cccc4F)c4ccc([nH]4)c(-c4c(F)cccc4F)c4nc(c(-c5c(F)cccc5F)c5ccc2[nH]5)C=C4)C=C3)cc1)c1ccc(F)cc1
REMARK SMILES IDX 17 1 16 2 14 3 15 4 13 5 12 6 11 7 5 8 6 9 7 10 10 11 8 12
REMARK SMILES IDX 9 13 4 14 3 15 2 16 1 17 76 18 77 19 82 20 78 21 81 22 79 23
REMARK SMILES IDX 80 24 18 25 19 26 20 27 21 28 22 29 23 30 75 31 24 32 74 33
REMARK SMILES IDX 25 34 26 35 27 36 68 37 28 38 73 39 67 40 69 41 29 42 72 43
REMARK SMILES IDX 66 44 65 45 30 47 56 48 39 49 55 50 40 51 43 52 54 53 70 54
REMARK SMILES IDX 41 55 42 56 53 58 71 59 44 60 31 61 32 62 37 63 33 64 34 65
REMARK SMILES IDX 36 66 38 67 35 68 57 69 58 70 63 71 59 72 60 73 62 74 64 75
REMARK SMILES IDX 61 76 45 77 46 78 51 79 47 80 48 81 50 82 52 83 49 84
REMARK H PARENT 69 46 43 57
REMARK Flexibility Score: inf
ROOT
ATOM      1  C   UNL A   1      32.407  30.300  25.703  1.00  0.00     0.274 C 
ENDROOT
BRANCH   1   2
ATOM      2  O   UNL A   1      32.133  29.043  25.056  1.00  0.00    -0.460 OA
BRANCH   2   3
ATOM      3  C   UNL A   1      33.086  28.671  24.159  1.00  0.00     0.344 C 
ATOM      4  O   UNL A   1      33.485  29.360  23.245  1.00  0.00    -0.248 OA
BRANCH   3   5
ATOM      5  C   UNL A   1      33.648  27.272  24.413  1.00  0.00     0.352 C 
BRANCH   5   6
ATOM      6  O   UNL A   1      33.624  26.611  25.647  1.00  0.00    -0.481 OA
BRANCH   6   7
ATOM      7  C   UNL A   1      32.862  25.525  25.947  1.00  0.00     0.127 A 
ATOM      8  C   UNL A   1      33.198  24.201  26.302  1.00  0.00     0.019 A 
ATOM      9  C   UNL A   1      32.122  23.402  26.767  1.00  0.00     0.027 A 
ATOM     10  C   UNL A   1      30.782  23.793  26.662  1.00  0.00     0.018 A 
ATOM     11  C   UNL A   1      31.498  25.907  25.857  1.00  0.00     0.048 A 
ATOM     12  Br  UNL A   1      29.406  22.589  27.145  1.00  0.00    -0.051 Br
ATOM     13  C   UNL A   1      30.458  25.042  26.175  1.00  0.00     0.019 A 
BRANCH   8  14
ATOM     14  C   UNL A   1      34.561  23.554  26.230  1.00  0.00     0.032 C 
ATOM     15  C   UNL A   1      35.032  22.588  25.380  1.00  0.00     0.060 C 
BRANCH  15  16
ATOM     16  C   UNL A   1      36.436  22.045  25.588  1.00  0.00     0.100 C 
ATOM     17  N   UNL A   1      37.601  21.594  25.761  1.00  0.00    -0.192 NA
ENDBRANCH  15  16
BRANCH  15  18
ATOM     18  C   UNL A   1      34.149  22.084  24.305  1.00  0.00    -0.008 A 
ATOM     19  C   UNL A   1      33.854  22.915  23.199  1.00  0.00     0.012 A 
ATOM     20  C   UNL A   1      33.444  20.879  24.450  1.00  0.00     0.012 A 
ATOM     21  C   UNL A   1      32.868  22.560  22.276  1.00  0.00     0.040 A 
ATOM     22  C   UNL A   1      32.454  20.530  23.522  1.00  0.00     0.040 A 
ATOM     23  C   UNL A   1      32.174  21.371  22.450  1.00  0.00     0.123 A 
ATOM     24  F   UNL A   1      31.222  21.033  21.570  1.00  0.00    -0.207 F 
ENDBRANCH  15  18
ENDBRANCH   8  14
ENDBRANCH   6   7
ENDBRANCH   5   6
ENDBRANCH   3   5
ENDBRANCH   2   3
ENDBRANCH   1   2
BRANCH   1  25
ATOM     25  C   UNL A   1      33.147  30.100  27.056  1.00  0.00     0.275 C 
BRANCH  25  26
ATOM     26  O   UNL A   1      34.357  30.996  27.266  1.00  0.00    -0.458 OA
BRANCH  26  27
ATOM     27  C   UNL A   1      34.260  32.108  28.095  1.00  0.00     0.338 C 
ATOM     28  O   UNL A   1      33.301  32.893  27.891  1.00  0.00    -0.246 OA
BRANCH  27  29
ATOM     29  C   UNL A   1      35.375  32.378  29.443  1.00  0.00     0.060 A 
ATOM     30  C   UNL A   1      36.731  33.476  29.075  1.00  0.00     0.016 A 
ATOM     31  C   UNL A   1      35.807  30.781  30.114  1.00  0.00     0.016 A 
ATOM     32  C   UNL A   1      38.433  32.879  29.099  1.00  0.00     0.010 A 
ATOM     33  C   UNL A   1      37.490  30.176  30.166  1.00  0.00     0.010 A 
ATOM     34  C   UNL A   1      38.812  31.154  29.538  1.00  0.00    -0.014 A 
BRANCH  34  35
ATOM     35  C   UNL A   1      40.207  30.511  29.213  1.00  0.00     0.031 A 
ATOM     36  C   UNL A   1      40.751  29.161  28.528  1.00  0.00     0.074 A 
ATOM     37  C   UNL A   1      40.773  30.896  30.378  1.00  0.00     0.049 A 
ATOM     38  N   UNL A   1      41.492  28.179  29.039  1.00  0.00    -0.248 NA
ATOM     39  C   UNL A   1      40.621  28.965  27.068  1.00  0.00     0.031 C 
ATOM     40  C   UNL A   1      40.300  32.068  31.122  1.00  0.00     0.029 A 
ATOM     41  N   UNL A   1      41.284  30.062  31.322  1.00  0.00    -0.354 N 
ATOM     42  C   UNL A   1      41.849  27.276  27.998  1.00  0.00     0.074 A 
ATOM     43  C   UNL A   1      41.221  27.793  26.807  1.00  0.00     0.031 C 
ATOM     44  C   UNL A   1      40.090  31.676  32.407  1.00  0.00     0.029 A 
ATOM     45  C   UNL A   1      40.766  30.426  32.529  1.00  0.00     0.049 A 
ATOM     46  H   UNL A   1      41.916  29.324  31.163  1.00  0.00     0.167 HD
ATOM     47  C   UNL A   1      42.681  26.181  28.040  1.00  0.00     0.037 A 
ATOM     48  C   UNL A   1      40.848  29.819  33.750  1.00  0.00     0.037 A 
ATOM     49  C   UNL A   1      43.408  25.827  29.247  1.00  0.00     0.049 A 
ATOM     50  C   UNL A   1      41.825  28.738  33.795  1.00  0.00     0.074 A 
ATOM     51  C   UNL A   1      44.437  24.914  29.437  1.00  0.00     0.029 A 
ATOM     52  N   UNL A   1      43.168  26.410  30.483  1.00  0.00    -0.354 N 
ATOM     53  N   UNL A   1      42.259  27.965  32.829  1.00  0.00    -0.248 NA
ATOM     54  C   UNL A   1      42.455  28.552  35.093  1.00  0.00     0.031 C 
ATOM     55  C   UNL A   1      44.794  24.931  30.793  1.00  0.00     0.029 A 
ATOM     56  C   UNL A   1      44.013  25.875  31.437  1.00  0.00     0.049 A 
ATOM     57  H   UNL A   1      42.493  27.105  30.654  1.00  0.00     0.167 HD
ATOM     58  C   UNL A   1      43.265  27.217  33.395  1.00  0.00     0.074 A 
ATOM     59  C   UNL A   1      43.371  27.637  34.781  1.00  0.00     0.031 C 
ATOM     60  C   UNL A   1      44.047  26.273  32.818  1.00  0.00     0.037 A 
BRANCH  47  61
ATOM     61  C   UNL A   1      42.971  25.295  26.816  1.00  0.00     0.057 A 
ATOM     62  C   UNL A   1      44.040  25.532  25.937  1.00  0.00     0.134 A 
ATOM     63  C   UNL A   1      42.304  24.063  26.634  1.00  0.00     0.134 A 
ATOM     64  F   UNL A   1      44.776  26.647  26.053  1.00  0.00    -0.206 F 
ATOM     65  C   UNL A   1      44.407  24.621  24.928  1.00  0.00     0.040 A 
ATOM     66  C   UNL A   1      42.676  23.132  25.646  1.00  0.00     0.040 A 
ATOM     67  F   UNL A   1      41.300  23.707  27.451  1.00  0.00    -0.206 F 
ATOM     68  C   UNL A   1      43.730  23.412  24.785  1.00  0.00     0.006 A 
ENDBRANCH  47  61
BRANCH  48  69
ATOM     69  C   UNL A   1      40.287  30.578  34.867  1.00  0.00     0.057 A 
ATOM     70  C   UNL A   1      41.069  31.565  35.488  1.00  0.00     0.134 A 
ATOM     71  C   UNL A   1      38.907  30.588  35.103  1.00  0.00     0.134 A 
ATOM     72  F   UNL A   1      42.372  31.676  35.188  1.00  0.00    -0.206 F 
ATOM     73  C   UNL A   1      40.505  32.512  36.334  1.00  0.00     0.040 A 
ATOM     74  C   UNL A   1      38.331  31.533  35.948  1.00  0.00     0.040 A 
ATOM     75  F   UNL A   1      38.100  29.755  34.429  1.00  0.00    -0.206 F 
ATOM     76  C   UNL A   1      39.130  32.495  36.568  1.00  0.00     0.006 A 
ENDBRANCH  48  69
BRANCH  60  77
ATOM     77  C   UNL A   1      45.020  25.614  33.731  1.00  0.00     0.057 A 
ATOM     78  C   UNL A   1      44.652  24.479  34.465  1.00  0.00     0.134 A 
ATOM     79  C   UNL A   1      46.306  26.131  33.912  1.00  0.00     0.134 A 
ATOM     80  F   UNL A   1      43.418  23.965  34.350  1.00  0.00    -0.206 F 
ATOM     81  C   UNL A   1      45.525  23.899  35.380  1.00  0.00     0.040 A 
ATOM     82  C   UNL A   1      47.198  25.539  34.803  1.00  0.00     0.040 A 
ATOM     83  F   UNL A   1      46.707  27.219  33.238  1.00  0.00    -0.206 F 
ATOM     84  C   UNL A   1      46.804  24.427  35.546  1.00  0.00     0.006 A 
ENDBRANCH  60  77
ENDBRANCH  34  35
ENDBRANCH  27  29
ENDBRANCH  26  27
ENDBRANCH  25  26
ENDBRANCH   1  25
TORSDOF 16
ENDMDL
MODEL 2
REMARK VINA RESULT:     -11.2      3.993      7.242
REMARK SMILES N#C/C(=C/c1cc(Br)ccc1OCC(=O)OCCOC(=O)c1ccc(-c2c3nc(c(-c4c(F)cccc4F)c4ccc([nH]4)c(-c4c(F)cccc4F)c4nc(c(-c5c(F)cccc5F)c5ccc2[nH]5)C=C4)C=C3)cc1)c1ccc(F)cc1
REMARK SMILES IDX 17 1 16 2 14 3 15 4 13 5 12 6 11 7 5 8 6 9 7 10 10 11 8 12
REMARK SMILES IDX 9 13 4 14 3 15 2 16 1 17 76 18 77 19 82 20 78 21 81 22 79 23
REMARK SMILES IDX 80 24 18 25 19 26 20 27 21 28 22 29 23 30 75 31 24 32 74 33
REMARK SMILES IDX 25 34 26 35 27 36 68 37 28 38 73 39 67 40 69 41 29 42 72 43
REMARK SMILES IDX 66 44 65 45 30 47 56 48 39 49 55 50 40 51 43 52 54 53 70 54
REMARK SMILES IDX 41 55 42 56 53 58 71 59 44 60 31 61 32 62 37 63 33 64 34 65
REMARK SMILES IDX 36 66 38 67 35 68 57 69 58 70 63 71 59 72 60 73 62 74 64 75
REMARK SMILES IDX 61 76 45 77 46 78 51 79 47 80 48 81 50 82 52 83 49 84
REMARK H PARENT 69 46 43 57
REMARK Flexibility Score: inf
ROOT
ATOM      1  C   UNL A   1      33.854  30.844  27.263  1.00  0.00     0.274 C 
ENDROOT
BRANCH   1   2
ATOM      2  O   UNL A   1      32.485  30.408  27.361  1.00  0.00    -0.460 OA
BRANCH   2   3
ATOM      3  C   UNL A   1      32.328  29.064  27.219  1.00  0.00     0.344 C 
ATOM      4  O   UNL A   1      31.447  28.410  27.735  1.00  0.00    -0.248 OA
BRANCH   3   5
ATOM      5  C   UNL A   1      33.377  28.422  26.311  1.00  0.00     0.352 C 
BRANCH   5   6
ATOM      6  O   UNL A   1      33.416  27.067  25.965  1.00  0.00    -0.481 OA
BRANCH   6   7
ATOM      7  C   UNL A   1      32.985  26.539  24.788  1.00  0.00     0.127 A 
ATOM      8  C   UNL A   1      31.906  25.687  24.470  1.00  0.00     0.019 A 
ATOM      9  C   UNL A   1      31.636  25.532  23.087  1.00  0.00     0.027 A 
ATOM     10  C   UNL A   1      32.506  25.982  22.086  1.00  0.00     0.018 A 
ATOM     11  C   UNL A   1      33.849  26.995  23.759  1.00  0.00     0.048 A 
ATOM     12  Br  UNL A   1      32.153  25.575  20.274  1.00  0.00    -0.051 Br
ATOM     13  C   UNL A   1      33.640  26.693  22.419  1.00  0.00     0.019 A 
BRANCH   8  14
ATOM     14  C   UNL A   1      31.028  24.926  25.436  1.00  0.00     0.032 C 
ATOM     15  C   UNL A   1      31.201  23.686  25.992  1.00  0.00     0.060 C 
BRANCH  15  16
ATOM     16  C   UNL A   1      30.104  23.115  26.875  1.00  0.00     0.100 C 
ATOM     17  N   UNL A   1      29.194  22.641  27.608  1.00  0.00    -0.192 NA
ENDBRANCH  15  16
BRANCH  15  18
ATOM     18  C   UNL A   1      32.437  22.930  25.691  1.00  0.00    -0.008 A 
ATOM     19  C   UNL A   1      32.450  22.017  24.610  1.00  0.00     0.012 A 
ATOM     20  C   UNL A   1      33.534  22.953  26.568  1.00  0.00     0.012 A 
ATOM     21  C   UNL A   1      33.520  21.139  24.424  1.00  0.00     0.040 A 
ATOM     22  C   UNL A   1      34.603  22.067  26.377  1.00  0.00     0.040 A 
ATOM     23  C   UNL A   1      34.585  21.170  25.313  1.00  0.00     0.123 A 
ATOM     24  F   UNL A   1      35.607  20.323  25.141  1.00  0.00    -0.207 F 
ENDBRANCH  15  18
ENDBRANCH   8  14
ENDBRANCH   6   7
ENDBRANCH   5   6
ENDBRANCH   3   5
ENDBRANCH   2   3
ENDBRANCH   1   2
BRANCH   1  25
ATOM     25  C   UNL A   1      34.064  32.229  27.937  1.00  0.00     0.275 C 
BRANCH  25  26
ATOM     26  O   UNL A   1      34.197  32.195  29.451  1.00  0.00    -0.458 OA
BRANCH  26  27
ATOM     27  C   UNL A   1      35.455  32.108  30.035  1.00  0.00     0.338 C 
ATOM     28  O   UNL A   1      35.934  33.162  30.523  1.00  0.00    -0.246 OA
BRANCH  27  29
ATOM     29  C   UNL A   1      36.324  30.573  30.178  1.00  0.00     0.060 A 
ATOM     30  C   UNL A   1      37.146  30.329  31.742  1.00  0.00     0.016 A 
ATOM     31  C   UNL A   1      37.331  30.384  28.715  1.00  0.00     0.016 A 
ATOM     32  C   UNL A   1      38.943  30.203  31.828  1.00  0.00     0.010 A 
ATOM     33  C   UNL A   1      39.112  30.238  28.778  1.00  0.00     0.010 A 
ATOM     34  C   UNL A   1      39.959  30.281  30.320  1.00  0.00    -0.014 A 
BRANCH  34  35
ATOM     35  C   UNL A   1      41.505  30.548  30.385  1.00  0.00     0.031 A 
ATOM     36  C   UNL A   1      42.545  31.606  29.762  1.00  0.00     0.074 A 
ATOM     37  C   UNL A   1      41.838  29.239  30.339  1.00  0.00     0.049 A 
ATOM     38  N   UNL A   1      43.581  31.413  28.949  1.00  0.00    -0.248 NA
ATOM     39  C   UNL A   1      42.554  33.006  30.240  1.00  0.00     0.031 C 
ATOM     40  C   UNL A   1      40.929  28.189  30.809  1.00  0.00     0.029 A 
ATOM     41  N   UNL A   1      42.590  28.648  29.372  1.00  0.00    -0.354 N 
ATOM     42  C   UNL A   1      44.293  32.637  28.802  1.00  0.00     0.074 A 
ATOM     43  C   UNL A   1      43.563  33.603  29.585  1.00  0.00     0.031 C 
ATOM     44  C   UNL A   1      40.835  27.261  29.819  1.00  0.00     0.029 A 
ATOM     45  C   UNL A   1      41.927  27.537  28.945  1.00  0.00     0.049 A 
ATOM     46  H   UNL A   1      43.460  28.968  29.038  1.00  0.00     0.167 HD
ATOM     47  C   UNL A   1      45.475  32.886  28.143  1.00  0.00     0.037 A 
ATOM     48  C   UNL A   1      42.185  26.696  27.900  1.00  0.00     0.037 A 
ATOM     49  C   UNL A   1      46.234  31.817  27.519  1.00  0.00     0.049 A 
ATOM     50  C   UNL A   1      43.496  26.907  27.297  1.00  0.00     0.074 A 
ATOM     51  C   UNL A   1      47.523  31.818  27.004  1.00  0.00     0.029 A 
ATOM     52  N   UNL A   1      45.745  30.531  27.347  1.00  0.00    -0.354 N 
ATOM     53  N   UNL A   1      44.226  27.994  27.248  1.00  0.00    -0.248 NA
ATOM     54  C   UNL A   1      44.100  25.706  26.739  1.00  0.00     0.031 C 
ATOM     55  C   UNL A   1      47.796  30.539  26.498  1.00  0.00     0.029 A 
ATOM     56  C   UNL A   1      46.692  29.735  26.729  1.00  0.00     0.049 A 
ATOM     57  H   UNL A   1      44.852  30.228  27.627  1.00  0.00     0.167 HD
ATOM     58  C   UNL A   1      45.418  27.598  26.686  1.00  0.00     0.074 A 
ATOM     59  C   UNL A   1      45.304  26.176  26.419  1.00  0.00     0.031 C 
ATOM     60  C   UNL A   1      46.520  28.341  26.424  1.00  0.00     0.037 A 
BRANCH  47  61
ATOM     61  C   UNL A   1      46.124  34.280  28.075  1.00  0.00     0.057 A 
ATOM     62  C   UNL A   1      45.715  35.270  27.167  1.00  0.00     0.134 A 
ATOM     63  C   UNL A   1      47.026  34.713  29.072  1.00  0.00     0.134 A 
ATOM     64  F   UNL A   1      44.820  34.981  26.210  1.00  0.00    -0.206 F 
ATOM     65  C   UNL A   1      46.187  36.595  27.230  1.00  0.00     0.040 A 
ATOM     66  C   UNL A   1      47.486  36.039  29.161  1.00  0.00     0.040 A 
ATOM     67  F   UNL A   1      47.444  33.864  30.025  1.00  0.00    -0.206 F 
ATOM     68  C   UNL A   1      47.069  36.986  28.233  1.00  0.00     0.006 A 
ENDBRANCH  47  61
BRANCH  48  69
ATOM     69  C   UNL A   1      41.337  25.507  27.828  1.00  0.00     0.057 A 
ATOM     70  C   UNL A   1      40.324  25.444  26.857  1.00  0.00     0.134 A 
ATOM     71  C   UNL A   1      41.718  24.316  28.457  1.00  0.00     0.134 A 
ATOM     72  F   UNL A   1      40.018  26.534  26.136  1.00  0.00    -0.206 F 
ATOM     73  C   UNL A   1      39.696  24.246  26.540  1.00  0.00     0.040 A 
ATOM     74  C   UNL A   1      41.097  23.110  28.146  1.00  0.00     0.040 A 
ATOM     75  F   UNL A   1      42.770  24.299  29.290  1.00  0.00    -0.206 F 
ATOM     76  C   UNL A   1      40.081  23.074  27.189  1.00  0.00     0.006 A 
ENDBRANCH  48  69
BRANCH  60  77
ATOM     77  C   UNL A   1      47.634  27.609  25.763  1.00  0.00     0.057 A 
ATOM     78  C   UNL A   1      48.674  27.059  26.522  1.00  0.00     0.134 A 
ATOM     79  C   UNL A   1      47.693  27.488  24.372  1.00  0.00     0.134 A 
ATOM     80  F   UNL A   1      48.678  27.178  27.858  1.00  0.00    -0.206 F 
ATOM     81  C   UNL A   1      49.761  26.440  25.913  1.00  0.00     0.040 A 
ATOM     82  C   UNL A   1      48.762  26.842  23.754  1.00  0.00     0.040 A 
ATOM     83  F   UNL A   1      46.727  28.001  23.597  1.00  0.00    -0.206 F 
ATOM     84  C   UNL A   1      49.804  26.326  24.524  1.00  0.00     0.006 A 
ENDBRANCH  60  77
ENDBRANCH  34  35
ENDBRANCH  27  29
ENDBRANCH  26  27
ENDBRANCH  25  26
ENDBRANCH   1  25
TORSDOF 16
ENDMDL
MODEL 3
REMARK VINA RESULT:     -11.1      4.002      7.165
REMARK SMILES N#C/C(=C/c1cc(Br)ccc1OCC(=O)OCCOC(=O)c1ccc(-c2c3nc(c(-c4c(F)cccc4F)c4ccc([nH]4)c(-c4c(F)cccc4F)c4nc(c(-c5c(F)cccc5F)c5ccc2[nH]5)C=C4)C=C3)cc1)c1ccc(F)cc1
REMARK SMILES IDX 17 1 16 2 14 3 15 4 13 5 12 6 11 7 5 8 6 9 7 10 10 11 8 12
REMARK SMILES IDX 9 13 4 14 3 15 2 16 1 17 76 18 77 19 82 20 78 21 81 22 79 23
REMARK SMILES IDX 80 24 18 25 19 26 20 27 21 28 22 29 23 30 75 31 24 32 74 33
REMARK SMILES IDX 25 34 26 35 27 36 68 37 28 38 73 39 67 40 69 41 29 42 72 43
REMARK SMILES IDX 66 44 65 45 30 47 56 48 39 49 55 50 40 51 43 52 54 53 70 54
REMARK SMILES IDX 41 55 42 56 53 58 71 59 44 60 31 61 32 62 37 63 33 64 34 65
REMARK SMILES IDX 36 66 38 67 35 68 57 69 58 70 63 71 59 72 60 73 62 74 64 75
REMARK SMILES IDX 61 76 45 77 46 78 51 79 47 80 48 81 50 82 52 83 49 84
REMARK H PARENT 69 46 43 57
REMARK Flexibility Score: inf
ROOT
ATOM      1  C   UNL A   1      33.294  29.250  26.592  1.00  0.00     0.274 C 
ENDROOT
BRANCH   1   2
ATOM      2  O   UNL A   1      31.989  28.884  26.104  1.00  0.00    -0.460 OA
BRANCH   2   3
ATOM      3  C   UNL A   1      31.414  27.862  26.794  1.00  0.00     0.344 C 
ATOM      4  O   UNL A   1      31.365  27.783  28.003  1.00  0.00    -0.248 OA
BRANCH   3   5
ATOM      5  C   UNL A   1      30.799  26.791  25.894  1.00  0.00     0.352 C 
BRANCH   5   6
ATOM      6  O   UNL A   1      31.467  25.650  25.434  1.00  0.00    -0.481 OA
BRANCH   6   7
ATOM      7  C   UNL A   1      31.768  25.381  24.135  1.00  0.00     0.127 A 
ATOM      8  C   UNL A   1      31.878  24.169  23.420  1.00  0.00     0.019 A 
ATOM      9  C   UNL A   1      31.987  24.299  22.012  1.00  0.00     0.027 A 
ATOM     10  C   UNL A   1      32.215  25.524  21.375  1.00  0.00     0.018 A 
ATOM     11  C   UNL A   1      31.990  26.615  23.470  1.00  0.00     0.048 A 
ATOM     12  Br  UNL A   1      32.524  25.578  19.510  1.00  0.00    -0.051 Br
ATOM     13  C   UNL A   1      32.249  26.692  22.107  1.00  0.00     0.019 A 
BRANCH   8  14
ATOM     14  C   UNL A   1      31.902  22.771  23.991  1.00  0.00     0.032 C 
ATOM     15  C   UNL A   1      32.927  22.079  24.581  1.00  0.00     0.060 C 
BRANCH  15  16
ATOM     16  C   UNL A   1      32.700  20.633  24.991  1.00  0.00     0.100 C 
ATOM     17  N   UNL A   1      32.512  19.434  25.331  1.00  0.00    -0.192 NA
ENDBRANCH  15  16
BRANCH  15  18
ATOM     18  C   UNL A   1      34.231  22.753  24.773  1.00  0.00    -0.008 A 
ATOM     19  C   UNL A   1      35.194  22.713  23.738  1.00  0.00     0.012 A 
ATOM     20  C   UNL A   1      34.607  23.262  26.026  1.00  0.00     0.012 A 
ATOM     21  C   UNL A   1      36.502  23.152  23.957  1.00  0.00     0.040 A 
ATOM     22  C   UNL A   1      35.921  23.698  26.240  1.00  0.00     0.040 A 
ATOM     23  C   UNL A   1      36.854  23.636  25.209  1.00  0.00     0.123 A 
ATOM     24  F   UNL A   1      38.109  24.050  25.422  1.00  0.00    -0.207 F 
ENDBRANCH  15  18
ENDBRANCH   8  14
ENDBRANCH   6   7
ENDBRANCH   5   6
ENDBRANCH   3   5
ENDBRANCH   2   3
ENDBRANCH   1   2
BRANCH   1  25
ATOM     25  C   UNL A   1      33.281  30.649  27.269  1.00  0.00     0.275 C 
BRANCH  25  26
ATOM     26  O   UNL A   1      34.646  31.304  27.420  1.00  0.00    -0.458 OA
BRANCH  26  27
ATOM     27  C   UNL A   1      35.340  31.188  28.618  1.00  0.00     0.338 C 
ATOM     28  O   UNL A   1      35.216  32.126  29.445  1.00  0.00    -0.246 OA
BRANCH  27  29
ATOM     29  C   UNL A   1      36.290  29.750  29.022  1.00  0.00     0.060 A 
ATOM     30  C   UNL A   1      36.908  29.715  30.695  1.00  0.00     0.016 A 
ATOM     31  C   UNL A   1      37.497  29.520  27.726  1.00  0.00     0.016 A 
ATOM     32  C   UNL A   1      38.681  29.750  31.023  1.00  0.00     0.010 A 
ATOM     33  C   UNL A   1      39.260  29.531  28.032  1.00  0.00     0.010 A 
ATOM     34  C   UNL A   1      39.884  29.781  29.658  1.00  0.00    -0.014 A 
BRANCH  34  35
ATOM     35  C   UNL A   1      41.384  30.183  29.893  1.00  0.00     0.031 A 
ATOM     36  C   UNL A   1      42.419  31.265  29.307  1.00  0.00     0.074 A 
ATOM     37  C   UNL A   1      41.814  28.908  30.021  1.00  0.00     0.049 A 
ATOM     38  N   UNL A   1      43.567  31.089  28.658  1.00  0.00    -0.248 NA
ATOM     39  C   UNL A   1      42.263  32.698  29.641  1.00  0.00     0.031 C 
ATOM     40  C   UNL A   1      40.927  27.830  30.473  1.00  0.00     0.029 A 
ATOM     41  N   UNL A   1      42.730  28.299  29.222  1.00  0.00    -0.354 N 
ATOM     42  C   UNL A   1      44.203  32.351  28.482  1.00  0.00     0.074 A 
ATOM     43  C   UNL A   1      43.305  33.317  29.065  1.00  0.00     0.031 C 
ATOM     44  C   UNL A   1      41.035  26.813  29.577  1.00  0.00     0.029 A 
ATOM     45  C   UNL A   1      42.213  27.102  28.827  1.00  0.00     0.049 A 
ATOM     46  H   UNL A   1      43.612  28.660  28.973  1.00  0.00     0.167 HD
ATOM     47  C   UNL A   1      45.442  32.639  27.958  1.00  0.00     0.037 A 
ATOM     48  C   UNL A   1      42.671  26.196  27.913  1.00  0.00     0.037 A 
ATOM     49  C   UNL A   1      46.354  31.587  27.547  1.00  0.00     0.049 A 
ATOM     50  C   UNL A   1      44.033  26.462  27.465  1.00  0.00     0.074 A 
ATOM     51  C   UNL A   1      47.698  31.652  27.204  1.00  0.00     0.029 A 
ATOM     52  N   UNL A   1      45.987  30.254  27.443  1.00  0.00    -0.354 N 
ATOM     53  N   UNL A   1      44.683  27.599  27.402  1.00  0.00    -0.248 NA
ATOM     54  C   UNL A   1      44.792  25.272  27.111  1.00  0.00     0.031 C 
ATOM     55  C   UNL A   1      48.129  30.360  26.867  1.00  0.00     0.029 A 
ATOM     56  C   UNL A   1      47.064  29.489  27.033  1.00  0.00     0.049 A 
ATOM     57  H   UNL A   1      45.088  29.902  27.634  1.00  0.00     0.167 HD
ATOM     58  C   UNL A   1      45.965  27.256  27.040  1.00  0.00     0.074 A 
ATOM     59  C   UNL A   1      45.992  25.812  26.904  1.00  0.00     0.031 C 
ATOM     60  C   UNL A   1      47.036  28.064  26.849  1.00  0.00     0.037 A 
BRANCH  47  61
ATOM     61  C   UNL A   1      45.993  34.071  27.836  1.00  0.00     0.057 A 
ATOM     62  C   UNL A   1      46.782  34.673  28.829  1.00  0.00     0.134 A 
ATOM     63  C   UNL A   1      45.914  34.780  26.616  1.00  0.00     0.134 A 
ATOM     64  F   UNL A   1      46.968  34.062  30.008  1.00  0.00    -0.206 F 
ATOM     65  C   UNL A   1      47.430  35.909  28.634  1.00  0.00     0.040 A 
ATOM     66  C   UNL A   1      46.576  36.003  26.401  1.00  0.00     0.040 A 
ATOM     67  F   UNL A   1      45.230  34.273  25.579  1.00  0.00    -0.206 F 
ATOM     68  C   UNL A   1      47.335  36.574  27.415  1.00  0.00     0.006 A 
ENDBRANCH  47  61
BRANCH  48  69
ATOM     69  C   UNL A   1      41.928  24.938  27.851  1.00  0.00     0.057 A 
ATOM     70  C   UNL A   1      41.143  24.659  26.720  1.00  0.00     0.134 A 
ATOM     71  C   UNL A   1      42.242  23.878  28.711  1.00  0.00     0.134 A 
ATOM     72  F   UNL A   1      40.928  25.613  25.802  1.00  0.00    -0.206 F 
ATOM     73  C   UNL A   1      40.667  23.379  26.466  1.00  0.00     0.040 A 
ATOM     74  C   UNL A   1      41.771  22.591  28.465  1.00  0.00     0.040 A 
ATOM     75  F   UNL A   1      43.098  24.064  29.727  1.00  0.00    -0.206 F 
ATOM     76  C   UNL A   1      40.979  22.341  27.342  1.00  0.00     0.006 A 
ENDBRANCH  48  69
BRANCH  60  77
ATOM     77  C   UNL A   1      48.280  27.373  26.413  1.00  0.00     0.057 A 
ATOM     78  C   UNL A   1      48.517  27.124  25.056  1.00  0.00     0.134 A 
ATOM     79  C   UNL A   1      49.218  26.918  27.344  1.00  0.00     0.134 A 
ATOM     80  F   UNL A   1      47.631  27.512  24.127  1.00  0.00    -0.206 F 
ATOM     81  C   UNL A   1      49.637  26.410  24.639  1.00  0.00     0.040 A 
ATOM     82  C   UNL A   1      50.357  26.230  26.935  1.00  0.00     0.040 A 
ATOM     83  F   UNL A   1      49.036  27.125  28.656  1.00  0.00    -0.206 F 
ATOM     84  C   UNL A   1      50.563  25.966  25.581  1.00  0.00     0.006 A 
ENDBRANCH  60  77
ENDBRANCH  34  35
ENDBRANCH  27  29
ENDBRANCH  26  27
ENDBRANCH  25  26
ENDBRANCH   1  25
TORSDOF 16
ENDMDL
