MODEL 1
REMARK VINA RESULT:     -11.6      0.000      0.000
REMARK SMILES CC[C@H]1SC[C@H](C(=O)OCCOC(=O)c2ccc(-c3c4nc(c(-c5c(F)cccc5F)c5ccc([nH]5)c(-c5c(F)cccc5F)c5nc(c(-c6c(F)cccc6F)c6ccc3[nH]6)C=C5)C=C4)cc2)N1C(=O)c1ccc(F)c(F)c1F
REMARK SMILES IDX 10 1 9 2 7 3 8 4 6 5 3 6 4 7 69 8 5 9 2 10 1 11 70 12 71 13
REMARK SMILES IDX 72 14 73 15 79 16 74 17 77 18 80 19 75 20 78 21 76 22 11 23
REMARK SMILES IDX 12 24 13 25 14 26 15 27 16 28 68 29 17 30 67 31 18 32 19 33
REMARK SMILES IDX 20 34 61 35 21 36 66 37 60 38 62 39 22 40 65 41 59 42 58 43
REMARK SMILES IDX 23 45 49 46 32 47 48 48 33 49 36 50 47 51 63 52 34 53 35 54
REMARK SMILES IDX 46 56 64 57 37 58 24 59 25 60 30 61 26 62 27 63 29 64 31 65
REMARK SMILES IDX 28 66 50 67 51 68 56 69 52 70 53 71 55 72 57 73 54 74 38 75
REMARK SMILES IDX 39 76 44 77 40 78 41 79 43 80 45 81 42 82
REMARK H PARENT 62 44 36 55
REMARK Flexibility Score: inf
ROOT
ATOM      1  C   UNL A   1      35.727  21.162  24.808  1.00  0.00     0.274 C 
ENDROOT
BRANCH   1   2
ATOM      2  O   UNL A   1      35.668  22.259  25.743  1.00  0.00    -0.461 OA
BRANCH   2   3
ATOM      3  C   UNL A   1      34.605  22.286  26.606  1.00  0.00     0.329 C 
ATOM      4  O   UNL A   1      34.514  21.626  27.632  1.00  0.00    -0.250 OA
BRANCH   3   5
ATOM      5  C   UNL A   1      33.483  23.148  26.012  1.00  0.00     0.206 C 
ATOM      6  C   UNL A   1      32.738  23.476  23.677  1.00  0.00     0.144 C 
ATOM      7  S   UNL A   1      34.098  24.655  23.888  1.00  0.00    -0.134 SA
ATOM      8  N   UNL A   1      32.766  22.593  24.836  1.00  0.00    -0.312 N 
ATOM      9  C   UNL A   1      34.133  24.492  25.680  1.00  0.00     0.109 C 
BRANCH   6  10
ATOM     10  C   UNL A   1      31.396  24.213  23.497  1.00  0.00     0.033 C 
ATOM     11  C   UNL A   1      31.460  25.531  22.731  1.00  0.00     0.007 C 
ENDBRANCH   6  10
BRANCH   8  12
ATOM     12  C   UNL A   1      31.949  21.484  25.043  1.00  0.00     0.258 C 
ATOM     13  O   UNL A   1      30.865  21.608  25.617  1.00  0.00    -0.269 OA
BRANCH  12  14
ATOM     14  C   UNL A   1      32.272  20.124  24.527  1.00  0.00     0.079 A 
ATOM     15  C   UNL A   1      32.796  19.193  25.446  1.00  0.00     0.020 A 
ATOM     16  C   UNL A   1      32.185  19.755  23.184  1.00  0.00     0.174 A 
ATOM     17  C   UNL A   1      33.168  17.909  25.030  1.00  0.00     0.043 A 
ATOM     18  C   UNL A   1      32.544  18.472  22.773  1.00  0.00     0.195 A 
ATOM     19  F   UNL A   1      31.811  20.638  22.248  1.00  0.00    -0.203 F 
ATOM     20  C   UNL A   1      33.025  17.554  23.694  1.00  0.00     0.161 A 
ATOM     21  F   UNL A   1      32.433  18.131  21.481  1.00  0.00    -0.200 F 
ATOM     22  F   UNL A   1      33.376  16.322  23.303  1.00  0.00    -0.204 F 
ENDBRANCH  12  14
ENDBRANCH   8  12
ENDBRANCH   3   5
ENDBRANCH   2   3
ENDBRANCH   1   2
BRANCH   1  23
ATOM     23  C   UNL A   1      36.991  20.336  25.035  1.00  0.00     0.275 C 
BRANCH  23  24
ATOM     24  O   UNL A   1      38.118  21.224  25.020  1.00  0.00    -0.458 OA
BRANCH  24  25
ATOM     25  C   UNL A   1      39.112  20.954  25.895  1.00  0.00     0.338 C 
ATOM     26  O   UNL A   1      39.551  19.849  26.190  1.00  0.00    -0.246 OA
BRANCH  25  27
ATOM     27  C   UNL A   1      39.606  22.219  26.485  1.00  0.00     0.060 A 
ATOM     28  C   UNL A   1      39.027  23.436  26.140  1.00  0.00     0.016 A 
ATOM     29  C   UNL A   1      40.716  22.210  27.327  1.00  0.00     0.016 A 
ATOM     30  C   UNL A   1      39.621  24.634  26.527  1.00  0.00     0.010 A 
ATOM     31  C   UNL A   1      41.249  23.420  27.799  1.00  0.00     0.010 A 
ATOM     32  C   UNL A   1      40.752  24.657  27.353  1.00  0.00    -0.014 A 
BRANCH  32  33
ATOM     33  C   UNL A   1      41.447  25.950  27.657  1.00  0.00     0.031 A 
ATOM     34  C   UNL A   1      40.773  27.003  28.513  1.00  0.00     0.074 A 
ATOM     35  C   UNL A   1      42.716  26.179  27.254  1.00  0.00     0.049 A 
ATOM     36  N   UNL A   1      41.162  28.225  28.786  1.00  0.00    -0.248 NA
ATOM     37  C   UNL A   1      39.500  26.633  29.154  1.00  0.00     0.031 C 
ATOM     38  C   UNL A   1      43.551  25.253  26.488  1.00  0.00     0.029 A 
ATOM     39  N   UNL A   1      43.540  27.263  27.459  1.00  0.00    -0.354 N 
ATOM     40  C   UNL A   1      40.172  28.774  29.592  1.00  0.00     0.074 A 
ATOM     41  C   UNL A   1      39.149  27.764  29.748  1.00  0.00     0.031 C 
ATOM     42  C   UNL A   1      44.781  25.769  26.354  1.00  0.00     0.029 A 
ATOM     43  C   UNL A   1      44.793  27.117  26.911  1.00  0.00     0.049 A 
ATOM     44  H   UNL A   1      43.260  28.068  27.952  1.00  0.00     0.167 HD
ATOM     45  C   UNL A   1      40.117  29.999  30.169  1.00  0.00     0.037 A 
ATOM     46  C   UNL A   1      45.826  27.976  26.809  1.00  0.00     0.037 A 
ATOM     47  C   UNL A   1      41.138  31.008  30.063  1.00  0.00     0.049 A 
ATOM     48  C   UNL A   1      45.682  29.378  27.327  1.00  0.00     0.074 A 
ATOM     49  C   UNL A   1      41.150  32.282  30.606  1.00  0.00     0.029 A 
ATOM     50  N   UNL A   1      42.335  30.854  29.383  1.00  0.00    -0.354 N 
ATOM     51  N   UNL A   1      44.700  29.912  28.008  1.00  0.00    -0.248 NA
ATOM     52  C   UNL A   1      46.780  30.310  27.023  1.00  0.00     0.031 C 
ATOM     53  C   UNL A   1      42.336  32.915  30.218  1.00  0.00     0.029 A 
ATOM     54  C   UNL A   1      43.079  32.021  29.467  1.00  0.00     0.049 A 
ATOM     55  H   UNL A   1      42.616  30.037  28.911  1.00  0.00     0.167 HD
ATOM     56  C   UNL A   1      45.061  31.236  28.220  1.00  0.00     0.074 A 
ATOM     57  C   UNL A   1      46.362  31.420  27.615  1.00  0.00     0.031 C 
ATOM     58  C   UNL A   1      44.368  32.210  28.856  1.00  0.00     0.037 A 
BRANCH  45  59
ATOM     59  C   UNL A   1      38.888  30.335  30.959  1.00  0.00     0.057 A 
ATOM     60  C   UNL A   1      37.765  30.928  30.368  1.00  0.00     0.134 A 
ATOM     61  C   UNL A   1      38.810  30.013  32.321  1.00  0.00     0.134 A 
ATOM     62  F   UNL A   1      37.784  31.282  29.074  1.00  0.00    -0.206 F 
ATOM     63  C   UNL A   1      36.610  31.195  31.106  1.00  0.00     0.040 A 
ATOM     64  C   UNL A   1      37.654  30.260  33.064  1.00  0.00     0.040 A 
ATOM     65  F   UNL A   1      39.850  29.443  32.946  1.00  0.00    -0.206 F 
ATOM     66  C   UNL A   1      36.550  30.854  32.455  1.00  0.00     0.006 A 
ENDBRANCH  45  59
BRANCH  46  67
ATOM     67  C   UNL A   1      47.070  27.562  26.107  1.00  0.00     0.057 A 
ATOM     68  C   UNL A   1      47.184  27.653  24.716  1.00  0.00     0.134 A 
ATOM     69  C   UNL A   1      48.167  27.052  26.813  1.00  0.00     0.134 A 
ATOM     70  F   UNL A   1      46.154  28.098  23.981  1.00  0.00    -0.206 F 
ATOM     71  C   UNL A   1      48.344  27.251  24.052  1.00  0.00     0.040 A 
ATOM     72  C   UNL A   1      49.344  26.676  26.165  1.00  0.00     0.040 A 
ATOM     73  F   UNL A   1      48.118  26.928  28.147  1.00  0.00    -0.206 F 
ATOM     74  C   UNL A   1      49.432  26.771  24.779  1.00  0.00     0.006 A 
ENDBRANCH  46  67
BRANCH  58  75
ATOM     75  C   UNL A   1      45.007  33.564  28.941  1.00  0.00     0.057 A 
ATOM     76  C   UNL A   1      44.745  34.559  27.991  1.00  0.00     0.134 A 
ATOM     77  C   UNL A   1      45.876  33.883  29.991  1.00  0.00     0.134 A 
ATOM     78  F   UNL A   1      43.933  34.311  26.952  1.00  0.00    -0.206 F 
ATOM     79  C   UNL A   1      45.341  35.819  28.071  1.00  0.00     0.040 A 
ATOM     80  C   UNL A   1      46.460  35.147  30.095  1.00  0.00     0.040 A 
ATOM     81  F   UNL A   1      46.165  32.977  30.938  1.00  0.00    -0.206 F 
ATOM     82  C   UNL A   1      46.198  36.117  29.129  1.00  0.00     0.006 A 
ENDBRANCH  58  75
ENDBRANCH  32  33
ENDBRANCH  25  27
ENDBRANCH  24  25
ENDBRANCH  23  24
ENDBRANCH   1  23
TORSDOF 14
ENDMDL
MODEL 2
REMARK VINA RESULT:     -11.5      4.867      9.465
REMARK SMILES CC[C@H]1SC[C@H](C(=O)OCCOC(=O)c2ccc(-c3c4nc(c(-c5c(F)cccc5F)c5ccc([nH]5)c(-c5c(F)cccc5F)c5nc(c(-c6c(F)cccc6F)c6ccc3[nH]6)C=C5)C=C4)cc2)N1C(=O)c1ccc(F)c(F)c1F
REMARK SMILES IDX 10 1 9 2 7 3 8 4 6 5 3 6 4 7 69 8 5 9 2 10 1 11 70 12 71 13
REMARK SMILES IDX 72 14 73 15 79 16 74 17 77 18 80 19 75 20 78 21 76 22 11 23
REMARK SMILES IDX 12 24 13 25 14 26 15 27 16 28 68 29 17 30 67 31 18 32 19 33
REMARK SMILES IDX 20 34 61 35 21 36 66 37 60 38 62 39 22 40 65 41 59 42 58 43
REMARK SMILES IDX 23 45 49 46 32 47 48 48 33 49 36 50 47 51 63 52 34 53 35 54
REMARK SMILES IDX 46 56 64 57 37 58 24 59 25 60 30 61 26 62 27 63 29 64 31 65
REMARK SMILES IDX 28 66 50 67 51 68 56 69 52 70 53 71 55 72 57 73 54 74 38 75
REMARK SMILES IDX 39 76 44 77 40 78 41 79 43 80 45 81 42 82
REMARK H PARENT 62 44 36 55
REMARK Flexibility Score: inf
ROOT
ATOM      1  C   UNL A   1      31.751  28.908  25.634  1.00  0.00     0.274 C 
ENDROOT
BRANCH   1   2
ATOM      2  O   UNL A   1      33.078  28.391  25.405  1.00  0.00    -0.461 OA
BRANCH   2   3
ATOM      3  C   UNL A   1      33.441  28.158  24.105  1.00  0.00     0.329 C 
ATOM      4  O   UNL A   1      33.865  29.004  23.330  1.00  0.00    -0.250 OA
BRANCH   3   5
ATOM      5  C   UNL A   1      33.088  26.714  23.725  1.00  0.00     0.206 C 
ATOM      6  C   UNL A   1      31.183  25.275  24.368  1.00  0.00     0.144 C 
ATOM      7  S   UNL A   1      32.381  25.067  25.712  1.00  0.00    -0.134 SA
ATOM      8  N   UNL A   1      31.646  26.399  23.565  1.00  0.00    -0.312 N 
ATOM      9  C   UNL A   1      33.729  25.839  24.804  1.00  0.00     0.109 C 
BRANCH   6  10
ATOM     10  C   UNL A   1      31.027  23.967  23.567  1.00  0.00     0.033 C 
ATOM     11  C   UNL A   1      32.324  23.260  23.190  1.00  0.00     0.007 C 
ENDBRANCH   6  10
BRANCH   8  12
ATOM     12  C   UNL A   1      30.979  26.960  22.478  1.00  0.00     0.258 C 
ATOM     13  O   UNL A   1      31.182  26.537  21.338  1.00  0.00    -0.269 OA
BRANCH  12  14
ATOM     14  C   UNL A   1      29.943  28.022  22.615  1.00  0.00     0.079 A 
ATOM     15  C   UNL A   1      30.325  29.342  22.304  1.00  0.00     0.020 A 
ATOM     16  C   UNL A   1      28.662  27.804  23.126  1.00  0.00     0.174 A 
ATOM     17  C   UNL A   1      29.422  30.401  22.452  1.00  0.00     0.043 A 
ATOM     18  C   UNL A   1      27.760  28.859  23.261  1.00  0.00     0.195 A 
ATOM     19  F   UNL A   1      28.287  26.591  23.555  1.00  0.00    -0.203 F 
ATOM     20  C   UNL A   1      28.138  30.147  22.918  1.00  0.00     0.161 A 
ATOM     21  F   UNL A   1      26.528  28.624  23.734  1.00  0.00    -0.200 F 
ATOM     22  F   UNL A   1      27.277  31.164  23.050  1.00  0.00    -0.204 F 
ENDBRANCH  12  14
ENDBRANCH   8  12
ENDBRANCH   3   5
ENDBRANCH   2   3
ENDBRANCH   1   2
BRANCH   1  23
ATOM     23  C   UNL A   1      31.779  30.433  25.701  1.00  0.00     0.275 C 
BRANCH  23  24
ATOM     24  O   UNL A   1      32.003  30.820  27.064  1.00  0.00    -0.458 OA
BRANCH  24  25
ATOM     25  C   UNL A   1      32.762  31.921  27.263  1.00  0.00     0.338 C 
ATOM     26  O   UNL A   1      32.435  33.085  27.064  1.00  0.00    -0.246 OA
BRANCH  25  27
ATOM     27  C   UNL A   1      34.097  31.515  27.757  1.00  0.00     0.060 A 
ATOM     28  C   UNL A   1      34.387  30.177  28.002  1.00  0.00     0.016 A 
ATOM     29  C   UNL A   1      35.051  32.483  28.065  1.00  0.00     0.016 A 
ATOM     30  C   UNL A   1      35.559  29.818  28.660  1.00  0.00     0.010 A 
ATOM     31  C   UNL A   1      36.278  32.104  28.635  1.00  0.00     0.010 A 
ATOM     32  C   UNL A   1      36.527  30.771  29.004  1.00  0.00    -0.014 A 
BRANCH  32  33
ATOM     33  C   UNL A   1      37.723  30.382  29.820  1.00  0.00     0.031 A 
ATOM     34  C   UNL A   1      38.820  29.529  29.217  1.00  0.00     0.074 A 
ATOM     35  C   UNL A   1      37.901  30.846  31.075  1.00  0.00     0.049 A 
ATOM     36  N   UNL A   1      39.868  28.992  29.795  1.00  0.00    -0.248 NA
ATOM     37  C   UNL A   1      38.735  29.246  27.774  1.00  0.00     0.031 C 
ATOM     38  C   UNL A   1      36.991  31.740  31.794  1.00  0.00     0.029 A 
ATOM     39  N   UNL A   1      38.932  30.649  31.968  1.00  0.00    -0.354 N 
ATOM     40  C   UNL A   1      40.538  28.287  28.802  1.00  0.00     0.074 A 
ATOM     41  C   UNL A   1      39.769  28.439  27.587  1.00  0.00     0.031 C 
ATOM     42  C   UNL A   1      37.534  32.072  32.974  1.00  0.00     0.029 A 
ATOM     43  C   UNL A   1      38.770  31.319  33.157  1.00  0.00     0.049 A 
ATOM     44  H   UNL A   1      39.712  30.082  31.772  1.00  0.00     0.167 HD
ATOM     45  C   UNL A   1      41.696  27.588  28.880  1.00  0.00     0.037 A 
ATOM     46  C   UNL A   1      39.490  31.300  34.296  1.00  0.00     0.037 A 
ATOM     47  C   UNL A   1      42.502  27.454  30.065  1.00  0.00     0.049 A 
ATOM     48  C   UNL A   1      40.687  30.400  34.403  1.00  0.00     0.074 A 
ATOM     49  C   UNL A   1      43.682  26.748  30.229  1.00  0.00     0.029 A 
ATOM     50  N   UNL A   1      42.221  28.048  31.284  1.00  0.00    -0.354 N 
ATOM     51  N   UNL A   1      41.256  29.666  33.481  1.00  0.00    -0.248 NA
ATOM     52  C   UNL A   1      41.318  30.296  35.728  1.00  0.00     0.031 C 
ATOM     53  C   UNL A   1      44.093  26.880  31.560  1.00  0.00     0.029 A 
ATOM     54  C   UNL A   1      43.189  27.701  32.213  1.00  0.00     0.049 A 
ATOM     55  H   UNL A   1      41.448  28.631  31.464  1.00  0.00     0.167 HD
ATOM     56  C   UNL A   1      42.313  29.019  34.109  1.00  0.00     0.074 A 
ATOM     57  C   UNL A   1      42.321  29.463  35.486  1.00  0.00     0.031 C 
ATOM     58  C   UNL A   1      43.192  28.132  33.586  1.00  0.00     0.037 A 
BRANCH  45  59
ATOM     59  C   UNL A   1      42.161  26.883  27.640  1.00  0.00     0.057 A 
ATOM     60  C   UNL A   1      42.932  27.528  26.665  1.00  0.00     0.134 A 
ATOM     61  C   UNL A   1      41.876  25.525  27.447  1.00  0.00     0.134 A 
ATOM     62  F   UNL A   1      43.221  28.833  26.779  1.00  0.00    -0.206 F 
ATOM     63  C   UNL A   1      43.396  26.848  25.538  1.00  0.00     0.040 A 
ATOM     64  C   UNL A   1      42.349  24.831  26.333  1.00  0.00     0.040 A 
ATOM     65  F   UNL A   1      41.143  24.849  28.345  1.00  0.00    -0.206 F 
ATOM     66  C   UNL A   1      43.111  25.494  25.373  1.00  0.00     0.006 A 
ENDBRANCH  45  59
BRANCH  46  67
ATOM     67  C   UNL A   1      39.048  32.100  35.468  1.00  0.00     0.057 A 
ATOM     68  C   UNL A   1      39.466  33.424  35.644  1.00  0.00     0.134 A 
ATOM     69  C   UNL A   1      38.210  31.553  36.448  1.00  0.00     0.134 A 
ATOM     70  F   UNL A   1      40.299  33.992  34.759  1.00  0.00    -0.206 F 
ATOM     71  C   UNL A   1      39.066  34.174  36.751  1.00  0.00     0.040 A 
ATOM     72  C   UNL A   1      37.778  32.301  37.544  1.00  0.00     0.040 A 
ATOM     73  F   UNL A   1      37.784  30.285  36.346  1.00  0.00    -0.206 F 
ATOM     74  C   UNL A   1      38.211  33.615  37.699  1.00  0.00     0.006 A 
ENDBRANCH  46  67
BRANCH  58  75
ATOM     75  C   UNL A   1      44.246  27.588  34.503  1.00  0.00     0.057 A 
ATOM     76  C   UNL A   1      44.066  26.383  35.194  1.00  0.00     0.134 A 
ATOM     77  C   UNL A   1      45.459  28.262  34.684  1.00  0.00     0.134 A 
ATOM     78  F   UNL A   1      42.919  25.696  35.077  1.00  0.00    -0.206 F 
ATOM     79  C   UNL A   1      45.048  25.878  36.049  1.00  0.00     0.040 A 
ATOM     80  C   UNL A   1      46.458  27.756  35.517  1.00  0.00     0.040 A 
ATOM     81  F   UNL A   1      45.699  29.418  34.046  1.00  0.00    -0.206 F 
ATOM     82  C   UNL A   1      46.251  26.563  36.208  1.00  0.00     0.006 A 
ENDBRANCH  58  75
ENDBRANCH  32  33
ENDBRANCH  25  27
ENDBRANCH  24  25
ENDBRANCH  23  24
ENDBRANCH   1  23
TORSDOF 14
ENDMDL
MODEL 3
REMARK VINA RESULT:     -11.3      4.737      9.235
REMARK SMILES CC[C@H]1SC[C@H](C(=O)OCCOC(=O)c2ccc(-c3c4nc(c(-c5c(F)cccc5F)c5ccc([nH]5)c(-c5c(F)cccc5F)c5nc(c(-c6c(F)cccc6F)c6ccc3[nH]6)C=C5)C=C4)cc2)N1C(=O)c1ccc(F)c(F)c1F
REMARK SMILES IDX 10 1 9 2 7 3 8 4 6 5 3 6 4 7 69 8 5 9 2 10 1 11 70 12 71 13
REMARK SMILES IDX 72 14 73 15 79 16 74 17 77 18 80 19 75 20 78 21 76 22 11 23
REMARK SMILES IDX 12 24 13 25 14 26 15 27 16 28 68 29 17 30 67 31 18 32 19 33
REMARK SMILES IDX 20 34 61 35 21 36 66 37 60 38 62 39 22 40 65 41 59 42 58 43
REMARK SMILES IDX 23 45 49 46 32 47 48 48 33 49 36 50 47 51 63 52 34 53 35 54
REMARK SMILES IDX 46 56 64 57 37 58 24 59 25 60 30 61 26 62 27 63 29 64 31 65
REMARK SMILES IDX 28 66 50 67 51 68 56 69 52 70 53 71 55 72 57 73 54 74 38 75
REMARK SMILES IDX 39 76 44 77 40 78 41 79 43 80 45 81 42 82
REMARK H PARENT 62 44 36 55
REMARK Flexibility Score: inf
ROOT
ATOM      1  C   UNL A   1      31.736  30.633  26.661  1.00  0.00     0.274 C 
ENDROOT
BRANCH   1   2
ATOM      2  O   UNL A   1      32.841  30.465  25.749  1.00  0.00    -0.461 OA
BRANCH   2   3
ATOM      3  C   UNL A   1      32.743  29.455  24.830  1.00  0.00     0.329 C 
ATOM      4  O   UNL A   1      33.576  29.201  23.970  1.00  0.00    -0.250 OA
BRANCH   3   5
ATOM      5  C   UNL A   1      31.364  28.792  24.942  1.00  0.00     0.206 C 
ATOM      6  C   UNL A   1      30.490  26.674  24.011  1.00  0.00     0.144 C 
ATOM      7  S   UNL A   1      30.261  27.883  22.679  1.00  0.00    -0.134 SA
ATOM      8  N   UNL A   1      31.339  27.309  25.010  1.00  0.00    -0.312 N 
ATOM      9  C   UNL A   1      30.566  29.303  23.741  1.00  0.00     0.109 C 
BRANCH   6  10
ATOM     10  C   UNL A   1      29.130  26.206  24.565  1.00  0.00     0.033 C 
ATOM     11  C   UNL A   1      27.898  26.737  23.840  1.00  0.00     0.007 C 
ENDBRANCH   6  10
BRANCH   8  12
ATOM     12  C   UNL A   1      31.839  26.708  26.163  1.00  0.00     0.258 C 
ATOM     13  O   UNL A   1      31.496  27.115  27.275  1.00  0.00    -0.269 OA
BRANCH  12  14
ATOM     14  C   UNL A   1      32.729  25.513  26.141  1.00  0.00     0.079 A 
ATOM     15  C   UNL A   1      34.014  25.675  25.585  1.00  0.00     0.020 A 
ATOM     16  C   UNL A   1      32.334  24.235  26.539  1.00  0.00     0.174 A 
ATOM     17  C   UNL A   1      34.892  24.590  25.486  1.00  0.00     0.043 A 
ATOM     18  C   UNL A   1      33.214  23.157  26.451  1.00  0.00     0.195 A 
ATOM     19  F   UNL A   1      31.083  23.998  26.959  1.00  0.00    -0.203 F 
ATOM     20  C   UNL A   1      34.488  23.338  25.934  1.00  0.00     0.161 A 
ATOM     21  F   UNL A   1      32.821  21.942  26.858  1.00  0.00    -0.200 F 
ATOM     22  F   UNL A   1      35.335  22.305  25.844  1.00  0.00    -0.204 F 
ENDBRANCH  12  14
ENDBRANCH   8  12
ENDBRANCH   3   5
ENDBRANCH   2   3
ENDBRANCH   1   2
BRANCH   1  23
ATOM     23  C   UNL A   1      31.424  32.115  26.852  1.00  0.00     0.275 C 
BRANCH  23  24
ATOM     24  O   UNL A   1      32.641  32.857  26.689  1.00  0.00    -0.458 OA
BRANCH  24  25
ATOM     25  C   UNL A   1      33.118  33.487  27.785  1.00  0.00     0.338 C 
ATOM     26  O   UNL A   1      32.624  34.457  28.348  1.00  0.00    -0.246 OA
BRANCH  25  27
ATOM     27  C   UNL A   1      34.373  32.835  28.222  1.00  0.00     0.060 A 
ATOM     28  C   UNL A   1      34.381  31.499  28.610  1.00  0.00     0.016 A 
ATOM     29  C   UNL A   1      35.545  33.580  28.332  1.00  0.00     0.016 A 
ATOM     30  C   UNL A   1      35.505  30.947  29.216  1.00  0.00     0.010 A 
ATOM     31  C   UNL A   1      36.709  32.987  28.849  1.00  0.00     0.010 A 
ATOM     32  C   UNL A   1      36.691  31.679  29.363  1.00  0.00    -0.014 A 
BRANCH  32  33
ATOM     33  C   UNL A   1      37.848  31.109  30.127  1.00  0.00     0.031 A 
ATOM     34  C   UNL A   1      38.818  30.158  29.456  1.00  0.00     0.074 A 
ATOM     35  C   UNL A   1      38.110  31.488  31.396  1.00  0.00     0.049 A 
ATOM     36  N   UNL A   1      39.806  29.471  29.980  1.00  0.00    -0.248 NA
ATOM     37  C   UNL A   1      38.667  29.956  28.005  1.00  0.00     0.031 C 
ATOM     38  C   UNL A   1      37.333  32.450  32.179  1.00  0.00     0.029 A 
ATOM     39  N   UNL A   1      39.128  31.125  32.249  1.00  0.00    -0.354 N 
ATOM     40  C   UNL A   1      40.362  28.738  28.939  1.00  0.00     0.074 A 
ATOM     41  C   UNL A   1      39.590  29.040  27.753  1.00  0.00     0.031 C 
ATOM     42  C   UNL A   1      37.939  32.657  33.357  1.00  0.00     0.029 A 
ATOM     43  C   UNL A   1      39.076  31.752  33.472  1.00  0.00     0.049 A 
ATOM     44  H   UNL A   1      39.829  30.477  32.007  1.00  0.00     0.167 HD
ATOM     45  C   UNL A   1      41.426  27.900  28.953  1.00  0.00     0.037 A 
ATOM     46  C   UNL A   1      39.814  31.592  34.588  1.00  0.00     0.037 A 
ATOM     47  C   UNL A   1      42.235  27.613  30.108  1.00  0.00     0.049 A 
ATOM     48  C   UNL A   1      40.894  30.548  34.622  1.00  0.00     0.074 A 
ATOM     49  C   UNL A   1      43.324  26.762  30.208  1.00  0.00     0.029 A 
ATOM     50  N   UNL A   1      42.057  28.178  31.360  1.00  0.00    -0.354 N 
ATOM     51  N   UNL A   1      41.348  29.795  33.652  1.00  0.00    -0.248 NA
ATOM     52  C   UNL A   1      41.537  30.306  35.923  1.00  0.00     0.031 C 
ATOM     53  C   UNL A   1      43.777  26.779  31.531  1.00  0.00     0.029 A 
ATOM     54  C   UNL A   1      42.996  27.672  32.245  1.00  0.00     0.049 A 
ATOM     55  H   UNL A   1      41.366  28.842  31.587  1.00  0.00     0.167 HD
ATOM     56  C   UNL A   1      42.331  28.996  34.221  1.00  0.00     0.074 A 
ATOM     57  C   UNL A   1      42.424  29.369  35.615  1.00  0.00     0.031 C 
ATOM     58  C   UNL A   1      43.082  28.034  33.635  1.00  0.00     0.037 A 
BRANCH  45  59
ATOM     59  C   UNL A   1      41.774  27.203  27.671  1.00  0.00     0.057 A 
ATOM     60  C   UNL A   1      41.261  25.940  27.351  1.00  0.00     0.134 A 
ATOM     61  C   UNL A   1      42.592  27.830  26.722  1.00  0.00     0.134 A 
ATOM     62  F   UNL A   1      40.490  25.277  28.225  1.00  0.00    -0.206 F 
ATOM     63  C   UNL A   1      41.556  25.322  26.134  1.00  0.00     0.040 A 
ATOM     64  C   UNL A   1      42.880  27.230  25.496  1.00  0.00     0.040 A 
ATOM     65  F   UNL A   1      43.114  29.042  26.967  1.00  0.00    -0.206 F 
ATOM     66  C   UNL A   1      42.362  25.970  25.200  1.00  0.00     0.006 A 
ENDBRANCH  45  59
BRANCH  46  67
ATOM     67  C   UNL A   1      39.501  32.383  35.806  1.00  0.00     0.057 A 
ATOM     68  C   UNL A   1      38.541  31.949  36.728  1.00  0.00     0.134 A 
ATOM     69  C   UNL A   1      40.143  33.599  36.069  1.00  0.00     0.134 A 
ATOM     70  F   UNL A   1      37.865  30.811  36.513  1.00  0.00    -0.206 F 
ATOM     71  C   UNL A   1      38.233  32.697  37.866  1.00  0.00     0.040 A 
ATOM     72  C   UNL A   1      39.868  34.341  37.218  1.00  0.00     0.040 A 
ATOM     73  F   UNL A   1      41.064  34.077  35.219  1.00  0.00    -0.206 F 
ATOM     74  C   UNL A   1      38.905  33.892  38.118  1.00  0.00     0.006 A 
ENDBRANCH  46  67
BRANCH  58  75
ATOM     75  C   UNL A   1      44.081  27.323  34.497  1.00  0.00     0.057 A 
ATOM     76  C   UNL A   1      43.775  26.110  35.128  1.00  0.00     0.134 A 
ATOM     77  C   UNL A   1      45.368  27.843  34.685  1.00  0.00     0.134 A 
ATOM     78  F   UNL A   1      42.554  25.567  35.001  1.00  0.00    -0.206 F 
ATOM     79  C   UNL A   1      44.706  25.449  35.931  1.00  0.00     0.040 A 
ATOM     80  C   UNL A   1      46.315  27.179  35.466  1.00  0.00     0.040 A 
ATOM     81  F   UNL A   1      45.728  28.997  34.104  1.00  0.00    -0.206 F 
ATOM     82  C   UNL A   1      45.983  25.982  36.098  1.00  0.00     0.006 A 
ENDBRANCH  58  75
ENDBRANCH  32  33
ENDBRANCH  25  27
ENDBRANCH  24  25
ENDBRANCH  23  24
ENDBRANCH   1  23
TORSDOF 14
ENDMDL
