MODEL 1
REMARK VINA RESULT:     -11.9      0.000      0.000
REMARK SMILES C#Cc1cc(Cl)cc2c1O[C@H](C(F)(F)F)C(C(=O)OCCOC(=O)c1ccc(-c3c4nc(c(-c5c(F)cccc5F)c5ccc([nH]5)c(-c5c(F)cccc5F)c5nc(c(-c6c(F)cccc6F)c6ccc3[nH]6)C=C5)C=C4)cc1)=C2
REMARK SMILES IDX 21 1 20 2 19 3 17 4 18 5 16 6 3 7 4 8 9 9 5 10 8 11 10 12
REMARK SMILES IDX 6 13 7 14 79 15 11 16 2 17 1 18 12 19 13 20 14 21 15 22
REMARK SMILES IDX 22 23 23 24 24 25 25 26 26 27 78 28 27 29 77 30 28 31 29 32
REMARK SMILES IDX 30 33 71 34 31 35 76 36 70 37 72 38 32 39 75 40 69 41 68 42
REMARK SMILES IDX 33 44 59 45 42 46 58 47 43 48 46 49 57 50 73 51 44 52 45 53
REMARK SMILES IDX 56 55 74 56 47 57 34 58 35 59 40 60 36 61 37 62 39 63 41 64
REMARK SMILES IDX 38 65 60 66 61 67 66 68 62 69 63 70 65 71 67 72 64 73 48 74
REMARK SMILES IDX 49 75 54 76 50 77 51 78 53 79 55 80 52 81
REMARK H PARENT 72 43 46 54
REMARK Flexibility Score: inf
ROOT
ATOM      1  C   UNL A   1      31.733  29.976  25.372  1.00  0.00     0.275 C 
ENDROOT
BRANCH   1   2
ATOM      2  C   UNL A   1      31.602  28.571  24.780  1.00  0.00     0.275 C 
BRANCH   2   3
ATOM      3  O   UNL A   1      32.369  27.606  25.537  1.00  0.00    -0.459 OA
BRANCH   3   4
ATOM      4  C   UNL A   1      31.644  26.662  26.181  1.00  0.00     0.338 C 
ATOM      5  O   UNL A   1      30.657  26.852  26.873  1.00  0.00    -0.246 OA
BRANCH   4   6
ATOM      6  C   UNL A   1      32.197  25.315  25.937  1.00  0.00     0.087 C 
ATOM      7  C   UNL A   1      33.898  21.689  24.714  1.00  0.00     0.068 A 
ATOM      8  C   UNL A   1      35.290  21.534  24.771  1.00  0.00     0.041 A 
ATOM      9  C   UNL A   1      33.298  22.870  25.176  1.00  0.00     0.143 A 
ATOM     10  C   UNL A   1      36.080  22.546  25.306  1.00  0.00     0.043 A 
ATOM     11  C   UNL A   1      34.106  23.878  25.702  1.00  0.00     0.020 A 
ATOM     12  O   UNL A   1      31.934  22.981  25.105  1.00  0.00    -0.474 OA
ATOM     13  Cl  UNL A   1      37.790  22.365  25.367  1.00  0.00    -0.084 Cl
ATOM     14  C   UNL A   1      35.496  23.716  25.779  1.00  0.00     0.032 A 
ATOM     15  C   UNL A   1      33.506  25.125  26.125  1.00  0.00     0.027 C 
ATOM     16  C   UNL A   1      31.305  24.275  25.328  1.00  0.00     0.316 C 
BRANCH   7  17
ATOM     17  C   UNL A   1      33.110  20.632  24.159  1.00  0.00    -0.067 C 
ATOM     18  C   UNL A   1      32.454  19.742  23.686  1.00  0.00     0.010 C 
ENDBRANCH   7  17
BRANCH  16  19
ATOM     19  C   UNL A   1      30.699  24.777  24.008  1.00  0.00     0.430 C 
ATOM     20  F   UNL A   1      31.608  25.455  23.270  1.00  0.00    -0.167 F 
ATOM     21  F   UNL A   1      30.266  23.749  23.237  1.00  0.00    -0.167 F 
ATOM     22  F   UNL A   1      29.643  25.598  24.214  1.00  0.00    -0.167 F 
ENDBRANCH  16  19
ENDBRANCH   4   6
ENDBRANCH   3   4
ENDBRANCH   2   3
ENDBRANCH   1   2
BRANCH   1  23
ATOM     23  O   UNL A   1      32.356  29.934  26.669  1.00  0.00    -0.458 OA
BRANCH  23  24
ATOM     24  C   UNL A   1      32.926  31.096  27.053  1.00  0.00     0.338 C 
ATOM     25  O   UNL A   1      32.385  32.181  27.189  1.00  0.00    -0.246 OA
BRANCH  24  26
ATOM     26  C   UNL A   1      34.328  30.884  27.431  1.00  0.00     0.060 A 
ATOM     27  C   UNL A   1      34.739  29.579  27.660  1.00  0.00     0.016 A 
ATOM     28  C   UNL A   1      35.137  31.947  27.816  1.00  0.00     0.016 A 
ATOM     29  C   UNL A   1      35.842  29.329  28.461  1.00  0.00     0.010 A 
ATOM     30  C   UNL A   1      36.355  31.681  28.454  1.00  0.00     0.010 A 
ATOM     31  C   UNL A   1      36.695  30.371  28.839  1.00  0.00    -0.014 A 
BRANCH  31  32
ATOM     32  C   UNL A   1      37.922  30.075  29.635  1.00  0.00     0.031 A 
ATOM     33  C   UNL A   1      39.009  29.196  29.069  1.00  0.00     0.074 A 
ATOM     34  C   UNL A   1      38.073  30.616  30.863  1.00  0.00     0.049 A 
ATOM     35  N   UNL A   1      40.050  28.680  29.671  1.00  0.00    -0.248 NA
ATOM     36  C   UNL A   1      38.907  28.836  27.643  1.00  0.00     0.031 C 
ATOM     37  C   UNL A   1      37.132  31.535  31.512  1.00  0.00     0.029 A 
ATOM     38  N   UNL A   1      39.081  30.485  31.787  1.00  0.00    -0.354 N 
ATOM     39  C   UNL A   1      40.698  27.904  28.716  1.00  0.00     0.074 A 
ATOM     40  C   UNL A   1      39.922  27.993  27.500  1.00  0.00     0.031 C 
ATOM     41  C   UNL A   1      37.631  31.927  32.692  1.00  0.00     0.029 A 
ATOM     42  C   UNL A   1      38.860  31.193  32.946  1.00  0.00     0.049 A 
ATOM     43  H   UNL A   1      39.884  29.937  31.635  1.00  0.00     0.167 HD
ATOM     44  C   UNL A   1      41.842  27.192  28.846  1.00  0.00     0.037 A 
ATOM     45  C   UNL A   1      39.533  31.210  34.112  1.00  0.00     0.037 A 
ATOM     46  C   UNL A   1      42.632  27.149  30.050  1.00  0.00     0.049 A 
ATOM     47  C   UNL A   1      40.745  30.338  34.256  1.00  0.00     0.074 A 
ATOM     48  C   UNL A   1      43.808  26.457  30.281  1.00  0.00     0.029 A 
ATOM     49  N   UNL A   1      42.337  27.839  31.216  1.00  0.00    -0.354 N 
ATOM     50  N   UNL A   1      41.319  29.571  33.361  1.00  0.00    -0.248 NA
ATOM     51  C   UNL A   1      41.393  30.318  35.574  1.00  0.00     0.031 C 
ATOM     52  C   UNL A   1      44.193  26.681  31.605  1.00  0.00     0.029 A 
ATOM     53  C   UNL A   1      43.295  27.566  32.179  1.00  0.00     0.049 A 
ATOM     54  H   UNL A   1      41.562  28.433  31.341  1.00  0.00     0.167 HD
ATOM     55  C   UNL A   1      42.411  28.999  33.999  1.00  0.00     0.074 A 
ATOM     56  C   UNL A   1      42.430  29.525  35.349  1.00  0.00     0.031 C 
ATOM     57  C   UNL A   1      43.312  28.112  33.512  1.00  0.00     0.037 A 
BRANCH  44  58
ATOM     58  C   UNL A   1      42.322  26.389  27.668  1.00  0.00     0.057 A 
ATOM     59  C   UNL A   1      41.913  25.068  27.454  1.00  0.00     0.134 A 
ATOM     60  C   UNL A   1      43.125  26.983  26.684  1.00  0.00     0.134 A 
ATOM     61  F   UNL A   1      41.154  24.436  28.361  1.00  0.00    -0.206 F 
ATOM     62  C   UNL A   1      42.287  24.365  26.306  1.00  0.00     0.040 A 
ATOM     63  C   UNL A   1      43.481  26.301  25.520  1.00  0.00     0.040 A 
ATOM     64  F   UNL A   1      43.549  28.249  26.821  1.00  0.00    -0.206 F 
ATOM     65  C   UNL A   1      43.061  24.986  25.329  1.00  0.00     0.006 A 
ENDBRANCH  44  58
BRANCH  45  66
ATOM     66  C   UNL A   1      39.052  32.050  35.241  1.00  0.00     0.057 A 
ATOM     67  C   UNL A   1      39.387  33.406  35.323  1.00  0.00     0.134 A 
ATOM     68  C   UNL A   1      38.246  31.526  36.262  1.00  0.00     0.134 A 
ATOM     69  F   UNL A   1      40.172  33.965  34.390  1.00  0.00    -0.206 F 
ATOM     70  C   UNL A   1      38.954  34.205  36.383  1.00  0.00     0.040 A 
ATOM     71  C   UNL A   1      37.775  32.322  37.307  1.00  0.00     0.040 A 
ATOM     72  F   UNL A   1      37.881  30.235  36.244  1.00  0.00    -0.206 F 
ATOM     73  C   UNL A   1      38.137  33.665  37.374  1.00  0.00     0.006 A 
ENDBRANCH  45  66
BRANCH  57  74
ATOM     74  C   UNL A   1      44.419  27.677  34.425  1.00  0.00     0.057 A 
ATOM     75  C   UNL A   1      45.611  28.404  34.540  1.00  0.00     0.134 A 
ATOM     76  C   UNL A   1      44.260  26.559  35.254  1.00  0.00     0.134 A 
ATOM     77  F   UNL A   1      45.830  29.478  33.766  1.00  0.00    -0.206 F 
ATOM     78  C   UNL A   1      46.610  28.026  35.436  1.00  0.00     0.040 A 
ATOM     79  C   UNL A   1      45.238  26.191  36.177  1.00  0.00     0.040 A 
ATOM     80  F   UNL A   1      43.138  25.824  35.201  1.00  0.00    -0.206 F 
ATOM     81  C   UNL A   1      46.419  26.924  36.267  1.00  0.00     0.006 A 
ENDBRANCH  57  74
ENDBRANCH  31  32
ENDBRANCH  24  26
ENDBRANCH  23  24
ENDBRANCH   1  23
TORSDOF 13
ENDMDL
MODEL 2
REMARK VINA RESULT:     -11.8      4.008      8.719
REMARK SMILES C#Cc1cc(Cl)cc2c1O[C@H](C(F)(F)F)C(C(=O)OCCOC(=O)c1ccc(-c3c4nc(c(-c5c(F)cccc5F)c5ccc([nH]5)c(-c5c(F)cccc5F)c5nc(c(-c6c(F)cccc6F)c6ccc3[nH]6)C=C5)C=C4)cc1)=C2
REMARK SMILES IDX 21 1 20 2 19 3 17 4 18 5 16 6 3 7 4 8 9 9 5 10 8 11 10 12
REMARK SMILES IDX 6 13 7 14 79 15 11 16 2 17 1 18 12 19 13 20 14 21 15 22
REMARK SMILES IDX 22 23 23 24 24 25 25 26 26 27 78 28 27 29 77 30 28 31 29 32
REMARK SMILES IDX 30 33 71 34 31 35 76 36 70 37 72 38 32 39 75 40 69 41 68 42
REMARK SMILES IDX 33 44 59 45 42 46 58 47 43 48 46 49 57 50 73 51 44 52 45 53
REMARK SMILES IDX 56 55 74 56 47 57 34 58 35 59 40 60 36 61 37 62 39 63 41 64
REMARK SMILES IDX 38 65 60 66 61 67 66 68 62 69 63 70 65 71 67 72 64 73 48 74
REMARK SMILES IDX 49 75 54 76 50 77 51 78 53 79 55 80 52 81
REMARK H PARENT 72 43 46 54
REMARK Flexibility Score: inf
ROOT
ATOM      1  C   UNL A   1      36.591  20.586  24.985  1.00  0.00     0.275 C 
ENDROOT
BRANCH   1   2
ATOM      2  C   UNL A   1      35.253  21.328  24.999  1.00  0.00     0.275 C 
BRANCH   2   3
ATOM      3  O   UNL A   1      35.443  22.760  24.929  1.00  0.00    -0.459 OA
BRANCH   3   4
ATOM      4  C   UNL A   1      35.203  23.322  23.722  1.00  0.00     0.338 C 
ATOM      5  O   UNL A   1      35.676  22.973  22.652  1.00  0.00    -0.246 OA
BRANCH   4   6
ATOM      6  C   UNL A   1      34.255  24.447  23.843  1.00  0.00     0.087 C 
ATOM      7  C   UNL A   1      31.334  27.344  24.630  1.00  0.00     0.068 A 
ATOM      8  C   UNL A   1      31.555  28.277  25.653  1.00  0.00     0.041 A 
ATOM      9  C   UNL A   1      32.322  26.403  24.304  1.00  0.00     0.143 A 
ATOM     10  C   UNL A   1      32.766  28.283  26.337  1.00  0.00     0.043 A 
ATOM     11  C   UNL A   1      33.528  26.418  25.005  1.00  0.00     0.020 A 
ATOM     12  O   UNL A   1      32.069  25.511  23.295  1.00  0.00    -0.474 OA
ATOM     13  Cl  UNL A   1      33.036  29.418  27.602  1.00  0.00    -0.084 Cl
ATOM     14  C   UNL A   1      33.758  27.364  26.015  1.00  0.00     0.032 A 
ATOM     15  C   UNL A   1      34.531  25.415  24.722  1.00  0.00     0.027 C 
ATOM     16  C   UNL A   1      32.951  24.368  23.107  1.00  0.00     0.316 C 
BRANCH   7  17
ATOM     17  C   UNL A   1      30.079  27.361  23.943  1.00  0.00    -0.067 C 
ATOM     18  C   UNL A   1      29.020  27.372  23.373  1.00  0.00     0.010 C 
ENDBRANCH   7  17
BRANCH  16  19
ATOM     19  C   UNL A   1      32.194  23.080  23.469  1.00  0.00     0.430 C 
ATOM     20  F   UNL A   1      32.264  22.819  24.795  1.00  0.00    -0.167 F 
ATOM     21  F   UNL A   1      30.877  23.174  23.163  1.00  0.00    -0.167 F 
ATOM     22  F   UNL A   1      32.684  22.002  22.814  1.00  0.00    -0.167 F 
ENDBRANCH  16  19
ENDBRANCH   4   6
ENDBRANCH   3   4
ENDBRANCH   2   3
ENDBRANCH   1   2
BRANCH   1  23
ATOM     23  O   UNL A   1      37.694  21.511  24.972  1.00  0.00    -0.458 OA
BRANCH  23  24
ATOM     24  C   UNL A   1      38.742  21.141  25.739  1.00  0.00     0.338 C 
ATOM     25  O   UNL A   1      39.297  20.055  25.769  1.00  0.00    -0.246 OA
BRANCH  24  26
ATOM     26  C   UNL A   1      39.258  22.288  26.496  1.00  0.00     0.060 A 
ATOM     27  C   UNL A   1      38.748  23.541  26.187  1.00  0.00     0.016 A 
ATOM     28  C   UNL A   1      40.398  22.175  27.284  1.00  0.00     0.016 A 
ATOM     29  C   UNL A   1      39.484  24.680  26.473  1.00  0.00     0.010 A 
ATOM     30  C   UNL A   1      41.030  23.338  27.740  1.00  0.00     0.010 A 
ATOM     31  C   UNL A   1      40.617  24.606  27.290  1.00  0.00    -0.014 A 
BRANCH  31  32
ATOM     32  C   UNL A   1      41.352  25.851  27.654  1.00  0.00     0.031 A 
ATOM     33  C   UNL A   1      40.693  26.911  28.501  1.00  0.00     0.074 A 
ATOM     34  C   UNL A   1      42.627  26.024  27.242  1.00  0.00     0.049 A 
ATOM     35  N   UNL A   1      41.099  28.128  28.764  1.00  0.00    -0.248 NA
ATOM     36  C   UNL A   1      39.402  26.567  29.123  1.00  0.00     0.031 C 
ATOM     37  C   UNL A   1      43.413  25.055  26.470  1.00  0.00     0.029 A 
ATOM     38  N   UNL A   1      43.498  27.070  27.423  1.00  0.00    -0.354 N 
ATOM     39  C   UNL A   1      40.099  28.704  29.539  1.00  0.00     0.074 A 
ATOM     40  C   UNL A   1      39.053  27.717  29.685  1.00  0.00     0.031 C 
ATOM     41  C   UNL A   1      44.655  25.524  26.297  1.00  0.00     0.029 A 
ATOM     42  C   UNL A   1      44.723  26.876  26.827  1.00  0.00     0.049 A 
ATOM     43  H   UNL A   1      43.269  27.882  27.930  1.00  0.00     0.167 HD
ATOM     44  C   UNL A   1      40.067  29.943  30.086  1.00  0.00     0.037 A 
ATOM     45  C   UNL A   1      45.770  27.707  26.669  1.00  0.00     0.037 A 
ATOM     46  C   UNL A   1      41.135  30.901  29.972  1.00  0.00     0.049 A 
ATOM     47  C   UNL A   1      45.667  29.104  27.205  1.00  0.00     0.074 A 
ATOM     48  C   UNL A   1      41.198  32.183  30.491  1.00  0.00     0.029 A 
ATOM     49  N   UNL A   1      42.334  30.677  29.311  1.00  0.00    -0.354 N 
ATOM     50  N   UNL A   1      44.696  29.653  27.893  1.00  0.00    -0.248 NA
ATOM     51  C   UNL A   1      46.794  30.004  26.927  1.00  0.00     0.031 C 
ATOM     52  C   UNL A   1      42.409  32.755  30.094  1.00  0.00     0.029 A 
ATOM     53  C   UNL A   1      43.131  31.808  29.385  1.00  0.00     0.049 A 
ATOM     54  H   UNL A   1      42.581  29.840  28.856  1.00  0.00     0.167 HD
ATOM     55  C   UNL A   1      45.105  30.953  28.155  1.00  0.00     0.074 A 
ATOM     56  C   UNL A   1      46.422  31.102  27.570  1.00  0.00     0.031 C 
ATOM     57  C   UNL A   1      44.447  31.935  28.815  1.00  0.00     0.037 A 
BRANCH  44  58
ATOM     58  C   UNL A   1      38.840  30.353  30.854  1.00  0.00     0.057 A 
ATOM     59  C   UNL A   1      37.737  30.948  30.230  1.00  0.00     0.134 A 
ATOM     60  C   UNL A   1      38.726  30.056  32.219  1.00  0.00     0.134 A 
ATOM     61  F   UNL A   1      37.784  31.269  28.929  1.00  0.00    -0.206 F 
ATOM     62  C   UNL A   1      36.567  31.235  30.936  1.00  0.00     0.040 A 
ATOM     63  C   UNL A   1      37.551  30.312  32.929  1.00  0.00     0.040 A 
ATOM     64  F   UNL A   1      39.742  29.480  32.880  1.00  0.00    -0.206 F 
ATOM     65  C   UNL A   1      36.466  30.904  32.285  1.00  0.00     0.006 A 
ENDBRANCH  44  58
BRANCH  45  66
ATOM     66  C   UNL A   1      46.984  27.251  25.940  1.00  0.00     0.057 A 
ATOM     67  C   UNL A   1      48.048  26.650  26.620  1.00  0.00     0.134 A 
ATOM     68  C   UNL A   1      47.112  27.400  24.551  1.00  0.00     0.134 A 
ATOM     69  F   UNL A   1      47.998  26.495  27.951  1.00  0.00    -0.206 F 
ATOM     70  C   UNL A   1      49.199  26.227  25.951  1.00  0.00     0.040 A 
ATOM     71  C   UNL A   1      48.241  26.949  23.866  1.00  0.00     0.040 A 
ATOM     72  F   UNL A   1      46.128  27.963  23.835  1.00  0.00    -0.206 F 
ATOM     73  C   UNL A   1      49.293  26.368  24.569  1.00  0.00     0.006 A 
ENDBRANCH  45  66
BRANCH  57  74
ATOM     74  C   UNL A   1      45.148  33.252  28.976  1.00  0.00     0.057 A 
ATOM     75  C   UNL A   1      44.960  34.304  28.071  1.00  0.00     0.134 A 
ATOM     76  C   UNL A   1      45.962  33.492  30.090  1.00  0.00     0.134 A 
ATOM     77  F   UNL A   1      44.202  34.134  26.977  1.00  0.00    -0.206 F 
ATOM     78  C   UNL A   1      45.569  35.544  28.261  1.00  0.00     0.040 A 
ATOM     79  C   UNL A   1      46.549  34.738  30.308  1.00  0.00     0.040 A 
ATOM     80  F   UNL A   1      46.176  32.530  31.000  1.00  0.00    -0.206 F 
ATOM     81  C   UNL A   1      46.355  35.768  29.390  1.00  0.00     0.006 A 
ENDBRANCH  57  74
ENDBRANCH  31  32
ENDBRANCH  24  26
ENDBRANCH  23  24
ENDBRANCH   1  23
TORSDOF 13
ENDMDL
MODEL 3
REMARK VINA RESULT:     -11.8      3.967      8.680
REMARK SMILES C#Cc1cc(Cl)cc2c1O[C@H](C(F)(F)F)C(C(=O)OCCOC(=O)c1ccc(-c3c4nc(c(-c5c(F)cccc5F)c5ccc([nH]5)c(-c5c(F)cccc5F)c5nc(c(-c6c(F)cccc6F)c6ccc3[nH]6)C=C5)C=C4)cc1)=C2
REMARK SMILES IDX 21 1 20 2 19 3 17 4 18 5 16 6 3 7 4 8 9 9 5 10 8 11 10 12
REMARK SMILES IDX 6 13 7 14 79 15 11 16 2 17 1 18 12 19 13 20 14 21 15 22
REMARK SMILES IDX 22 23 23 24 24 25 25 26 26 27 78 28 27 29 77 30 28 31 29 32
REMARK SMILES IDX 30 33 71 34 31 35 76 36 70 37 72 38 32 39 75 40 69 41 68 42
REMARK SMILES IDX 33 44 59 45 42 46 58 47 43 48 46 49 57 50 73 51 44 52 45 53
REMARK SMILES IDX 56 55 74 56 47 57 34 58 35 59 40 60 36 61 37 62 39 63 41 64
REMARK SMILES IDX 38 65 60 66 61 67 66 68 62 69 63 70 65 71 67 72 64 73 48 74
REMARK SMILES IDX 49 75 54 76 50 77 51 78 53 79 55 80 52 81
REMARK H PARENT 72 43 46 54
REMARK Flexibility Score: inf
ROOT
ATOM      1  C   UNL A   1      36.649  20.259  24.999  1.00  0.00     0.275 C 
ENDROOT
BRANCH   1   2
ATOM      2  C   UNL A   1      35.222  20.810  24.972  1.00  0.00     0.275 C 
BRANCH   2   3
ATOM      3  O   UNL A   1      35.215  22.251  24.851  1.00  0.00    -0.459 OA
BRANCH   3   4
ATOM      4  C   UNL A   1      34.723  22.923  25.917  1.00  0.00     0.338 C 
ATOM      5  O   UNL A   1      34.969  22.699  27.092  1.00  0.00    -0.246 OA
BRANCH   4   6
ATOM      6  C   UNL A   1      33.824  24.012  25.487  1.00  0.00     0.087 C 
ATOM      7  C   UNL A   1      31.062  27.086  24.807  1.00  0.00     0.068 A 
ATOM      8  C   UNL A   1      31.381  28.391  25.205  1.00  0.00     0.041 A 
ATOM      9  C   UNL A   1      31.994  26.049  24.966  1.00  0.00     0.143 A 
ATOM     10  C   UNL A   1      32.634  28.666  25.743  1.00  0.00     0.043 A 
ATOM     11  C   UNL A   1      33.243  26.341  25.515  1.00  0.00     0.020 A 
ATOM     12  O   UNL A   1      31.645  24.787  24.561  1.00  0.00    -0.474 OA
ATOM     13  Cl  UNL A   1      33.024  30.265  26.245  1.00  0.00    -0.084 Cl
ATOM     14  C   UNL A   1      33.571  27.650  25.894  1.00  0.00     0.032 A 
ATOM     15  C   UNL A   1      34.190  25.272  25.741  1.00  0.00     0.027 C 
ATOM     16  C   UNL A   1      32.474  23.653  24.945  1.00  0.00     0.316 C 
BRANCH   7  17
ATOM     17  C   UNL A   1      29.766  26.831  24.256  1.00  0.00    -0.067 C 
ATOM     18  C   UNL A   1      28.677  26.609  23.798  1.00  0.00     0.010 C 
ENDBRANCH   7  17
BRANCH  16  19
ATOM     19  C   UNL A   1      31.698  22.775  25.940  1.00  0.00     0.430 C 
ATOM     20  F   UNL A   1      31.885  23.187  27.215  1.00  0.00    -0.167 F 
ATOM     21  F   UNL A   1      30.363  22.822  25.710  1.00  0.00    -0.167 F 
ATOM     22  F   UNL A   1      32.073  21.477  25.870  1.00  0.00    -0.167 F 
ENDBRANCH  16  19
ENDBRANCH   4   6
ENDBRANCH   3   4
ENDBRANCH   2   3
ENDBRANCH   1   2
BRANCH   1  23
ATOM     23  O   UNL A   1      37.613  21.324  25.091  1.00  0.00    -0.458 OA
BRANCH  23  24
ATOM     24  C   UNL A   1      38.745  20.998  25.749  1.00  0.00     0.338 C 
ATOM     25  O   UNL A   1      39.370  19.952  25.683  1.00  0.00    -0.246 OA
BRANCH  24  26
ATOM     26  C   UNL A   1      39.249  22.147  26.512  1.00  0.00     0.060 A 
ATOM     27  C   UNL A   1      38.714  23.394  26.220  1.00  0.00     0.016 A 
ATOM     28  C   UNL A   1      40.398  22.046  27.287  1.00  0.00     0.016 A 
ATOM     29  C   UNL A   1      39.434  24.542  26.509  1.00  0.00     0.010 A 
ATOM     30  C   UNL A   1      41.015  23.216  27.748  1.00  0.00     0.010 A 
ATOM     31  C   UNL A   1      40.575  24.481  27.314  1.00  0.00    -0.014 A 
BRANCH  31  32
ATOM     32  C   UNL A   1      41.293  25.735  27.683  1.00  0.00     0.031 A 
ATOM     33  C   UNL A   1      40.615  26.786  28.525  1.00  0.00     0.074 A 
ATOM     34  C   UNL A   1      42.568  25.924  27.279  1.00  0.00     0.049 A 
ATOM     35  N   UNL A   1      41.004  28.008  28.791  1.00  0.00    -0.248 NA
ATOM     36  C   UNL A   1      39.325  26.426  29.140  1.00  0.00     0.031 C 
ATOM     37  C   UNL A   1      43.371  24.965  26.511  1.00  0.00     0.029 A 
ATOM     38  N   UNL A   1      43.425  26.981  27.465  1.00  0.00    -0.354 N 
ATOM     39  C   UNL A   1      39.992  28.572  29.560  1.00  0.00     0.074 A 
ATOM     40  C   UNL A   1      38.958  27.571  29.700  1.00  0.00     0.031 C 
ATOM     41  C   UNL A   1      44.608  25.449  26.346  1.00  0.00     0.029 A 
ATOM     42  C   UNL A   1      44.656  26.801  26.877  1.00  0.00     0.049 A 
ATOM     43  H   UNL A   1      43.182  27.790  27.970  1.00  0.00     0.167 HD
ATOM     44  C   UNL A   1      39.941  29.809  30.106  1.00  0.00     0.037 A 
ATOM     45  C   UNL A   1      45.693  27.646  26.724  1.00  0.00     0.037 A 
ATOM     46  C   UNL A   1      40.998  30.782  30.000  1.00  0.00     0.049 A 
ATOM     47  C   UNL A   1      45.569  29.042  27.260  1.00  0.00     0.074 A 
ATOM     48  C   UNL A   1      41.042  32.064  30.518  1.00  0.00     0.029 A 
ATOM     49  N   UNL A   1      42.203  30.573  29.346  1.00  0.00    -0.354 N 
ATOM     50  N   UNL A   1      44.587  29.578  27.942  1.00  0.00    -0.248 NA
ATOM     51  C   UNL A   1      46.686  29.956  26.989  1.00  0.00     0.031 C 
ATOM     52  C   UNL A   1      42.247  32.651  30.129  1.00  0.00     0.029 A 
ATOM     53  C   UNL A   1      42.985  31.713  29.425  1.00  0.00     0.049 A 
ATOM     54  H   UNL A   1      42.464  29.739  28.892  1.00  0.00     0.167 HD
ATOM     55  C   UNL A   1      44.978  30.883  28.207  1.00  0.00     0.074 A 
ATOM     56  C   UNL A   1      46.297  31.049  27.629  1.00  0.00     0.031 C 
ATOM     57  C   UNL A   1      44.304  31.857  28.862  1.00  0.00     0.037 A 
BRANCH  44  58
ATOM     58  C   UNL A   1      38.705  30.204  30.867  1.00  0.00     0.057 A 
ATOM     59  C   UNL A   1      38.577  29.982  32.243  1.00  0.00     0.134 A 
ATOM     60  C   UNL A   1      37.673  30.905  30.229  1.00  0.00     0.134 A 
ATOM     61  F   UNL A   1      39.522  29.308  32.913  1.00  0.00    -0.206 F 
ATOM     62  C   UNL A   1      37.467  30.440  32.956  1.00  0.00     0.040 A 
ATOM     63  C   UNL A   1      36.572  31.393  30.935  1.00  0.00     0.040 A 
ATOM     64  F   UNL A   1      37.731  31.159  28.912  1.00  0.00    -0.206 F 
ATOM     65  C   UNL A   1      36.468  31.160  32.306  1.00  0.00     0.006 A 
ENDBRANCH  44  58
BRANCH  45  66
ATOM     66  C   UNL A   1      46.917  27.206  26.003  1.00  0.00     0.057 A 
ATOM     67  C   UNL A   1      47.041  27.383  24.621  1.00  0.00     0.134 A 
ATOM     68  C   UNL A   1      47.993  26.604  26.672  1.00  0.00     0.134 A 
ATOM     69  F   UNL A   1      46.040  27.934  23.919  1.00  0.00    -0.206 F 
ATOM     70  C   UNL A   1      48.179  26.964  23.928  1.00  0.00     0.040 A 
ATOM     71  C   UNL A   1      49.151  26.214  25.997  1.00  0.00     0.040 A 
ATOM     72  F   UNL A   1      47.944  26.407  27.998  1.00  0.00    -0.206 F 
ATOM     73  C   UNL A   1      49.242  26.387  24.619  1.00  0.00     0.006 A 
ENDBRANCH  45  66
BRANCH  57  74
ATOM     74  C   UNL A   1      44.987  33.182  29.027  1.00  0.00     0.057 A 
ATOM     75  C   UNL A   1      45.860  33.436  30.093  1.00  0.00     0.134 A 
ATOM     76  C   UNL A   1      44.826  34.190  28.068  1.00  0.00     0.134 A 
ATOM     77  F   UNL A   1      46.048  32.516  31.052  1.00  0.00    -0.206 F 
ATOM     78  C   UNL A   1      46.537  34.649  30.205  1.00  0.00     0.040 A 
ATOM     79  C   UNL A   1      45.523  35.394  28.152  1.00  0.00     0.040 A 
ATOM     80  F   UNL A   1      44.011  34.008  27.017  1.00  0.00    -0.206 F 
ATOM     81  C   UNL A   1      46.380  35.628  29.226  1.00  0.00     0.006 A 
ENDBRANCH  57  74
ENDBRANCH  31  32
ENDBRANCH  24  26
ENDBRANCH  23  24
ENDBRANCH   1  23
TORSDOF 13
ENDMDL
