MODEL 1
REMARK VINA RESULT:     -10.5      0.000      0.000
REMARK SMILES CCC(CC)(NC(=O)c1cncc(Br)c1)C(=O)OCCOC(=O)c1ccc(-c2c3nc(c(-c4c(F)cccc4F)c4ccc([nH]4)c(-c4c(F)cccc4F)c4nc(c(-c5c(F)cccc5F)c5ccc2[nH]5)C=C4)C=C3)cc1
REMARK SMILES IDX 19 1 18 2 16 3 17 4 3 5 2 6 1 7 4 8 5 9 6 10 7 11 8 13 9 14
REMARK SMILES IDX 10 15 15 16 11 17 13 18 12 19 14 20 20 21 21 22 22 23 23 24
REMARK SMILES IDX 24 25 25 26 77 27 26 28 76 29 27 30 28 31 29 32 70 33 30 34
REMARK SMILES IDX 75 35 69 36 71 37 31 38 74 39 68 40 67 41 32 43 58 44 41 45
REMARK SMILES IDX 57 46 42 47 45 48 56 49 72 50 43 51 44 52 55 54 73 55 46 56
REMARK SMILES IDX 33 57 34 58 39 59 35 60 36 61 38 62 40 63 37 64 59 65 60 66
REMARK SMILES IDX 65 67 61 68 62 69 64 70 66 71 63 72 47 73 48 74 53 75 49 76
REMARK SMILES IDX 50 77 52 78 54 79 51 80
REMARK H PARENT 6 12 71 42 45 53
REMARK Flexibility Score: inf
ROOT
ATOM      1  C   UNL A   1      31.419  31.971  26.850  1.00  0.00     0.274 C 
ENDROOT
BRANCH   1   2
ATOM      2  O   UNL A   1      31.813  30.947  25.905  1.00  0.00    -0.460 OA
BRANCH   2   3
ATOM      3  C   UNL A   1      32.195  29.761  26.430  1.00  0.00     0.331 C 
ATOM      4  O   UNL A   1      32.647  29.653  27.567  1.00  0.00    -0.249 OA
BRANCH   3   5
ATOM      5  C   UNL A   1      32.160  28.565  25.424  1.00  0.00     0.137 C 
BRANCH   5   6
ATOM      6  C   UNL A   1      33.640  28.268  24.983  1.00  0.00     0.037 C 
ATOM      7  C   UNL A   1      34.047  28.503  23.534  1.00  0.00     0.007 C 
ENDBRANCH   5   6
BRANCH   5   8
ATOM      8  C   UNL A   1      31.287  29.072  24.239  1.00  0.00     0.037 C 
ATOM      9  C   UNL A   1      30.254  28.088  23.702  1.00  0.00     0.007 C 
ENDBRANCH   5   8
BRANCH   5  10
ATOM     10  N   UNL A   1      31.669  27.205  25.841  1.00  0.00    -0.336 N 
ATOM     11  C   UNL A   1      32.163  25.951  26.036  1.00  0.00     0.253 C 
ATOM     12  H   UNL A   1      30.702  27.228  26.026  1.00  0.00     0.165 HD
ATOM     13  O   UNL A   1      31.636  25.252  26.902  1.00  0.00    -0.269 OA
BRANCH  11  14
ATOM     14  C   UNL A   1      33.137  25.305  25.165  1.00  0.00     0.059 A 
ATOM     15  C   UNL A   1      32.700  24.921  23.898  1.00  0.00     0.124 A 
ATOM     16  C   UNL A   1      34.385  24.876  25.601  1.00  0.00     0.032 A 
ATOM     17  N   UNL A   1      33.440  24.182  23.035  1.00  0.00    -0.263 NA
ATOM     18  C   UNL A   1      35.169  24.131  24.721  1.00  0.00     0.037 A 
ATOM     19  C   UNL A   1      34.664  23.807  23.467  1.00  0.00     0.126 A 
ATOM     20  Br  UNL A   1      36.898  23.569  25.220  1.00  0.00    -0.049 Br
ENDBRANCH  11  14
ENDBRANCH   5  10
ENDBRANCH   3   5
ENDBRANCH   2   3
ENDBRANCH   1   2
BRANCH   1  21
ATOM     21  C   UNL A   1      32.471  33.071  26.913  1.00  0.00     0.275 C 
BRANCH  21  22
ATOM     22  O   UNL A   1      32.219  33.881  28.072  1.00  0.00    -0.458 OA
BRANCH  22  23
ATOM     23  C   UNL A   1      33.251  34.664  28.449  1.00  0.00     0.338 C 
ATOM     24  O   UNL A   1      33.282  35.872  28.583  1.00  0.00    -0.246 OA
BRANCH  23  25
ATOM     25  C   UNL A   1      34.378  33.809  28.819  1.00  0.00     0.060 A 
ATOM     26  C   UNL A   1      34.099  32.601  29.455  1.00  0.00     0.016 A 
ATOM     27  C   UNL A   1      35.685  34.263  28.674  1.00  0.00     0.016 A 
ATOM     28  C   UNL A   1      35.130  31.867  30.023  1.00  0.00     0.010 A 
ATOM     29  C   UNL A   1      36.729  33.486  29.178  1.00  0.00     0.010 A 
ATOM     30  C   UNL A   1      36.457  32.300  29.884  1.00  0.00    -0.014 A 
BRANCH  30  31
ATOM     31  C   UNL A   1      37.556  31.528  30.510  1.00  0.00     0.031 A 
ATOM     32  C   UNL A   1      37.851  31.690  31.974  1.00  0.00     0.074 A 
ATOM     33  C   UNL A   1      38.271  30.663  29.766  1.00  0.00     0.049 A 
ATOM     34  N   UNL A   1      38.853  31.220  32.671  1.00  0.00    -0.248 NA
ATOM     35  C   UNL A   1      36.901  32.498  32.755  1.00  0.00     0.031 C 
ATOM     36  C   UNL A   1      38.050  30.385  28.346  1.00  0.00     0.029 A 
ATOM     37  N   UNL A   1      39.321  29.851  30.105  1.00  0.00    -0.354 N 
ATOM     38  C   UNL A   1      38.688  31.722  33.955  1.00  0.00     0.074 A 
ATOM     39  C   UNL A   1      37.481  32.522  33.946  1.00  0.00     0.031 C 
ATOM     40  C   UNL A   1      38.907  29.432  27.947  1.00  0.00     0.029 A 
ATOM     41  C   UNL A   1      39.783  29.089  29.061  1.00  0.00     0.049 A 
ATOM     42  H   UNL A   1      39.707  29.816  31.011  1.00  0.00     0.167 HD
ATOM     43  C   UNL A   1      39.480  31.541  35.038  1.00  0.00     0.037 A 
ATOM     44  C   UNL A   1      40.816  28.228  29.002  1.00  0.00     0.037 A 
ATOM     45  C   UNL A   1      40.654  30.707  35.050  1.00  0.00     0.049 A 
ATOM     46  C   UNL A   1      41.666  28.026  30.222  1.00  0.00     0.074 A 
ATOM     47  C   UNL A   1      41.543  30.475  36.085  1.00  0.00     0.029 A 
ATOM     48  N   UNL A   1      41.087  29.948  33.972  1.00  0.00    -0.354 N 
ATOM     49  N   UNL A   1      41.546  28.570  31.409  1.00  0.00    -0.248 NA
ATOM     50  C   UNL A   1      42.804  27.109  30.089  1.00  0.00     0.031 C 
ATOM     51  C   UNL A   1      42.521  29.583  35.629  1.00  0.00     0.029 A 
ATOM     52  C   UNL A   1      42.225  29.241  34.319  1.00  0.00     0.049 A 
ATOM     53  H   UNL A   1      40.648  29.917  33.092  1.00  0.00     0.167 HD
ATOM     54  C   UNL A   1      42.590  28.059  32.166  1.00  0.00     0.074 A 
ATOM     55  C   UNL A   1      43.319  27.144  31.310  1.00  0.00     0.031 C 
ATOM     56  C   UNL A   1      42.925  28.333  33.449  1.00  0.00     0.037 A 
BRANCH  43  57
ATOM     57  C   UNL A   1      39.124  32.294  36.283  1.00  0.00     0.057 A 
ATOM     58  C   UNL A   1      39.659  33.554  36.571  1.00  0.00     0.134 A 
ATOM     59  C   UNL A   1      38.221  31.747  37.206  1.00  0.00     0.134 A 
ATOM     60  F   UNL A   1      40.542  34.123  35.738  1.00  0.00    -0.206 F 
ATOM     61  C   UNL A   1      39.324  34.238  37.742  1.00  0.00     0.040 A 
ATOM     62  C   UNL A   1      37.865  32.428  38.370  1.00  0.00     0.040 A 
ATOM     63  F   UNL A   1      37.672  30.542  36.989  1.00  0.00    -0.206 F 
ATOM     64  C   UNL A   1      38.421  33.676  38.644  1.00  0.00     0.006 A 
ENDBRANCH  43  57
BRANCH  44  65
ATOM     65  C   UNL A   1      41.104  27.509  27.738  1.00  0.00     0.057 A 
ATOM     66  C   UNL A   1      41.935  28.073  26.765  1.00  0.00     0.134 A 
ATOM     67  C   UNL A   1      40.578  26.237  27.482  1.00  0.00     0.134 A 
ATOM     68  F   UNL A   1      42.454  29.297  26.946  1.00  0.00    -0.206 F 
ATOM     69  C   UNL A   1      42.231  27.399  25.579  1.00  0.00     0.040 A 
ATOM     70  C   UNL A   1      40.883  25.543  26.312  1.00  0.00     0.040 A 
ATOM     71  F   UNL A   1      39.779  25.643  28.380  1.00  0.00    -0.206 F 
ATOM     72  C   UNL A   1      41.710  26.127  25.354  1.00  0.00     0.006 A 
ENDBRANCH  44  65
BRANCH  56  73
ATOM     73  C   UNL A   1      44.117  27.612  34.000  1.00  0.00     0.057 A 
ATOM     74  C   UNL A   1      45.401  28.165  33.931  1.00  0.00     0.134 A 
ATOM     75  C   UNL A   1      43.974  26.363  34.614  1.00  0.00     0.134 A 
ATOM     76  F   UNL A   1      45.599  29.354  33.340  1.00  0.00    -0.206 F 
ATOM     77  C   UNL A   1      46.509  27.488  34.439  1.00  0.00     0.040 A 
ATOM     78  C   UNL A   1      45.073  25.684  35.139  1.00  0.00     0.040 A 
ATOM     79  F   UNL A   1      42.767  25.785  34.710  1.00  0.00    -0.206 F 
ATOM     80  C   UNL A   1      46.347  26.245  35.049  1.00  0.00     0.006 A 
ENDBRANCH  56  73
ENDBRANCH  30  31
ENDBRANCH  23  25
ENDBRANCH  22  23
ENDBRANCH  21  22
ENDBRANCH   1  21
TORSDOF 15
ENDMDL
MODEL 2
REMARK VINA RESULT:     -10.5      1.409      6.655
REMARK SMILES CCC(CC)(NC(=O)c1cncc(Br)c1)C(=O)OCCOC(=O)c1ccc(-c2c3nc(c(-c4c(F)cccc4F)c4ccc([nH]4)c(-c4c(F)cccc4F)c4nc(c(-c5c(F)cccc5F)c5ccc2[nH]5)C=C4)C=C3)cc1
REMARK SMILES IDX 19 1 18 2 16 3 17 4 3 5 2 6 1 7 4 8 5 9 6 10 7 11 8 13 9 14
REMARK SMILES IDX 10 15 15 16 11 17 13 18 12 19 14 20 20 21 21 22 22 23 23 24
REMARK SMILES IDX 24 25 25 26 77 27 26 28 76 29 27 30 28 31 29 32 70 33 30 34
REMARK SMILES IDX 75 35 69 36 71 37 31 38 74 39 68 40 67 41 32 43 58 44 41 45
REMARK SMILES IDX 57 46 42 47 45 48 56 49 72 50 43 51 44 52 55 54 73 55 46 56
REMARK SMILES IDX 33 57 34 58 39 59 35 60 36 61 38 62 40 63 37 64 59 65 60 66
REMARK SMILES IDX 65 67 61 68 62 69 64 70 66 71 63 72 47 73 48 74 53 75 49 76
REMARK SMILES IDX 50 77 52 78 54 79 51 80
REMARK H PARENT 6 12 71 42 45 53
REMARK Flexibility Score: inf
ROOT
ATOM      1  C   UNL A   1      31.049  29.696  24.775  1.00  0.00     0.274 C 
ENDROOT
BRANCH   1   2
ATOM      2  O   UNL A   1      31.268  28.680  23.768  1.00  0.00    -0.460 OA
BRANCH   2   3
ATOM      3  C   UNL A   1      30.960  27.410  24.119  1.00  0.00     0.331 C 
ATOM      4  O   UNL A   1      29.809  27.044  24.342  1.00  0.00    -0.249 OA
BRANCH   3   5
ATOM      5  C   UNL A   1      32.198  26.489  24.368  1.00  0.00     0.137 C 
BRANCH   5   6
ATOM      6  C   UNL A   1      32.668  26.712  25.853  1.00  0.00     0.037 C 
ATOM      7  C   UNL A   1      34.093  27.178  26.120  1.00  0.00     0.007 C 
ENDBRANCH   5   6
BRANCH   5   8
ATOM      8  C   UNL A   1      33.262  26.970  23.339  1.00  0.00     0.037 C 
ATOM      9  C   UNL A   1      33.106  26.437  21.919  1.00  0.00     0.007 C 
ENDBRANCH   5   8
BRANCH   5  10
ATOM     10  N   UNL A   1      32.088  24.990  24.286  1.00  0.00    -0.336 N 
ATOM     11  C   UNL A   1      32.834  23.889  24.580  1.00  0.00     0.253 C 
ATOM     12  H   UNL A   1      31.219  24.727  23.908  1.00  0.00     0.165 HD
ATOM     13  O   UNL A   1      32.242  22.866  24.924  1.00  0.00    -0.269 OA
BRANCH  11  14
ATOM     14  C   UNL A   1      34.265  23.773  24.327  1.00  0.00     0.059 A 
ATOM     15  C   UNL A   1      34.652  23.283  23.081  1.00  0.00     0.124 A 
ATOM     16  C   UNL A   1      35.229  23.925  25.316  1.00  0.00     0.032 A 
ATOM     17  N   UNL A   1      35.932  22.980  22.752  1.00  0.00    -0.263 NA
ATOM     18  C   UNL A   1      36.555  23.636  24.991  1.00  0.00     0.037 A 
ATOM     19  C   UNL A   1      36.858  23.169  23.717  1.00  0.00     0.126 A 
ATOM     20  Br  UNL A   1      37.926  23.879  26.262  1.00  0.00    -0.049 Br
ENDBRANCH  11  14
ENDBRANCH   5  10
ENDBRANCH   3   5
ENDBRANCH   2   3
ENDBRANCH   1   2
BRANCH   1  21
ATOM     21  C   UNL A   1      32.376  30.159  25.363  1.00  0.00     0.275 C 
BRANCH  21  22
ATOM     22  O   UNL A   1      32.175  30.492  26.745  1.00  0.00    -0.458 OA
BRANCH  22  23
ATOM     23  C   UNL A   1      32.741  31.653  27.135  1.00  0.00     0.338 C 
ATOM     24  O   UNL A   1      32.248  32.763  27.184  1.00  0.00    -0.246 OA
BRANCH  23  25
ATOM     25  C   UNL A   1      34.084  31.373  27.640  1.00  0.00     0.060 A 
ATOM     26  C   UNL A   1      34.405  30.051  27.941  1.00  0.00     0.016 A 
ATOM     27  C   UNL A   1      34.952  32.415  27.949  1.00  0.00     0.016 A 
ATOM     28  C   UNL A   1      35.576  29.766  28.630  1.00  0.00     0.010 A 
ATOM     29  C   UNL A   1      36.166  32.119  28.573  1.00  0.00     0.010 A 
ATOM     30  C   UNL A   1      36.471  30.798  28.946  1.00  0.00    -0.014 A 
BRANCH  30  31
ATOM     31  C   UNL A   1      37.711  30.496  29.701  1.00  0.00     0.031 A 
ATOM     32  C   UNL A   1      38.815  29.713  29.051  1.00  0.00     0.074 A 
ATOM     33  C   UNL A   1      37.849  30.947  30.962  1.00  0.00     0.049 A 
ATOM     34  N   UNL A   1      39.905  29.225  29.584  1.00  0.00    -0.248 NA
ATOM     35  C   UNL A   1      38.670  29.431  27.614  1.00  0.00     0.031 C 
ATOM     36  C   UNL A   1      36.866  31.756  31.684  1.00  0.00     0.029 A 
ATOM     37  N   UNL A   1      38.879  30.799  31.853  1.00  0.00    -0.354 N 
ATOM     38  C   UNL A   1      40.545  28.529  28.567  1.00  0.00     0.074 A 
ATOM     39  C   UNL A   1      39.730  28.670  27.379  1.00  0.00     0.031 C 
ATOM     40  C   UNL A   1      37.360  32.072  32.891  1.00  0.00     0.029 A 
ATOM     41  C   UNL A   1      38.658  31.427  33.054  1.00  0.00     0.049 A 
ATOM     42  H   UNL A   1      39.700  30.292  31.652  1.00  0.00     0.167 HD
ATOM     43  C   UNL A   1      41.701  27.827  28.626  1.00  0.00     0.037 A 
ATOM     44  C   UNL A   1      39.407  31.458  34.171  1.00  0.00     0.037 A 
ATOM     45  C   UNL A   1      42.529  27.730  29.800  1.00  0.00     0.049 A 
ATOM     46  C   UNL A   1      40.696  30.691  34.204  1.00  0.00     0.074 A 
ATOM     47  C   UNL A   1      43.706  27.023  29.975  1.00  0.00     0.029 A 
ATOM     48  N   UNL A   1      42.272  28.384  30.996  1.00  0.00    -0.354 N 
ATOM     49  N   UNL A   1      41.251  29.970  33.259  1.00  0.00    -0.248 NA
ATOM     50  C   UNL A   1      41.453  30.724  35.462  1.00  0.00     0.031 C 
ATOM     51  C   UNL A   1      44.155  27.241  31.283  1.00  0.00     0.029 A 
ATOM     52  C   UNL A   1      43.271  28.104  31.912  1.00  0.00     0.049 A 
ATOM     53  H   UNL A   1      41.495  28.962  31.167  1.00  0.00     0.167 HD
ATOM     54  C   UNL A   1      42.422  29.466  33.806  1.00  0.00     0.074 A 
ATOM     55  C   UNL A   1      42.509  29.984  35.158  1.00  0.00     0.031 C 
ATOM     56  C   UNL A   1      43.336  28.639  33.247  1.00  0.00     0.037 A 
BRANCH  43  57
ATOM     57  C   UNL A   1      42.111  27.075  27.396  1.00  0.00     0.057 A 
ATOM     58  C   UNL A   1      41.731  25.747  27.174  1.00  0.00     0.134 A 
ATOM     59  C   UNL A   1      42.893  27.699  26.415  1.00  0.00     0.134 A 
ATOM     60  F   UNL A   1      40.999  25.089  28.083  1.00  0.00    -0.206 F 
ATOM     61  C   UNL A   1      42.132  25.057  26.027  1.00  0.00     0.040 A 
ATOM     62  C   UNL A   1      43.284  27.026  25.256  1.00  0.00     0.040 A 
ATOM     63  F   UNL A   1      43.290  28.972  26.568  1.00  0.00    -0.206 F 
ATOM     64  C   UNL A   1      42.907  25.700  25.062  1.00  0.00     0.006 A 
ENDBRANCH  43  57
BRANCH  44  65
ATOM     65  C   UNL A   1      38.944  32.232  35.348  1.00  0.00     0.057 A 
ATOM     66  C   UNL A   1      38.225  31.614  36.376  1.00  0.00     0.134 A 
ATOM     67  C   UNL A   1      39.228  33.596  35.485  1.00  0.00     0.134 A 
ATOM     68  F   UNL A   1      37.908  30.313  36.291  1.00  0.00    -0.206 F 
ATOM     69  C   UNL A   1      37.800  32.325  37.498  1.00  0.00     0.040 A 
ATOM     70  C   UNL A   1      38.829  34.314  36.612  1.00  0.00     0.040 A 
ATOM     71  F   UNL A   1      39.919  34.242  34.535  1.00  0.00    -0.206 F 
ATOM     72  C   UNL A   1      38.108  33.678  37.622  1.00  0.00     0.006 A 
ENDBRANCH  44  65
BRANCH  56  73
ATOM     73  C   UNL A   1      44.514  28.269  34.094  1.00  0.00     0.057 A 
ATOM     74  C   UNL A   1      45.678  29.045  34.106  1.00  0.00     0.134 A 
ATOM     75  C   UNL A   1      44.476  27.133  34.911  1.00  0.00     0.134 A 
ATOM     76  F   UNL A   1      45.777  30.137  33.332  1.00  0.00    -0.206 F 
ATOM     77  C   UNL A   1      46.776  28.694  34.892  1.00  0.00     0.040 A 
ATOM     78  C   UNL A   1      45.562  26.780  35.712  1.00  0.00     0.040 A 
ATOM     79  F   UNL A   1      43.386  26.352  34.941  1.00  0.00    -0.206 F 
ATOM     80  C   UNL A   1      46.719  27.559  35.700  1.00  0.00     0.006 A 
ENDBRANCH  56  73
ENDBRANCH  30  31
ENDBRANCH  23  25
ENDBRANCH  22  23
ENDBRANCH  21  22
ENDBRANCH   1  21
TORSDOF 15
ENDMDL
MODEL 3
REMARK VINA RESULT:     -10.4      4.668      8.723
REMARK SMILES CCC(CC)(NC(=O)c1cncc(Br)c1)C(=O)OCCOC(=O)c1ccc(-c2c3nc(c(-c4c(F)cccc4F)c4ccc([nH]4)c(-c4c(F)cccc4F)c4nc(c(-c5c(F)cccc5F)c5ccc2[nH]5)C=C4)C=C3)cc1
REMARK SMILES IDX 19 1 18 2 16 3 17 4 3 5 2 6 1 7 4 8 5 9 6 10 7 11 8 13 9 14
REMARK SMILES IDX 10 15 15 16 11 17 13 18 12 19 14 20 20 21 21 22 22 23 23 24
REMARK SMILES IDX 24 25 25 26 77 27 26 28 76 29 27 30 28 31 29 32 70 33 30 34
REMARK SMILES IDX 75 35 69 36 71 37 31 38 74 39 68 40 67 41 32 43 58 44 41 45
REMARK SMILES IDX 57 46 42 47 45 48 56 49 72 50 43 51 44 52 55 54 73 55 46 56
REMARK SMILES IDX 33 57 34 58 39 59 35 60 36 61 38 62 40 63 37 64 59 65 60 66
REMARK SMILES IDX 65 67 61 68 62 69 64 70 66 71 63 72 47 73 48 74 53 75 49 76
REMARK SMILES IDX 50 77 52 78 54 79 51 80
REMARK H PARENT 6 12 71 42 45 53
REMARK Flexibility Score: inf
ROOT
ATOM      1  C   UNL A   1      37.731  20.493  25.090  1.00  0.00     0.274 C 
ENDROOT
BRANCH   1   2
ATOM      2  O   UNL A   1      36.660  21.029  25.903  1.00  0.00    -0.460 OA
BRANCH   2   3
ATOM      3  C   UNL A   1      35.436  21.073  25.331  1.00  0.00     0.331 C 
ATOM      4  O   UNL A   1      34.923  20.100  24.785  1.00  0.00    -0.249 OA
BRANCH   3   5
ATOM      5  C   UNL A   1      34.794  22.498  25.283  1.00  0.00     0.137 C 
BRANCH   5   6
ATOM      6  C   UNL A   1      35.773  23.437  24.488  1.00  0.00     0.037 C 
ATOM      7  C   UNL A   1      36.201  23.046  23.079  1.00  0.00     0.007 C 
ENDBRANCH   5   6
BRANCH   5   8
ATOM      8  C   UNL A   1      34.661  22.920  26.776  1.00  0.00     0.037 C 
ATOM      9  C   UNL A   1      33.738  22.060  27.633  1.00  0.00     0.007 C 
ENDBRANCH   5   8
BRANCH   5  10
ATOM     10  N   UNL A   1      33.480  22.742  24.591  1.00  0.00    -0.336 N 
ATOM     11  C   UNL A   1      32.676  23.788  24.256  1.00  0.00     0.253 C 
ATOM     12  H   UNL A   1      33.083  21.892  24.292  1.00  0.00     0.165 HD
ATOM     13  O   UNL A   1      32.004  23.694  23.228  1.00  0.00    -0.269 OA
BRANCH  11  14
ATOM     14  C   UNL A   1      32.401  24.927  25.124  1.00  0.00     0.059 A 
ATOM     15  C   UNL A   1      31.191  24.922  25.816  1.00  0.00     0.124 A 
ATOM     16  C   UNL A   1      33.173  26.083  25.133  1.00  0.00     0.032 A 
ATOM     17  N   UNL A   1      30.730  25.971  26.541  1.00  0.00    -0.263 NA
ATOM     18  C   UNL A   1      32.725  27.166  25.889  1.00  0.00     0.037 A 
ATOM     19  C   UNL A   1      31.514  27.071  26.564  1.00  0.00     0.126 A 
ATOM     20  Br  UNL A   1      33.750  28.745  25.999  1.00  0.00    -0.049 Br
ENDBRANCH  11  14
ENDBRANCH   5  10
ENDBRANCH   3   5
ENDBRANCH   2   3
ENDBRANCH   1   2
BRANCH   1  21
ATOM     21  C   UNL A   1      39.075  21.043  25.548  1.00  0.00     0.275 C 
BRANCH  21  22
ATOM     22  O   UNL A   1      39.793  19.999  26.224  1.00  0.00    -0.458 OA
BRANCH  22  23
ATOM     23  C   UNL A   1      41.119  19.971  25.974  1.00  0.00     0.338 C 
ATOM     24  O   UNL A   1      41.754  19.172  25.312  1.00  0.00    -0.246 OA
BRANCH  23  25
ATOM     25  C   UNL A   1      41.728  21.174  26.540  1.00  0.00     0.060 A 
ATOM     26  C   UNL A   1      41.681  21.341  27.922  1.00  0.00     0.016 A 
ATOM     27  C   UNL A   1      42.198  22.184  25.707  1.00  0.00     0.016 A 
ATOM     28  C   UNL A   1      42.038  22.559  28.482  1.00  0.00     0.010 A 
ATOM     29  C   UNL A   1      42.631  23.382  26.277  1.00  0.00     0.010 A 
ATOM     30  C   UNL A   1      42.523  23.589  27.665  1.00  0.00    -0.014 A 
BRANCH  30  31
ATOM     31  C   UNL A   1      42.884  24.898  28.261  1.00  0.00     0.031 A 
ATOM     32  C   UNL A   1      41.815  25.913  28.550  1.00  0.00     0.074 A 
ATOM     33  C   UNL A   1      44.169  25.162  28.562  1.00  0.00     0.049 A 
ATOM     34  N   UNL A   1      41.940  27.158  28.930  1.00  0.00    -0.248 NA
ATOM     35  C   UNL A   1      40.421  25.473  28.379  1.00  0.00     0.031 C 
ATOM     36  C   UNL A   1      45.290  24.239  28.370  1.00  0.00     0.029 A 
ATOM     37  N   UNL A   1      44.746  26.279  29.106  1.00  0.00    -0.354 N 
ATOM     38  C   UNL A   1      40.650  27.668  28.985  1.00  0.00     0.074 A 
ATOM     39  C   UNL A   1      39.753  26.594  28.615  1.00  0.00     0.031 C 
ATOM     40  C   UNL A   1      46.412  24.811  28.832  1.00  0.00     0.029 A 
ATOM     41  C   UNL A   1      46.103  26.163  29.282  1.00  0.00     0.049 A 
ATOM     42  H   UNL A   1      44.237  27.087  29.348  1.00  0.00     0.167 HD
ATOM     43  C   UNL A   1      40.254  28.923  29.304  1.00  0.00     0.037 A 
ATOM     44  C   UNL A   1      47.002  27.058  29.733  1.00  0.00     0.037 A 
ATOM     45  C   UNL A   1      41.149  29.973  29.715  1.00  0.00     0.049 A 
ATOM     46  C   UNL A   1      46.535  28.435  30.102  1.00  0.00     0.074 A 
ATOM     47  C   UNL A   1      40.856  31.287  30.035  1.00  0.00     0.029 A 
ATOM     48  N   UNL A   1      42.516  29.815  29.885  1.00  0.00    -0.354 N 
ATOM     49  N   UNL A   1      45.321  28.929  30.073  1.00  0.00    -0.248 NA
ATOM     50  C   UNL A   1      47.564  29.384  30.547  1.00  0.00     0.031 C 
ATOM     51  C   UNL A   1      42.050  31.927  30.388  1.00  0.00     0.029 A 
ATOM     52  C   UNL A   1      43.081  31.004  30.313  1.00  0.00     0.049 A 
ATOM     53  H   UNL A   1      43.012  28.979  29.727  1.00  0.00     0.167 HD
ATOM     54  C   UNL A   1      45.437  30.245  30.498  1.00  0.00     0.074 A 
ATOM     55  C   UNL A   1      46.838  30.464  30.801  1.00  0.00     0.031 C 
ATOM     56  C   UNL A   1      44.476  31.191  30.613  1.00  0.00     0.037 A 
BRANCH  43  57
ATOM     57  C   UNL A   1      38.794  29.235  29.176  1.00  0.00     0.057 A 
ATOM     58  C   UNL A   1      37.922  29.179  30.269  1.00  0.00     0.134 A 
ATOM     59  C   UNL A   1      38.256  29.606  27.937  1.00  0.00     0.134 A 
ATOM     60  F   UNL A   1      38.371  28.812  31.478  1.00  0.00    -0.206 F 
ATOM     61  C   UNL A   1      36.561  29.462  30.131  1.00  0.00     0.040 A 
ATOM     62  C   UNL A   1      36.902  29.909  27.790  1.00  0.00     0.040 A 
ATOM     63  F   UNL A   1      39.039  29.679  26.849  1.00  0.00    -0.206 F 
ATOM     64  C   UNL A   1      36.049  29.833  28.888  1.00  0.00     0.006 A 
ENDBRANCH  43  57
BRANCH  44  65
ATOM     65  C   UNL A   1      48.430  26.676  29.843  1.00  0.00     0.057 A 
ATOM     66  C   UNL A   1      48.910  26.012  30.976  1.00  0.00     0.134 A 
ATOM     67  C   UNL A   1      49.341  26.942  28.813  1.00  0.00     0.134 A 
ATOM     68  F   UNL A   1      48.088  25.746  32.002  1.00  0.00    -0.206 F 
ATOM     69  C   UNL A   1      50.247  25.629  31.085  1.00  0.00     0.040 A 
ATOM     70  C   UNL A   1      50.675  26.546  28.899  1.00  0.00     0.040 A 
ATOM     71  F   UNL A   1      48.938  27.571  27.699  1.00  0.00    -0.206 F 
ATOM     72  C   UNL A   1      51.133  25.890  30.040  1.00  0.00     0.006 A 
ENDBRANCH  44  65
BRANCH  56  73
ATOM     73  C   UNL A   1      44.912  32.535  31.110  1.00  0.00     0.057 A 
ATOM     74  C   UNL A   1      44.930  32.839  32.475  1.00  0.00     0.134 A 
ATOM     75  C   UNL A   1      45.330  33.525  30.213  1.00  0.00     0.134 A 
ATOM     76  F   UNL A   1      44.526  31.933  33.380  1.00  0.00    -0.206 F 
ATOM     77  C   UNL A   1      45.330  34.094  32.934  1.00  0.00     0.040 A 
ATOM     78  C   UNL A   1      45.747  34.778  30.661  1.00  0.00     0.040 A 
ATOM     79  F   UNL A   1      45.335  33.289  28.893  1.00  0.00    -0.206 F 
ATOM     80  C   UNL A   1      45.743  35.067  32.025  1.00  0.00     0.006 A 
ENDBRANCH  56  73
ENDBRANCH  30  31
ENDBRANCH  23  25
ENDBRANCH  22  23
ENDBRANCH  21  22
ENDBRANCH   1  21
TORSDOF 15
ENDMDL
