MODEL 1
REMARK VINA RESULT:     -10.5      0.000      0.000
REMARK SMILES C[C@H]([NH2+][C@@H]1CCOC2(CCC2)C1)C(=O)OCCOC(=O)c1ccc(-c2c3nc(c(-c4c(F)cccc4F)c4ccc([nH]4)c(-c4c(F)cccc4F)c4nc(c(-c5c(F)cccc5F)c5ccc2[nH]5)C=C4)C=C3)cc1
REMARK SMILES IDX 16 1 15 2 13 3 14 4 2 5 1 6 3 7 4 10 5 11 12 12 6 13 8 14
REMARK SMILES IDX 7 15 9 16 11 17 10 18 17 19 18 20 19 21 20 22 21 23 22 24
REMARK SMILES IDX 74 25 23 26 73 27 24 28 25 29 26 30 67 31 27 32 72 33 66 34
REMARK SMILES IDX 68 35 28 36 71 37 65 38 64 39 29 41 55 42 38 43 54 44 39 45
REMARK SMILES IDX 42 46 53 47 69 48 40 49 41 50 52 52 70 53 43 54 30 55 31 56
REMARK SMILES IDX 36 57 32 58 33 59 35 60 37 61 34 62 56 63 57 64 62 65 58 66
REMARK SMILES IDX 59 67 61 68 63 69 60 70 44 71 45 72 50 73 46 74 47 75 49 76
REMARK SMILES IDX 51 77 48 78
REMARK H PARENT 3 8 3 9 68 40 42 51
REMARK Flexibility Score: inf
ROOT
ATOM      1  C   UNL A   1      34.813  32.456  28.001  1.00  0.00     0.274 C 
ENDROOT
BRANCH   1   2
ATOM      2  O   UNL A   1      34.590  33.876  27.950  1.00  0.00    -0.458 OA
BRANCH   2   3
ATOM      3  C   UNL A   1      33.306  34.288  28.158  1.00  0.00     0.364 C 
ATOM      4  O   UNL A   1      32.318  33.796  27.626  1.00  0.00    -0.245 OA
BRANCH   3   5
ATOM      5  C   UNL A   1      33.232  35.512  29.085  1.00  0.00     0.290 C 
ATOM      6  C   UNL A   1      34.028  36.606  28.376  1.00  0.00     0.088 C 
BRANCH   5   7
ATOM      7  N   UNL A   1      33.798  35.245  30.419  1.00  0.00    -0.332 N 
ATOM      8  H   UNL A   1      34.601  35.864  30.531  1.00  0.00     0.347 HD
ATOM      9  H   UNL A   1      33.988  34.242  30.406  1.00  0.00     0.347 HD
BRANCH   7  10
ATOM     10  C   UNL A   1      32.949  35.422  31.611  1.00  0.00     0.188 C 
ATOM     11  C   UNL A   1      32.763  36.823  32.209  1.00  0.00     0.093 C 
ATOM     12  C   UNL A   1      33.493  34.530  32.743  1.00  0.00     0.100 C 
ATOM     13  C   UNL A   1      34.028  37.387  32.834  1.00  0.00     0.167 C 
ATOM     14  C   UNL A   1      34.845  35.066  33.222  1.00  0.00     0.074 C 
ATOM     15  O   UNL A   1      34.732  36.453  33.643  1.00  0.00    -0.375 OA
ATOM     16  C   UNL A   1      35.517  34.189  34.328  1.00  0.00     0.036 C 
ATOM     17  C   UNL A   1      36.052  34.657  32.318  1.00  0.00     0.036 C 
ATOM     18  C   UNL A   1      36.855  34.364  33.589  1.00  0.00     0.006 C 
ENDBRANCH   7  10
ENDBRANCH   5   7
ENDBRANCH   3   5
ENDBRANCH   2   3
ENDBRANCH   1   2
BRANCH   1  19
ATOM     19  C   UNL A   1      34.897  31.936  29.439  1.00  0.00     0.275 C 
BRANCH  19  20
ATOM     20  O   UNL A   1      36.249  31.909  29.930  1.00  0.00    -0.458 OA
BRANCH  20  21
ATOM     21  C   UNL A   1      36.582  30.780  30.601  1.00  0.00     0.338 C 
ATOM     22  O   UNL A   1      35.903  30.185  31.423  1.00  0.00    -0.246 OA
BRANCH  21  23
ATOM     23  C   UNL A   1      37.843  30.229  30.074  1.00  0.00     0.060 A 
ATOM     24  C   UNL A   1      38.804  29.834  31.008  1.00  0.00     0.016 A 
ATOM     25  C   UNL A   1      38.114  30.151  28.707  1.00  0.00     0.016 A 
ATOM     26  C   UNL A   1      40.047  29.377  30.588  1.00  0.00     0.010 A 
ATOM     27  C   UNL A   1      39.368  29.689  28.282  1.00  0.00     0.010 A 
ATOM     28  C   UNL A   1      40.344  29.312  29.222  1.00  0.00    -0.014 A 
BRANCH  28  29
ATOM     29  C   UNL A   1      41.702  28.895  28.805  1.00  0.00     0.031 A 
ATOM     30  C   UNL A   1      41.956  27.473  28.395  1.00  0.00     0.074 A 
ATOM     31  C   UNL A   1      42.688  29.807  28.730  1.00  0.00     0.049 A 
ATOM     32  N   UNL A   1      43.070  26.914  27.997  1.00  0.00    -0.248 NA
ATOM     33  C   UNL A   1      40.802  26.560  28.433  1.00  0.00     0.031 C 
ATOM     34  C   UNL A   1      42.553  31.225  29.064  1.00  0.00     0.029 A 
ATOM     35  N   UNL A   1      43.997  29.677  28.339  1.00  0.00    -0.354 N 
ATOM     36  C   UNL A   1      42.755  25.586  27.738  1.00  0.00     0.074 A 
ATOM     37  C   UNL A   1      41.351  25.416  28.050  1.00  0.00     0.031 C 
ATOM     38  C   UNL A   1      43.733  31.836  28.862  1.00  0.00     0.029 A 
ATOM     39  C   UNL A   1      44.711  30.847  28.417  1.00  0.00     0.049 A 
ATOM     40  H   UNL A   1      44.386  28.827  28.034  1.00  0.00     0.167 HD
ATOM     41  C   UNL A   1      43.562  24.602  27.275  1.00  0.00     0.037 A 
ATOM     42  C   UNL A   1      46.013  31.088  28.173  1.00  0.00     0.037 A 
ATOM     43  C   UNL A   1      44.957  24.771  26.964  1.00  0.00     0.049 A 
ATOM     44  C   UNL A   1      46.898  29.963  27.711  1.00  0.00     0.074 A 
ATOM     45  C   UNL A   1      45.858  23.828  26.498  1.00  0.00     0.029 A 
ATOM     46  N   UNL A   1      45.655  25.963  27.086  1.00  0.00    -0.354 N 
ATOM     47  N   UNL A   1      46.589  28.711  27.474  1.00  0.00    -0.248 NA
ATOM     48  C   UNL A   1      48.313  30.287  27.480  1.00  0.00     0.031 C 
ATOM     49  C   UNL A   1      47.110  24.443  26.369  1.00  0.00     0.029 A 
ATOM     50  C   UNL A   1      46.977  25.778  26.717  1.00  0.00     0.049 A 
ATOM     51  H   UNL A   1      45.268  26.816  27.389  1.00  0.00     0.167 HD
ATOM     52  C   UNL A   1      47.765  28.103  27.054  1.00  0.00     0.074 A 
ATOM     53  C   UNL A   1      48.786  29.129  27.043  1.00  0.00     0.031 C 
ATOM     54  C   UNL A   1      47.981  26.809  26.714  1.00  0.00     0.037 A 
BRANCH  41  55
ATOM     55  C   UNL A   1      42.957  23.243  27.088  1.00  0.00     0.057 A 
ATOM     56  C   UNL A   1      42.677  22.408  28.177  1.00  0.00     0.134 A 
ATOM     57  C   UNL A   1      42.608  22.784  25.812  1.00  0.00     0.134 A 
ATOM     58  F   UNL A   1      43.001  22.783  29.424  1.00  0.00    -0.206 F 
ATOM     59  C   UNL A   1      42.081  21.157  28.001  1.00  0.00     0.040 A 
ATOM     60  C   UNL A   1      41.993  21.545  25.626  1.00  0.00     0.040 A 
ATOM     61  F   UNL A   1      42.847  23.537  24.729  1.00  0.00    -0.206 F 
ATOM     62  C   UNL A   1      41.730  20.727  26.722  1.00  0.00     0.006 A 
ENDBRANCH  41  55
BRANCH  42  63
ATOM     63  C   UNL A   1      46.571  32.447  28.386  1.00  0.00     0.057 A 
ATOM     64  C   UNL A   1      47.060  32.846  29.635  1.00  0.00     0.134 A 
ATOM     65  C   UNL A   1      46.596  33.389  27.350  1.00  0.00     0.134 A 
ATOM     66  F   UNL A   1      47.038  31.996  30.672  1.00  0.00    -0.206 F 
ATOM     67  C   UNL A   1      47.533  34.141  29.854  1.00  0.00     0.040 A 
ATOM     68  C   UNL A   1      47.091  34.679  27.548  1.00  0.00     0.040 A 
ATOM     69  F   UNL A   1      46.141  33.068  26.131  1.00  0.00    -0.206 F 
ATOM     70  C   UNL A   1      47.552  35.060  28.806  1.00  0.00     0.006 A 
ENDBRANCH  42  63
BRANCH  54  71
ATOM     71  C   UNL A   1      49.371  26.444  26.284  1.00  0.00     0.057 A 
ATOM     72  C   UNL A   1      49.827  26.687  24.982  1.00  0.00     0.134 A 
ATOM     73  C   UNL A   1      50.267  25.854  27.185  1.00  0.00     0.134 A 
ATOM     74  F   UNL A   1      49.013  27.238  24.068  1.00  0.00    -0.206 F 
ATOM     75  C   UNL A   1      51.115  26.328  24.582  1.00  0.00     0.040 A 
ATOM     76  C   UNL A   1      51.565  25.513  26.802  1.00  0.00     0.040 A 
ATOM     77  F   UNL A   1      49.896  25.602  28.449  1.00  0.00    -0.206 F 
ATOM     78  C   UNL A   1      51.990  25.743  25.495  1.00  0.00     0.006 A 
ENDBRANCH  54  71
ENDBRANCH  28  29
ENDBRANCH  21  23
ENDBRANCH  20  21
ENDBRANCH  19  20
ENDBRANCH   1  19
TORSDOF 13
ENDMDL
MODEL 2
REMARK VINA RESULT:     -10.5      4.414     11.498
REMARK SMILES C[C@H]([NH2+][C@@H]1CCOC2(CCC2)C1)C(=O)OCCOC(=O)c1ccc(-c2c3nc(c(-c4c(F)cccc4F)c4ccc([nH]4)c(-c4c(F)cccc4F)c4nc(c(-c5c(F)cccc5F)c5ccc2[nH]5)C=C4)C=C3)cc1
REMARK SMILES IDX 16 1 15 2 13 3 14 4 2 5 1 6 3 7 4 10 5 11 12 12 6 13 8 14
REMARK SMILES IDX 7 15 9 16 11 17 10 18 17 19 18 20 19 21 20 22 21 23 22 24
REMARK SMILES IDX 74 25 23 26 73 27 24 28 25 29 26 30 67 31 27 32 72 33 66 34
REMARK SMILES IDX 68 35 28 36 71 37 65 38 64 39 29 41 55 42 38 43 54 44 39 45
REMARK SMILES IDX 42 46 53 47 69 48 40 49 41 50 52 52 70 53 43 54 30 55 31 56
REMARK SMILES IDX 36 57 32 58 33 59 35 60 37 61 34 62 56 63 57 64 62 65 58 66
REMARK SMILES IDX 59 67 61 68 63 69 60 70 44 71 45 72 50 73 46 74 47 75 49 76
REMARK SMILES IDX 51 77 48 78
REMARK H PARENT 3 8 3 9 68 40 42 51
REMARK Flexibility Score: inf
ROOT
ATOM      1  C   UNL A   1      41.651  19.785  26.482  1.00  0.00     0.274 C 
ENDROOT
BRANCH   1   2
ATOM      2  O   UNL A   1      42.375  19.357  25.316  1.00  0.00    -0.458 OA
BRANCH   2   3
ATOM      3  C   UNL A   1      43.736  19.418  25.400  1.00  0.00     0.364 C 
ATOM      4  O   UNL A   1      44.453  18.512  25.811  1.00  0.00    -0.245 OA
BRANCH   3   5
ATOM      5  C   UNL A   1      44.281  20.796  24.994  1.00  0.00     0.290 C 
ATOM      6  C   UNL A   1      45.282  20.523  23.873  1.00  0.00     0.088 C 
BRANCH   5   7
ATOM      7  N   UNL A   1      44.938  21.494  26.114  1.00  0.00    -0.332 N 
ATOM      8  H   UNL A   1      45.779  21.933  25.738  1.00  0.00     0.347 HD
ATOM      9  H   UNL A   1      45.074  20.762  26.810  1.00  0.00     0.347 HD
BRANCH   7  10
ATOM     10  C   UNL A   1      44.199  22.539  26.845  1.00  0.00     0.188 C 
ATOM     11  C   UNL A   1      42.989  23.215  26.189  1.00  0.00     0.093 C 
ATOM     12  C   UNL A   1      45.179  23.665  27.224  1.00  0.00     0.100 C 
ATOM     13  C   UNL A   1      43.355  24.088  25.000  1.00  0.00     0.167 C 
ATOM     14  C   UNL A   1      45.630  24.407  25.963  1.00  0.00     0.074 C 
ATOM     15  O   UNL A   1      44.485  24.920  25.229  1.00  0.00    -0.375 OA
ATOM     16  C   UNL A   1      46.683  25.530  26.233  1.00  0.00     0.036 C 
ATOM     17  C   UNL A   1      46.765  23.686  25.167  1.00  0.00     0.036 C 
ATOM     18  C   UNL A   1      47.452  25.043  24.992  1.00  0.00     0.006 C 
ENDBRANCH   7  10
ENDBRANCH   5   7
ENDBRANCH   3   5
ENDBRANCH   2   3
ENDBRANCH   1   2
BRANCH   1  19
ATOM     19  C   UNL A   1      40.308  20.429  26.125  1.00  0.00     0.275 C 
BRANCH  19  20
ATOM     20  O   UNL A   1      40.004  21.556  26.966  1.00  0.00    -0.458 OA
BRANCH  20  21
ATOM     21  C   UNL A   1      39.183  22.475  26.401  1.00  0.00     0.338 C 
ATOM     22  O   UNL A   1      38.236  22.259  25.662  1.00  0.00    -0.246 OA
BRANCH  21  23
ATOM     23  C   UNL A   1      39.469  23.814  26.945  1.00  0.00     0.060 A 
ATOM     24  C   UNL A   1      39.800  24.815  26.029  1.00  0.00     0.016 A 
ATOM     25  C   UNL A   1      39.477  24.082  28.315  1.00  0.00     0.016 A 
ATOM     26  C   UNL A   1      40.157  26.083  26.470  1.00  0.00     0.010 A 
ATOM     27  C   UNL A   1      39.836  25.361  28.762  1.00  0.00     0.010 A 
ATOM     28  C   UNL A   1      40.190  26.363  27.841  1.00  0.00    -0.014 A 
BRANCH  28  29
ATOM     29  C   UNL A   1      40.649  27.699  28.286  1.00  0.00     0.031 A 
ATOM     30  C   UNL A   1      42.109  28.045  28.236  1.00  0.00     0.074 A 
ATOM     31  C   UNL A   1      39.748  28.622  28.668  1.00  0.00     0.049 A 
ATOM     32  N   UNL A   1      42.707  29.158  28.577  1.00  0.00    -0.248 NA
ATOM     33  C   UNL A   1      43.016  27.002  27.730  1.00  0.00     0.031 C 
ATOM     34  C   UNL A   1      38.300  28.417  28.721  1.00  0.00     0.029 A 
ATOM     35  N   UNL A   1      39.918  29.920  29.077  1.00  0.00    -0.354 N 
ATOM     36  C   UNL A   1      44.058  28.952  28.330  1.00  0.00     0.074 A 
ATOM     37  C   UNL A   1      44.196  27.597  27.835  1.00  0.00     0.031 C 
ATOM     38  C   UNL A   1      37.713  29.551  29.137  1.00  0.00     0.029 A 
ATOM     39  C   UNL A   1      38.744  30.549  29.410  1.00  0.00     0.049 A 
ATOM     40  H   UNL A   1      40.797  30.358  29.128  1.00  0.00     0.167 HD
ATOM     41  C   UNL A   1      45.088  29.816  28.493  1.00  0.00     0.037 A 
ATOM     42  C   UNL A   1      38.528  31.786  29.897  1.00  0.00     0.037 A 
ATOM     43  C   UNL A   1      44.951  31.163  28.983  1.00  0.00     0.049 A 
ATOM     44  C   UNL A   1      39.697  32.706  30.119  1.00  0.00     0.074 A 
ATOM     45  C   UNL A   1      45.939  32.110  29.192  1.00  0.00     0.029 A 
ATOM     46  N   UNL A   1      43.749  31.755  29.341  1.00  0.00    -0.354 N 
ATOM     47  N   UNL A   1      40.970  32.498  29.885  1.00  0.00    -0.248 NA
ATOM     48  C   UNL A   1      39.396  34.035  30.671  1.00  0.00     0.031 C 
ATOM     49  C   UNL A   1      45.339  33.265  29.707  1.00  0.00     0.029 A 
ATOM     50  C   UNL A   1      43.972  33.049  29.781  1.00  0.00     0.049 A 
ATOM     51  H   UNL A   1      42.868  31.319  29.290  1.00  0.00     0.167 HD
ATOM     52  C   UNL A   1      41.619  33.671  30.247  1.00  0.00     0.074 A 
ATOM     53  C   UNL A   1      40.597  34.595  30.691  1.00  0.00     0.031 C 
ATOM     54  C   UNL A   1      42.943  33.955  30.221  1.00  0.00     0.037 A 
BRANCH  41  55
ATOM     55  C   UNL A   1      46.462  29.326  28.150  1.00  0.00     0.057 A 
ATOM     56  C   UNL A   1      47.270  28.681  29.095  1.00  0.00     0.134 A 
ATOM     57  C   UNL A   1      46.966  29.459  26.849  1.00  0.00     0.134 A 
ATOM     58  F   UNL A   1      46.851  28.535  30.361  1.00  0.00    -0.206 F 
ATOM     59  C   UNL A   1      48.535  28.194  28.761  1.00  0.00     0.040 A 
ATOM     60  C   UNL A   1      48.221  28.959  26.499  1.00  0.00     0.040 A 
ATOM     61  F   UNL A   1      46.241  30.065  25.898  1.00  0.00    -0.206 F 
ATOM     62  C   UNL A   1      49.010  28.326  27.457  1.00  0.00     0.006 A 
ENDBRANCH  41  55
BRANCH  42  63
ATOM     63  C   UNL A   1      37.150  32.222  30.236  1.00  0.00     0.057 A 
ATOM     64  C   UNL A   1      36.376  32.955  29.330  1.00  0.00     0.134 A 
ATOM     65  C   UNL A   1      36.591  31.944  31.490  1.00  0.00     0.134 A 
ATOM     66  F   UNL A   1      36.867  33.274  28.124  1.00  0.00    -0.206 F 
ATOM     67  C   UNL A   1      35.101  33.417  29.667  1.00  0.00     0.040 A 
ATOM     68  C   UNL A   1      35.308  32.377  31.829  1.00  0.00     0.040 A 
ATOM     69  F   UNL A   1      37.283  31.246  32.401  1.00  0.00    -0.206 F 
ATOM     70  C   UNL A   1      34.564  33.124  30.919  1.00  0.00     0.006 A 
ENDBRANCH  42  63
BRANCH  54  71
ATOM     71  C   UNL A   1      43.352  35.328  30.667  1.00  0.00     0.057 A 
ATOM     72  C   UNL A   1      43.431  36.400  29.769  1.00  0.00     0.134 A 
ATOM     73  C   UNL A   1      43.657  35.584  32.010  1.00  0.00     0.134 A 
ATOM     74  F   UNL A   1      43.165  36.218  28.467  1.00  0.00    -0.206 F 
ATOM     75  C   UNL A   1      43.830  37.672  30.185  1.00  0.00     0.040 A 
ATOM     76  C   UNL A   1      44.033  36.856  32.442  1.00  0.00     0.040 A 
ATOM     77  F   UNL A   1      43.593  34.602  32.922  1.00  0.00    -0.206 F 
ATOM     78  C   UNL A   1      44.129  37.903  31.527  1.00  0.00     0.006 A 
ENDBRANCH  54  71
ENDBRANCH  28  29
ENDBRANCH  21  23
ENDBRANCH  20  21
ENDBRANCH  19  20
ENDBRANCH   1  19
TORSDOF 13
ENDMDL
MODEL 3
REMARK VINA RESULT:     -10.5      4.997      9.751
REMARK SMILES C[C@H]([NH2+][C@@H]1CCOC2(CCC2)C1)C(=O)OCCOC(=O)c1ccc(-c2c3nc(c(-c4c(F)cccc4F)c4ccc([nH]4)c(-c4c(F)cccc4F)c4nc(c(-c5c(F)cccc5F)c5ccc2[nH]5)C=C4)C=C3)cc1
REMARK SMILES IDX 16 1 15 2 13 3 14 4 2 5 1 6 3 7 4 10 5 11 12 12 6 13 8 14
REMARK SMILES IDX 7 15 9 16 11 17 10 18 17 19 18 20 19 21 20 22 21 23 22 24
REMARK SMILES IDX 74 25 23 26 73 27 24 28 25 29 26 30 67 31 27 32 72 33 66 34
REMARK SMILES IDX 68 35 28 36 71 37 65 38 64 39 29 41 55 42 38 43 54 44 39 45
REMARK SMILES IDX 42 46 53 47 69 48 40 49 41 50 52 52 70 53 43 54 30 55 31 56
REMARK SMILES IDX 36 57 32 58 33 59 35 60 37 61 34 62 56 63 57 64 62 65 58 66
REMARK SMILES IDX 59 67 61 68 63 69 60 70 44 71 45 72 50 73 46 74 47 75 49 76
REMARK SMILES IDX 51 77 48 78
REMARK H PARENT 3 8 3 9 68 40 42 51
REMARK Flexibility Score: inf
ROOT
ATOM      1  C   UNL A   1      31.505  31.808  26.574  1.00  0.00     0.274 C 
ENDROOT
BRANCH   1   2
ATOM      2  O   UNL A   1      32.574  30.876  26.810  1.00  0.00    -0.458 OA
BRANCH   2   3
ATOM      3  C   UNL A   1      32.700  29.865  25.900  1.00  0.00     0.364 C 
ATOM      4  O   UNL A   1      32.274  29.902  24.751  1.00  0.00    -0.245 OA
BRANCH   3   5
ATOM      5  C   UNL A   1      33.371  28.622  26.502  1.00  0.00     0.290 C 
ATOM      6  C   UNL A   1      34.632  29.136  27.195  1.00  0.00     0.088 C 
BRANCH   5   7
ATOM      7  N   UNL A   1      33.717  27.616  25.481  1.00  0.00    -0.332 N 
ATOM      8  H   UNL A   1      34.602  27.907  25.066  1.00  0.00     0.347 HD
ATOM      9  H   UNL A   1      32.902  27.605  24.867  1.00  0.00     0.347 HD
BRANCH   7  10
ATOM     10  C   UNL A   1      33.873  26.206  25.880  1.00  0.00     0.188 C 
ATOM     11  C   UNL A   1      34.445  25.193  24.881  1.00  0.00     0.093 C 
ATOM     12  C   UNL A   1      32.501  25.662  26.321  1.00  0.00     0.100 C 
ATOM     13  C   UNL A   1      33.525  24.920  23.703  1.00  0.00     0.167 C 
ATOM     14  C   UNL A   1      31.571  25.557  25.110  1.00  0.00     0.074 C 
ATOM     15  O   UNL A   1      32.165  24.730  24.072  1.00  0.00    -0.375 OA
ATOM     16  C   UNL A   1      30.126  25.077  25.462  1.00  0.00     0.036 C 
ATOM     17  C   UNL A   1      30.903  26.908  24.697  1.00  0.00     0.036 C 
ATOM     18  C   UNL A   1      29.584  26.154  24.506  1.00  0.00     0.006 C 
ENDBRANCH   7  10
ENDBRANCH   5   7
ENDBRANCH   3   5
ENDBRANCH   2   3
ENDBRANCH   1   2
BRANCH   1  19
ATOM     19  C   UNL A   1      31.954  33.261  26.758  1.00  0.00     0.275 C 
BRANCH  19  20
ATOM     20  O   UNL A   1      32.181  33.589  28.141  1.00  0.00    -0.458 OA
BRANCH  20  21
ATOM     21  C   UNL A   1      33.188  34.471  28.352  1.00  0.00     0.338 C 
ATOM     22  O   UNL A   1      33.112  35.689  28.353  1.00  0.00    -0.246 OA
BRANCH  21  23
ATOM     23  C   UNL A   1      34.407  33.757  28.773  1.00  0.00     0.060 A 
ATOM     24  C   UNL A   1      34.236  32.509  29.377  1.00  0.00     0.016 A 
ATOM     25  C   UNL A   1      35.682  34.308  28.641  1.00  0.00     0.016 A 
ATOM     26  C   UNL A   1      35.331  31.810  29.870  1.00  0.00     0.010 A 
ATOM     27  C   UNL A   1      36.788  33.604  29.137  1.00  0.00     0.010 A 
ATOM     28  C   UNL A   1      36.615  32.358  29.765  1.00  0.00    -0.014 A 
BRANCH  28  29
ATOM     29  C   UNL A   1      37.754  31.627  30.368  1.00  0.00     0.031 A 
ATOM     30  C   UNL A   1      38.113  31.856  31.808  1.00  0.00     0.074 A 
ATOM     31  C   UNL A   1      38.419  30.710  29.642  1.00  0.00     0.049 A 
ATOM     32  N   UNL A   1      39.069  31.313  32.518  1.00  0.00    -0.248 NA
ATOM     33  C   UNL A   1      37.282  32.818  32.549  1.00  0.00     0.031 C 
ATOM     34  C   UNL A   1      38.137  30.372  28.247  1.00  0.00     0.029 A 
ATOM     35  N   UNL A   1      39.464  29.890  29.982  1.00  0.00    -0.354 N 
ATOM     36  C   UNL A   1      38.959  31.867  33.786  1.00  0.00     0.074 A 
ATOM     37  C   UNL A   1      37.859  32.808  33.743  1.00  0.00     0.031 C 
ATOM     38  C   UNL A   1      38.989  29.412  27.849  1.00  0.00     0.029 A 
ATOM     39  C   UNL A   1      39.893  29.092  28.950  1.00  0.00     0.049 A 
ATOM     40  H   UNL A   1      39.868  29.875  30.879  1.00  0.00     0.167 HD
ATOM     41  C   UNL A   1      39.701  31.607  34.888  1.00  0.00     0.037 A 
ATOM     42  C   UNL A   1      40.914  28.215  28.896  1.00  0.00     0.037 A 
ATOM     43  C   UNL A   1      40.794  30.670  34.932  1.00  0.00     0.049 A 
ATOM     44  C   UNL A   1      41.756  27.987  30.121  1.00  0.00     0.074 A 
ATOM     45  C   UNL A   1      41.612  30.348  36.002  1.00  0.00     0.029 A 
ATOM     46  N   UNL A   1      41.221  29.904  33.858  1.00  0.00    -0.354 N 
ATOM     47  N   UNL A   1      41.644  28.519  31.313  1.00  0.00    -0.248 NA
ATOM     48  C   UNL A   1      42.866  27.032  29.991  1.00  0.00     0.031 C 
ATOM     49  C   UNL A   1      42.555  29.410  35.566  1.00  0.00     0.029 A 
ATOM     50  C   UNL A   1      42.298  29.119  34.236  1.00  0.00     0.049 A 
ATOM     51  H   UNL A   1      40.818  29.916  32.960  1.00  0.00     0.167 HD
ATOM     52  C   UNL A   1      42.657  27.955  32.078  1.00  0.00     0.074 A 
ATOM     53  C   UNL A   1      43.356  27.021  31.222  1.00  0.00     0.031 C 
ATOM     54  C   UNL A   1      42.984  28.195  33.371  1.00  0.00     0.037 A 
BRANCH  41  55
ATOM     55  C   UNL A   1      39.366  32.360  36.141  1.00  0.00     0.057 A 
ATOM     56  C   UNL A   1      40.005  33.562  36.469  1.00  0.00     0.134 A 
ATOM     57  C   UNL A   1      38.362  31.902  37.004  1.00  0.00     0.134 A 
ATOM     58  F   UNL A   1      40.985  34.046  35.691  1.00  0.00    -0.206 F 
ATOM     59  C   UNL A   1      39.664  34.278  37.618  1.00  0.00     0.040 A 
ATOM     60  C   UNL A   1      37.999  32.619  38.145  1.00  0.00     0.040 A 
ATOM     61  F   UNL A   1      37.711  30.759  36.745  1.00  0.00    -0.206 F 
ATOM     62  C   UNL A   1      38.652  33.810  38.456  1.00  0.00     0.006 A 
ENDBRANCH  41  55
BRANCH  42  63
ATOM     63  C   UNL A   1      41.217  27.504  27.629  1.00  0.00     0.057 A 
ATOM     64  C   UNL A   1      40.707  26.227  27.371  1.00  0.00     0.134 A 
ATOM     65  C   UNL A   1      42.055  28.073  26.662  1.00  0.00     0.134 A 
ATOM     66  F   UNL A   1      39.920  25.619  28.271  1.00  0.00    -0.206 F 
ATOM     67  C   UNL A   1      41.036  25.531  26.207  1.00  0.00     0.040 A 
ATOM     68  C   UNL A   1      42.371  27.399  25.482  1.00  0.00     0.040 A 
ATOM     69  F   UNL A   1      42.576  29.294  26.851  1.00  0.00    -0.206 F 
ATOM     70  C   UNL A   1      41.868  26.120  25.256  1.00  0.00     0.006 A 
ENDBRANCH  42  63
BRANCH  54  71
ATOM     71  C   UNL A   1      44.135  27.417  33.935  1.00  0.00     0.057 A 
ATOM     72  C   UNL A   1      45.444  27.914  33.907  1.00  0.00     0.134 A 
ATOM     73  C   UNL A   1      43.931  26.162  34.525  1.00  0.00     0.134 A 
ATOM     74  F   UNL A   1      45.708  29.103  33.344  1.00  0.00    -0.206 F 
ATOM     75  C   UNL A   1      46.515  27.177  34.416  1.00  0.00     0.040 A 
ATOM     76  C   UNL A   1      44.990  25.428  35.060  1.00  0.00     0.040 A 
ATOM     77  F   UNL A   1      42.700  25.633  34.592  1.00  0.00    -0.206 F 
ATOM     78  C   UNL A   1      46.288  25.932  34.999  1.00  0.00     0.006 A 
ENDBRANCH  54  71
ENDBRANCH  28  29
ENDBRANCH  21  23
ENDBRANCH  20  21
ENDBRANCH  19  20
ENDBRANCH   1  19
TORSDOF 13
ENDMDL
