MODEL 1
REMARK VINA RESULT:     -11.0      0.000      0.000
REMARK SMILES Cc1nn(C)c(C)c1CNC(=O)NCC(=O)NCC(=O)OCCOC(=O)c1ccc(-c2c3nc(c(-c4c(F)cccc4F)c4ccc([nH]4)c(-c4c(F)cccc4F)c4nc(c(-c5c(F)cccc5F)c5ccc2[nH]5)C=C4)C=C3)cc1
REMARK SMILES IDX 21 1 19 2 20 3 18 4 17 5 15 6 16 7 14 9 13 10 10 11 11 12
REMARK SMILES IDX 12 14 9 16 8 17 1 18 2 19 3 20 4 21 6 22 5 23 7 24 22 25
REMARK SMILES IDX 23 26 24 27 25 28 26 29 27 30 28 31 80 32 29 33 79 34 30 35
REMARK SMILES IDX 31 36 32 37 73 38 33 39 78 40 72 41 74 42 34 43 77 44 71 45
REMARK SMILES IDX 70 46 35 48 61 49 44 50 60 51 45 52 48 53 59 54 75 55 46 56
REMARK SMILES IDX 47 57 58 59 76 60 49 61 36 62 37 63 42 64 38 65 39 66 41 67
REMARK SMILES IDX 43 68 40 69 62 70 63 71 68 72 64 73 65 74 67 75 69 76 66 77
REMARK SMILES IDX 50 78 51 79 56 80 52 81 53 82 55 83 57 84 54 85
REMARK H PARENT 17 8 10 13 13 15 74 47 48 58
REMARK Flexibility Score: inf
ROOT
ATOM      1  O   UNL A   1      41.372  20.828  25.769  1.00  0.00    -0.461 OA
ENDROOT
BRANCH   1   2
ATOM      2  C   UNL A   1      40.569  21.107  26.830  1.00  0.00     0.325 C 
ATOM      3  O   UNL A   1      40.763  20.725  27.980  1.00  0.00    -0.250 OA
BRANCH   2   4
ATOM      4  C   UNL A   1      39.481  22.121  26.486  1.00  0.00     0.238 C 
BRANCH   4   5
ATOM      5  N   UNL A   1      38.567  21.799  25.411  1.00  0.00    -0.344 N 
ATOM      6  C   UNL A   1      37.439  22.462  25.034  1.00  0.00     0.239 C 
ATOM      7  O   UNL A   1      36.928  22.179  23.948  1.00  0.00    -0.273 OA
ATOM      8  H   UNL A   1      38.789  20.998  24.885  1.00  0.00     0.164 HD
BRANCH   6   9
ATOM      9  C   UNL A   1      36.918  23.638  25.868  1.00  0.00     0.217 C 
BRANCH   9  10
ATOM     10  N   UNL A   1      35.656  23.335  26.527  1.00  0.00    -0.329 N 
ATOM     11  N   UNL A   1      33.884  24.188  25.214  1.00  0.00    -0.334 N 
ATOM     12  C   UNL A   1      34.365  23.455  26.215  1.00  0.00     0.315 C 
ATOM     13  H   UNL A   1      32.935  23.995  25.035  1.00  0.00     0.165 HD
ATOM     14  O   UNL A   1      33.560  22.844  26.921  1.00  0.00    -0.249 OA
ATOM     15  H   UNL A   1      35.787  22.948  27.423  1.00  0.00     0.165 HD
BRANCH  11  16
ATOM     16  C   UNL A   1      34.411  25.197  24.323  1.00  0.00     0.157 C 
BRANCH  16  17
ATOM     17  C   UNL A   1      33.423  26.292  24.124  1.00  0.00     0.015 A 
ATOM     18  C   UNL A   1      32.756  25.863  21.615  1.00  0.00     0.069 C 
ATOM     19  C   UNL A   1      32.714  26.574  22.919  1.00  0.00     0.065 A 
ATOM     20  N   UNL A   1      31.914  27.635  23.050  1.00  0.00    -0.178 NA
ATOM     21  N   UNL A   1      32.090  28.035  24.319  1.00  0.00    -0.272 N 
ATOM     22  C   UNL A   1      32.939  27.228  25.033  1.00  0.00     0.040 A 
ATOM     23  C   UNL A   1      31.391  29.219  24.760  1.00  0.00     0.174 C 
ATOM     24  C   UNL A   1      33.221  27.434  26.477  1.00  0.00     0.067 C 
ENDBRANCH  16  17
ENDBRANCH  11  16
ENDBRANCH   9  10
ENDBRANCH   6   9
ENDBRANCH   4   5
ENDBRANCH   2   4
ENDBRANCH   1   2
BRANCH   1  25
ATOM     25  C   UNL A   1      42.759  20.597  26.078  1.00  0.00     0.274 C 
BRANCH  25  26
ATOM     26  C   UNL A   1      43.642  21.661  25.416  1.00  0.00     0.275 C 
BRANCH  26  27
ATOM     27  O   UNL A   1      42.915  22.875  25.130  1.00  0.00    -0.458 OA
BRANCH  27  28
ATOM     28  C   UNL A   1      43.632  24.017  25.220  1.00  0.00     0.338 C 
ATOM     29  O   UNL A   1      44.601  24.343  24.552  1.00  0.00    -0.246 OA
BRANCH  28  30
ATOM     30  C   UNL A   1      43.010  24.931  26.187  1.00  0.00     0.060 A 
ATOM     31  C   UNL A   1      43.494  26.239  26.276  1.00  0.00     0.016 A 
ATOM     32  C   UNL A   1      42.060  24.467  27.097  1.00  0.00     0.016 A 
ATOM     33  C   UNL A   1      43.073  27.073  27.303  1.00  0.00     0.010 A 
ATOM     34  C   UNL A   1      41.603  25.323  28.105  1.00  0.00     0.010 A 
ATOM     35  C   UNL A   1      42.124  26.623  28.228  1.00  0.00    -0.014 A 
BRANCH  35  36
ATOM     36  C   UNL A   1      41.709  27.516  29.336  1.00  0.00     0.031 A 
ATOM     37  C   UNL A   1      42.471  27.517  30.630  1.00  0.00     0.074 A 
ATOM     38  C   UNL A   1      40.672  28.358  29.161  1.00  0.00     0.049 A 
ATOM     39  N   UNL A   1      42.199  28.140  31.748  1.00  0.00    -0.248 NA
ATOM     40  C   UNL A   1      43.701  26.711  30.673  1.00  0.00     0.031 C 
ATOM     41  C   UNL A   1      39.889  28.492  27.931  1.00  0.00     0.029 A 
ATOM     42  N   UNL A   1      40.105  29.267  30.019  1.00  0.00    -0.354 N 
ATOM     43  C   UNL A   1      43.203  27.778  32.637  1.00  0.00     0.074 A 
ATOM     44  C   UNL A   1      44.089  26.877  31.930  1.00  0.00     0.031 C 
ATOM     45  C   UNL A   1      38.952  29.436  28.109  1.00  0.00     0.029 A 
ATOM     46  C   UNL A   1      39.030  29.929  29.480  1.00  0.00     0.049 A 
ATOM     47  H   UNL A   1      40.436  29.428  30.932  1.00  0.00     0.167 HD
ATOM     48  C   UNL A   1      43.367  28.163  33.924  1.00  0.00     0.037 A 
ATOM     49  C   UNL A   1      38.181  30.811  30.040  1.00  0.00     0.037 A 
ATOM     50  C   UNL A   1      42.499  29.080  34.614  1.00  0.00     0.049 A 
ATOM     51  C   UNL A   1      38.364  31.192  31.480  1.00  0.00     0.074 A 
ATOM     52  C   UNL A   1      42.570  29.515  35.926  1.00  0.00     0.029 A 
ATOM     53  N   UNL A   1      41.407  29.714  34.041  1.00  0.00    -0.354 N 
ATOM     54  N   UNL A   1      39.284  30.799  32.327  1.00  0.00    -0.248 NA
ATOM     55  C   UNL A   1      37.383  32.127  32.048  1.00  0.00     0.031 C 
ATOM     56  C   UNL A   1      41.508  30.399  36.152  1.00  0.00     0.029 A 
ATOM     57  C   UNL A   1      40.796  30.535  34.972  1.00  0.00     0.049 A 
ATOM     58  H   UNL A   1      41.113  29.598  33.109  1.00  0.00     0.167 HD
ATOM     59  C   UNL A   1      38.999  31.443  33.523  1.00  0.00     0.074 A 
ATOM     60  C   UNL A   1      37.832  32.268  33.287  1.00  0.00     0.031 C 
ATOM     61  C   UNL A   1      39.640  31.353  34.713  1.00  0.00     0.037 A 
BRANCH  48  62
ATOM     62  C   UNL A   1      44.518  27.573  34.679  1.00  0.00     0.057 A 
ATOM     63  C   UNL A   1      45.761  28.213  34.750  1.00  0.00     0.134 A 
ATOM     64  C   UNL A   1      44.367  26.371  35.382  1.00  0.00     0.134 A 
ATOM     65  F   UNL A   1      45.974  29.359  34.085  1.00  0.00    -0.206 F 
ATOM     66  C   UNL A   1      46.818  27.672  35.484  1.00  0.00     0.040 A 
ATOM     67  C   UNL A   1      45.410  25.829  36.133  1.00  0.00     0.040 A 
ATOM     68  F   UNL A   1      43.200  25.710  35.356  1.00  0.00    -0.206 F 
ATOM     69  C   UNL A   1      46.641  26.479  36.184  1.00  0.00     0.006 A 
ENDBRANCH  48  62
BRANCH  49  70
ATOM     70  C   UNL A   1      37.057  31.362  29.246  1.00  0.00     0.057 A 
ATOM     71  C   UNL A   1      35.924  30.592  28.961  1.00  0.00     0.134 A 
ATOM     72  C   UNL A   1      37.093  32.670  28.746  1.00  0.00     0.134 A 
ATOM     73  F   UNL A   1      35.843  29.326  29.393  1.00  0.00    -0.206 F 
ATOM     74  C   UNL A   1      34.872  31.098  28.196  1.00  0.00     0.040 A 
ATOM     75  C   UNL A   1      36.038  33.197  28.002  1.00  0.00     0.040 A 
ATOM     76  F   UNL A   1      38.151  33.458  28.987  1.00  0.00    -0.206 F 
ATOM     77  C   UNL A   1      34.925  32.407  27.720  1.00  0.00     0.006 A 
ENDBRANCH  49  70
BRANCH  61  78
ATOM     78  C   UNL A   1      39.103  32.184  35.835  1.00  0.00     0.057 A 
ATOM     79  C   UNL A   1      38.212  31.657  36.777  1.00  0.00     0.134 A 
ATOM     80  C   UNL A   1      39.504  33.517  35.991  1.00  0.00     0.134 A 
ATOM     81  F   UNL A   1      37.782  30.391  36.670  1.00  0.00    -0.206 F 
ATOM     82  C   UNL A   1      37.722  32.433  37.827  1.00  0.00     0.040 A 
ATOM     83  C   UNL A   1      39.035  34.298  37.047  1.00  0.00     0.040 A 
ATOM     84  F   UNL A   1      40.359  34.078  35.123  1.00  0.00    -0.206 F 
ATOM     85  C   UNL A   1      38.137  33.757  37.967  1.00  0.00     0.006 A 
ENDBRANCH  61  78
ENDBRANCH  35  36
ENDBRANCH  28  30
ENDBRANCH  27  28
ENDBRANCH  26  27
ENDBRANCH  25  26
ENDBRANCH   1  25
TORSDOF 16
ENDMDL
MODEL 2
REMARK VINA RESULT:     -10.9      1.847      2.941
REMARK SMILES Cc1nn(C)c(C)c1CNC(=O)NCC(=O)NCC(=O)OCCOC(=O)c1ccc(-c2c3nc(c(-c4c(F)cccc4F)c4ccc([nH]4)c(-c4c(F)cccc4F)c4nc(c(-c5c(F)cccc5F)c5ccc2[nH]5)C=C4)C=C3)cc1
REMARK SMILES IDX 21 1 19 2 20 3 18 4 17 5 15 6 16 7 14 9 13 10 10 11 11 12
REMARK SMILES IDX 12 14 9 16 8 17 1 18 2 19 3 20 4 21 6 22 5 23 7 24 22 25
REMARK SMILES IDX 23 26 24 27 25 28 26 29 27 30 28 31 80 32 29 33 79 34 30 35
REMARK SMILES IDX 31 36 32 37 73 38 33 39 78 40 72 41 74 42 34 43 77 44 71 45
REMARK SMILES IDX 70 46 35 48 61 49 44 50 60 51 45 52 48 53 59 54 75 55 46 56
REMARK SMILES IDX 47 57 58 59 76 60 49 61 36 62 37 63 42 64 38 65 39 66 41 67
REMARK SMILES IDX 43 68 40 69 62 70 63 71 68 72 64 73 65 74 67 75 69 76 66 77
REMARK SMILES IDX 50 78 51 79 56 80 52 81 53 82 55 83 57 84 54 85
REMARK H PARENT 17 8 10 13 13 15 74 47 48 58
REMARK Flexibility Score: inf
ROOT
ATOM      1  O   UNL A   1      44.111  20.344  24.820  1.00  0.00    -0.461 OA
ENDROOT
BRANCH   1   2
ATOM      2  C   UNL A   1      43.697  19.088  25.136  1.00  0.00     0.325 C 
ATOM      3  O   UNL A   1      44.390  18.078  25.063  1.00  0.00    -0.250 OA
BRANCH   2   4
ATOM      4  C   UNL A   1      42.315  19.077  25.784  1.00  0.00     0.238 C 
BRANCH   4   5
ATOM      5  N   UNL A   1      42.086  19.950  26.915  1.00  0.00    -0.344 N 
ATOM      6  C   UNL A   1      41.028  20.775  27.147  1.00  0.00     0.239 C 
ATOM      7  O   UNL A   1      40.894  21.254  28.274  1.00  0.00    -0.273 OA
ATOM      8  H   UNL A   1      42.786  19.947  27.607  1.00  0.00     0.164 HD
BRANCH   6   9
ATOM      9  C   UNL A   1      39.951  20.970  26.074  1.00  0.00     0.217 C 
BRANCH   9  10
ATOM     10  N   UNL A   1      39.445  22.334  26.035  1.00  0.00    -0.329 N 
ATOM     11  N   UNL A   1      37.083  22.272  25.961  1.00  0.00    -0.334 N 
ATOM     12  C   UNL A   1      38.244  22.907  26.104  1.00  0.00     0.315 C 
ATOM     13  H   UNL A   1      36.319  22.830  26.232  1.00  0.00     0.165 HD
ATOM     14  O   UNL A   1      38.215  24.123  26.304  1.00  0.00    -0.249 OA
ATOM     15  H   UNL A   1      40.167  22.996  25.932  1.00  0.00     0.165 HD
BRANCH  11  16
ATOM     16  C   UNL A   1      36.667  20.963  25.509  1.00  0.00     0.157 C 
BRANCH  16  17
ATOM     17  C   UNL A   1      35.256  20.992  25.038  1.00  0.00     0.015 A 
ATOM     18  C   UNL A   1      34.854  18.425  24.625  1.00  0.00     0.069 C 
ATOM     19  C   UNL A   1      34.480  19.863  24.644  1.00  0.00     0.065 A 
ATOM     20  N   UNL A   1      33.254  20.216  24.250  1.00  0.00    -0.178 NA
ATOM     21  N   UNL A   1      33.225  21.550  24.393  1.00  0.00    -0.272 N 
ATOM     22  C   UNL A   1      34.380  22.067  24.922  1.00  0.00     0.040 A 
ATOM     23  C   UNL A   1      32.029  22.250  23.988  1.00  0.00     0.174 C 
ATOM     24  C   UNL A   1      34.545  23.509  25.240  1.00  0.00     0.067 C 
ENDBRANCH  16  17
ENDBRANCH  11  16
ENDBRANCH   9  10
ENDBRANCH   6   9
ENDBRANCH   4   5
ENDBRANCH   2   4
ENDBRANCH   1   2
BRANCH   1  25
ATOM     25  C   UNL A   1      45.377  20.743  25.377  1.00  0.00     0.274 C 
BRANCH  25  26
ATOM     26  C   UNL A   1      45.357  22.230  25.748  1.00  0.00     0.275 C 
BRANCH  26  27
ATOM     27  O   UNL A   1      44.058  22.661  26.208  1.00  0.00    -0.458 OA
BRANCH  27  28
ATOM     28  C   UNL A   1      43.510  23.689  25.523  1.00  0.00     0.338 C 
ATOM     29  O   UNL A   1      43.398  23.801  24.312  1.00  0.00    -0.246 OA
BRANCH  28  30
ATOM     30  C   UNL A   1      42.921  24.661  26.453  1.00  0.00     0.060 A 
ATOM     31  C   UNL A   1      43.493  25.933  26.539  1.00  0.00     0.016 A 
ATOM     32  C   UNL A   1      41.910  24.282  27.335  1.00  0.00     0.016 A 
ATOM     33  C   UNL A   1      43.097  26.813  27.537  1.00  0.00     0.010 A 
ATOM     34  C   UNL A   1      41.480  25.186  28.313  1.00  0.00     0.010 A 
ATOM     35  C   UNL A   1      42.087  26.448  28.435  1.00  0.00    -0.014 A 
BRANCH  35  36
ATOM     36  C   UNL A   1      41.698  27.388  29.513  1.00  0.00     0.031 A 
ATOM     37  C   UNL A   1      42.469  27.418  30.801  1.00  0.00     0.074 A 
ATOM     38  C   UNL A   1      40.678  28.244  29.315  1.00  0.00     0.049 A 
ATOM     39  N   UNL A   1      42.218  28.085  31.898  1.00  0.00    -0.248 NA
ATOM     40  C   UNL A   1      43.683  26.589  30.865  1.00  0.00     0.031 C 
ATOM     41  C   UNL A   1      39.888  28.351  28.086  1.00  0.00     0.029 A 
ATOM     42  N   UNL A   1      40.135  29.194  30.144  1.00  0.00    -0.354 N 
ATOM     43  C   UNL A   1      43.221  27.734  32.792  1.00  0.00     0.074 A 
ATOM     44  C   UNL A   1      44.084  26.791  32.112  1.00  0.00     0.031 C 
ATOM     45  C   UNL A   1      38.972  29.319  28.237  1.00  0.00     0.029 A 
ATOM     46  C   UNL A   1      39.070  29.859  29.589  1.00  0.00     0.049 A 
ATOM     47  H   UNL A   1      40.476  29.380  31.048  1.00  0.00     0.167 HD
ATOM     48  C   UNL A   1      43.402  28.161  34.064  1.00  0.00     0.037 A 
ATOM     49  C   UNL A   1      38.243  30.777  30.123  1.00  0.00     0.037 A 
ATOM     50  C   UNL A   1      42.558  29.119  34.728  1.00  0.00     0.049 A 
ATOM     51  C   UNL A   1      38.444  31.205  31.548  1.00  0.00     0.074 A 
ATOM     52  C   UNL A   1      42.647  29.599  36.023  1.00  0.00     0.029 A 
ATOM     53  N   UNL A   1      41.475  29.755  34.139  1.00  0.00    -0.354 N 
ATOM     54  N   UNL A   1      39.363  30.822  32.402  1.00  0.00    -0.248 NA
ATOM     55  C   UNL A   1      37.486  32.178  32.089  1.00  0.00     0.031 C 
ATOM     56  C   UNL A   1      41.605  30.512  36.224  1.00  0.00     0.029 A 
ATOM     57  C   UNL A   1      40.888  30.621  35.044  1.00  0.00     0.049 A 
ATOM     58  H   UNL A   1      41.171  29.612  33.214  1.00  0.00     0.167 HD
ATOM     59  C   UNL A   1      39.099  31.513  33.576  1.00  0.00     0.074 A 
ATOM     60  C   UNL A   1      37.947  32.354  33.319  1.00  0.00     0.031 C 
ATOM     61  C   UNL A   1      39.746  31.452  34.764  1.00  0.00     0.037 A 
BRANCH  48  62
ATOM     62  C   UNL A   1      44.546  27.574  34.833  1.00  0.00     0.057 A 
ATOM     63  C   UNL A   1      44.410  26.396  35.574  1.00  0.00     0.134 A 
ATOM     64  C   UNL A   1      45.811  28.174  34.794  1.00  0.00     0.134 A 
ATOM     65  F   UNL A   1      43.220  25.783  35.664  1.00  0.00    -0.206 F 
ATOM     66  C   UNL A   1      45.490  25.838  36.261  1.00  0.00     0.040 A 
ATOM     67  C   UNL A   1      46.904  27.617  35.461  1.00  0.00     0.040 A 
ATOM     68  F   UNL A   1      46.008  29.304  34.098  1.00  0.00    -0.206 F 
ATOM     69  C   UNL A   1      46.744  26.447  36.199  1.00  0.00     0.006 A 
ENDBRANCH  48  62
BRANCH  49  70
ATOM     70  C   UNL A   1      37.125  31.323  29.317  1.00  0.00     0.057 A 
ATOM     71  C   UNL A   1      35.968  30.573  29.081  1.00  0.00     0.134 A 
ATOM     72  C   UNL A   1      37.191  32.605  28.758  1.00  0.00     0.134 A 
ATOM     73  F   UNL A   1      35.857  29.331  29.572  1.00  0.00    -0.206 F 
ATOM     74  C   UNL A   1      34.920  31.073  28.306  1.00  0.00     0.040 A 
ATOM     75  C   UNL A   1      36.142  33.127  28.002  1.00  0.00     0.040 A 
ATOM     76  F   UNL A   1      38.274  33.373  28.949  1.00  0.00    -0.206 F 
ATOM     77  C   UNL A   1      35.004  32.357  27.769  1.00  0.00     0.006 A 
ENDBRANCH  49  70
BRANCH  61  78
ATOM     78  C   UNL A   1      39.235  32.333  35.860  1.00  0.00     0.057 A 
ATOM     79  C   UNL A   1      38.290  31.878  36.786  1.00  0.00     0.134 A 
ATOM     80  C   UNL A   1      39.713  33.641  36.007  1.00  0.00     0.134 A 
ATOM     81  F   UNL A   1      37.785  30.639  36.687  1.00  0.00    -0.206 F 
ATOM     82  C   UNL A   1      37.823  32.700  37.812  1.00  0.00     0.040 A 
ATOM     83  C   UNL A   1      39.268  34.466  37.039  1.00  0.00     0.040 A 
ATOM     84  F   UNL A   1      40.623  34.134  35.153  1.00  0.00    -0.206 F 
ATOM     85  C   UNL A   1      38.316  33.998  37.943  1.00  0.00     0.006 A 
ENDBRANCH  61  78
ENDBRANCH  35  36
ENDBRANCH  28  30
ENDBRANCH  27  28
ENDBRANCH  26  27
ENDBRANCH  25  26
ENDBRANCH   1  25
TORSDOF 16
ENDMDL
MODEL 3
REMARK VINA RESULT:     -10.9      2.056      6.883
REMARK SMILES Cc1nn(C)c(C)c1CNC(=O)NCC(=O)NCC(=O)OCCOC(=O)c1ccc(-c2c3nc(c(-c4c(F)cccc4F)c4ccc([nH]4)c(-c4c(F)cccc4F)c4nc(c(-c5c(F)cccc5F)c5ccc2[nH]5)C=C4)C=C3)cc1
REMARK SMILES IDX 21 1 19 2 20 3 18 4 17 5 15 6 16 7 14 9 13 10 10 11 11 12
REMARK SMILES IDX 12 14 9 16 8 17 1 18 2 19 3 20 4 21 6 22 5 23 7 24 22 25
REMARK SMILES IDX 23 26 24 27 25 28 26 29 27 30 28 31 80 32 29 33 79 34 30 35
REMARK SMILES IDX 31 36 32 37 73 38 33 39 78 40 72 41 74 42 34 43 77 44 71 45
REMARK SMILES IDX 70 46 35 48 61 49 44 50 60 51 45 52 48 53 59 54 75 55 46 56
REMARK SMILES IDX 47 57 58 59 76 60 49 61 36 62 37 63 42 64 38 65 39 66 41 67
REMARK SMILES IDX 43 68 40 69 62 70 63 71 68 72 64 73 65 74 67 75 69 76 66 77
REMARK SMILES IDX 50 78 51 79 56 80 52 81 53 82 55 83 57 84 54 85
REMARK H PARENT 17 8 10 13 13 15 74 47 48 58
REMARK Flexibility Score: inf
ROOT
ATOM      1  O   UNL A   1      42.159  21.860  25.295  1.00  0.00    -0.461 OA
ENDROOT
BRANCH   1   2
ATOM      2  C   UNL A   1      41.304  21.172  26.097  1.00  0.00     0.325 C 
ATOM      3  O   UNL A   1      41.608  20.201  26.784  1.00  0.00    -0.250 OA
BRANCH   2   4
ATOM      4  C   UNL A   1      39.941  21.850  26.213  1.00  0.00     0.238 C 
BRANCH   4   5
ATOM      5  N   UNL A   1      39.908  23.261  26.536  1.00  0.00    -0.344 N 
ATOM      6  C   UNL A   1      38.835  24.099  26.556  1.00  0.00     0.239 C 
ATOM      7  O   UNL A   1      38.964  25.202  27.089  1.00  0.00    -0.273 OA
ATOM      8  H   UNL A   1      40.773  23.667  26.773  1.00  0.00     0.164 HD
BRANCH   6   9
ATOM      9  C   UNL A   1      37.467  23.612  26.068  1.00  0.00     0.217 C 
BRANCH   9  10
ATOM     10  N   UNL A   1      37.372  23.584  24.615  1.00  0.00    -0.329 N 
ATOM     11  N   UNL A   1      35.920  21.831  23.977  1.00  0.00    -0.334 N 
ATOM     12  C   UNL A   1      36.642  22.920  23.720  1.00  0.00     0.315 C 
ATOM     13  H   UNL A   1      35.311  21.606  23.237  1.00  0.00     0.165 HD
ATOM     14  O   UNL A   1      36.647  23.348  22.564  1.00  0.00    -0.249 OA
ATOM     15  H   UNL A   1      38.005  24.207  24.190  1.00  0.00     0.165 HD
BRANCH  11  16
ATOM     16  C   UNL A   1      35.810  20.897  25.075  1.00  0.00     0.157 C 
BRANCH  16  17
ATOM     17  C   UNL A   1      34.504  20.186  25.033  1.00  0.00     0.015 A 
ATOM     18  C   UNL A   1      32.872  22.190  25.529  1.00  0.00     0.069 C 
ATOM     19  C   UNL A   1      33.222  20.774  25.246  1.00  0.00     0.065 A 
ATOM     20  N   UNL A   1      32.242  19.870  25.164  1.00  0.00    -0.178 NA
ATOM     21  N   UNL A   1      32.869  18.715  24.893  1.00  0.00    -0.272 N 
ATOM     22  C   UNL A   1      34.225  18.854  24.740  1.00  0.00     0.040 A 
ATOM     23  C   UNL A   1      32.071  17.516  24.798  1.00  0.00     0.174 C 
ATOM     24  C   UNL A   1      35.113  17.725  24.361  1.00  0.00     0.067 C 
ENDBRANCH  16  17
ENDBRANCH  11  16
ENDBRANCH   9  10
ENDBRANCH   6   9
ENDBRANCH   4   5
ENDBRANCH   2   4
ENDBRANCH   1   2
BRANCH   1  25
ATOM     25  C   UNL A   1      43.536  21.875  25.716  1.00  0.00     0.274 C 
BRANCH  25  26
ATOM     26  C   UNL A   1      44.348  22.856  24.863  1.00  0.00     0.275 C 
BRANCH  26  27
ATOM     27  O   UNL A   1      43.675  24.123  24.696  1.00  0.00    -0.458 OA
BRANCH  27  28
ATOM     28  C   UNL A   1      44.362  25.206  25.121  1.00  0.00     0.338 C 
ATOM     29  O   UNL A   1      45.405  25.653  24.666  1.00  0.00    -0.246 OA
BRANCH  28  30
ATOM     30  C   UNL A   1      43.612  25.900  26.176  1.00  0.00     0.060 A 
ATOM     31  C   UNL A   1      43.845  27.263  26.373  1.00  0.00     0.016 A 
ATOM     32  C   UNL A   1      42.797  25.188  27.056  1.00  0.00     0.016 A 
ATOM     33  C   UNL A   1      43.310  27.912  27.478  1.00  0.00     0.010 A 
ATOM     34  C   UNL A   1      42.222  25.853  28.144  1.00  0.00     0.010 A 
ATOM     35  C   UNL A   1      42.493  27.213  28.375  1.00  0.00    -0.014 A 
BRANCH  35  36
ATOM     36  C   UNL A   1      41.954  27.914  29.565  1.00  0.00     0.031 A 
ATOM     37  C   UNL A   1      40.699  28.730  29.455  1.00  0.00     0.074 A 
ATOM     38  C   UNL A   1      42.572  27.780  30.754  1.00  0.00     0.049 A 
ATOM     39  N   UNL A   1      40.135  29.502  30.348  1.00  0.00    -0.248 NA
ATOM     40  C   UNL A   1      39.982  28.671  28.172  1.00  0.00     0.031 C 
ATOM     41  C   UNL A   1      43.766  26.969  31.001  1.00  0.00     0.029 A 
ATOM     42  N   UNL A   1      42.275  28.319  31.981  1.00  0.00    -0.354 N 
ATOM     43  C   UNL A   1      39.017  30.045  29.728  1.00  0.00     0.074 A 
ATOM     44  C   UNL A   1      38.983  29.518  28.380  1.00  0.00     0.031 C 
ATOM     45  C   UNL A   1      44.092  27.054  32.300  1.00  0.00     0.029 A 
ATOM     46  C   UNL A   1      43.168  27.969  32.962  1.00  0.00     0.049 A 
ATOM     47  H   UNL A   1      41.497  28.900  32.141  1.00  0.00     0.167 HD
ATOM     48  C   UNL A   1      38.105  30.905  30.239  1.00  0.00     0.037 A 
ATOM     49  C   UNL A   1      43.254  28.368  34.245  1.00  0.00     0.037 A 
ATOM     50  C   UNL A   1      38.128  31.406  31.588  1.00  0.00     0.049 A 
ATOM     51  C   UNL A   1      42.251  29.352  34.775  1.00  0.00     0.074 A 
ATOM     52  C   UNL A   1      37.259  32.299  32.192  1.00  0.00     0.029 A 
ATOM     53  N   UNL A   1      39.062  31.044  32.547  1.00  0.00    -0.354 N 
ATOM     54  N   UNL A   1      41.232  29.902  34.161  1.00  0.00    -0.248 NA
ATOM     55  C   UNL A   1      42.419  29.782  36.169  1.00  0.00     0.031 C 
ATOM     56  C   UNL A   1      37.681  32.492  33.513  1.00  0.00     0.029 A 
ATOM     57  C   UNL A   1      38.793  31.697  33.737  1.00  0.00     0.049 A 
ATOM     58  H   UNL A   1      39.805  30.416  32.401  1.00  0.00     0.167 HD
ATOM     59  C   UNL A   1      40.633  30.735  35.095  1.00  0.00     0.074 A 
ATOM     60  C   UNL A   1      41.390  30.604  36.323  1.00  0.00     0.031 C 
ATOM     61  C   UNL A   1      39.556  31.545  34.948  1.00  0.00     0.037 A 
BRANCH  48  62
ATOM     62  C   UNL A   1      37.017  31.380  29.326  1.00  0.00     0.057 A 
ATOM     63  C   UNL A   1      35.914  30.578  29.012  1.00  0.00     0.134 A 
ATOM     64  C   UNL A   1      37.053  32.673  28.789  1.00  0.00     0.134 A 
ATOM     65  F   UNL A   1      35.830  29.324  29.482  1.00  0.00    -0.206 F 
ATOM     66  C   UNL A   1      34.888  31.041  28.186  1.00  0.00     0.040 A 
ATOM     67  C   UNL A   1      36.025  33.154  27.976  1.00  0.00     0.040 A 
ATOM     68  F   UNL A   1      38.082  33.492  29.054  1.00  0.00    -0.206 F 
ATOM     69  C   UNL A   1      34.939  32.336  27.671  1.00  0.00     0.006 A 
ENDBRANCH  48  62
BRANCH  49  70
ATOM     70  C   UNL A   1      44.354  27.868  35.104  1.00  0.00     0.057 A 
ATOM     71  C   UNL A   1      44.214  26.693  35.850  1.00  0.00     0.134 A 
ATOM     72  C   UNL A   1      45.568  28.558  35.204  1.00  0.00     0.134 A 
ATOM     73  F   UNL A   1      43.067  26.002  35.812  1.00  0.00    -0.206 F 
ATOM     74  C   UNL A   1      45.238  26.228  36.676  1.00  0.00     0.040 A 
ATOM     75  C   UNL A   1      46.609  28.092  36.006  1.00  0.00     0.040 A 
ATOM     76  F   UNL A   1      45.763  29.690  34.511  1.00  0.00    -0.206 F 
ATOM     77  C   UNL A   1      46.443  26.926  36.751  1.00  0.00     0.006 A 
ENDBRANCH  49  70
BRANCH  61  78
ATOM     78  C   UNL A   1      39.128  32.327  36.150  1.00  0.00     0.057 A 
ATOM     79  C   UNL A   1      38.256  31.787  37.102  1.00  0.00     0.134 A 
ATOM     80  C   UNL A   1      39.613  33.621  36.370  1.00  0.00     0.134 A 
ATOM     81  F   UNL A   1      37.747  30.557  36.938  1.00  0.00    -0.206 F 
ATOM     82  C   UNL A   1      37.867  32.516  38.226  1.00  0.00     0.040 A 
ATOM     83  C   UNL A   1      39.245  34.353  37.498  1.00  0.00     0.040 A 
ATOM     84  F   UNL A   1      40.455  34.191  35.494  1.00  0.00    -0.206 F 
ATOM     85  C   UNL A   1      38.366  33.802  38.429  1.00  0.00     0.006 A 
ENDBRANCH  61  78
ENDBRANCH  35  36
ENDBRANCH  28  30
ENDBRANCH  27  28
ENDBRANCH  26  27
ENDBRANCH  25  26
ENDBRANCH   1  25
TORSDOF 16
ENDMDL
