MODEL 1
REMARK VINA RESULT:     -12.4      0.000      0.000
REMARK SMILES COc1ccc(C)cc1S(=O)(=O)N[C@@H](C)C(=O)OCCOC(=O)c1ccc(-c2c3nc(c(-c4c(F)cccc4F)c4ccc([nH]4)c(-c4c(F)cccc4F)c4nc(c(-c5c(F)cccc5F)c5ccc2[nH]5)C=C4)C=C3)cc1
REMARK SMILES IDX 19 1 18 2 16 3 17 4 14 5 15 6 13 7 10 9 11 10 12 11 9 12
REMARK SMILES IDX 3 13 4 14 5 15 8 16 6 17 7 18 2 19 1 20 20 21 21 22 22 23
REMARK SMILES IDX 23 24 24 25 25 26 77 27 26 28 76 29 27 30 28 31 29 32 70 33
REMARK SMILES IDX 30 34 75 35 69 36 71 37 31 38 74 39 68 40 67 41 32 43 58 44
REMARK SMILES IDX 41 45 57 46 42 47 45 48 56 49 72 50 43 51 44 52 55 54 73 55
REMARK SMILES IDX 46 56 33 57 34 58 39 59 35 60 36 61 38 62 40 63 37 64 59 65
REMARK SMILES IDX 60 66 65 67 61 68 62 69 64 70 66 71 63 72 47 73 48 74 53 75
REMARK SMILES IDX 49 76 50 77 52 78 54 79 51 80
REMARK H PARENT 13 8 71 42 45 53
REMARK Flexibility Score: inf
ROOT
ATOM      1  C   UNL A   1      37.513  23.306  25.354  1.00  0.00     0.274 C 
ENDROOT
BRANCH   1   2
ATOM      2  O   UNL A   1      36.118  23.266  24.907  1.00  0.00    -0.461 OA
BRANCH   2   3
ATOM      3  C   UNL A   1      35.651  22.998  23.667  1.00  0.00     0.324 C 
ATOM      4  O   UNL A   1      36.451  22.919  22.730  1.00  0.00    -0.250 OA
BRANCH   3   5
ATOM      5  C   UNL A   1      33.971  22.862  23.359  1.00  0.00     0.176 C 
ATOM      6  C   UNL A   1      32.458  21.285  23.295  1.00  0.00     0.038 C 
BRANCH   5   7
ATOM      7  N   UNL A   1      33.870  24.375  22.233  1.00  0.00    -0.197 NA
ATOM      8  H   UNL A   1      34.813  24.474  21.857  1.00  0.00     0.142 HD
BRANCH   7   9
ATOM      9  S   UNL A   1      33.365  26.078  22.645  1.00  0.00     0.245 S 
ATOM     10  O   UNL A   1      33.702  26.769  21.409  1.00  0.00    -0.207 OA
ATOM     11  O   UNL A   1      34.063  26.429  23.860  1.00  0.00    -0.207 OA
BRANCH   9  12
ATOM     12  C   UNL A   1      31.499  26.548  22.900  1.00  0.00     0.124 A 
ATOM     13  C   UNL A   1      30.562  25.957  23.811  1.00  0.00     0.138 A 
ATOM     14  C   UNL A   1      29.255  26.473  23.952  1.00  0.00     0.048 A 
ATOM     15  C   UNL A   1      28.871  27.648  23.349  1.00  0.00     0.007 A 
ATOM     16  C   UNL A   1      31.096  27.806  22.362  1.00  0.00     0.029 A 
ATOM     17  C   UNL A   1      29.810  28.366  22.621  1.00  0.00    -0.050 A 
ATOM     18  C   UNL A   1      29.446  29.782  22.264  1.00  0.00     0.044 C 
BRANCH  13  19
ATOM     19  O   UNL A   1      30.838  24.943  24.710  1.00  0.00    -0.495 OA
ATOM     20  C   UNL A   1      30.222  25.144  26.005  1.00  0.00     0.278 C 
ENDBRANCH  13  19
ENDBRANCH   9  12
ENDBRANCH   7   9
ENDBRANCH   5   7
ENDBRANCH   3   5
ENDBRANCH   2   3
ENDBRANCH   1   2
BRANCH   1  21
ATOM     21  C   UNL A   1      38.277  21.995  25.731  1.00  0.00     0.275 C 
BRANCH  21  22
ATOM     22  O   UNL A   1      39.279  22.043  26.806  1.00  0.00    -0.458 OA
BRANCH  22  23
ATOM     23  C   UNL A   1      40.489  21.416  26.666  1.00  0.00     0.338 C 
ATOM     24  O   UNL A   1      40.675  20.225  26.550  1.00  0.00    -0.246 OA
BRANCH  23  25
ATOM     25  C   UNL A   1      41.547  22.447  26.761  1.00  0.00     0.060 A 
ATOM     26  C   UNL A   1      41.336  24.256  26.593  1.00  0.00     0.016 A 
ATOM     27  C   UNL A   1      42.777  21.863  27.862  1.00  0.00     0.016 A 
ATOM     28  C   UNL A   1      42.463  25.411  27.505  1.00  0.00     0.010 A 
ATOM     29  C   UNL A   1      43.719  22.926  28.826  1.00  0.00     0.010 A 
ATOM     30  C   UNL A   1      43.629  24.669  28.672  1.00  0.00    -0.014 A 
BRANCH  30  31
ATOM     31  C   UNL A   1      45.032  25.059  28.978  1.00  0.00     0.031 A 
ATOM     32  C   UNL A   1      46.081  24.845  27.991  1.00  0.00     0.074 A 
ATOM     33  C   UNL A   1      45.213  25.955  30.007  1.00  0.00     0.049 A 
ATOM     34  N   UNL A   1      47.315  24.651  28.309  1.00  0.00    -0.248 NA
ATOM     35  C   UNL A   1      45.813  24.762  26.559  1.00  0.00     0.031 C 
ATOM     36  C   UNL A   1      46.204  27.012  30.155  1.00  0.00     0.029 A 
ATOM     37  N   UNL A   1      44.380  26.210  31.117  1.00  0.00    -0.354 N 
ATOM     38  C   UNL A   1      48.013  24.862  27.144  1.00  0.00     0.074 A 
ATOM     39  C   UNL A   1      47.057  24.578  26.102  1.00  0.00     0.031 C 
ATOM     40  C   UNL A   1      46.074  27.591  31.371  1.00  0.00     0.029 A 
ATOM     41  C   UNL A   1      45.048  26.885  32.122  1.00  0.00     0.049 A 
ATOM     42  H   UNL A   1      43.434  25.940  31.170  1.00  0.00     0.167 HD
ATOM     43  C   UNL A   1      49.166  25.598  27.188  1.00  0.00     0.037 A 
ATOM     44  C   UNL A   1      45.124  26.308  33.356  1.00  0.00     0.037 A 
ATOM     45  C   UNL A   1      49.424  26.076  28.565  1.00  0.00     0.049 A 
ATOM     46  C   UNL A   1      46.507  25.768  33.544  1.00  0.00     0.074 A 
ATOM     47  C   UNL A   1      49.408  27.343  29.130  1.00  0.00     0.029 A 
ATOM     48  N   UNL A   1      49.466  25.184  29.638  1.00  0.00    -0.354 N 
ATOM     49  N   UNL A   1      47.341  25.675  32.551  1.00  0.00    -0.248 NA
ATOM     50  C   UNL A   1      47.091  25.341  34.805  1.00  0.00     0.031 C 
ATOM     51  C   UNL A   1      49.421  27.203  30.546  1.00  0.00     0.029 A 
ATOM     52  C   UNL A   1      49.458  25.852  30.850  1.00  0.00     0.049 A 
ATOM     53  H   UNL A   1      49.497  24.204  29.545  1.00  0.00     0.167 HD
ATOM     54  C   UNL A   1      48.550  25.252  32.989  1.00  0.00     0.074 A 
ATOM     55  C   UNL A   1      48.347  25.047  34.414  1.00  0.00     0.031 C 
ATOM     56  C   UNL A   1      49.587  25.123  32.113  1.00  0.00     0.037 A 
BRANCH  43  57
ATOM     57  C   UNL A   1      49.913  26.180  25.986  1.00  0.00     0.057 A 
ATOM     58  C   UNL A   1      51.250  25.801  25.733  1.00  0.00     0.134 A 
ATOM     59  C   UNL A   1      49.413  27.098  25.040  1.00  0.00     0.134 A 
ATOM     60  F   UNL A   1      51.873  24.878  26.478  1.00  0.00    -0.206 F 
ATOM     61  C   UNL A   1      52.025  26.326  24.687  1.00  0.00     0.040 A 
ATOM     62  C   UNL A   1      50.175  27.631  23.987  1.00  0.00     0.040 A 
ATOM     63  F   UNL A   1      48.152  27.525  25.034  1.00  0.00    -0.206 F 
ATOM     64  C   UNL A   1      51.490  27.252  23.808  1.00  0.00     0.006 A 
ENDBRANCH  43  57
BRANCH  44  65
ATOM     65  C   UNL A   1      43.838  25.704  33.827  1.00  0.00     0.057 A 
ATOM     66  C   UNL A   1      43.750  24.299  33.837  1.00  0.00     0.134 A 
ATOM     67  C   UNL A   1      42.904  26.389  34.612  1.00  0.00     0.134 A 
ATOM     68  F   UNL A   1      44.564  23.571  33.057  1.00  0.00    -0.206 F 
ATOM     69  C   UNL A   1      42.907  23.605  34.716  1.00  0.00     0.040 A 
ATOM     70  C   UNL A   1      42.027  25.701  35.469  1.00  0.00     0.040 A 
ATOM     71  F   UNL A   1      42.912  27.727  34.675  1.00  0.00    -0.206 F 
ATOM     72  C   UNL A   1      42.076  24.310  35.575  1.00  0.00     0.006 A 
ENDBRANCH  44  65
BRANCH  56  73
ATOM     73  C   UNL A   1      50.867  24.393  32.395  1.00  0.00     0.057 A 
ATOM     74  C   UNL A   1      52.140  24.958  32.260  1.00  0.00     0.134 A 
ATOM     75  C   UNL A   1      50.838  23.100  32.966  1.00  0.00     0.134 A 
ATOM     76  F   UNL A   1      52.316  26.226  31.869  1.00  0.00    -0.206 F 
ATOM     77  C   UNL A   1      53.305  24.257  32.584  1.00  0.00     0.040 A 
ATOM     78  C   UNL A   1      51.988  22.425  33.367  1.00  0.00     0.040 A 
ATOM     79  F   UNL A   1      49.692  22.441  33.189  1.00  0.00    -0.206 F 
ATOM     80  C   UNL A   1      53.231  22.992  33.151  1.00  0.00     0.006 A 
ENDBRANCH  56  73
ENDBRANCH  30  31
ENDBRANCH  23  25
ENDBRANCH  22  23
ENDBRANCH  21  22
ENDBRANCH   1  21
TORSDOF 15
ENDMDL
MODEL 2
REMARK VINA RESULT:     -12.3      4.578      7.517
REMARK SMILES COc1ccc(C)cc1S(=O)(=O)N[C@@H](C)C(=O)OCCOC(=O)c1ccc(-c2c3nc(c(-c4c(F)cccc4F)c4ccc([nH]4)c(-c4c(F)cccc4F)c4nc(c(-c5c(F)cccc5F)c5ccc2[nH]5)C=C4)C=C3)cc1
REMARK SMILES IDX 19 1 18 2 16 3 17 4 14 5 15 6 13 7 10 9 11 10 12 11 9 12
REMARK SMILES IDX 3 13 4 14 5 15 8 16 6 17 7 18 2 19 1 20 20 21 21 22 22 23
REMARK SMILES IDX 23 24 24 25 25 26 77 27 26 28 76 29 27 30 28 31 29 32 70 33
REMARK SMILES IDX 30 34 75 35 69 36 71 37 31 38 74 39 68 40 67 41 32 43 58 44
REMARK SMILES IDX 41 45 57 46 42 47 45 48 56 49 72 50 43 51 44 52 55 54 73 55
REMARK SMILES IDX 46 56 33 57 34 58 39 59 35 60 36 61 38 62 40 63 37 64 59 65
REMARK SMILES IDX 60 66 65 67 61 68 62 69 64 70 66 71 63 72 47 73 48 74 53 75
REMARK SMILES IDX 49 76 50 77 52 78 54 79 51 80
REMARK H PARENT 13 8 71 42 45 53
REMARK Flexibility Score: inf
ROOT
ATOM      1  C   UNL A   1      33.702  28.726  27.216  1.00  0.00     0.274 C 
ENDROOT
BRANCH   1   2
ATOM      2  O   UNL A   1      32.848  27.835  26.425  1.00  0.00    -0.461 OA
BRANCH   2   3
ATOM      3  C   UNL A   1      31.596  27.414  26.714  1.00  0.00     0.324 C 
ATOM      4  O   UNL A   1      31.071  27.776  27.771  1.00  0.00    -0.250 OA
BRANCH   3   5
ATOM      5  C   UNL A   1      30.769  26.317  25.691  1.00  0.00     0.176 C 
ATOM      6  C   UNL A   1      29.235  26.396  24.134  1.00  0.00     0.038 C 
BRANCH   5   7
ATOM      7  N   UNL A   1      30.927  24.834  26.850  1.00  0.00    -0.197 NA
ATOM      8  H   UNL A   1      31.304  25.226  27.712  1.00  0.00     0.142 HD
BRANCH   7   9
ATOM      9  S   UNL A   1      31.859  23.286  26.608  1.00  0.00     0.245 S 
ATOM     10  O   UNL A   1      30.869  22.478  25.909  1.00  0.00    -0.207 OA
ATOM     11  O   UNL A   1      32.309  22.871  27.917  1.00  0.00    -0.207 OA
BRANCH   9  12
ATOM     12  C   UNL A   1      33.392  23.200  25.421  1.00  0.00     0.124 A 
ATOM     13  C   UNL A   1      33.408  23.356  23.996  1.00  0.00     0.138 A 
ATOM     14  C   UNL A   1      34.622  23.364  23.274  1.00  0.00     0.048 A 
ATOM     15  C   UNL A   1      35.841  23.382  23.909  1.00  0.00     0.007 A 
ATOM     16  C   UNL A   1      34.669  23.309  26.047  1.00  0.00     0.029 A 
ATOM     17  C   UNL A   1      35.875  23.441  25.296  1.00  0.00    -0.050 A 
ATOM     18  C   UNL A   1      37.198  23.787  25.925  1.00  0.00     0.044 C 
BRANCH  13  19
ATOM     19  O   UNL A   1      32.310  23.630  23.200  1.00  0.00    -0.495 OA
ATOM     20  C   UNL A   1      32.369  24.933  22.573  1.00  0.00     0.278 C 
ENDBRANCH  13  19
ENDBRANCH   9  12
ENDBRANCH   7   9
ENDBRANCH   5   7
ENDBRANCH   3   5
ENDBRANCH   2   3
ENDBRANCH   1   2
BRANCH   1  21
ATOM     21  C   UNL A   1      33.786  30.255  26.899  1.00  0.00     0.275 C 
BRANCH  21  22
ATOM     22  O   UNL A   1      33.854  31.207  28.016  1.00  0.00    -0.458 OA
BRANCH  22  23
ATOM     23  C   UNL A   1      34.850  32.147  28.077  1.00  0.00     0.338 C 
ATOM     24  O   UNL A   1      34.832  33.250  27.579  1.00  0.00    -0.246 OA
BRANCH  23  25
ATOM     25  C   UNL A   1      35.996  31.547  28.798  1.00  0.00     0.060 A 
ATOM     26  C   UNL A   1      35.954  30.709  30.423  1.00  0.00     0.016 A 
ATOM     27  C   UNL A   1      37.144  30.972  27.608  1.00  0.00     0.016 A 
ATOM     28  C   UNL A   1      37.162  29.355  30.801  1.00  0.00     0.010 A 
ATOM     29  C   UNL A   1      38.159  29.618  27.897  1.00  0.00     0.010 A 
ATOM     30  C   UNL A   1      38.232  28.807  29.449  1.00  0.00    -0.014 A 
BRANCH  30  31
ATOM     31  C   UNL A   1      39.658  28.385  29.488  1.00  0.00     0.031 A 
ATOM     32  C   UNL A   1      40.033  27.043  29.068  1.00  0.00     0.074 A 
ATOM     33  C   UNL A   1      40.597  29.389  29.542  1.00  0.00     0.049 A 
ATOM     34  N   UNL A   1      41.067  26.425  29.529  1.00  0.00    -0.248 NA
ATOM     35  C   UNL A   1      39.231  26.252  28.139  1.00  0.00     0.031 C 
ATOM     36  C   UNL A   1      41.927  29.450  28.951  1.00  0.00     0.029 A 
ATOM     37  N   UNL A   1      40.461  30.705  30.034  1.00  0.00    -0.354 N 
ATOM     38  C   UNL A   1      41.280  25.393  28.647  1.00  0.00     0.074 A 
ATOM     39  C   UNL A   1      39.981  25.146  28.071  1.00  0.00     0.031 C 
ATOM     40  C   UNL A   1      42.545  30.589  29.336  1.00  0.00     0.029 A 
ATOM     41  C   UNL A   1      41.688  31.297  30.274  1.00  0.00     0.049 A 
ATOM     42  H   UNL A   1      39.596  31.149  30.188  1.00  0.00     0.167 HD
ATOM     43  C   UNL A   1      42.558  25.128  28.236  1.00  0.00     0.037 A 
ATOM     44  C   UNL A   1      41.964  31.735  31.536  1.00  0.00     0.037 A 
ATOM     45  C   UNL A   1      43.507  26.093  28.836  1.00  0.00     0.049 A 
ATOM     46  C   UNL A   1      42.914  30.772  32.176  1.00  0.00     0.074 A 
ATOM     47  C   UNL A   1      44.275  27.110  28.288  1.00  0.00     0.029 A 
ATOM     48  N   UNL A   1      43.553  26.287  30.217  1.00  0.00    -0.354 N 
ATOM     49  N   UNL A   1      43.168  29.612  31.644  1.00  0.00    -0.248 NA
ATOM     50  C   UNL A   1      43.680  31.008  33.389  1.00  0.00     0.031 C 
ATOM     51  C   UNL A   1      44.765  27.923  29.347  1.00  0.00     0.029 A 
ATOM     52  C   UNL A   1      44.309  27.400  30.545  1.00  0.00     0.049 A 
ATOM     53  H   UNL A   1      43.106  25.707  30.876  1.00  0.00     0.167 HD
ATOM     54  C   UNL A   1      44.126  28.969  32.352  1.00  0.00     0.074 A 
ATOM     55  C   UNL A   1      44.415  29.880  33.447  1.00  0.00     0.031 C 
ATOM     56  C   UNL A   1      44.572  27.747  31.943  1.00  0.00     0.037 A 
BRANCH  43  57
ATOM     57  C   UNL A   1      42.962  24.235  27.060  1.00  0.00     0.057 A 
ATOM     58  C   UNL A   1      43.159  24.799  25.780  1.00  0.00     0.134 A 
ATOM     59  C   UNL A   1      43.180  22.843  27.089  1.00  0.00     0.134 A 
ATOM     60  F   UNL A   1      43.075  26.120  25.571  1.00  0.00    -0.206 F 
ATOM     61  C   UNL A   1      43.478  24.047  24.639  1.00  0.00     0.040 A 
ATOM     62  C   UNL A   1      43.502  22.077  25.955  1.00  0.00     0.040 A 
ATOM     63  F   UNL A   1      43.134  22.120  28.206  1.00  0.00    -0.206 F 
ATOM     64  C   UNL A   1      43.646  22.676  24.720  1.00  0.00     0.006 A 
ENDBRANCH  43  57
BRANCH  44  65
ATOM     65  C   UNL A   1      40.834  32.469  32.188  1.00  0.00     0.057 A 
ATOM     66  C   UNL A   1      40.610  33.799  31.782  1.00  0.00     0.134 A 
ATOM     67  C   UNL A   1      39.773  31.834  32.840  1.00  0.00     0.134 A 
ATOM     68  F   UNL A   1      41.601  34.501  31.211  1.00  0.00    -0.206 F 
ATOM     69  C   UNL A   1      39.348  34.404  31.852  1.00  0.00     0.040 A 
ATOM     70  C   UNL A   1      38.512  32.446  32.951  1.00  0.00     0.040 A 
ATOM     71  F   UNL A   1      39.886  30.565  33.257  1.00  0.00    -0.206 F 
ATOM     72  C   UNL A   1      38.278  33.705  32.394  1.00  0.00     0.006 A 
ENDBRANCH  44  65
BRANCH  56  73
ATOM     73  C   UNL A   1      45.389  26.805  32.777  1.00  0.00     0.057 A 
ATOM     74  C   UNL A   1      44.854  25.943  33.741  1.00  0.00     0.134 A 
ATOM     75  C   UNL A   1      46.769  26.637  32.516  1.00  0.00     0.134 A 
ATOM     76  F   UNL A   1      43.541  25.885  33.992  1.00  0.00    -0.206 F 
ATOM     77  C   UNL A   1      45.648  25.043  34.458  1.00  0.00     0.040 A 
ATOM     78  C   UNL A   1      47.551  25.689  33.168  1.00  0.00     0.040 A 
ATOM     79  F   UNL A   1      47.417  27.367  31.597  1.00  0.00    -0.206 F 
ATOM     80  C   UNL A   1      46.997  24.905  34.164  1.00  0.00     0.006 A 
ENDBRANCH  56  73
ENDBRANCH  30  31
ENDBRANCH  23  25
ENDBRANCH  22  23
ENDBRANCH  21  22
ENDBRANCH   1  21
TORSDOF 15
ENDMDL
MODEL 3
REMARK VINA RESULT:     -12.2      3.845      7.611
REMARK SMILES COc1ccc(C)cc1S(=O)(=O)N[C@@H](C)C(=O)OCCOC(=O)c1ccc(-c2c3nc(c(-c4c(F)cccc4F)c4ccc([nH]4)c(-c4c(F)cccc4F)c4nc(c(-c5c(F)cccc5F)c5ccc2[nH]5)C=C4)C=C3)cc1
REMARK SMILES IDX 19 1 18 2 16 3 17 4 14 5 15 6 13 7 10 9 11 10 12 11 9 12
REMARK SMILES IDX 3 13 4 14 5 15 8 16 6 17 7 18 2 19 1 20 20 21 21 22 22 23
REMARK SMILES IDX 23 24 24 25 25 26 77 27 26 28 76 29 27 30 28 31 29 32 70 33
REMARK SMILES IDX 30 34 75 35 69 36 71 37 31 38 74 39 68 40 67 41 32 43 58 44
REMARK SMILES IDX 41 45 57 46 42 47 45 48 56 49 72 50 43 51 44 52 55 54 73 55
REMARK SMILES IDX 46 56 33 57 34 58 39 59 35 60 36 61 38 62 40 63 37 64 59 65
REMARK SMILES IDX 60 66 65 67 61 68 62 69 64 70 66 71 63 72 47 73 48 74 53 75
REMARK SMILES IDX 49 76 50 77 52 78 54 79 51 80
REMARK H PARENT 13 8 71 42 45 53
REMARK Flexibility Score: inf
ROOT
ATOM      1  C   UNL A   1      33.342  29.897  26.824  1.00  0.00     0.274 C 
ENDROOT
BRANCH   1   2
ATOM      2  O   UNL A   1      32.864  30.077  25.451  1.00  0.00    -0.461 OA
BRANCH   2   3
ATOM      3  C   UNL A   1      32.741  29.136  24.486  1.00  0.00     0.324 C 
ATOM      4  O   UNL A   1      33.760  28.674  23.966  1.00  0.00    -0.250 OA
BRANCH   3   5
ATOM      5  C   UNL A   1      31.202  28.650  23.911  1.00  0.00     0.176 C 
ATOM      6  C   UNL A   1      29.569  29.502  22.732  1.00  0.00     0.038 C 
BRANCH   5   7
ATOM      7  N   UNL A   1      30.878  27.404  25.293  1.00  0.00    -0.197 NA
ATOM      8  H   UNL A   1      31.668  27.518  25.928  1.00  0.00     0.142 HD
BRANCH   7   9
ATOM      9  S   UNL A   1      30.646  25.599  25.177  1.00  0.00     0.245 S 
ATOM     10  O   UNL A   1      29.622  25.522  24.145  1.00  0.00    -0.207 OA
ATOM     11  O   UNL A   1      30.337  25.140  26.511  1.00  0.00    -0.207 OA
BRANCH   9  12
ATOM     12  C   UNL A   1      32.039  24.441  24.480  1.00  0.00     0.124 A 
ATOM     13  C   UNL A   1      32.878  24.667  23.340  1.00  0.00     0.138 A 
ATOM     14  C   UNL A   1      33.920  23.772  23.010  1.00  0.00     0.048 A 
ATOM     15  C   UNL A   1      34.278  22.739  23.844  1.00  0.00     0.007 A 
ATOM     16  C   UNL A   1      32.493  23.416  25.362  1.00  0.00     0.029 A 
ATOM     17  C   UNL A   1      33.627  22.603  25.062  1.00  0.00    -0.050 A 
ATOM     18  C   UNL A   1      34.262  21.681  26.068  1.00  0.00     0.044 C 
BRANCH  13  19
ATOM     19  O   UNL A   1      32.863  25.790  22.533  1.00  0.00    -0.495 OA
ATOM     20  C   UNL A   1      32.748  25.481  21.124  1.00  0.00     0.278 C 
ENDBRANCH  13  19
ENDBRANCH   9  12
ENDBRANCH   7   9
ENDBRANCH   5   7
ENDBRANCH   3   5
ENDBRANCH   2   3
ENDBRANCH   1   2
BRANCH   1  21
ATOM     21  C   UNL A   1      34.767  29.323  27.115  1.00  0.00     0.275 C 
BRANCH  21  22
ATOM     22  O   UNL A   1      35.368  29.552  28.436  1.00  0.00    -0.458 OA
BRANCH  22  23
ATOM     23  C   UNL A   1      36.266  30.569  28.632  1.00  0.00     0.338 C 
ATOM     24  O   UNL A   1      36.104  31.736  28.358  1.00  0.00    -0.246 OA
BRANCH  23  25
ATOM     25  C   UNL A   1      37.512  29.975  29.170  1.00  0.00     0.060 A 
ATOM     26  C   UNL A   1      37.672  28.913  30.649  1.00  0.00     0.016 A 
ATOM     27  C   UNL A   1      38.595  29.680  27.827  1.00  0.00     0.016 A 
ATOM     28  C   UNL A   1      39.008  27.631  30.732  1.00  0.00     0.010 A 
ATOM     29  C   UNL A   1      39.732  28.394  27.835  1.00  0.00     0.010 A 
ATOM     30  C   UNL A   1      39.999  27.379  29.239  1.00  0.00    -0.014 A 
BRANCH  30  31
ATOM     31  C   UNL A   1      41.451  27.084  29.111  1.00  0.00     0.031 A 
ATOM     32  C   UNL A   1      42.436  28.055  29.564  1.00  0.00     0.074 A 
ATOM     33  C   UNL A   1      41.799  25.763  28.939  1.00  0.00     0.049 A 
ATOM     34  N   UNL A   1      43.617  28.147  29.055  1.00  0.00    -0.248 NA
ATOM     35  C   UNL A   1      42.148  29.055  30.587  1.00  0.00     0.031 C 
ATOM     36  C   UNL A   1      42.966  25.039  29.423  1.00  0.00     0.029 A 
ATOM     37  N   UNL A   1      41.033  24.708  28.398  1.00  0.00    -0.354 N 
ATOM     38  C   UNL A   1      44.334  28.886  29.965  1.00  0.00     0.074 A 
ATOM     39  C   UNL A   1      43.335  29.669  30.650  1.00  0.00     0.031 C 
ATOM     40  C   UNL A   1      42.952  23.776  28.939  1.00  0.00     0.029 A 
ATOM     41  C   UNL A   1      41.820  23.629  28.037  1.00  0.00     0.049 A 
ATOM     42  H   UNL A   1      40.054  24.736  28.290  1.00  0.00     0.167 HD
ATOM     43  C   UNL A   1      45.602  28.486  30.290  1.00  0.00     0.037 A 
ATOM     44  C   UNL A   1      41.799  23.212  26.738  1.00  0.00     0.037 A 
ATOM     45  C   UNL A   1      45.951  27.238  29.574  1.00  0.00     0.049 A 
ATOM     46  C   UNL A   1      43.061  23.661  26.074  1.00  0.00     0.074 A 
ATOM     47  C   UNL A   1      46.170  25.941  30.014  1.00  0.00     0.029 A 
ATOM     48  N   UNL A   1      45.838  27.152  28.186  1.00  0.00    -0.354 N 
ATOM     49  N   UNL A   1      43.858  24.521  26.638  1.00  0.00    -0.248 NA
ATOM     50  C   UNL A   1      43.568  23.188  24.796  1.00  0.00     0.031 C 
ATOM     51  C   UNL A   1      46.167  25.077  28.884  1.00  0.00     0.029 A 
ATOM     52  C   UNL A   1      45.960  25.845  27.750  1.00  0.00     0.049 A 
ATOM     53  H   UNL A   1      45.690  27.924  27.591  1.00  0.00     0.167 HD
ATOM     54  C   UNL A   1      44.974  24.691  25.891  1.00  0.00     0.074 A 
ATOM     55  C   UNL A   1      44.746  23.838  24.735  1.00  0.00     0.031 C 
ATOM     56  C   UNL A   1      45.964  25.524  26.320  1.00  0.00     0.037 A 
BRANCH  43  57
ATOM     57  C   UNL A   1      46.434  28.990  31.471  1.00  0.00     0.057 A 
ATOM     58  C   UNL A   1      47.645  29.680  31.240  1.00  0.00     0.134 A 
ATOM     59  C   UNL A   1      46.132  28.853  32.842  1.00  0.00     0.134 A 
ATOM     60  F   UNL A   1      48.060  29.977  30.001  1.00  0.00    -0.206 F 
ATOM     61  C   UNL A   1      48.494  30.128  32.263  1.00  0.00     0.040 A 
ATOM     62  C   UNL A   1      46.971  29.298  33.877  1.00  0.00     0.040 A 
ATOM     63  F   UNL A   1      45.000  28.313  33.288  1.00  0.00    -0.206 F 
ATOM     64  C   UNL A   1      48.162  29.934  33.592  1.00  0.00     0.006 A 
ENDBRANCH  43  57
BRANCH  44  65
ATOM     65  C   UNL A   1      40.427  23.148  26.142  1.00  0.00     0.057 A 
ATOM     66  C   UNL A   1      39.797  21.889  26.104  1.00  0.00     0.134 A 
ATOM     67  C   UNL A   1      39.593  24.262  25.999  1.00  0.00     0.134 A 
ATOM     68  F   UNL A   1      40.535  20.770  26.165  1.00  0.00    -0.206 F 
ATOM     69  C   UNL A   1      38.404  21.745  26.112  1.00  0.00     0.040 A 
ATOM     70  C   UNL A   1      38.194  24.127  25.966  1.00  0.00     0.040 A 
ATOM     71  F   UNL A   1      40.097  25.503  26.030  1.00  0.00    -0.206 F 
ATOM     72  C   UNL A   1      37.594  22.872  26.094  1.00  0.00     0.006 A 
ENDBRANCH  44  65
BRANCH  56  73
ATOM     73  C   UNL A   1      47.091  26.032  25.472  1.00  0.00     0.057 A 
ATOM     74  C   UNL A   1      46.953  27.021  24.491  1.00  0.00     0.134 A 
ATOM     75  C   UNL A   1      48.419  25.623  25.733  1.00  0.00     0.134 A 
ATOM     76  F   UNL A   1      45.778  27.608  24.235  1.00  0.00    -0.206 F 
ATOM     77  C   UNL A   1      48.042  27.502  23.759  1.00  0.00     0.040 A 
ATOM     78  C   UNL A   1      49.519  26.155  25.066  1.00  0.00     0.040 A 
ATOM     79  F   UNL A   1      48.716  24.708  26.668  1.00  0.00    -0.206 F 
ATOM     80  C   UNL A   1      49.331  27.080  24.054  1.00  0.00     0.006 A 
ENDBRANCH  56  73
ENDBRANCH  30  31
ENDBRANCH  23  25
ENDBRANCH  22  23
ENDBRANCH  21  22
ENDBRANCH   1  21
TORSDOF 15
ENDMDL
