MODEL 1
REMARK VINA RESULT:      -9.6      0.000      0.000
REMARK SMILES CCCSc1nc2n(n1)[C@@H](c1ccccc1C(=O)OCCOC(=O)c1ccc(-c3c4nc(c(-c5c(F)cccc5F)c5ccc([nH]5)c(-c5c(F)cccc5F)c5nc(c(-c6c(F)cccc6F)c6ccc3[nH]6)C=C5)C=C4)cc1)C(C(=O)Nc1cccc(C)c1C)=C(C)N2
REMARK SMILES IDX 20 1 19 2 17 3 18 4 16 5 11 6 12 7 13 8 15 9 14 10 10 11
REMARK SMILES IDX 5 12 6 13 9 14 7 15 8 16 93 17 91 18 79 20 92 21 4 22 3 23
REMARK SMILES IDX 2 24 1 25 80 26 81 27 82 28 83 30 84 31 89 32 85 33 87 34
REMARK SMILES IDX 90 35 86 36 88 37 21 38 22 39 23 40 24 41 25 42 26 43 78 44
REMARK SMILES IDX 27 45 77 46 28 47 29 48 30 49 71 50 31 51 76 52 70 53 72 54
REMARK SMILES IDX 32 55 75 56 69 57 68 58 33 60 59 61 42 62 58 63 43 64 46 65
REMARK SMILES IDX 57 66 73 67 44 68 45 69 56 71 74 72 47 73 34 74 35 75 40 76
REMARK SMILES IDX 36 77 37 78 39 79 41 80 38 81 60 82 61 83 66 84 62 85 63 86
REMARK SMILES IDX 65 87 67 88 64 89 48 90 49 91 54 92 50 93 51 94 53 95 55 96
REMARK SMILES IDX 52 97
REMARK H PARENT 93 19 82 29 72 59 46 70
REMARK Flexibility Score: inf
ROOT
ATOM      1  C   UNL A   1      47.572  38.229  25.328  1.00  0.00     0.275 C 
ENDROOT
BRANCH   1   2
ATOM      2  O   UNL A   1      47.306  39.565  25.796  1.00  0.00    -0.458 OA
BRANCH   2   3
ATOM      3  C   UNL A   1      46.912  40.509  24.905  1.00  0.00     0.338 C 
ATOM      4  O   UNL A   1      46.959  40.390  23.687  1.00  0.00    -0.246 OA
BRANCH   3   5
ATOM      5  C   UNL A   1      46.385  41.723  25.607  1.00  0.00     0.065 A 
ATOM      6  C   UNL A   1      45.046  41.877  26.052  1.00  0.00    -0.004 A 
ATOM      7  C   UNL A   1      44.741  43.050  26.791  1.00  0.00     0.007 A 
ATOM      8  C   UNL A   1      45.701  44.021  27.077  1.00  0.00     0.000 A 
ATOM      9  C   UNL A   1      47.349  42.704  25.927  1.00  0.00     0.016 A 
ATOM     10  C   UNL A   1      47.009  43.844  26.655  1.00  0.00     0.001 A 
BRANCH   6  11
ATOM     11  C   UNL A   1      43.982  40.766  25.893  1.00  0.00     0.180 C 
ATOM     12  C   UNL A   1      41.824  42.134  23.488  1.00  0.00     0.210 A 
ATOM     13  N   UNL A   1      40.895  41.968  24.487  1.00  0.00    -0.185 NA
ATOM     14  N   UNL A   1      43.034  41.625  23.745  1.00  0.00    -0.141 NA
ATOM     15  C   UNL A   1      41.588  41.403  25.441  1.00  0.00     0.227 A 
ATOM     16  N   UNL A   1      42.873  41.206  25.016  1.00  0.00    -0.218 N 
ATOM     17  N   UNL A   1      41.266  41.105  26.712  1.00  0.00    -0.328 N 
ATOM     18  C   UNL A   1      42.171  40.596  27.633  1.00  0.00     0.026 C 
ATOM     19  H   UNL A   1      40.338  41.256  27.005  1.00  0.00     0.169 HD
ATOM     20  C   UNL A   1      43.438  40.312  27.254  1.00  0.00     0.065 C 
ATOM     21  C   UNL A   1      41.669  40.464  29.046  1.00  0.00     0.065 C 
BRANCH  12  22
ATOM     22  S   UNL A   1      41.564  43.219  22.151  1.00  0.00    -0.084 SA
BRANCH  22  23
ATOM     23  C   UNL A   1      42.472  42.424  20.805  1.00  0.00     0.078 C 
BRANCH  23  24
ATOM     24  C   UNL A   1      42.463  43.188  19.480  1.00  0.00     0.008 C 
ATOM     25  C   UNL A   1      41.149  43.885  19.165  1.00  0.00     0.005 C 
ENDBRANCH  23  24
ENDBRANCH  22  23
ENDBRANCH  12  22
BRANCH  20  26
ATOM     26  C   UNL A   1      44.393  39.714  28.216  1.00  0.00     0.255 C 
ATOM     27  O   UNL A   1      44.987  40.428  29.020  1.00  0.00    -0.269 OA
ATOM     28  N   UNL A   1      44.648  38.358  28.200  1.00  0.00    -0.322 N 
ATOM     29  H   UNL A   1      45.567  38.037  28.055  1.00  0.00     0.170 HD
BRANCH  28  30
ATOM     30  C   UNL A   1      43.605  37.429  28.389  1.00  0.00     0.044 A 
ATOM     31  C   UNL A   1      42.927  37.066  27.217  1.00  0.00     0.026 A 
ATOM     32  C   UNL A   1      43.393  36.744  29.595  1.00  0.00    -0.025 A 
ATOM     33  C   UNL A   1      42.186  35.897  27.185  1.00  0.00     0.002 A 
ATOM     34  C   UNL A   1      42.710  35.512  29.534  1.00  0.00    -0.046 A 
ATOM     35  C   UNL A   1      43.858  37.297  30.913  1.00  0.00     0.047 C 
ATOM     36  C   UNL A   1      42.123  35.099  28.323  1.00  0.00     0.004 A 
ATOM     37  C   UNL A   1      42.705  34.537  30.680  1.00  0.00     0.044 C 
ENDBRANCH  28  30
ENDBRANCH  20  26
ENDBRANCH   6  11
ENDBRANCH   3   5
ENDBRANCH   2   3
ENDBRANCH   1   2
BRANCH   1  38
ATOM     38  C   UNL A   1      47.477  37.201  26.433  1.00  0.00     0.275 C 
BRANCH  38  39
ATOM     39  O   UNL A   1      46.279  36.478  26.244  1.00  0.00    -0.458 OA
BRANCH  39  40
ATOM     40  C   UNL A   1      46.463  35.177  25.933  1.00  0.00     0.338 C 
ATOM     41  O   UNL A   1      47.197  34.710  25.079  1.00  0.00    -0.246 OA
BRANCH  40  42
ATOM     42  C   UNL A   1      45.516  34.391  26.716  1.00  0.00     0.060 A 
ATOM     43  C   UNL A   1      45.874  34.205  28.052  1.00  0.00     0.016 A 
ATOM     44  C   UNL A   1      44.698  33.508  26.004  1.00  0.00     0.016 A 
ATOM     45  C   UNL A   1      45.709  32.949  28.567  1.00  0.00     0.010 A 
ATOM     46  C   UNL A   1      44.591  32.243  26.491  1.00  0.00     0.010 A 
ATOM     47  C   UNL A   1      45.184  31.969  27.722  1.00  0.00    -0.014 A 
BRANCH  47  48
ATOM     48  C   UNL A   1      45.107  30.619  28.208  1.00  0.00     0.031 A 
ATOM     49  C   UNL A   1      46.164  29.792  27.591  1.00  0.00     0.074 A 
ATOM     50  C   UNL A   1      44.279  30.305  29.221  1.00  0.00     0.049 A 
ATOM     51  N   UNL A   1      46.019  28.783  26.802  1.00  0.00    -0.248 NA
ATOM     52  C   UNL A   1      47.551  30.301  27.664  1.00  0.00     0.031 C 
ATOM     53  C   UNL A   1      43.447  31.220  30.014  1.00  0.00     0.029 A 
ATOM     54  N   UNL A   1      44.116  29.119  29.858  1.00  0.00    -0.354 N 
ATOM     55  C   UNL A   1      47.316  28.378  26.509  1.00  0.00     0.074 A 
ATOM     56  C   UNL A   1      48.179  29.478  26.827  1.00  0.00     0.031 C 
ATOM     57  C   UNL A   1      43.073  30.602  31.156  1.00  0.00     0.029 A 
ATOM     58  C   UNL A   1      43.537  29.228  31.118  1.00  0.00     0.049 A 
ATOM     59  H   UNL A   1      44.385  28.257  29.464  1.00  0.00     0.167 HD
ATOM     60  C   UNL A   1      47.604  27.057  26.402  1.00  0.00     0.037 A 
ATOM     61  C   UNL A   1      43.567  28.268  32.076  1.00  0.00     0.037 A 
ATOM     62  C   UNL A   1      46.412  26.294  26.123  1.00  0.00     0.049 A 
ATOM     63  C   UNL A   1      43.947  26.994  31.409  1.00  0.00     0.074 A 
ATOM     64  C   UNL A   1      45.464  26.309  25.120  1.00  0.00     0.029 A 
ATOM     65  N   UNL A   1      45.846  25.619  27.175  1.00  0.00    -0.354 N 
ATOM     66  N   UNL A   1      43.188  26.359  30.559  1.00  0.00    -0.248 NA
ATOM     67  C   UNL A   1      45.364  26.669  31.333  1.00  0.00     0.031 C 
ATOM     68  C   UNL A   1      44.227  26.019  25.768  1.00  0.00     0.029 A 
ATOM     69  C   UNL A   1      44.486  25.776  27.118  1.00  0.00     0.049 A 
ATOM     70  H   UNL A   1      46.336  25.106  27.858  1.00  0.00     0.167 HD
ATOM     71  C   UNL A   1      44.057  25.912  29.571  1.00  0.00     0.074 A 
ATOM     72  C   UNL A   1      45.390  26.044  30.154  1.00  0.00     0.031 C 
ATOM     73  C   UNL A   1      43.628  25.764  28.282  1.00  0.00     0.037 A 
BRANCH  60  74
ATOM     74  C   UNL A   1      48.840  26.445  27.017  1.00  0.00     0.057 A 
ATOM     75  C   UNL A   1      49.077  26.649  28.384  1.00  0.00     0.134 A 
ATOM     76  C   UNL A   1      49.941  25.931  26.290  1.00  0.00     0.134 A 
ATOM     77  F   UNL A   1      48.119  27.152  29.177  1.00  0.00    -0.206 F 
ATOM     78  C   UNL A   1      50.331  26.434  28.967  1.00  0.00     0.040 A 
ATOM     79  C   UNL A   1      51.178  25.659  26.874  1.00  0.00     0.040 A 
ATOM     80  F   UNL A   1      49.926  25.758  24.964  1.00  0.00    -0.206 F 
ATOM     81  C   UNL A   1      51.389  25.943  28.210  1.00  0.00     0.006 A 
ENDBRANCH  60  74
BRANCH  61  82
ATOM     82  C   UNL A   1      43.657  28.438  33.545  1.00  0.00     0.057 A 
ATOM     83  C   UNL A   1      42.730  27.818  34.396  1.00  0.00     0.134 A 
ATOM     84  C   UNL A   1      44.801  28.971  34.166  1.00  0.00     0.134 A 
ATOM     85  F   UNL A   1      41.629  27.242  33.896  1.00  0.00    -0.206 F 
ATOM     86  C   UNL A   1      42.941  27.712  35.778  1.00  0.00     0.040 A 
ATOM     87  C   UNL A   1      45.018  28.882  35.544  1.00  0.00     0.040 A 
ATOM     88  F   UNL A   1      45.792  29.518  33.447  1.00  0.00    -0.206 F 
ATOM     89  C   UNL A   1      44.093  28.236  36.354  1.00  0.00     0.006 A 
ENDBRANCH  61  82
BRANCH  73  90
ATOM     90  C   UNL A   1      42.142  25.796  28.038  1.00  0.00     0.057 A 
ATOM     91  C   UNL A   1      41.281  24.698  28.194  1.00  0.00     0.134 A 
ATOM     92  C   UNL A   1      41.544  27.024  27.735  1.00  0.00     0.134 A 
ATOM     93  F   UNL A   1      41.743  23.504  28.588  1.00  0.00    -0.206 F 
ATOM     94  C   UNL A   1      39.901  24.807  27.995  1.00  0.00     0.040 A 
ATOM     95  C   UNL A   1      40.163  27.156  27.573  1.00  0.00     0.040 A 
ATOM     96  F   UNL A   1      42.294  28.133  27.628  1.00  0.00    -0.206 F 
ATOM     97  C   UNL A   1      39.338  26.041  27.686  1.00  0.00     0.006 A 
ENDBRANCH  73  90
ENDBRANCH  47  48
ENDBRANCH  40  42
ENDBRANCH  39  40
ENDBRANCH  38  39
ENDBRANCH   1  38
TORSDOF 17
ENDMDL
MODEL 2
REMARK VINA RESULT:      -9.3      4.121      6.865
REMARK SMILES CCCSc1nc2n(n1)[C@@H](c1ccccc1C(=O)OCCOC(=O)c1ccc(-c3c4nc(c(-c5c(F)cccc5F)c5ccc([nH]5)c(-c5c(F)cccc5F)c5nc(c(-c6c(F)cccc6F)c6ccc3[nH]6)C=C5)C=C4)cc1)C(C(=O)Nc1cccc(C)c1C)=C(C)N2
REMARK SMILES IDX 20 1 19 2 17 3 18 4 16 5 11 6 12 7 13 8 15 9 14 10 10 11
REMARK SMILES IDX 5 12 6 13 9 14 7 15 8 16 93 17 91 18 79 20 92 21 4 22 3 23
REMARK SMILES IDX 2 24 1 25 80 26 81 27 82 28 83 30 84 31 89 32 85 33 87 34
REMARK SMILES IDX 90 35 86 36 88 37 21 38 22 39 23 40 24 41 25 42 26 43 78 44
REMARK SMILES IDX 27 45 77 46 28 47 29 48 30 49 71 50 31 51 76 52 70 53 72 54
REMARK SMILES IDX 32 55 75 56 69 57 68 58 33 60 59 61 42 62 58 63 43 64 46 65
REMARK SMILES IDX 57 66 73 67 44 68 45 69 56 71 74 72 47 73 34 74 35 75 40 76
REMARK SMILES IDX 36 77 37 78 39 79 41 80 38 81 60 82 61 83 66 84 62 85 63 86
REMARK SMILES IDX 65 87 67 88 64 89 48 90 49 91 54 92 50 93 51 94 53 95 55 96
REMARK SMILES IDX 52 97
REMARK H PARENT 93 19 82 29 72 59 46 70
REMARK Flexibility Score: inf
ROOT
ATOM      1  C   UNL A   1      47.905  37.974  26.436  1.00  0.00     0.275 C 
ENDROOT
BRANCH   1   2
ATOM      2  O   UNL A   1      47.156  38.113  27.659  1.00  0.00    -0.458 OA
BRANCH   2   3
ATOM      3  C   UNL A   1      46.135  39.005  27.708  1.00  0.00     0.338 C 
ATOM      4  O   UNL A   1      46.247  40.213  27.538  1.00  0.00    -0.246 OA
BRANCH   3   5
ATOM      5  C   UNL A   1      44.832  38.315  27.977  1.00  0.00     0.065 A 
ATOM      6  C   UNL A   1      44.173  38.303  29.234  1.00  0.00    -0.004 A 
ATOM      7  C   UNL A   1      42.895  37.688  29.288  1.00  0.00     0.007 A 
ATOM      8  C   UNL A   1      42.297  37.113  28.166  1.00  0.00     0.000 A 
ATOM      9  C   UNL A   1      44.201  37.752  26.847  1.00  0.00     0.016 A 
ATOM     10  C   UNL A   1      42.944  37.154  26.941  1.00  0.00     0.001 A 
BRANCH   6  11
ATOM     11  C   UNL A   1      44.722  39.054  30.470  1.00  0.00     0.180 C 
ATOM     12  C   UNL A   1      44.743  36.543  32.922  1.00  0.00     0.210 A 
ATOM     13  N   UNL A   1      43.915  37.424  33.575  1.00  0.00    -0.185 NA
ATOM     14  N   UNL A   1      45.280  37.003  31.787  1.00  0.00    -0.141 NA
ATOM     15  C   UNL A   1      43.873  38.447  32.761  1.00  0.00     0.227 A 
ATOM     16  N   UNL A   1      44.673  38.202  31.680  1.00  0.00    -0.218 N 
ATOM     17  N   UNL A   1      43.135  39.570  32.789  1.00  0.00    -0.328 N 
ATOM     18  C   UNL A   1      43.141  40.516  31.772  1.00  0.00     0.026 C 
ATOM     19  H   UNL A   1      42.560  39.731  33.571  1.00  0.00     0.169 HD
ATOM     20  C   UNL A   1      43.965  40.366  30.711  1.00  0.00     0.065 C 
ATOM     21  C   UNL A   1      42.141  41.633  31.907  1.00  0.00     0.065 C 
BRANCH  12  22
ATOM     22  S   UNL A   1      44.813  34.854  33.337  1.00  0.00    -0.084 SA
BRANCH  22  23
ATOM     23  C   UNL A   1      46.462  34.369  32.777  1.00  0.00     0.078 C 
BRANCH  23  24
ATOM     24  C   UNL A   1      46.600  32.902  32.368  1.00  0.00     0.008 C 
ATOM     25  C   UNL A   1      45.314  32.097  32.470  1.00  0.00     0.005 C 
ENDBRANCH  23  24
ENDBRANCH  22  23
ENDBRANCH  12  22
BRANCH  20  26
ATOM     26  C   UNL A   1      44.019  41.400  29.651  1.00  0.00     0.255 C 
ATOM     27  O   UNL A   1      43.186  41.402  28.747  1.00  0.00    -0.269 OA
ATOM     28  N   UNL A   1      45.018  42.351  29.649  1.00  0.00    -0.322 N 
ATOM     29  H   UNL A   1      45.619  42.424  28.873  1.00  0.00     0.170 HD
BRANCH  28  30
ATOM     30  C   UNL A   1      45.186  43.218  30.747  1.00  0.00     0.044 A 
ATOM     31  C   UNL A   1      44.294  44.299  30.779  1.00  0.00     0.026 A 
ATOM     32  C   UNL A   1      46.012  42.924  31.842  1.00  0.00    -0.025 A 
ATOM     33  C   UNL A   1      44.071  44.973  31.969  1.00  0.00     0.002 A 
ATOM     34  C   UNL A   1      45.720  43.554  33.068  1.00  0.00    -0.046 A 
ATOM     35  C   UNL A   1      47.179  41.984  31.724  1.00  0.00     0.047 C 
ATOM     36  C   UNL A   1      44.742  44.566  33.117  1.00  0.00     0.004 A 
ATOM     37  C   UNL A   1      46.307  43.089  34.374  1.00  0.00     0.044 C 
ENDBRANCH  28  30
ENDBRANCH  20  26
ENDBRANCH   6  11
ENDBRANCH   3   5
ENDBRANCH   2   3
ENDBRANCH   1   2
BRANCH   1  38
ATOM     38  C   UNL A   1      47.842  36.569  25.878  1.00  0.00     0.275 C 
BRANCH  38  39
ATOM     39  O   UNL A   1      47.922  35.672  26.965  1.00  0.00    -0.458 OA
BRANCH  39  40
ATOM     40  C   UNL A   1      47.235  34.524  26.784  1.00  0.00     0.338 C 
ATOM     41  O   UNL A   1      47.588  33.529  26.176  1.00  0.00    -0.246 OA
BRANCH  40  42
ATOM     42  C   UNL A   1      45.897  34.711  27.338  1.00  0.00     0.060 A 
ATOM     43  C   UNL A   1      45.853  34.855  28.725  1.00  0.00     0.016 A 
ATOM     44  C   UNL A   1      44.832  34.221  26.577  1.00  0.00     0.016 A 
ATOM     45  C   UNL A   1      44.874  34.168  29.387  1.00  0.00     0.010 A 
ATOM     46  C   UNL A   1      43.896  33.485  27.234  1.00  0.00     0.010 A 
ATOM     47  C   UNL A   1      43.996  33.398  28.621  1.00  0.00    -0.014 A 
BRANCH  47  48
ATOM     48  C   UNL A   1      43.031  32.581  29.304  1.00  0.00     0.031 A 
ATOM     49  C   UNL A   1      43.265  31.154  29.004  1.00  0.00     0.074 A 
ATOM     50  C   UNL A   1      42.200  33.123  30.213  1.00  0.00     0.049 A 
ATOM     51  N   UNL A   1      42.486  30.339  28.379  1.00  0.00    -0.248 NA
ATOM     52  C   UNL A   1      44.635  30.635  29.209  1.00  0.00     0.031 C 
ATOM     53  C   UNL A   1      42.191  34.507  30.705  1.00  0.00     0.029 A 
ATOM     54  N   UNL A   1      41.280  32.515  31.003  1.00  0.00    -0.354 N 
ATOM     55  C   UNL A   1      43.179  29.135  28.363  1.00  0.00     0.074 A 
ATOM     56  C   UNL A   1      44.555  29.440  28.626  1.00  0.00     0.031 C 
ATOM     57  C   UNL A   1      41.492  34.563  31.861  1.00  0.00     0.029 A 
ATOM     58  C   UNL A   1      40.916  33.257  32.122  1.00  0.00     0.049 A 
ATOM     59  H   UNL A   1      40.905  31.627  30.802  1.00  0.00     0.167 HD
ATOM     60  C   UNL A   1      42.508  27.966  28.521  1.00  0.00     0.037 A 
ATOM     61  C   UNL A   1      40.290  32.760  33.217  1.00  0.00     0.037 A 
ATOM     62  C   UNL A   1      41.114  28.127  28.188  1.00  0.00     0.049 A 
ATOM     63  C   UNL A   1      39.722  31.438  32.836  1.00  0.00     0.074 A 
ATOM     64  C   UNL A   1      40.426  28.529  27.061  1.00  0.00     0.029 A 
ATOM     65  N   UNL A   1      40.235  28.246  29.235  1.00  0.00    -0.354 N 
ATOM     66  N   UNL A   1      38.738  31.281  31.994  1.00  0.00    -0.248 NA
ATOM     67  C   UNL A   1      40.556  30.263  33.038  1.00  0.00     0.031 C 
ATOM     68  C   UNL A   1      39.310  29.272  27.546  1.00  0.00     0.029 A 
ATOM     69  C   UNL A   1      39.332  29.233  28.941  1.00  0.00     0.049 A 
ATOM     70  H   UNL A   1      40.251  27.710  30.061  1.00  0.00     0.167 HD
ATOM     71  C   UNL A   1      39.089  30.168  31.241  1.00  0.00     0.074 A 
ATOM     72  C   UNL A   1      40.163  29.527  31.995  1.00  0.00     0.031 C 
ATOM     73  C   UNL A   1      38.680  30.048  29.943  1.00  0.00     0.037 A 
BRANCH  60  74
ATOM     74  C   UNL A   1      43.012  26.857  29.413  1.00  0.00     0.057 A 
ATOM     75  C   UNL A   1      43.338  27.165  30.742  1.00  0.00     0.134 A 
ATOM     76  C   UNL A   1      43.469  25.595  28.963  1.00  0.00     0.134 A 
ATOM     77  F   UNL A   1      42.979  28.340  31.280  1.00  0.00    -0.206 F 
ATOM     78  C   UNL A   1      44.122  26.320  31.536  1.00  0.00     0.040 A 
ATOM     79  C   UNL A   1      44.203  24.721  29.765  1.00  0.00     0.040 A 
ATOM     80  F   UNL A   1      43.328  25.173  27.702  1.00  0.00    -0.206 F 
ATOM     81  C   UNL A   1      44.563  25.096  31.046  1.00  0.00     0.006 A 
ENDBRANCH  60  74
BRANCH  61  82
ATOM     82  C   UNL A   1      40.461  33.157  34.634  1.00  0.00     0.057 A 
ATOM     83  C   UNL A   1      39.357  33.537  35.411  1.00  0.00     0.134 A 
ATOM     84  C   UNL A   1      41.652  32.909  35.339  1.00  0.00     0.134 A 
ATOM     85  F   UNL A   1      38.165  33.753  34.837  1.00  0.00    -0.206 F 
ATOM     86  C   UNL A   1      39.426  33.638  36.807  1.00  0.00     0.040 A 
ATOM     87  C   UNL A   1      41.739  33.017  36.731  1.00  0.00     0.040 A 
ATOM     88  F   UNL A   1      42.753  32.466  34.714  1.00  0.00    -0.206 F 
ATOM     89  C   UNL A   1      40.617  33.367  37.472  1.00  0.00     0.006 A 
ENDBRANCH  61  82
BRANCH  73  90
ATOM     90  C   UNL A   1      37.600  30.984  29.468  1.00  0.00     0.057 A 
ATOM     91  C   UNL A   1      37.803  32.327  29.112  1.00  0.00     0.134 A 
ATOM     92  C   UNL A   1      36.316  30.468  29.260  1.00  0.00     0.134 A 
ATOM     93  F   UNL A   1      39.020  32.884  29.172  1.00  0.00    -0.206 F 
ATOM     94  C   UNL A   1      36.763  33.131  28.635  1.00  0.00     0.040 A 
ATOM     95  C   UNL A   1      35.278  31.248  28.746  1.00  0.00     0.040 A 
ATOM     96  F   UNL A   1      36.057  29.175  29.520  1.00  0.00    -0.206 F 
ATOM     97  C   UNL A   1      35.496  32.589  28.448  1.00  0.00     0.006 A 
ENDBRANCH  73  90
ENDBRANCH  47  48
ENDBRANCH  40  42
ENDBRANCH  39  40
ENDBRANCH  38  39
ENDBRANCH   1  38
TORSDOF 17
ENDMDL
MODEL 3
REMARK VINA RESULT:      -9.2      5.129      8.564
REMARK SMILES CCCSc1nc2n(n1)[C@@H](c1ccccc1C(=O)OCCOC(=O)c1ccc(-c3c4nc(c(-c5c(F)cccc5F)c5ccc([nH]5)c(-c5c(F)cccc5F)c5nc(c(-c6c(F)cccc6F)c6ccc3[nH]6)C=C5)C=C4)cc1)C(C(=O)Nc1cccc(C)c1C)=C(C)N2
REMARK SMILES IDX 20 1 19 2 17 3 18 4 16 5 11 6 12 7 13 8 15 9 14 10 10 11
REMARK SMILES IDX 5 12 6 13 9 14 7 15 8 16 93 17 91 18 79 20 92 21 4 22 3 23
REMARK SMILES IDX 2 24 1 25 80 26 81 27 82 28 83 30 84 31 89 32 85 33 87 34
REMARK SMILES IDX 90 35 86 36 88 37 21 38 22 39 23 40 24 41 25 42 26 43 78 44
REMARK SMILES IDX 27 45 77 46 28 47 29 48 30 49 71 50 31 51 76 52 70 53 72 54
REMARK SMILES IDX 32 55 75 56 69 57 68 58 33 60 59 61 42 62 58 63 43 64 46 65
REMARK SMILES IDX 57 66 73 67 44 68 45 69 56 71 74 72 47 73 34 74 35 75 40 76
REMARK SMILES IDX 36 77 37 78 39 79 41 80 38 81 60 82 61 83 66 84 62 85 63 86
REMARK SMILES IDX 65 87 67 88 64 89 48 90 49 91 54 92 50 93 51 94 53 95 55 96
REMARK SMILES IDX 52 97
REMARK H PARENT 93 19 82 29 72 59 46 70
REMARK Flexibility Score: inf
ROOT
ATOM      1  C   UNL A   1      42.382  33.903  30.402  1.00  0.00     0.275 C 
ENDROOT
BRANCH   1   2
ATOM      2  O   UNL A   1      41.382  33.910  31.439  1.00  0.00    -0.458 OA
BRANCH   2   3
ATOM      3  C   UNL A   1      41.748  34.233  32.705  1.00  0.00     0.338 C 
ATOM      4  O   UNL A   1      41.764  35.368  33.165  1.00  0.00    -0.246 OA
BRANCH   3   5
ATOM      5  C   UNL A   1      42.115  33.009  33.486  1.00  0.00     0.065 A 
ATOM      6  C   UNL A   1      41.178  32.097  34.040  1.00  0.00    -0.004 A 
ATOM      7  C   UNL A   1      41.700  30.934  34.664  1.00  0.00     0.007 A 
ATOM      8  C   UNL A   1      43.070  30.679  34.740  1.00  0.00     0.000 A 
ATOM      9  C   UNL A   1      43.496  32.723  33.550  1.00  0.00     0.016 A 
ATOM     10  C   UNL A   1      43.969  31.568  34.173  1.00  0.00     0.001 A 
BRANCH   6  11
ATOM     11  C   UNL A   1      39.652  32.255  33.853  1.00  0.00     0.180 C 
ATOM     12  C   UNL A   1      38.530  32.652  37.154  1.00  0.00     0.210 A 
ATOM     13  N   UNL A   1      37.788  31.537  36.847  1.00  0.00    -0.185 NA
ATOM     14  N   UNL A   1      39.209  33.183  36.132  1.00  0.00    -0.141 NA
ATOM     15  C   UNL A   1      38.090  31.319  35.593  1.00  0.00     0.227 A 
ATOM     16  N   UNL A   1      38.952  32.288  35.157  1.00  0.00    -0.218 N 
ATOM     17  N   UNL A   1      37.777  30.303  34.770  1.00  0.00    -0.328 N 
ATOM     18  C   UNL A   1      38.278  30.179  33.482  1.00  0.00     0.026 C 
ATOM     19  H   UNL A   1      37.160  29.611  35.099  1.00  0.00     0.169 HD
ATOM     20  C   UNL A   1      39.077  31.142  32.968  1.00  0.00     0.065 C 
ATOM     21  C   UNL A   1      37.936  28.902  32.763  1.00  0.00     0.065 C 
BRANCH  12  22
ATOM     22  S   UNL A   1      38.847  33.130  38.798  1.00  0.00    -0.084 SA
BRANCH  22  23
ATOM     23  C   UNL A   1      37.787  32.020  39.753  1.00  0.00     0.078 C 
BRANCH  23  24
ATOM     24  C   UNL A   1      36.397  32.572  40.074  1.00  0.00     0.008 C 
ATOM     25  C   UNL A   1      35.533  31.649  40.919  1.00  0.00     0.005 C 
ENDBRANCH  23  24
ENDBRANCH  22  23
ENDBRANCH  12  22
BRANCH  20  26
ATOM     26  C   UNL A   1      39.568  31.044  31.573  1.00  0.00     0.255 C 
ATOM     27  O   UNL A   1      40.257  30.087  31.227  1.00  0.00    -0.269 OA
ATOM     28  N   UNL A   1      39.286  32.038  30.659  1.00  0.00    -0.322 N 
ATOM     29  H   UNL A   1      40.023  32.518  30.218  1.00  0.00     0.170 HD
BRANCH  28  30
ATOM     30  C   UNL A   1      37.951  32.371  30.351  1.00  0.00     0.044 A 
ATOM     31  C   UNL A   1      37.298  31.454  29.516  1.00  0.00     0.026 A 
ATOM     32  C   UNL A   1      37.247  33.402  30.992  1.00  0.00    -0.025 A 
ATOM     33  C   UNL A   1      35.914  31.430  29.469  1.00  0.00     0.002 A 
ATOM     34  C   UNL A   1      35.840  33.319  31.008  1.00  0.00    -0.046 A 
ATOM     35  C   UNL A   1      37.953  34.566  31.629  1.00  0.00     0.047 C 
ATOM     36  C   UNL A   1      35.191  32.324  30.253  1.00  0.00     0.004 A 
ATOM     37  C   UNL A   1      34.994  34.162  31.924  1.00  0.00     0.044 C 
ENDBRANCH  28  30
ENDBRANCH  20  26
ENDBRANCH   6  11
ENDBRANCH   3   5
ENDBRANCH   2   3
ENDBRANCH   1   2
BRANCH   1  38
ATOM     38  C   UNL A   1      42.594  35.272  29.796  1.00  0.00     0.275 C 
BRANCH  38  39
ATOM     39  O   UNL A   1      43.819  35.245  29.093  1.00  0.00    -0.458 OA
BRANCH  39  40
ATOM     40  C   UNL A   1      43.698  34.916  27.789  1.00  0.00     0.338 C 
ATOM     41  O   UNL A   1      42.905  35.357  26.977  1.00  0.00    -0.246 OA
BRANCH  40  42
ATOM     42  C   UNL A   1      44.614  33.812  27.520  1.00  0.00     0.060 A 
ATOM     43  C   UNL A   1      44.159  32.890  26.577  1.00  0.00     0.016 A 
ATOM     44  C   UNL A   1      45.527  33.496  28.532  1.00  0.00     0.016 A 
ATOM     45  C   UNL A   1      44.339  31.566  26.869  1.00  0.00     0.010 A 
ATOM     46  C   UNL A   1      45.651  32.183  28.858  1.00  0.00     0.010 A 
ATOM     47  C   UNL A   1      44.974  31.252  28.072  1.00  0.00    -0.014 A 
BRANCH  47  48
ATOM     48  C   UNL A   1      45.073  29.869  28.450  1.00  0.00     0.031 A 
ATOM     49  C   UNL A   1      46.144  29.203  27.680  1.00  0.00     0.074 A 
ATOM     50  C   UNL A   1      44.376  29.398  29.500  1.00  0.00     0.049 A 
ATOM     51  N   UNL A   1      46.025  28.245  26.826  1.00  0.00    -0.248 NA
ATOM     52  C   UNL A   1      47.476  29.846  27.678  1.00  0.00     0.031 C 
ATOM     53  C   UNL A   1      43.536  30.161  30.432  1.00  0.00     0.029 A 
ATOM     54  N   UNL A   1      44.388  28.157  30.048  1.00  0.00    -0.354 N 
ATOM     55  C   UNL A   1      47.322  28.000  26.392  1.00  0.00     0.074 A 
ATOM     56  C   UNL A   1      48.101  29.157  26.726  1.00  0.00     0.031 C 
ATOM     57  C   UNL A   1      43.330  29.425  31.548  1.00  0.00     0.029 A 
ATOM     58  C   UNL A   1      43.919  28.112  31.357  1.00  0.00     0.049 A 
ATOM     59  H   UNL A   1      44.701  27.359  29.563  1.00  0.00     0.167 HD
ATOM     60  C   UNL A   1      47.725  26.726  26.153  1.00  0.00     0.037 A 
ATOM     61  C   UNL A   1      44.130  27.093  32.226  1.00  0.00     0.037 A 
ATOM     62  C   UNL A   1      46.592  25.867  25.913  1.00  0.00     0.049 A 
ATOM     63  C   UNL A   1      44.568  25.918  31.427  1.00  0.00     0.074 A 
ATOM     64  C   UNL A   1      45.559  25.858  24.998  1.00  0.00     0.029 A 
ATOM     65  N   UNL A   1      46.193  25.062  26.949  1.00  0.00    -0.354 N 
ATOM     66  N   UNL A   1      43.799  25.272  30.595  1.00  0.00    -0.248 NA
ATOM     67  C   UNL A   1      45.997  25.747  31.206  1.00  0.00     0.031 C 
ATOM     68  C   UNL A   1      44.420  25.395  25.721  1.00  0.00     0.029 A 
ATOM     69  C   UNL A   1      44.825  25.082  27.020  1.00  0.00     0.049 A 
ATOM     70  H   UNL A   1      46.791  24.553  27.544  1.00  0.00     0.167 HD
ATOM     71  C   UNL A   1      44.612  24.991  29.504  1.00  0.00     0.074 A 
ATOM     72  C   UNL A   1      45.974  25.217  29.981  1.00  0.00     0.031 C 
ATOM     73  C   UNL A   1      44.083  24.895  28.247  1.00  0.00     0.037 A 
BRANCH  60  74
ATOM     74  C   UNL A   1      49.066  26.202  26.609  1.00  0.00     0.057 A 
ATOM     75  C   UNL A   1      49.369  26.245  27.977  1.00  0.00     0.134 A 
ATOM     76  C   UNL A   1      50.169  25.942  25.760  1.00  0.00     0.134 A 
ATOM     77  F   UNL A   1      48.414  26.504  28.883  1.00  0.00    -0.206 F 
ATOM     78  C   UNL A   1      50.678  26.117  28.459  1.00  0.00     0.040 A 
ATOM     79  C   UNL A   1      51.467  25.756  26.235  1.00  0.00     0.040 A 
ATOM     80  F   UNL A   1      50.084  25.953  24.426  1.00  0.00    -0.206 F 
ATOM     81  C   UNL A   1      51.733  25.877  27.586  1.00  0.00     0.006 A 
ENDBRANCH  60  74
BRANCH  61  82
ATOM     82  C   UNL A   1      44.338  27.162  33.692  1.00  0.00     0.057 A 
ATOM     83  C   UNL A   1      45.472  27.793  34.226  1.00  0.00     0.134 A 
ATOM     84  C   UNL A   1      43.312  26.866  34.606  1.00  0.00     0.134 A 
ATOM     85  F   UNL A   1      46.487  28.155  33.429  1.00  0.00    -0.206 F 
ATOM     86  C   UNL A   1      45.567  28.132  35.583  1.00  0.00     0.040 A 
ATOM     87  C   UNL A   1      43.398  27.190  35.964  1.00  0.00     0.040 A 
ATOM     88  F   UNL A   1      42.150  26.334  34.200  1.00  0.00    -0.206 F 
ATOM     89  C   UNL A   1      44.523  27.840  36.454  1.00  0.00     0.006 A 
ENDBRANCH  61  82
BRANCH  73  90
ATOM     90  C   UNL A   1      42.585  24.791  28.133  1.00  0.00     0.057 A 
ATOM     91  C   UNL A   1      41.707  25.886  28.089  1.00  0.00     0.134 A 
ATOM     92  C   UNL A   1      42.018  23.525  27.951  1.00  0.00     0.134 A 
ATOM     93  F   UNL A   1      42.163  27.145  28.147  1.00  0.00    -0.206 F 
ATOM     94  C   UNL A   1      40.326  25.721  27.937  1.00  0.00     0.040 A 
ATOM     95  C   UNL A   1      40.646  23.348  27.756  1.00  0.00     0.040 A 
ATOM     96  F   UNL A   1      42.799  22.433  27.920  1.00  0.00    -0.206 F 
ATOM     97  C   UNL A   1      39.793  24.448  27.766  1.00  0.00     0.006 A 
ENDBRANCH  73  90
ENDBRANCH  47  48
ENDBRANCH  40  42
ENDBRANCH  39  40
ENDBRANCH  38  39
ENDBRANCH   1  38
TORSDOF 17
ENDMDL
