MODEL 1
REMARK VINA RESULT:     -11.0      0.000      0.000
REMARK SMILES O=C(OCCOC(=O)[C@@H]1CCCN(C(=O)Nc2ccccc2)C1)c1ccc(-c2c3nc(c(-c4c(F)cccc4F)c4ccc([nH]4)c(-c4c(F)cccc4F)c4nc(c(-c5c(F)cccc5F)c5ccc2[nH]5)C=C4)C=C3)cc1
REMARK SMILES IDX 4 1 3 2 2 3 1 4 24 5 25 6 77 7 26 8 76 9 27 10 28 11 29 12
REMARK SMILES IDX 70 13 30 14 75 15 69 16 71 17 31 18 74 19 68 20 67 21 32 23
REMARK SMILES IDX 58 24 41 25 57 26 42 27 45 28 56 29 72 30 43 31 44 32 55 34
REMARK SMILES IDX 73 35 46 36 33 37 34 38 39 39 35 40 36 41 38 42 40 43 37 44
REMARK SMILES IDX 59 45 60 46 65 47 61 48 62 49 64 50 66 51 63 52 47 53 48 54
REMARK SMILES IDX 53 55 49 56 50 57 52 58 54 59 51 60 5 61 6 62 7 63 8 64 9 65
REMARK SMILES IDX 10 66 23 67 11 68 13 69 12 70 14 71 15 72 16 73 17 75 18 76
REMARK SMILES IDX 22 77 19 78 21 79 20 80
REMARK H PARENT 71 22 45 33 16 74
REMARK Flexibility Score: inf
ROOT
ATOM      1  C   UNL A   1      33.459  33.221  27.876  1.00  0.00     0.275 C 
ENDROOT
BRANCH   1   2
ATOM      2  O   UNL A   1      34.048  32.130  28.601  1.00  0.00    -0.458 OA
BRANCH   2   3
ATOM      3  C   UNL A   1      34.399  30.973  28.006  1.00  0.00     0.338 C 
ATOM      4  O   UNL A   1      33.688  30.451  27.163  1.00  0.00    -0.246 OA
BRANCH   3   5
ATOM      5  C   UNL A   1      35.768  30.450  28.309  1.00  0.00     0.060 A 
ATOM      6  C   UNL A   1      36.908  30.646  27.527  1.00  0.00     0.016 A 
ATOM      7  C   UNL A   1      35.904  29.746  29.504  1.00  0.00     0.016 A 
ATOM      8  C   UNL A   1      38.158  30.201  27.970  1.00  0.00     0.010 A 
ATOM      9  C   UNL A   1      37.142  29.320  29.964  1.00  0.00     0.010 A 
ATOM     10  C   UNL A   1      38.284  29.543  29.199  1.00  0.00    -0.014 A 
BRANCH  10  11
ATOM     11  C   UNL A   1      39.587  29.019  29.658  1.00  0.00     0.031 A 
ATOM     12  C   UNL A   1      40.205  29.603  30.896  1.00  0.00     0.074 A 
ATOM     13  C   UNL A   1      40.217  28.063  28.947  1.00  0.00     0.049 A 
ATOM     14  N   UNL A   1      41.305  29.263  31.511  1.00  0.00    -0.248 NA
ATOM     15  C   UNL A   1      39.521  30.763  31.497  1.00  0.00     0.031 C 
ATOM     16  C   UNL A   1      39.765  27.519  27.663  1.00  0.00     0.029 A 
ATOM     17  N   UNL A   1      41.372  27.373  29.208  1.00  0.00    -0.354 N 
ATOM     18  C   UNL A   1      41.434  30.164  32.560  1.00  0.00     0.074 A 
ATOM     19  C   UNL A   1      40.390  31.148  32.415  1.00  0.00     0.031 C 
ATOM     20  C   UNL A   1      40.611  26.551  27.271  1.00  0.00     0.029 A 
ATOM     21  C   UNL A   1      41.656  26.402  28.277  1.00  0.00     0.049 A 
ATOM     22  H   UNL A   1      41.942  27.554  29.989  1.00  0.00     0.167 HD
ATOM     23  C   UNL A   1      42.289  30.123  33.606  1.00  0.00     0.037 A 
ATOM     24  C   UNL A   1      42.632  25.474  28.274  1.00  0.00     0.037 A 
ATOM     25  C   UNL A   1      43.274  29.093  33.764  1.00  0.00     0.049 A 
ATOM     26  C   UNL A   1      43.547  25.409  29.470  1.00  0.00     0.074 A 
ATOM     27  C   UNL A   1      44.147  28.876  34.812  1.00  0.00     0.029 A 
ATOM     28  N   UNL A   1      43.500  28.089  32.832  1.00  0.00    -0.354 N 
ATOM     29  N   UNL A   1      43.574  26.179  30.533  1.00  0.00    -0.248 NA
ATOM     30  C   UNL A   1      44.540  24.326  29.487  1.00  0.00     0.031 C 
ATOM     31  C   UNL A   1      44.919  27.751  34.502  1.00  0.00     0.029 A 
ATOM     32  C   UNL A   1      44.501  27.248  33.278  1.00  0.00     0.049 A 
ATOM     33  H   UNL A   1      43.018  27.990  31.978  1.00  0.00     0.167 HD
ATOM     34  C   UNL A   1      44.555  25.652  31.362  1.00  0.00     0.074 A 
ATOM     35  C   UNL A   1      45.088  24.487  30.682  1.00  0.00     0.031 C 
ATOM     36  C   UNL A   1      44.982  26.086  32.574  1.00  0.00     0.037 A 
BRANCH  23  37
ATOM     37  C   UNL A   1      42.130  31.182  34.657  1.00  0.00     0.057 A 
ATOM     38  C   UNL A   1      41.211  31.036  35.711  1.00  0.00     0.134 A 
ATOM     39  C   UNL A   1      42.852  32.378  34.597  1.00  0.00     0.134 A 
ATOM     40  F   UNL A   1      40.471  29.921  35.818  1.00  0.00    -0.206 F 
ATOM     41  C   UNL A   1      40.977  32.062  36.628  1.00  0.00     0.040 A 
ATOM     42  C   UNL A   1      42.650  33.399  35.531  1.00  0.00     0.040 A 
ATOM     43  F   UNL A   1      43.748  32.587  33.622  1.00  0.00    -0.206 F 
ATOM     44  C   UNL A   1      41.700  33.248  36.540  1.00  0.00     0.006 A 
ENDBRANCH  23  37
BRANCH  24  45
ATOM     45  C   UNL A   1      42.736  24.483  27.170  1.00  0.00     0.057 A 
ATOM     46  C   UNL A   1      42.070  23.251  27.235  1.00  0.00     0.134 A 
ATOM     47  C   UNL A   1      43.517  24.726  26.034  1.00  0.00     0.134 A 
ATOM     48  F   UNL A   1      41.311  22.952  28.300  1.00  0.00    -0.206 F 
ATOM     49  C   UNL A   1      42.205  22.288  26.234  1.00  0.00     0.040 A 
ATOM     50  C   UNL A   1      43.641  23.780  25.012  1.00  0.00     0.040 A 
ATOM     51  F   UNL A   1      44.167  25.891  25.896  1.00  0.00    -0.206 F 
ATOM     52  C   UNL A   1      42.992  22.551  25.117  1.00  0.00     0.006 A 
ENDBRANCH  24  45
BRANCH  36  53
ATOM     53  C   UNL A   1      46.047  25.276  33.250  1.00  0.00     0.057 A 
ATOM     54  C   UNL A   1      47.405  25.577  33.098  1.00  0.00     0.134 A 
ATOM     55  C   UNL A   1      45.702  24.229  34.113  1.00  0.00     0.134 A 
ATOM     56  F   UNL A   1      47.797  26.562  32.276  1.00  0.00    -0.206 F 
ATOM     57  C   UNL A   1      48.387  24.851  33.771  1.00  0.00     0.040 A 
ATOM     58  C   UNL A   1      46.672  23.516  34.814  1.00  0.00     0.040 A 
ATOM     59  F   UNL A   1      44.415  23.901  34.307  1.00  0.00    -0.206 F 
ATOM     60  C   UNL A   1      48.020  23.824  34.639  1.00  0.00     0.006 A 
ENDBRANCH  36  53
ENDBRANCH  10  11
ENDBRANCH   3   5
ENDBRANCH   2   3
ENDBRANCH   1   2
BRANCH   1  61
ATOM     61  C   UNL A   1      33.729  34.672  28.312  1.00  0.00     0.274 C 
BRANCH  61  62
ATOM     62  O   UNL A   1      32.616  35.391  28.879  1.00  0.00    -0.462 OA
BRANCH  62  63
ATOM     63  C   UNL A   1      32.986  36.554  29.492  1.00  0.00     0.310 C 
ATOM     64  O   UNL A   1      33.363  37.548  28.875  1.00  0.00    -0.252 OA
BRANCH  63  65
ATOM     65  C   UNL A   1      32.844  36.568  31.011  1.00  0.00     0.119 C 
ATOM     66  C   UNL A   1      33.734  37.560  31.749  1.00  0.00     0.019 C 
ATOM     67  C   UNL A   1      32.862  35.139  31.569  1.00  0.00     0.136 C 
ATOM     68  C   UNL A   1      34.001  37.160  33.197  1.00  0.00     0.023 C 
ATOM     69  N   UNL A   1      34.065  34.795  32.326  1.00  0.00    -0.324 N 
ATOM     70  C   UNL A   1      34.428  35.705  33.403  1.00  0.00     0.121 C 
BRANCH  69  71
ATOM     71  C   UNL A   1      34.541  33.487  32.193  1.00  0.00     0.321 C 
ATOM     72  O   UNL A   1      33.971  32.542  32.746  1.00  0.00    -0.248 OA
ATOM     73  N   UNL A   1      35.384  33.210  31.154  1.00  0.00    -0.308 N 
ATOM     74  H   UNL A   1      35.026  32.546  30.521  1.00  0.00     0.171 HD
BRANCH  73  75
ATOM     75  C   UNL A   1      36.657  33.683  30.810  1.00  0.00     0.042 A 
ATOM     76  C   UNL A   1      37.473  34.157  31.849  1.00  0.00     0.026 A 
ATOM     77  C   UNL A   1      37.141  33.691  29.504  1.00  0.00     0.026 A 
ATOM     78  C   UNL A   1      38.799  34.514  31.603  1.00  0.00     0.002 A 
ATOM     79  C   UNL A   1      38.462  34.081  29.254  1.00  0.00     0.002 A 
ATOM     80  C   UNL A   1      39.297  34.465  30.304  1.00  0.00     0.000 A 
ENDBRANCH  73  75
ENDBRANCH  69  71
ENDBRANCH  63  65
ENDBRANCH  62  63
ENDBRANCH  61  62
ENDBRANCH   1  61
TORSDOF 13
ENDMDL
MODEL 2
REMARK VINA RESULT:     -10.7      0.450      1.696
REMARK SMILES O=C(OCCOC(=O)[C@@H]1CCCN(C(=O)Nc2ccccc2)C1)c1ccc(-c2c3nc(c(-c4c(F)cccc4F)c4ccc([nH]4)c(-c4c(F)cccc4F)c4nc(c(-c5c(F)cccc5F)c5ccc2[nH]5)C=C4)C=C3)cc1
REMARK SMILES IDX 4 1 3 2 2 3 1 4 24 5 25 6 77 7 26 8 76 9 27 10 28 11 29 12
REMARK SMILES IDX 70 13 30 14 75 15 69 16 71 17 31 18 74 19 68 20 67 21 32 23
REMARK SMILES IDX 58 24 41 25 57 26 42 27 45 28 56 29 72 30 43 31 44 32 55 34
REMARK SMILES IDX 73 35 46 36 33 37 34 38 39 39 35 40 36 41 38 42 40 43 37 44
REMARK SMILES IDX 59 45 60 46 65 47 61 48 62 49 64 50 66 51 63 52 47 53 48 54
REMARK SMILES IDX 53 55 49 56 50 57 52 58 54 59 51 60 5 61 6 62 7 63 8 64 9 65
REMARK SMILES IDX 10 66 23 67 11 68 13 69 12 70 14 71 15 72 16 73 17 75 18 76
REMARK SMILES IDX 22 77 19 78 21 79 20 80
REMARK H PARENT 71 22 45 33 16 74
REMARK Flexibility Score: inf
ROOT
ATOM      1  C   UNL A   1      33.158  32.907  27.624  1.00  0.00     0.275 C 
ENDROOT
BRANCH   1   2
ATOM      2  O   UNL A   1      34.266  32.068  27.264  1.00  0.00    -0.458 OA
BRANCH   2   3
ATOM      3  C   UNL A   1      34.349  30.778  27.646  1.00  0.00     0.338 C 
ATOM      4  O   UNL A   1      33.388  30.030  27.571  1.00  0.00    -0.246 OA
BRANCH   3   5
ATOM      5  C   UNL A   1      35.710  30.272  28.010  1.00  0.00     0.060 A 
ATOM      6  C   UNL A   1      36.871  30.434  27.251  1.00  0.00     0.016 A 
ATOM      7  C   UNL A   1      35.813  29.624  29.239  1.00  0.00     0.016 A 
ATOM      8  C   UNL A   1      38.108  30.011  27.748  1.00  0.00     0.010 A 
ATOM      9  C   UNL A   1      37.038  29.221  29.752  1.00  0.00     0.010 A 
ATOM     10  C   UNL A   1      38.200  29.411  29.009  1.00  0.00    -0.014 A 
BRANCH  10  11
ATOM     11  C   UNL A   1      39.490  28.910  29.528  1.00  0.00     0.031 A 
ATOM     12  C   UNL A   1      40.053  29.523  30.778  1.00  0.00     0.074 A 
ATOM     13  C   UNL A   1      40.158  27.950  28.858  1.00  0.00     0.049 A 
ATOM     14  N   UNL A   1      41.133  29.207  31.441  1.00  0.00    -0.248 NA
ATOM     15  C   UNL A   1      39.333  30.685  31.332  1.00  0.00     0.031 C 
ATOM     16  C   UNL A   1      39.763  27.378  27.568  1.00  0.00     0.029 A 
ATOM     17  N   UNL A   1      41.310  27.278  29.176  1.00  0.00    -0.354 N 
ATOM     18  C   UNL A   1      41.211  30.127  32.478  1.00  0.00     0.074 A 
ATOM     19  C   UNL A   1      40.162  31.096  32.275  1.00  0.00     0.031 C 
ATOM     20  C   UNL A   1      40.634  26.414  27.226  1.00  0.00     0.029 A 
ATOM     21  C   UNL A   1      41.641  26.295  28.274  1.00  0.00     0.049 A 
ATOM     22  H   UNL A   1      41.847  27.480  29.975  1.00  0.00     0.167 HD
ATOM     23  C   UNL A   1      42.025  30.114  33.557  1.00  0.00     0.037 A 
ATOM     24  C   UNL A   1      42.627  25.378  28.325  1.00  0.00     0.037 A 
ATOM     25  C   UNL A   1      43.015  29.099  33.771  1.00  0.00     0.049 A 
ATOM     26  C   UNL A   1      43.496  25.345  29.556  1.00  0.00     0.074 A 
ATOM     27  C   UNL A   1      43.849  28.911  34.856  1.00  0.00     0.029 A 
ATOM     28  N   UNL A   1      43.288  28.081  32.866  1.00  0.00    -0.354 N 
ATOM     29  N   UNL A   1      43.472  26.133  30.605  1.00  0.00    -0.248 NA
ATOM     30  C   UNL A   1      44.499  24.274  29.631  1.00  0.00     0.031 C 
ATOM     31  C   UNL A   1      44.645  27.789  34.595  1.00  0.00     0.029 A 
ATOM     32  C   UNL A   1      44.280  27.260  33.365  1.00  0.00     0.049 A 
ATOM     33  H   UNL A   1      42.841  27.962  31.996  1.00  0.00     0.167 HD
ATOM     34  C   UNL A   1      44.427  25.633  31.481  1.00  0.00     0.074 A 
ATOM     35  C   UNL A   1      44.999  24.463  30.843  1.00  0.00     0.031 C 
ATOM     36  C   UNL A   1      44.801  26.092  32.701  1.00  0.00     0.037 A 
BRANCH  23  37
ATOM     37  C   UNL A   1      41.813  31.189  34.582  1.00  0.00     0.057 A 
ATOM     38  C   UNL A   1      42.561  32.378  34.562  1.00  0.00     0.134 A 
ATOM     39  C   UNL A   1      40.898  31.024  35.628  1.00  0.00     0.134 A 
ATOM     40  F   UNL A   1      43.471  32.593  33.598  1.00  0.00    -0.206 F 
ATOM     41  C   UNL A   1      42.449  33.333  35.574  1.00  0.00     0.040 A 
ATOM     42  C   UNL A   1      40.753  31.990  36.627  1.00  0.00     0.040 A 
ATOM     43  F   UNL A   1      40.147  29.917  35.709  1.00  0.00    -0.206 F 
ATOM     44  C   UNL A   1      41.541  33.141  36.610  1.00  0.00     0.006 A 
ENDBRANCH  23  37
BRANCH  24  45
ATOM     45  C   UNL A   1      42.785  24.370  27.243  1.00  0.00     0.057 A 
ATOM     46  C   UNL A   1      43.559  24.641  26.107  1.00  0.00     0.134 A 
ATOM     47  C   UNL A   1      42.154  23.122  27.302  1.00  0.00     0.134 A 
ATOM     48  F   UNL A   1      44.185  25.820  25.985  1.00  0.00    -0.206 F 
ATOM     49  C   UNL A   1      43.671  23.727  25.057  1.00  0.00     0.040 A 
ATOM     50  C   UNL A   1      42.276  22.187  26.269  1.00  0.00     0.040 A 
ATOM     51  F   UNL A   1      41.412  22.788  28.369  1.00  0.00    -0.206 F 
ATOM     52  C   UNL A   1      43.028  22.495  25.137  1.00  0.00     0.006 A 
ENDBRANCH  24  45
BRANCH  36  53
ATOM     53  C   UNL A   1      45.848  25.307  33.431  1.00  0.00     0.057 A 
ATOM     54  C   UNL A   1      45.514  24.233  34.263  1.00  0.00     0.134 A 
ATOM     55  C   UNL A   1      47.207  25.591  33.244  1.00  0.00     0.134 A 
ATOM     56  F   UNL A   1      44.228  23.922  34.490  1.00  0.00    -0.206 F 
ATOM     57  C   UNL A   1      46.497  23.476  34.899  1.00  0.00     0.040 A 
ATOM     58  C   UNL A   1      48.199  24.822  33.851  1.00  0.00     0.040 A 
ATOM     59  F   UNL A   1      47.590  26.602  32.449  1.00  0.00    -0.206 F 
ATOM     60  C   UNL A   1      47.843  23.764  34.685  1.00  0.00     0.006 A 
ENDBRANCH  36  53
ENDBRANCH  10  11
ENDBRANCH   3   5
ENDBRANCH   2   3
ENDBRANCH   1   2
BRANCH   1  61
ATOM     61  C   UNL A   1      33.408  34.335  28.144  1.00  0.00     0.274 C 
BRANCH  61  62
ATOM     62  O   UNL A   1      33.008  34.604  29.502  1.00  0.00    -0.462 OA
BRANCH  62  63
ATOM     63  C   UNL A   1      32.760  35.926  29.736  1.00  0.00     0.310 C 
ATOM     64  O   UNL A   1      32.571  36.743  28.837  1.00  0.00    -0.252 OA
BRANCH  63  65
ATOM     65  C   UNL A   1      32.670  36.326  31.206  1.00  0.00     0.119 C 
ATOM     66  C   UNL A   1      33.498  37.539  31.612  1.00  0.00     0.019 C 
ATOM     67  C   UNL A   1      32.829  35.098  32.112  1.00  0.00     0.136 C 
ATOM     68  C   UNL A   1      33.849  37.552  33.097  1.00  0.00     0.023 C 
ATOM     69  N   UNL A   1      34.082  35.052  32.863  1.00  0.00    -0.324 N 
ATOM     70  C   UNL A   1      34.403  36.236  33.648  1.00  0.00     0.121 C 
BRANCH  69  71
ATOM     71  C   UNL A   1      34.661  33.793  33.046  1.00  0.00     0.321 C 
ATOM     72  O   UNL A   1      34.345  33.078  34.001  1.00  0.00    -0.248 OA
ATOM     73  N   UNL A   1      35.271  33.202  31.975  1.00  0.00    -0.308 N 
ATOM     74  H   UNL A   1      34.857  32.351  31.705  1.00  0.00     0.171 HD
BRANCH  73  75
ATOM     75  C   UNL A   1      36.369  33.567  31.184  1.00  0.00     0.042 A 
ATOM     76  C   UNL A   1      37.423  34.245  31.816  1.00  0.00     0.026 A 
ATOM     77  C   UNL A   1      36.459  33.279  29.825  1.00  0.00     0.026 A 
ATOM     78  C   UNL A   1      38.605  34.518  31.127  1.00  0.00     0.002 A 
ATOM     79  C   UNL A   1      37.633  33.583  29.126  1.00  0.00     0.002 A 
ATOM     80  C   UNL A   1      38.713  34.175  29.782  1.00  0.00     0.000 A 
ENDBRANCH  73  75
ENDBRANCH  69  71
ENDBRANCH  63  65
ENDBRANCH  62  63
ENDBRANCH  61  62
ENDBRANCH   1  61
TORSDOF 13
ENDMDL
MODEL 3
REMARK VINA RESULT:     -10.5      5.022     12.197
REMARK SMILES O=C(OCCOC(=O)[C@@H]1CCCN(C(=O)Nc2ccccc2)C1)c1ccc(-c2c3nc(c(-c4c(F)cccc4F)c4ccc([nH]4)c(-c4c(F)cccc4F)c4nc(c(-c5c(F)cccc5F)c5ccc2[nH]5)C=C4)C=C3)cc1
REMARK SMILES IDX 4 1 3 2 2 3 1 4 24 5 25 6 77 7 26 8 76 9 27 10 28 11 29 12
REMARK SMILES IDX 70 13 30 14 75 15 69 16 71 17 31 18 74 19 68 20 67 21 32 23
REMARK SMILES IDX 58 24 41 25 57 26 42 27 45 28 56 29 72 30 43 31 44 32 55 34
REMARK SMILES IDX 73 35 46 36 33 37 34 38 39 39 35 40 36 41 38 42 40 43 37 44
REMARK SMILES IDX 59 45 60 46 65 47 61 48 62 49 64 50 66 51 63 52 47 53 48 54
REMARK SMILES IDX 53 55 49 56 50 57 52 58 54 59 51 60 5 61 6 62 7 63 8 64 9 65
REMARK SMILES IDX 10 66 23 67 11 68 13 69 12 70 14 71 15 72 16 73 17 75 18 76
REMARK SMILES IDX 22 77 19 78 21 79 20 80
REMARK H PARENT 71 22 45 33 16 74
REMARK Flexibility Score: inf
ROOT
ATOM      1  C   UNL A   1      39.962  20.548  26.126  1.00  0.00     0.275 C 
ENDROOT
BRANCH   1   2
ATOM      2  O   UNL A   1      39.638  21.714  26.899  1.00  0.00    -0.458 OA
BRANCH   2   3
ATOM      3  C   UNL A   1      39.074  22.810  26.353  1.00  0.00     0.338 C 
ATOM      4  O   UNL A   1      38.231  22.719  25.475  1.00  0.00    -0.246 OA
BRANCH   3   5
ATOM      5  C   UNL A   1      39.410  24.124  26.984  1.00  0.00     0.060 A 
ATOM      6  C   UNL A   1      39.277  24.437  28.338  1.00  0.00     0.016 A 
ATOM      7  C   UNL A   1      39.944  25.092  26.135  1.00  0.00     0.016 A 
ATOM      8  C   UNL A   1      39.728  25.667  28.829  1.00  0.00     0.010 A 
ATOM      9  C   UNL A   1      40.416  26.305  26.615  1.00  0.00     0.010 A 
ATOM     10  C   UNL A   1      40.312  26.605  27.970  1.00  0.00    -0.014 A 
BRANCH  10  11
ATOM     11  C   UNL A   1      40.745  27.930  28.462  1.00  0.00     0.031 A 
ATOM     12  C   UNL A   1      42.204  28.281  28.400  1.00  0.00     0.074 A 
ATOM     13  C   UNL A   1      39.844  28.780  28.992  1.00  0.00     0.049 A 
ATOM     14  N   UNL A   1      42.801  29.398  28.720  1.00  0.00    -0.248 NA
ATOM     15  C   UNL A   1      43.127  27.215  27.968  1.00  0.00     0.031 C 
ATOM     16  C   UNL A   1      38.425  28.486  29.217  1.00  0.00     0.029 A 
ATOM     17  N   UNL A   1      39.986  30.070  29.432  1.00  0.00    -0.354 N 
ATOM     18  C   UNL A   1      44.155  29.160  28.526  1.00  0.00     0.074 A 
ATOM     19  C   UNL A   1      44.306  27.763  28.204  1.00  0.00     0.031 C 
ATOM     20  C   UNL A   1      37.821  29.580  29.713  1.00  0.00     0.029 A 
ATOM     21  C   UNL A   1      38.805  30.649  29.834  1.00  0.00     0.049 A 
ATOM     22  H   UNL A   1      40.851  30.538  29.457  1.00  0.00     0.167 HD
ATOM     23  C   UNL A   1      45.174  30.048  28.523  1.00  0.00     0.037 A 
ATOM     24  C   UNL A   1      38.555  31.917  30.212  1.00  0.00     0.037 A 
ATOM     25  C   UNL A   1      44.987  31.447  28.777  1.00  0.00     0.049 A 
ATOM     26  C   UNL A   1      39.690  32.907  30.157  1.00  0.00     0.074 A 
ATOM     27  C   UNL A   1      45.910  32.473  28.723  1.00  0.00     0.029 A 
ATOM     28  N   UNL A   1      43.768  32.014  29.125  1.00  0.00    -0.354 N 
ATOM     29  N   UNL A   1      40.947  32.705  29.833  1.00  0.00    -0.248 NA
ATOM     30  C   UNL A   1      39.369  34.303  30.480  1.00  0.00     0.031 C 
ATOM     31  C   UNL A   1      45.251  33.660  29.061  1.00  0.00     0.029 A 
ATOM     32  C   UNL A   1      43.912  33.377  29.290  1.00  0.00     0.049 A 
ATOM     33  H   UNL A   1      42.924  31.517  29.236  1.00  0.00     0.167 HD
ATOM     34  C   UNL A   1      41.557  33.952  29.874  1.00  0.00     0.074 A 
ATOM     35  C   UNL A   1      40.525  34.904  30.240  1.00  0.00     0.031 C 
ATOM     36  C   UNL A   1      42.849  34.287  29.634  1.00  0.00     0.037 A 
BRANCH  23  37
ATOM     37  C   UNL A   1      46.535  29.520  28.174  1.00  0.00     0.057 A 
ATOM     38  C   UNL A   1      46.969  29.437  26.840  1.00  0.00     0.134 A 
ATOM     39  C   UNL A   1      47.402  29.041  29.162  1.00  0.00     0.134 A 
ATOM     40  F   UNL A   1      46.179  29.861  25.841  1.00  0.00    -0.206 F 
ATOM     41  C   UNL A   1      48.186  28.846  26.499  1.00  0.00     0.040 A 
ATOM     42  C   UNL A   1      48.639  28.478  28.834  1.00  0.00     0.040 A 
ATOM     43  F   UNL A   1      47.057  29.090  30.456  1.00  0.00    -0.206 F 
ATOM     44  C   UNL A   1      49.027  28.365  27.500  1.00  0.00     0.006 A 
ENDBRANCH  23  37
BRANCH  24  45
ATOM     45  C   UNL A   1      37.178  32.345  30.576  1.00  0.00     0.057 A 
ATOM     46  C   UNL A   1      36.718  32.261  31.897  1.00  0.00     0.134 A 
ATOM     47  C   UNL A   1      36.279  32.827  29.617  1.00  0.00     0.134 A 
ATOM     48  F   UNL A   1      37.526  31.802  32.863  1.00  0.00    -0.206 F 
ATOM     49  C   UNL A   1      35.410  32.605  32.244  1.00  0.00     0.040 A 
ATOM     50  C   UNL A   1      34.974  33.197  29.954  1.00  0.00     0.040 A 
ATOM     51  F   UNL A   1      36.658  32.951  28.336  1.00  0.00    -0.206 F 
ATOM     52  C   UNL A   1      34.533  33.075  31.271  1.00  0.00     0.006 A 
ENDBRANCH  24  45
BRANCH  36  53
ATOM     53  C   UNL A   1      43.203  35.741  29.723  1.00  0.00     0.057 A 
ATOM     54  C   UNL A   1      43.776  36.287  30.877  1.00  0.00     0.134 A 
ATOM     55  C   UNL A   1      43.028  36.583  28.618  1.00  0.00     0.134 A 
ATOM     56  F   UNL A   1      43.957  35.531  31.971  1.00  0.00    -0.206 F 
ATOM     57  C   UNL A   1      44.150  37.629  30.934  1.00  0.00     0.040 A 
ATOM     58  C   UNL A   1      43.425  37.919  28.653  1.00  0.00     0.040 A 
ATOM     59  F   UNL A   1      42.493  36.113  27.480  1.00  0.00    -0.206 F 
ATOM     60  C   UNL A   1      43.983  38.445  29.816  1.00  0.00     0.006 A 
ENDBRANCH  36  53
ENDBRANCH  10  11
ENDBRANCH   3   5
ENDBRANCH   2   3
ENDBRANCH   1   2
BRANCH   1  61
ATOM     61  C   UNL A   1      41.197  19.702  26.485  1.00  0.00     0.274 C 
BRANCH  61  62
ATOM     62  O   UNL A   1      41.980  19.207  25.382  1.00  0.00    -0.462 OA
BRANCH  62  63
ATOM     63  C   UNL A   1      43.048  18.454  25.778  1.00  0.00     0.310 C 
ATOM     64  O   UNL A   1      42.991  17.636  26.693  1.00  0.00    -0.252 OA
BRANCH  63  65
ATOM     65  C   UNL A   1      44.325  18.649  24.964  1.00  0.00     0.119 C 
ATOM     66  C   UNL A   1      45.628  18.556  25.748  1.00  0.00     0.019 C 
ATOM     67  C   UNL A   1      44.203  19.876  24.051  1.00  0.00     0.136 C 
ATOM     68  C   UNL A   1      46.780  19.304  25.083  1.00  0.00     0.023 C 
ATOM     69  N   UNL A   1      45.039  21.011  24.438  1.00  0.00    -0.324 N 
ATOM     70  C   UNL A   1      46.455  20.729  24.629  1.00  0.00     0.121 C 
BRANCH  69  71
ATOM     71  C   UNL A   1      44.498  22.286  24.249  1.00  0.00     0.321 C 
ATOM     72  O   UNL A   1      44.450  22.797  23.126  1.00  0.00    -0.248 OA
ATOM     73  N   UNL A   1      43.682  22.792  25.221  1.00  0.00    -0.308 N 
ATOM     74  H   UNL A   1      42.764  22.970  24.913  1.00  0.00     0.171 HD
BRANCH  73  75
ATOM     75  C   UNL A   1      43.892  23.107  26.570  1.00  0.00     0.042 A 
ATOM     76  C   UNL A   1      42.796  22.990  27.439  1.00  0.00     0.026 A 
ATOM     77  C   UNL A   1      45.124  23.515  27.076  1.00  0.00     0.026 A 
ATOM     78  C   UNL A   1      42.960  23.154  28.814  1.00  0.00     0.002 A 
ATOM     79  C   UNL A   1      45.280  23.711  28.453  1.00  0.00     0.002 A 
ATOM     80  C   UNL A   1      44.208  23.504  29.323  1.00  0.00     0.000 A 
ENDBRANCH  73  75
ENDBRANCH  69  71
ENDBRANCH  63  65
ENDBRANCH  62  63
ENDBRANCH  61  62
ENDBRANCH   1  61
TORSDOF 13
ENDMDL
