MODEL 1
REMARK VINA RESULT:     -10.0      0.000      0.000
REMARK SMILES Cc1ccccc1C#CC(=O)OCCOC(=O)c1ccc(-c2c3nc(c(-c4c(F)cccc4F)c4ccc([nH]4)c(-c4c(F)cccc4F)c4nc(c(-c5c(F)cccc5F)c5ccc2[nH]5)C=C4)C=C3)cc1
REMARK SMILES IDX 14 1 13 2 12 3 10 4 11 5 9 6 8 7 7 8 1 9 2 10 3 11 4 12 6 13
REMARK SMILES IDX 5 14 15 15 16 16 17 17 18 18 19 19 71 20 20 21 70 22 21 23
REMARK SMILES IDX 22 24 23 25 64 26 24 27 69 28 63 29 65 30 25 31 68 32 62 33
REMARK SMILES IDX 61 34 26 36 52 37 35 38 51 39 36 40 39 41 50 42 66 43 37 44
REMARK SMILES IDX 38 45 49 47 67 48 40 49 27 50 28 51 33 52 29 53 30 54 32 55
REMARK SMILES IDX 34 56 31 57 53 58 54 59 59 60 55 61 56 62 58 63 60 64 57 65
REMARK SMILES IDX 41 66 42 67 47 68 43 69 44 70 46 71 48 72 45 73
REMARK H PARENT 65 35 39 46
REMARK Flexibility Score: inf
ROOT
ATOM      1  C   UNL A   1      43.455  18.528  25.877  1.00  0.00     0.275 C 
ENDROOT
BRANCH   1   2
ATOM      2  C   UNL A   1      44.860  18.786  25.322  1.00  0.00     0.275 C 
BRANCH   2   3
ATOM      3  O   UNL A   1      44.929  20.068  24.675  1.00  0.00    -0.452 OA
BRANCH   3   4
ATOM      4  C   UNL A   1      46.158  20.643  24.643  1.00  0.00     0.384 C 
ATOM      5  O   UNL A   1      47.225  20.068  24.479  1.00  0.00    -0.236 OA
BRANCH   4   6
ATOM      6  C   UNL A   1      46.113  22.079  24.719  1.00  0.00     0.022 C 
ATOM      7  C   UNL A   1      45.992  23.261  24.894  1.00  0.00    -0.055 C 
BRANCH   7   8
ATOM      8  C   UNL A   1      45.749  24.649  25.161  1.00  0.00     0.028 A 
ATOM      9  C   UNL A   1      48.180  25.106  25.830  1.00  0.00     0.045 C 
ATOM     10  C   UNL A   1      46.760  25.531  25.575  1.00  0.00    -0.035 A 
ATOM     11  C   UNL A   1      46.431  26.883  25.790  1.00  0.00     0.005 A 
ATOM     12  C   UNL A   1      45.125  27.341  25.616  1.00  0.00     0.000 A 
ATOM     13  C   UNL A   1      44.435  25.115  25.006  1.00  0.00     0.017 A 
ATOM     14  C   UNL A   1      44.123  26.455  25.234  1.00  0.00     0.001 A 
ENDBRANCH   7   8
ENDBRANCH   4   6
ENDBRANCH   3   4
ENDBRANCH   2   3
ENDBRANCH   1   2
BRANCH   1  15
ATOM     15  O   UNL A   1      42.452  19.256  25.144  1.00  0.00    -0.458 OA
BRANCH  15  16
ATOM     16  C   UNL A   1      41.375  19.662  25.859  1.00  0.00     0.338 C 
ATOM     17  O   UNL A   1      40.361  19.029  26.095  1.00  0.00    -0.246 OA
BRANCH  16  18
ATOM     18  C   UNL A   1      41.672  20.979  26.448  1.00  0.00     0.060 A 
ATOM     19  C   UNL A   1      42.135  22.025  25.648  1.00  0.00     0.016 A 
ATOM     20  C   UNL A   1      41.466  21.168  27.818  1.00  0.00     0.016 A 
ATOM     21  C   UNL A   1      42.419  23.259  26.234  1.00  0.00     0.010 A 
ATOM     22  C   UNL A   1      41.740  22.407  28.399  1.00  0.00     0.010 A 
ATOM     23  C   UNL A   1      42.228  23.459  27.613  1.00  0.00    -0.014 A 
BRANCH  23  24
ATOM     24  C   UNL A   1      42.517  24.781  28.222  1.00  0.00     0.031 A 
ATOM     25  C   UNL A   1      43.907  25.137  28.663  1.00  0.00     0.074 A 
ATOM     26  C   UNL A   1      41.515  25.667  28.371  1.00  0.00     0.049 A 
ATOM     27  N   UNL A   1      44.354  26.267  29.154  1.00  0.00    -0.248 NA
ATOM     28  C   UNL A   1      44.928  24.086  28.547  1.00  0.00     0.031 C 
ATOM     29  C   UNL A   1      40.118  25.427  28.006  1.00  0.00     0.029 A 
ATOM     30  N   UNL A   1      41.519  26.949  28.859  1.00  0.00    -0.354 N 
ATOM     31  C   UNL A   1      45.708  26.068  29.393  1.00  0.00     0.074 A 
ATOM     32  C   UNL A   1      45.995  24.691  29.048  1.00  0.00     0.031 C 
ATOM     33  C   UNL A   1      39.406  26.539  28.248  1.00  0.00     0.029 A 
ATOM     34  C   UNL A   1      40.286  27.553  28.820  1.00  0.00     0.049 A 
ATOM     35  H   UNL A   1      42.327  27.392  29.204  1.00  0.00     0.167 HD
ATOM     36  C   UNL A   1      46.630  26.956  29.840  1.00  0.00     0.037 A 
ATOM     37  C   UNL A   1      39.910  28.786  29.206  1.00  0.00     0.037 A 
ATOM     38  C   UNL A   1      46.333  28.317  30.209  1.00  0.00     0.049 A 
ATOM     39  C   UNL A   1      40.939  29.726  29.770  1.00  0.00     0.074 A 
ATOM     40  C   UNL A   1      47.201  29.305  30.644  1.00  0.00     0.029 A 
ATOM     41  N   UNL A   1      45.064  28.879  30.209  1.00  0.00    -0.354 N 
ATOM     42  N   UNL A   1      42.231  29.552  29.918  1.00  0.00    -0.248 NA
ATOM     43  C   UNL A   1      40.456  31.039  30.218  1.00  0.00     0.031 C 
ATOM     44  C   UNL A   1      46.450  30.439  30.971  1.00  0.00     0.029 A 
ATOM     45  C   UNL A   1      45.121  30.184  30.673  1.00  0.00     0.049 A 
ATOM     46  H   UNL A   1      44.243  28.418  29.921  1.00  0.00     0.167 HD
ATOM     47  C   UNL A   1      42.717  30.742  30.449  1.00  0.00     0.074 A 
ATOM     48  C   UNL A   1      41.583  31.635  30.573  1.00  0.00     0.031 C 
ATOM     49  C   UNL A   1      43.985  31.064  30.802  1.00  0.00     0.037 A 
BRANCH  36  50
ATOM     50  C   UNL A   1      48.045  26.467  29.976  1.00  0.00     0.057 A 
ATOM     51  C   UNL A   1      49.000  26.749  28.990  1.00  0.00     0.134 A 
ATOM     52  C   UNL A   1      48.464  25.703  31.074  1.00  0.00     0.134 A 
ATOM     53  F   UNL A   1      48.669  27.462  27.903  1.00  0.00    -0.206 F 
ATOM     54  C   UNL A   1      50.318  26.300  29.098  1.00  0.00     0.040 A 
ATOM     55  C   UNL A   1      49.787  25.277  31.210  1.00  0.00     0.040 A 
ATOM     56  F   UNL A   1      47.603  25.397  32.058  1.00  0.00    -0.206 F 
ATOM     57  C   UNL A   1      50.717  25.573  30.217  1.00  0.00     0.006 A 
ENDBRANCH  36  50
BRANCH  37  58
ATOM     58  C   UNL A   1      38.494  29.215  29.067  1.00  0.00     0.057 A 
ATOM     59  C   UNL A   1      37.614  29.197  30.156  1.00  0.00     0.134 A 
ATOM     60  C   UNL A   1      37.999  29.688  27.846  1.00  0.00     0.134 A 
ATOM     61  F   UNL A   1      38.024  28.750  31.352  1.00  0.00    -0.206 F 
ATOM     62  C   UNL A   1      36.295  29.634  30.036  1.00  0.00     0.040 A 
ATOM     63  C   UNL A   1      36.691  30.158  27.720  1.00  0.00     0.040 A 
ATOM     64  F   UNL A   1      38.799  29.746  26.771  1.00  0.00    -0.206 F 
ATOM     65  C   UNL A   1      35.833  30.129  28.818  1.00  0.00     0.006 A 
ENDBRANCH  37  58
BRANCH  49  66
ATOM     66  C   UNL A   1      44.215  32.454  31.328  1.00  0.00     0.057 A 
ATOM     67  C   UNL A   1      44.457  33.519  30.450  1.00  0.00     0.134 A 
ATOM     68  C   UNL A   1      44.201  32.744  32.700  1.00  0.00     0.134 A 
ATOM     69  F   UNL A   1      44.495  33.315  29.125  1.00  0.00    -0.206 F 
ATOM     70  C   UNL A   1      44.672  34.818  30.915  1.00  0.00     0.040 A 
ATOM     71  C   UNL A   1      44.379  34.045  33.175  1.00  0.00     0.040 A 
ATOM     72  F   UNL A   1      43.963  31.774  33.597  1.00  0.00    -0.206 F 
ATOM     73  C   UNL A   1      44.621  35.085  32.281  1.00  0.00     0.006 A 
ENDBRANCH  49  66
ENDBRANCH  23  24
ENDBRANCH  16  18
ENDBRANCH  15  16
ENDBRANCH   1  15
TORSDOF 12
ENDMDL
MODEL 2
REMARK VINA RESULT:      -9.7      0.422      6.694
REMARK SMILES Cc1ccccc1C#CC(=O)OCCOC(=O)c1ccc(-c2c3nc(c(-c4c(F)cccc4F)c4ccc([nH]4)c(-c4c(F)cccc4F)c4nc(c(-c5c(F)cccc5F)c5ccc2[nH]5)C=C4)C=C3)cc1
REMARK SMILES IDX 14 1 13 2 12 3 10 4 11 5 9 6 8 7 7 8 1 9 2 10 3 11 4 12 6 13
REMARK SMILES IDX 5 14 15 15 16 16 17 17 18 18 19 19 71 20 20 21 70 22 21 23
REMARK SMILES IDX 22 24 23 25 64 26 24 27 69 28 63 29 65 30 25 31 68 32 62 33
REMARK SMILES IDX 61 34 26 36 52 37 35 38 51 39 36 40 39 41 50 42 66 43 37 44
REMARK SMILES IDX 38 45 49 47 67 48 40 49 27 50 28 51 33 52 29 53 30 54 32 55
REMARK SMILES IDX 34 56 31 57 53 58 54 59 59 60 55 61 56 62 58 63 60 64 57 65
REMARK SMILES IDX 41 66 42 67 47 68 43 69 44 70 46 71 48 72 45 73
REMARK H PARENT 65 35 39 46
REMARK Flexibility Score: inf
ROOT
ATOM      1  C   UNL A   1      43.391  18.467  25.789  1.00  0.00     0.275 C 
ENDROOT
BRANCH   1   2
ATOM      2  C   UNL A   1      44.818  18.812  25.351  1.00  0.00     0.275 C 
BRANCH   2   3
ATOM      3  O   UNL A   1      44.866  20.110  24.734  1.00  0.00    -0.452 OA
BRANCH   3   4
ATOM      4  C   UNL A   1      46.092  20.690  24.683  1.00  0.00     0.384 C 
ATOM      5  O   UNL A   1      47.161  20.117  24.539  1.00  0.00    -0.236 OA
BRANCH   4   6
ATOM      6  C   UNL A   1      46.038  22.128  24.711  1.00  0.00     0.022 C 
ATOM      7  C   UNL A   1      45.965  23.317  24.871  1.00  0.00    -0.055 C 
BRANCH   7   8
ATOM      8  C   UNL A   1      45.814  24.713  25.157  1.00  0.00     0.028 A 
ATOM      9  C   UNL A   1      48.268  24.998  25.839  1.00  0.00     0.045 C 
ATOM     10  C   UNL A   1      46.880  25.520  25.587  1.00  0.00    -0.035 A 
ATOM     11  C   UNL A   1      46.641  26.888  25.820  1.00  0.00     0.005 A 
ATOM     12  C   UNL A   1      45.368  27.434  25.650  1.00  0.00     0.000 A 
ATOM     13  C   UNL A   1      44.534  25.268  25.006  1.00  0.00     0.017 A 
ATOM     14  C   UNL A   1      44.312  26.623  25.252  1.00  0.00     0.001 A 
ENDBRANCH   7   8
ENDBRANCH   4   6
ENDBRANCH   3   4
ENDBRANCH   2   3
ENDBRANCH   1   2
BRANCH   1  15
ATOM     15  O   UNL A   1      42.416  19.286  25.118  1.00  0.00    -0.458 OA
BRANCH  15  16
ATOM     16  C   UNL A   1      41.365  19.691  25.872  1.00  0.00     0.338 C 
ATOM     17  O   UNL A   1      40.348  19.067  26.120  1.00  0.00    -0.246 OA
BRANCH  16  18
ATOM     18  C   UNL A   1      41.697  20.989  26.483  1.00  0.00     0.060 A 
ATOM     19  C   UNL A   1      41.604  21.167  27.864  1.00  0.00     0.016 A 
ATOM     20  C   UNL A   1      42.124  22.034  25.658  1.00  0.00     0.016 A 
ATOM     21  C   UNL A   1      41.914  22.411  28.415  1.00  0.00     0.010 A 
ATOM     22  C   UNL A   1      42.445  23.273  26.212  1.00  0.00     0.010 A 
ATOM     23  C   UNL A   1      42.332  23.474  27.595  1.00  0.00    -0.014 A 
BRANCH  23  24
ATOM     24  C   UNL A   1      42.676  24.787  28.194  1.00  0.00     0.031 A 
ATOM     25  C   UNL A   1      41.630  25.850  28.370  1.00  0.00     0.074 A 
ATOM     26  C   UNL A   1      43.944  25.017  28.587  1.00  0.00     0.049 A 
ATOM     27  N   UNL A   1      41.737  27.028  28.933  1.00  0.00    -0.248 NA
ATOM     28  C   UNL A   1      40.292  25.555  27.838  1.00  0.00     0.031 C 
ATOM     29  C   UNL A   1      45.053  24.074  28.443  1.00  0.00     0.029 A 
ATOM     30  N   UNL A   1      44.508  26.109  29.193  1.00  0.00    -0.354 N 
ATOM     31  C   UNL A   1      40.480  27.611  28.835  1.00  0.00     0.074 A 
ATOM     32  C   UNL A   1      39.643  26.679  28.107  1.00  0.00     0.031 C 
ATOM     33  C   UNL A   1      46.158  24.613  28.981  1.00  0.00     0.029 A 
ATOM     34  C   UNL A   1      45.844  25.952  29.471  1.00  0.00     0.049 A 
ATOM     35  H   UNL A   1      44.004  26.927  29.409  1.00  0.00     0.167 HD
ATOM     36  C   UNL A   1      40.057  28.803  29.323  1.00  0.00     0.037 A 
ATOM     37  C   UNL A   1      46.716  26.795  30.052  1.00  0.00     0.037 A 
ATOM     38  C   UNL A   1      40.901  29.739  30.022  1.00  0.00     0.049 A 
ATOM     39  C   UNL A   1      46.238  28.143  30.517  1.00  0.00     0.074 A 
ATOM     40  C   UNL A   1      40.562  30.960  30.582  1.00  0.00     0.029 A 
ATOM     41  N   UNL A   1      42.262  29.571  30.237  1.00  0.00    -0.354 N 
ATOM     42  N   UNL A   1      45.029  28.650  30.489  1.00  0.00    -0.248 NA
ATOM     43  C   UNL A   1      47.249  29.035  31.099  1.00  0.00     0.031 C 
ATOM     44  C   UNL A   1      41.727  31.558  31.074  1.00  0.00     0.029 A 
ATOM     45  C   UNL A   1      42.783  30.680  30.885  1.00  0.00     0.049 A 
ATOM     46  H   UNL A   1      42.782  28.779  29.969  1.00  0.00     0.167 HD
ATOM     47  C   UNL A   1      45.130  29.908  31.074  1.00  0.00     0.074 A 
ATOM     48  C   UNL A   1      46.514  30.073  31.468  1.00  0.00     0.031 C 
ATOM     49  C   UNL A   1      44.165  30.840  31.266  1.00  0.00     0.037 A 
BRANCH  36  50
ATOM     50  C   UNL A   1      38.617  29.168  29.092  1.00  0.00     0.057 A 
ATOM     51  C   UNL A   1      37.677  29.069  30.126  1.00  0.00     0.134 A 
ATOM     52  C   UNL A   1      38.153  29.603  27.843  1.00  0.00     0.134 A 
ATOM     53  F   UNL A   1      38.044  28.647  31.346  1.00  0.00    -0.206 F 
ATOM     54  C   UNL A   1      36.334  29.401  29.930  1.00  0.00     0.040 A 
ATOM     55  C   UNL A   1      36.820  29.969  27.643  1.00  0.00     0.040 A 
ATOM     56  F   UNL A   1      38.998  29.723  26.807  1.00  0.00    -0.206 F 
ATOM     57  C   UNL A   1      35.906  29.864  28.688  1.00  0.00     0.006 A 
ENDBRANCH  36  50
BRANCH  37  58
ATOM     58  C   UNL A   1      48.134  26.393  30.242  1.00  0.00     0.057 A 
ATOM     59  C   UNL A   1      48.549  25.687  31.377  1.00  0.00     0.134 A 
ATOM     60  C   UNL A   1      49.101  26.676  29.269  1.00  0.00     0.134 A 
ATOM     61  F   UNL A   1      47.674  25.390  32.348  1.00  0.00    -0.206 F 
ATOM     62  C   UNL A   1      49.872  25.276  31.539  1.00  0.00     0.040 A 
ATOM     63  C   UNL A   1      50.422  26.243  29.403  1.00  0.00     0.040 A 
ATOM     64  F   UNL A   1      48.762  27.333  28.151  1.00  0.00    -0.206 F 
ATOM     65  C   UNL A   1      50.811  25.543  30.544  1.00  0.00     0.006 A 
ENDBRANCH  37  58
BRANCH  49  66
ATOM     66  C   UNL A   1      44.571  32.110  31.961  1.00  0.00     0.057 A 
ATOM     67  C   UNL A   1      44.526  32.206  33.358  1.00  0.00     0.134 A 
ATOM     68  C   UNL A   1      45.005  33.241  31.254  1.00  0.00     0.134 A 
ATOM     69  F   UNL A   1      44.112  31.167  34.100  1.00  0.00    -0.206 F 
ATOM     70  C   UNL A   1      44.900  33.374  34.026  1.00  0.00     0.040 A 
ATOM     71  C   UNL A   1      45.415  34.402  31.912  1.00  0.00     0.040 A 
ATOM     72  F   UNL A   1      45.086  33.216  29.914  1.00  0.00    -0.206 F 
ATOM     73  C   UNL A   1      45.358  34.472  33.302  1.00  0.00     0.006 A 
ENDBRANCH  49  66
ENDBRANCH  23  24
ENDBRANCH  16  18
ENDBRANCH  15  16
ENDBRANCH   1  15
TORSDOF 12
ENDMDL
MODEL 3
REMARK VINA RESULT:      -9.1      4.002      5.911
REMARK SMILES Cc1ccccc1C#CC(=O)OCCOC(=O)c1ccc(-c2c3nc(c(-c4c(F)cccc4F)c4ccc([nH]4)c(-c4c(F)cccc4F)c4nc(c(-c5c(F)cccc5F)c5ccc2[nH]5)C=C4)C=C3)cc1
REMARK SMILES IDX 14 1 13 2 12 3 10 4 11 5 9 6 8 7 7 8 1 9 2 10 3 11 4 12 6 13
REMARK SMILES IDX 5 14 15 15 16 16 17 17 18 18 19 19 71 20 20 21 70 22 21 23
REMARK SMILES IDX 22 24 23 25 64 26 24 27 69 28 63 29 65 30 25 31 68 32 62 33
REMARK SMILES IDX 61 34 26 36 52 37 35 38 51 39 36 40 39 41 50 42 66 43 37 44
REMARK SMILES IDX 38 45 49 47 67 48 40 49 27 50 28 51 33 52 29 53 30 54 32 55
REMARK SMILES IDX 34 56 31 57 53 58 54 59 59 60 55 61 56 62 58 63 60 64 57 65
REMARK SMILES IDX 41 66 42 67 47 68 43 69 44 70 46 71 48 72 45 73
REMARK H PARENT 65 35 39 46
REMARK Flexibility Score: inf
ROOT
ATOM      1  C   UNL A   1      43.993  22.477  24.239  1.00  0.00     0.275 C 
ENDROOT
BRANCH   1   2
ATOM      2  C   UNL A   1      44.007  21.409  25.338  1.00  0.00     0.275 C 
BRANCH   2   3
ATOM      3  O   UNL A   1      42.708  20.812  25.490  1.00  0.00    -0.452 OA
BRANCH   3   4
ATOM      4  C   UNL A   1      42.052  21.119  26.638  1.00  0.00     0.384 C 
ATOM      5  O   UNL A   1      42.546  21.229  27.750  1.00  0.00    -0.236 OA
BRANCH   4   6
ATOM      6  C   UNL A   1      40.661  21.422  26.429  1.00  0.00     0.022 C 
ATOM      7  C   UNL A   1      39.538  21.733  26.135  1.00  0.00    -0.055 C 
BRANCH   7   8
ATOM      8  C   UNL A   1      38.245  22.185  25.712  1.00  0.00     0.028 A 
ATOM      9  C   UNL A   1      38.540  24.505  26.758  1.00  0.00     0.045 C 
ATOM     10  C   UNL A   1      37.770  23.480  25.972  1.00  0.00    -0.035 A 
ATOM     11  C   UNL A   1      36.496  23.841  25.494  1.00  0.00     0.005 A 
ATOM     12  C   UNL A   1      35.705  22.929  24.794  1.00  0.00     0.000 A 
ATOM     13  C   UNL A   1      37.435  21.268  25.023  1.00  0.00     0.017 A 
ATOM     14  C   UNL A   1      36.171  21.639  24.567  1.00  0.00     0.001 A 
ENDBRANCH   7   8
ENDBRANCH   4   6
ENDBRANCH   3   4
ENDBRANCH   2   3
ENDBRANCH   1   2
BRANCH   1  15
ATOM     15  O   UNL A   1      43.440  23.719  24.713  1.00  0.00    -0.458 OA
BRANCH  15  16
ATOM     16  C   UNL A   1      44.338  24.647  25.125  1.00  0.00     0.338 C 
ATOM     17  O   UNL A   1      45.403  24.930  24.603  1.00  0.00    -0.246 OA
BRANCH  16  18
ATOM     18  C   UNL A   1      43.761  25.387  26.260  1.00  0.00     0.060 A 
ATOM     19  C   UNL A   1      42.786  24.800  27.067  1.00  0.00     0.016 A 
ATOM     20  C   UNL A   1      44.221  26.681  26.526  1.00  0.00     0.016 A 
ATOM     21  C   UNL A   1      42.248  25.528  28.129  1.00  0.00     0.010 A 
ATOM     22  C   UNL A   1      43.690  27.402  27.595  1.00  0.00     0.010 A 
ATOM     23  C   UNL A   1      42.692  26.835  28.399  1.00  0.00    -0.014 A 
BRANCH  23  24
ATOM     24  C   UNL A   1      42.126  27.593  29.542  1.00  0.00     0.031 A 
ATOM     25  C   UNL A   1      42.772  27.538  30.897  1.00  0.00     0.074 A 
ATOM     26  C   UNL A   1      41.022  28.339  29.352  1.00  0.00     0.049 A 
ATOM     27  N   UNL A   1      42.452  28.184  31.991  1.00  0.00    -0.248 NA
ATOM     28  C   UNL A   1      43.921  26.633  31.045  1.00  0.00     0.031 C 
ATOM     29  C   UNL A   1      40.289  28.451  28.091  1.00  0.00     0.029 A 
ATOM     30  N   UNL A   1      40.331  29.151  30.215  1.00  0.00    -0.354 N 
ATOM     31  C   UNL A   1      43.367  27.775  32.953  1.00  0.00     0.074 A 
ATOM     32  C   UNL A   1      44.216  26.782  32.328  1.00  0.00     0.031 C 
ATOM     33  C   UNL A   1      39.272  29.312  28.251  1.00  0.00     0.029 A 
ATOM     34  C   UNL A   1      39.259  29.782  29.633  1.00  0.00     0.049 A 
ATOM     35  H   UNL A   1      40.580  29.269  31.160  1.00  0.00     0.167 HD
ATOM     36  C   UNL A   1      43.499  28.203  34.233  1.00  0.00     0.037 A 
ATOM     37  C   UNL A   1      38.364  30.639  30.158  1.00  0.00     0.037 A 
ATOM     38  C   UNL A   1      42.634  29.171  34.859  1.00  0.00     0.049 A 
ATOM     39  C   UNL A   1      38.490  31.038  31.602  1.00  0.00     0.074 A 
ATOM     40  C   UNL A   1      42.702  29.693  36.140  1.00  0.00     0.029 A 
ATOM     41  N   UNL A   1      41.525  29.748  34.256  1.00  0.00    -0.354 N 
ATOM     42  N   UNL A   1      39.405  30.706  32.480  1.00  0.00    -0.248 NA
ATOM     43  C   UNL A   1      37.454  31.939  32.128  1.00  0.00     0.031 C 
ATOM     44  C   UNL A   1      41.599  30.530  36.334  1.00  0.00     0.029 A 
ATOM     45  C   UNL A   1      40.880  30.588  35.150  1.00  0.00     0.049 A 
ATOM     46  H   UNL A   1      41.238  29.585  33.329  1.00  0.00     0.167 HD
ATOM     47  C   UNL A   1      39.072  31.377  33.651  1.00  0.00     0.074 A 
ATOM     48  C   UNL A   1      37.884  32.154  33.361  1.00  0.00     0.031 C 
ATOM     49  C   UNL A   1      39.692  31.352  34.856  1.00  0.00     0.037 A 
BRANCH  36  50
ATOM     50  C   UNL A   1      44.612  27.602  35.047  1.00  0.00     0.057 A 
ATOM     51  C   UNL A   1      45.878  28.201  35.085  1.00  0.00     0.134 A 
ATOM     52  C   UNL A   1      44.438  26.421  35.782  1.00  0.00     0.134 A 
ATOM     53  F   UNL A   1      46.123  29.325  34.395  1.00  0.00    -0.206 F 
ATOM     54  C   UNL A   1      46.923  27.655  35.833  1.00  0.00     0.040 A 
ATOM     55  C   UNL A   1      45.466  25.884  36.560  1.00  0.00     0.040 A 
ATOM     56  F   UNL A   1      43.251  25.794  35.793  1.00  0.00    -0.206 F 
ATOM     57  C   UNL A   1      46.715  26.500  36.583  1.00  0.00     0.006 A 
ENDBRANCH  36  50
BRANCH  37  58
ATOM     58  C   UNL A   1      37.272  31.192  29.315  1.00  0.00     0.057 A 
ATOM     59  C   UNL A   1      36.116  30.453  29.040  1.00  0.00     0.134 A 
ATOM     60  C   UNL A   1      37.347  32.489  28.796  1.00  0.00     0.134 A 
ATOM     61  F   UNL A   1      35.984  29.201  29.503  1.00  0.00    -0.206 F 
ATOM     62  C   UNL A   1      35.073  30.983  28.280  1.00  0.00     0.040 A 
ATOM     63  C   UNL A   1      36.298  33.045  28.060  1.00  0.00     0.040 A 
ATOM     64  F   UNL A   1      38.422  33.254  29.040  1.00  0.00    -0.206 F 
ATOM     65  C   UNL A   1      35.158  32.288  27.799  1.00  0.00     0.006 A 
ENDBRANCH  37  58
BRANCH  49  66
ATOM     66  C   UNL A   1      39.111  32.215  35.942  1.00  0.00     0.057 A 
ATOM     67  C   UNL A   1      38.204  31.684  36.869  1.00  0.00     0.134 A 
ATOM     68  C   UNL A   1      39.442  33.571  36.073  1.00  0.00     0.134 A 
ATOM     69  F   UNL A   1      37.834  30.396  36.799  1.00  0.00    -0.206 F 
ATOM     70  C   UNL A   1      37.653  32.465  37.886  1.00  0.00     0.040 A 
ATOM     71  C   UNL A   1      38.925  34.354  37.108  1.00  0.00     0.040 A 
ATOM     72  F   UNL A   1      40.315  34.143  35.229  1.00  0.00    -0.206 F 
ATOM     73  C   UNL A   1      38.023  33.801  38.014  1.00  0.00     0.006 A 
ENDBRANCH  49  66
ENDBRANCH  23  24
ENDBRANCH  16  18
ENDBRANCH  15  16
ENDBRANCH   1  15
TORSDOF 12
ENDMDL
