MODEL 1
REMARK VINA RESULT:     -11.9      0.000      0.000
REMARK SMILES Cn1c(=O)c2c(-c3ccc(Cl)cc3)n(CC(=O)OCCOC(=O)c3ccc(-c4c5nc(c(-c6c(F)cccc6F)c6ccc([nH]6)c(-c6c(F)cccc6F)c6nc(c(-c7c(F)cccc7F)c7ccc4[nH]7)C=C6)C=C5)cc3)cc2n(C)c1=O
REMARK SMILES IDX 19 1 18 2 16 3 17 4 15 5 14 6 1 7 2 8 3 9 82 10 4 11 5 12
REMARK SMILES IDX 80 13 83 14 6 15 79 16 81 17 78 18 7 19 8 20 13 21 9 22
REMARK SMILES IDX 12 23 10 24 11 25 20 26 21 27 22 28 23 29 24 30 25 31 77 32
REMARK SMILES IDX 26 33 76 34 27 35 28 36 29 37 70 38 30 39 75 40 69 41 71 42
REMARK SMILES IDX 31 43 74 44 68 45 67 46 32 48 58 49 41 50 57 51 42 52 45 53
REMARK SMILES IDX 56 54 72 55 43 56 44 57 55 59 73 60 46 61 33 62 34 63 39 64
REMARK SMILES IDX 35 65 36 66 38 67 40 68 37 69 59 70 60 71 65 72 61 73 62 74
REMARK SMILES IDX 64 75 66 76 63 77 47 78 48 79 53 80 49 81 50 82 52 83 54 84
REMARK SMILES IDX 51 85
REMARK H PARENT 71 47 45 58
REMARK Flexibility Score: inf
ROOT
ATOM      1  C   UNL A   1      34.456  29.550  27.217  1.00  0.00     0.274 C 
ENDROOT
BRANCH   1   2
ATOM      2  O   UNL A   1      33.623  29.677  26.044  1.00  0.00    -0.461 OA
BRANCH   2   3
ATOM      3  C   UNL A   1      32.283  29.716  26.271  1.00  0.00     0.326 C 
ATOM      4  O   UNL A   1      31.626  30.755  26.311  1.00  0.00    -0.250 OA
BRANCH   3   5
ATOM      5  C   UNL A   1      31.648  28.382  26.574  1.00  0.00     0.244 C 
BRANCH   5   6
ATOM      6  N   UNL A   1      32.043  27.244  25.747  1.00  0.00    -0.333 N 
ATOM      7  C   UNL A   1      33.082  23.047  21.704  1.00  0.00     0.158 C 
ATOM      8  N   UNL A   1      33.042  23.855  22.908  1.00  0.00    -0.263 N 
ATOM      9  C   UNL A   1      32.251  25.019  22.856  1.00  0.00     0.265 A 
ATOM     10  C   UNL A   1      33.824  23.414  23.992  1.00  0.00     0.330 A 
ATOM     11  O   UNL A   1      31.604  25.357  21.880  1.00  0.00    -0.268 OA
ATOM     12  C   UNL A   1      32.293  25.787  24.080  1.00  0.00     0.090 A 
ATOM     13  N   UNL A   1      33.832  24.210  25.141  1.00  0.00    -0.295 N 
ATOM     14  O   UNL A   1      34.482  22.370  23.923  1.00  0.00    -0.248 OA
ATOM     15  C   UNL A   1      31.673  26.985  24.434  1.00  0.00     0.064 A 
ATOM     16  C   UNL A   1      33.092  25.380  25.152  1.00  0.00     0.076 A 
ATOM     17  C   UNL A   1      34.577  23.773  26.313  1.00  0.00     0.155 C 
ATOM     18  C   UNL A   1      33.014  26.344  26.117  1.00  0.00     0.114 A 
BRANCH  15  19
ATOM     19  C   UNL A   1      30.806  27.860  23.650  1.00  0.00    -0.001 A 
ATOM     20  C   UNL A   1      29.415  27.695  23.701  1.00  0.00     0.012 A 
ATOM     21  C   UNL A   1      31.351  28.867  22.849  1.00  0.00     0.012 A 
ATOM     22  C   UNL A   1      28.580  28.504  22.931  1.00  0.00     0.021 A 
ATOM     23  C   UNL A   1      30.514  29.690  22.091  1.00  0.00     0.021 A 
ATOM     24  C   UNL A   1      29.133  29.499  22.129  1.00  0.00     0.041 A 
ATOM     25  Cl  UNL A   1      28.104  30.501  21.183  1.00  0.00    -0.084 Cl
ENDBRANCH  15  19
ENDBRANCH   5   6
ENDBRANCH   3   5
ENDBRANCH   2   3
ENDBRANCH   1   2
BRANCH   1  26
ATOM     26  C   UNL A   1      34.810  30.888  27.874  1.00  0.00     0.275 C 
BRANCH  26  27
ATOM     27  O   UNL A   1      36.184  30.989  28.262  1.00  0.00    -0.458 OA
BRANCH  27  28
ATOM     28  C   UNL A   1      36.528  30.071  29.188  1.00  0.00     0.338 C 
ATOM     29  O   UNL A   1      36.074  29.975  30.318  1.00  0.00    -0.246 OA
BRANCH  28  30
ATOM     30  C   UNL A   1      37.670  29.259  28.777  1.00  0.00     0.060 A 
ATOM     31  C   UNL A   1      38.217  28.400  29.735  1.00  0.00     0.016 A 
ATOM     32  C   UNL A   1      38.362  29.599  27.612  1.00  0.00     0.016 A 
ATOM     33  C   UNL A   1      39.529  28.002  29.607  1.00  0.00     0.010 A 
ATOM     34  C   UNL A   1      39.676  29.189  27.478  1.00  0.00     0.010 A 
ATOM     35  C   UNL A   1      40.264  28.453  28.507  1.00  0.00    -0.014 A 
BRANCH  35  36
ATOM     36  C   UNL A   1      41.654  28.040  28.440  1.00  0.00     0.031 A 
ATOM     37  C   UNL A   1      41.866  26.725  27.789  1.00  0.00     0.074 A 
ATOM     38  C   UNL A   1      42.675  28.818  28.838  1.00  0.00     0.049 A 
ATOM     39  N   UNL A   1      42.403  25.661  28.287  1.00  0.00    -0.248 NA
ATOM     40  C   UNL A   1      41.307  26.550  26.441  1.00  0.00     0.031 C 
ATOM     41  C   UNL A   1      42.632  30.229  29.227  1.00  0.00     0.029 A 
ATOM     42  N   UNL A   1      44.004  28.523  28.866  1.00  0.00    -0.354 N 
ATOM     43  C   UNL A   1      42.418  24.732  27.251  1.00  0.00     0.074 A 
ATOM     44  C   UNL A   1      41.608  25.276  26.195  1.00  0.00     0.031 C 
ATOM     45  C   UNL A   1      43.892  30.721  29.234  1.00  0.00     0.029 A 
ATOM     46  C   UNL A   1      44.824  29.635  28.979  1.00  0.00     0.049 A 
ATOM     47  H   UNL A   1      44.350  27.604  28.813  1.00  0.00     0.167 HD
ATOM     48  C   UNL A   1      43.287  23.687  27.248  1.00  0.00     0.037 A 
ATOM     49  C   UNL A   1      46.165  29.660  28.792  1.00  0.00     0.037 A 
ATOM     50  C   UNL A   1      43.776  23.396  28.569  1.00  0.00     0.049 A 
ATOM     51  C   UNL A   1      46.670  28.274  28.935  1.00  0.00     0.074 A 
ATOM     52  C   UNL A   1      43.199  23.018  29.765  1.00  0.00     0.029 A 
ATOM     53  N   UNL A   1      45.053  23.788  28.877  1.00  0.00    -0.354 N 
ATOM     54  N   UNL A   1      46.708  27.613  30.057  1.00  0.00    -0.248 NA
ATOM     55  C   UNL A   1      46.820  27.468  27.733  1.00  0.00     0.031 C 
ATOM     56  C   UNL A   1      44.002  23.621  30.777  1.00  0.00     0.029 A 
ATOM     57  C   UNL A   1      45.032  24.313  30.141  1.00  0.00     0.049 A 
ATOM     58  H   UNL A   1      45.842  23.707  28.293  1.00  0.00     0.167 HD
ATOM     59  C   UNL A   1      46.463  26.296  29.700  1.00  0.00     0.074 A 
ATOM     60  C   UNL A   1      46.678  26.248  28.258  1.00  0.00     0.031 C 
ATOM     61  C   UNL A   1      45.836  25.440  30.557  1.00  0.00     0.037 A 
BRANCH  48  62
ATOM     62  C   UNL A   1      43.979  23.188  26.002  1.00  0.00     0.057 A 
ATOM     63  C   UNL A   1      43.953  21.813  25.707  1.00  0.00     0.134 A 
ATOM     64  C   UNL A   1      44.911  23.941  25.258  1.00  0.00     0.134 A 
ATOM     65  F   UNL A   1      43.125  20.983  26.358  1.00  0.00    -0.206 F 
ATOM     66  C   UNL A   1      44.841  21.223  24.799  1.00  0.00     0.040 A 
ATOM     67  C   UNL A   1      45.764  23.371  24.310  1.00  0.00     0.040 A 
ATOM     68  F   UNL A   1      45.122  25.245  25.476  1.00  0.00    -0.206 F 
ATOM     69  C   UNL A   1      45.756  22.002  24.102  1.00  0.00     0.006 A 
ENDBRANCH  48  62
BRANCH  49  70
ATOM     70  C   UNL A   1      47.001  30.745  28.229  1.00  0.00     0.057 A 
ATOM     71  C   UNL A   1      46.688  31.325  26.992  1.00  0.00     0.134 A 
ATOM     72  C   UNL A   1      47.955  31.427  29.006  1.00  0.00     0.134 A 
ATOM     73  F   UNL A   1      45.763  30.771  26.194  1.00  0.00    -0.206 F 
ATOM     74  C   UNL A   1      47.261  32.530  26.567  1.00  0.00     0.040 A 
ATOM     75  C   UNL A   1      48.545  32.623  28.587  1.00  0.00     0.040 A 
ATOM     76  F   UNL A   1      48.281  31.008  30.237  1.00  0.00    -0.206 F 
ATOM     77  C   UNL A   1      48.185  33.189  27.371  1.00  0.00     0.006 A 
ENDBRANCH  49  70
BRANCH  61  78
ATOM     78  C   UNL A   1      45.732  25.842  32.000  1.00  0.00     0.057 A 
ATOM     79  C   UNL A   1      46.754  25.655  32.942  1.00  0.00     0.134 A 
ATOM     80  C   UNL A   1      44.619  26.585  32.409  1.00  0.00     0.134 A 
ATOM     81  F   UNL A   1      47.899  25.042  32.614  1.00  0.00    -0.206 F 
ATOM     82  C   UNL A   1      46.652  26.153  34.245  1.00  0.00     0.040 A 
ATOM     83  C   UNL A   1      44.520  27.118  33.696  1.00  0.00     0.040 A 
ATOM     84  F   UNL A   1      43.627  26.850  31.543  1.00  0.00    -0.206 F 
ATOM     85  C   UNL A   1      45.536  26.896  34.622  1.00  0.00     0.006 A 
ENDBRANCH  61  78
ENDBRANCH  35  36
ENDBRANCH  28  30
ENDBRANCH  27  28
ENDBRANCH  26  27
ENDBRANCH   1  26
TORSDOF 13
ENDMDL
MODEL 2
REMARK VINA RESULT:     -11.9      2.035      6.105
REMARK SMILES Cn1c(=O)c2c(-c3ccc(Cl)cc3)n(CC(=O)OCCOC(=O)c3ccc(-c4c5nc(c(-c6c(F)cccc6F)c6ccc([nH]6)c(-c6c(F)cccc6F)c6nc(c(-c7c(F)cccc7F)c7ccc4[nH]7)C=C6)C=C5)cc3)cc2n(C)c1=O
REMARK SMILES IDX 19 1 18 2 16 3 17 4 15 5 14 6 1 7 2 8 3 9 82 10 4 11 5 12
REMARK SMILES IDX 80 13 83 14 6 15 79 16 81 17 78 18 7 19 8 20 13 21 9 22
REMARK SMILES IDX 12 23 10 24 11 25 20 26 21 27 22 28 23 29 24 30 25 31 77 32
REMARK SMILES IDX 26 33 76 34 27 35 28 36 29 37 70 38 30 39 75 40 69 41 71 42
REMARK SMILES IDX 31 43 74 44 68 45 67 46 32 48 58 49 41 50 57 51 42 52 45 53
REMARK SMILES IDX 56 54 72 55 43 56 44 57 55 59 73 60 46 61 33 62 34 63 39 64
REMARK SMILES IDX 35 65 36 66 38 67 40 68 37 69 59 70 60 71 65 72 61 73 62 74
REMARK SMILES IDX 64 75 66 76 63 77 47 78 48 79 53 80 49 81 50 82 52 83 54 84
REMARK SMILES IDX 51 85
REMARK H PARENT 71 47 45 58
REMARK Flexibility Score: inf
ROOT
ATOM      1  C   UNL A   1      33.055  30.523  26.835  1.00  0.00     0.274 C 
ENDROOT
BRANCH   1   2
ATOM      2  O   UNL A   1      32.064  29.680  27.462  1.00  0.00    -0.461 OA
BRANCH   2   3
ATOM      3  C   UNL A   1      32.098  28.366  27.116  1.00  0.00     0.326 C 
ATOM      4  O   UNL A   1      31.398  27.502  27.643  1.00  0.00    -0.250 OA
BRANCH   3   5
ATOM      5  C   UNL A   1      33.142  28.003  26.091  1.00  0.00     0.244 C 
BRANCH   5   6
ATOM      6  N   UNL A   1      33.095  26.655  25.528  1.00  0.00    -0.333 N 
ATOM      7  C   UNL A   1      32.152  21.533  22.714  1.00  0.00     0.158 C 
ATOM      8  N   UNL A   1      32.645  22.587  23.580  1.00  0.00    -0.263 N 
ATOM      9  C   UNL A   1      31.991  23.831  23.489  1.00  0.00     0.265 A 
ATOM     10  C   UNL A   1      33.749  22.272  24.396  1.00  0.00     0.330 A 
ATOM     11  O   UNL A   1      31.045  24.049  22.751  1.00  0.00    -0.268 OA
ATOM     12  C   UNL A   1      32.564  24.837  24.356  1.00  0.00     0.090 A 
ATOM     13  N   UNL A   1      34.264  23.294  25.199  1.00  0.00    -0.295 N 
ATOM     14  O   UNL A   1      34.244  21.140  24.393  1.00  0.00    -0.248 OA
ATOM     15  C   UNL A   1      32.226  26.174  24.558  1.00  0.00     0.064 A 
ATOM     16  C   UNL A   1      33.681  24.548  25.145  1.00  0.00     0.076 A 
ATOM     17  C   UNL A   1      35.367  23.009  26.105  1.00  0.00     0.155 C 
ATOM     18  C   UNL A   1      34.059  25.705  25.766  1.00  0.00     0.114 A 
BRANCH  15  19
ATOM     19  C   UNL A   1      31.196  26.989  23.920  1.00  0.00    -0.001 A 
ATOM     20  C   UNL A   1      31.557  27.964  22.979  1.00  0.00     0.012 A 
ATOM     21  C   UNL A   1      29.847  26.804  24.235  1.00  0.00     0.012 A 
ATOM     22  C   UNL A   1      30.584  28.769  22.388  1.00  0.00     0.021 A 
ATOM     23  C   UNL A   1      28.870  27.598  23.630  1.00  0.00     0.021 A 
ATOM     24  C   UNL A   1      29.243  28.582  22.716  1.00  0.00     0.041 A 
ATOM     25  Cl  UNL A   1      28.042  29.572  21.985  1.00  0.00    -0.084 Cl
ENDBRANCH  15  19
ENDBRANCH   5   6
ENDBRANCH   3   5
ENDBRANCH   2   3
ENDBRANCH   1   2
BRANCH   1  26
ATOM     26  C   UNL A   1      33.637  31.592  27.764  1.00  0.00     0.275 C 
BRANCH  26  27
ATOM     27  O   UNL A   1      35.044  31.797  27.590  1.00  0.00    -0.458 OA
BRANCH  27  28
ATOM     28  C   UNL A   1      35.732  31.649  28.740  1.00  0.00     0.338 C 
ATOM     29  O   UNL A   1      35.451  32.142  29.822  1.00  0.00    -0.246 OA
BRANCH  28  30
ATOM     30  C   UNL A   1      37.004  30.959  28.549  1.00  0.00     0.060 A 
ATOM     31  C   UNL A   1      36.949  29.639  28.088  1.00  0.00     0.016 A 
ATOM     32  C   UNL A   1      38.159  31.488  29.128  1.00  0.00     0.016 A 
ATOM     33  C   UNL A   1      38.002  28.793  28.353  1.00  0.00     0.010 A 
ATOM     34  C   UNL A   1      39.221  30.640  29.383  1.00  0.00     0.010 A 
ATOM     35  C   UNL A   1      39.104  29.289  29.054  1.00  0.00    -0.014 A 
BRANCH  35  36
ATOM     36  C   UNL A   1      40.169  28.347  29.345  1.00  0.00     0.031 A 
ATOM     37  C   UNL A   1      40.514  28.246  30.784  1.00  0.00     0.074 A 
ATOM     38  C   UNL A   1      40.730  27.556  28.414  1.00  0.00     0.049 A 
ATOM     39  N   UNL A   1      41.648  28.481  31.354  1.00  0.00    -0.248 NA
ATOM     40  C   UNL A   1      39.416  27.944  31.713  1.00  0.00     0.031 C 
ATOM     41  C   UNL A   1      40.297  27.349  27.031  1.00  0.00     0.029 A 
ATOM     42  N   UNL A   1      41.759  26.677  28.558  1.00  0.00    -0.354 N 
ATOM     43  C   UNL A   1      41.457  28.178  32.700  1.00  0.00     0.074 A 
ATOM     44  C   UNL A   1      40.043  27.996  32.887  1.00  0.00     0.031 C 
ATOM     45  C   UNL A   1      40.912  26.249  26.539  1.00  0.00     0.029 A 
ATOM     46  C   UNL A   1      41.866  25.762  27.522  1.00  0.00     0.049 A 
ATOM     47  H   UNL A   1      42.372  26.689  29.328  1.00  0.00     0.167 HD
ATOM     48  C   UNL A   1      42.502  27.871  33.513  1.00  0.00     0.037 A 
ATOM     49  C   UNL A   1      42.629  24.644  27.519  1.00  0.00     0.037 A 
ATOM     50  C   UNL A   1      43.748  28.363  32.989  1.00  0.00     0.049 A 
ATOM     51  C   UNL A   1      43.675  24.805  28.557  1.00  0.00     0.074 A 
ATOM     52  C   UNL A   1      44.254  29.609  32.674  1.00  0.00     0.029 A 
ATOM     53  N   UNL A   1      44.599  27.457  32.411  1.00  0.00    -0.354 N 
ATOM     54  N   UNL A   1      44.672  25.641  28.480  1.00  0.00    -0.248 NA
ATOM     55  C   UNL A   1      43.419  24.265  29.884  1.00  0.00     0.031 C 
ATOM     56  C   UNL A   1      45.118  29.394  31.562  1.00  0.00     0.029 A 
ATOM     57  C   UNL A   1      45.105  28.028  31.276  1.00  0.00     0.049 A 
ATOM     58  H   UNL A   1      44.808  26.557  32.753  1.00  0.00     0.167 HD
ATOM     59  C   UNL A   1      44.890  26.052  29.785  1.00  0.00     0.074 A 
ATOM     60  C   UNL A   1      44.191  25.075  30.612  1.00  0.00     0.031 C 
ATOM     61  C   UNL A   1      45.376  27.296  30.059  1.00  0.00     0.037 A 
BRANCH  48  62
ATOM     62  C   UNL A   1      42.439  26.800  34.574  1.00  0.00     0.057 A 
ATOM     63  C   UNL A   1      42.060  27.152  35.882  1.00  0.00     0.134 A 
ATOM     64  C   UNL A   1      43.017  25.520  34.444  1.00  0.00     0.134 A 
ATOM     65  F   UNL A   1      41.515  28.349  36.144  1.00  0.00    -0.206 F 
ATOM     66  C   UNL A   1      42.312  26.326  36.985  1.00  0.00     0.040 A 
ATOM     67  C   UNL A   1      43.223  24.665  35.530  1.00  0.00     0.040 A 
ATOM     68  F   UNL A   1      43.510  25.066  33.285  1.00  0.00    -0.206 F 
ATOM     69  C   UNL A   1      42.901  25.080  36.811  1.00  0.00     0.006 A 
ENDBRANCH  48  62
BRANCH  49  70
ATOM     70  C   UNL A   1      42.355  23.337  26.880  1.00  0.00     0.057 A 
ATOM     71  C   UNL A   1      43.341  22.685  26.126  1.00  0.00     0.134 A 
ATOM     72  C   UNL A   1      41.227  22.566  27.216  1.00  0.00     0.134 A 
ATOM     73  F   UNL A   1      44.472  23.322  25.786  1.00  0.00    -0.206 F 
ATOM     74  C   UNL A   1      43.231  21.338  25.759  1.00  0.00     0.040 A 
ATOM     75  C   UNL A   1      41.098  21.225  26.844  1.00  0.00     0.040 A 
ATOM     76  F   UNL A   1      40.253  23.059  27.995  1.00  0.00    -0.206 F 
ATOM     77  C   UNL A   1      42.111  20.600  26.128  1.00  0.00     0.006 A 
ENDBRANCH  49  70
BRANCH  61  78
ATOM     78  C   UNL A   1      45.991  28.074  28.931  1.00  0.00     0.057 A 
ATOM     79  C   UNL A   1      45.265  28.892  28.053  1.00  0.00     0.134 A 
ATOM     80  C   UNL A   1      47.387  28.119  28.832  1.00  0.00     0.134 A 
ATOM     81  F   UNL A   1      43.931  28.990  28.138  1.00  0.00    -0.206 F 
ATOM     82  C   UNL A   1      45.899  29.687  27.094  1.00  0.00     0.040 A 
ATOM     83  C   UNL A   1      48.035  28.936  27.903  1.00  0.00     0.040 A 
ATOM     84  F   UNL A   1      48.148  27.404  29.677  1.00  0.00    -0.206 F 
ATOM     85  C   UNL A   1      47.290  29.717  27.023  1.00  0.00     0.006 A 
ENDBRANCH  61  78
ENDBRANCH  35  36
ENDBRANCH  28  30
ENDBRANCH  27  28
ENDBRANCH  26  27
ENDBRANCH   1  26
TORSDOF 13
ENDMDL
MODEL 3
REMARK VINA RESULT:     -11.8      2.013      6.051
REMARK SMILES Cn1c(=O)c2c(-c3ccc(Cl)cc3)n(CC(=O)OCCOC(=O)c3ccc(-c4c5nc(c(-c6c(F)cccc6F)c6ccc([nH]6)c(-c6c(F)cccc6F)c6nc(c(-c7c(F)cccc7F)c7ccc4[nH]7)C=C6)C=C5)cc3)cc2n(C)c1=O
REMARK SMILES IDX 19 1 18 2 16 3 17 4 15 5 14 6 1 7 2 8 3 9 82 10 4 11 5 12
REMARK SMILES IDX 80 13 83 14 6 15 79 16 81 17 78 18 7 19 8 20 13 21 9 22
REMARK SMILES IDX 12 23 10 24 11 25 20 26 21 27 22 28 23 29 24 30 25 31 77 32
REMARK SMILES IDX 26 33 76 34 27 35 28 36 29 37 70 38 30 39 75 40 69 41 71 42
REMARK SMILES IDX 31 43 74 44 68 45 67 46 32 48 58 49 41 50 57 51 42 52 45 53
REMARK SMILES IDX 56 54 72 55 43 56 44 57 55 59 73 60 46 61 33 62 34 63 39 64
REMARK SMILES IDX 35 65 36 66 38 67 40 68 37 69 59 70 60 71 65 72 61 73 62 74
REMARK SMILES IDX 64 75 66 76 63 77 47 78 48 79 53 80 49 81 50 82 52 83 54 84
REMARK SMILES IDX 51 85
REMARK H PARENT 71 47 45 58
REMARK Flexibility Score: inf
ROOT
ATOM      1  C   UNL A   1      32.344  30.504  26.370  1.00  0.00     0.274 C 
ENDROOT
BRANCH   1   2
ATOM      2  O   UNL A   1      31.563  29.662  27.247  1.00  0.00    -0.461 OA
BRANCH   2   3
ATOM      3  C   UNL A   1      31.814  28.328  27.167  1.00  0.00     0.326 C 
ATOM      4  O   UNL A   1      31.196  27.478  27.806  1.00  0.00    -0.250 OA
BRANCH   3   5
ATOM      5  C   UNL A   1      32.990  27.951  26.303  1.00  0.00     0.244 C 
BRANCH   5   6
ATOM      6  N   UNL A   1      32.980  26.622  25.694  1.00  0.00    -0.333 N 
ATOM      7  C   UNL A   1      32.220  21.597  22.660  1.00  0.00     0.158 C 
ATOM      8  N   UNL A   1      32.658  22.622  23.588  1.00  0.00    -0.263 N 
ATOM      9  C   UNL A   1      32.006  23.867  23.501  1.00  0.00     0.265 A 
ATOM     10  C   UNL A   1      33.713  22.281  24.456  1.00  0.00     0.330 A 
ATOM     11  O   UNL A   1      31.105  24.108  22.716  1.00  0.00    -0.268 OA
ATOM     12  C   UNL A   1      32.524  24.845  24.432  1.00  0.00     0.090 A 
ATOM     13  N   UNL A   1      34.177  23.276  25.321  1.00  0.00    -0.295 N 
ATOM     14  O   UNL A   1      34.211  21.150  24.444  1.00  0.00    -0.248 OA
ATOM     15  C   UNL A   1      32.170  26.174  24.658  1.00  0.00     0.064 A 
ATOM     16  C   UNL A   1      33.594  24.531  25.275  1.00  0.00     0.076 A 
ATOM     17  C   UNL A   1      35.227  22.962  26.280  1.00  0.00     0.155 C 
ATOM     18  C   UNL A   1      33.932  25.666  25.956  1.00  0.00     0.114 A 
BRANCH  15  19
ATOM     19  C   UNL A   1      31.177  27.007  23.989  1.00  0.00    -0.001 A 
ATOM     20  C   UNL A   1      31.589  28.005  23.094  1.00  0.00     0.012 A 
ATOM     21  C   UNL A   1      29.813  26.819  24.229  1.00  0.00     0.012 A 
ATOM     22  C   UNL A   1      30.649  28.829  22.474  1.00  0.00     0.021 A 
ATOM     23  C   UNL A   1      28.870  27.632  23.594  1.00  0.00     0.021 A 
ATOM     24  C   UNL A   1      29.293  28.638  22.727  1.00  0.00     0.041 A 
ATOM     25  Cl  UNL A   1      28.133  29.650  21.959  1.00  0.00    -0.084 Cl
ENDBRANCH  15  19
ENDBRANCH   5   6
ENDBRANCH   3   5
ENDBRANCH   2   3
ENDBRANCH   1   2
BRANCH   1  26
ATOM     26  C   UNL A   1      33.179  31.557  27.105  1.00  0.00     0.275 C 
BRANCH  26  27
ATOM     27  O   UNL A   1      34.115  30.998  28.035  1.00  0.00    -0.458 OA
BRANCH  27  28
ATOM     28  C   UNL A   1      35.228  31.748  28.159  1.00  0.00     0.338 C 
ATOM     29  O   UNL A   1      35.441  32.825  27.623  1.00  0.00    -0.246 OA
BRANCH  28  30
ATOM     30  C   UNL A   1      36.291  31.059  28.885  1.00  0.00     0.060 A 
ATOM     31  C   UNL A   1      37.419  31.813  29.229  1.00  0.00     0.016 A 
ATOM     32  C   UNL A   1      36.304  29.663  28.909  1.00  0.00     0.016 A 
ATOM     33  C   UNL A   1      38.615  31.167  29.445  1.00  0.00     0.010 A 
ATOM     34  C   UNL A   1      37.504  29.015  29.138  1.00  0.00     0.010 A 
ATOM     35  C   UNL A   1      38.657  29.775  29.337  1.00  0.00    -0.014 A 
BRANCH  35  36
ATOM     36  C   UNL A   1      39.951  29.145  29.532  1.00  0.00     0.031 A 
ATOM     37  C   UNL A   1      40.400  29.107  30.944  1.00  0.00     0.074 A 
ATOM     38  C   UNL A   1      40.642  28.555  28.541  1.00  0.00     0.049 A 
ATOM     39  N   UNL A   1      41.465  29.625  31.460  1.00  0.00    -0.248 NA
ATOM     40  C   UNL A   1      39.483  28.501  31.921  1.00  0.00     0.031 C 
ATOM     41  C   UNL A   1      40.192  28.271  27.177  1.00  0.00     0.029 A 
ATOM     42  N   UNL A   1      41.874  27.980  28.594  1.00  0.00    -0.354 N 
ATOM     43  C   UNL A   1      41.448  29.251  32.802  1.00  0.00     0.074 A 
ATOM     44  C   UNL A   1      40.147  28.693  33.059  1.00  0.00     0.031 C 
ATOM     45  C   UNL A   1      41.045  27.388  26.610  1.00  0.00     0.029 A 
ATOM     46  C   UNL A   1      42.154  27.151  27.519  1.00  0.00     0.049 A 
ATOM     47  H   UNL A   1      42.509  28.139  29.329  1.00  0.00     0.167 HD
ATOM     48  C   UNL A   1      42.586  29.216  33.543  1.00  0.00     0.037 A 
ATOM     49  C   UNL A   1      43.185  26.278  27.431  1.00  0.00     0.037 A 
ATOM     50  C   UNL A   1      43.620  30.035  32.971  1.00  0.00     0.049 A 
ATOM     51  C   UNL A   1      44.215  26.689  28.415  1.00  0.00     0.074 A 
ATOM     52  C   UNL A   1      43.756  31.378  32.678  1.00  0.00     0.029 A 
ATOM     53  N   UNL A   1      44.643  29.404  32.313  1.00  0.00    -0.354 N 
ATOM     54  N   UNL A   1      44.946  27.764  28.315  1.00  0.00    -0.248 NA
ATOM     55  C   UNL A   1      44.196  26.070  29.732  1.00  0.00     0.031 C 
ATOM     56  C   UNL A   1      44.574  31.427  31.512  1.00  0.00     0.029 A 
ATOM     57  C   UNL A   1      44.906  30.115  31.174  1.00  0.00     0.049 A 
ATOM     58  H   UNL A   1      45.105  28.584  32.607  1.00  0.00     0.167 HD
ATOM     59  C   UNL A   1      45.130  28.188  29.622  1.00  0.00     0.074 A 
ATOM     60  C   UNL A   1      44.769  27.041  30.447  1.00  0.00     0.031 C 
ATOM     61  C   UNL A   1      45.284  29.510  29.917  1.00  0.00     0.037 A 
BRANCH  48  62
ATOM     62  C   UNL A   1      42.877  28.142  34.564  1.00  0.00     0.057 A 
ATOM     63  C   UNL A   1      43.041  26.813  34.134  1.00  0.00     0.134 A 
ATOM     64  C   UNL A   1      42.701  28.303  35.955  1.00  0.00     0.134 A 
ATOM     65  F   UNL A   1      43.198  26.523  32.834  1.00  0.00    -0.206 F 
ATOM     66  C   UNL A   1      42.957  25.725  35.011  1.00  0.00     0.040 A 
ATOM     67  C   UNL A   1      42.671  27.227  36.845  1.00  0.00     0.040 A 
ATOM     68  F   UNL A   1      42.446  29.490  36.516  1.00  0.00    -0.206 F 
ATOM     69  C   UNL A   1      42.765  25.930  36.372  1.00  0.00     0.006 A 
ENDBRANCH  48  62
BRANCH  49  70
ATOM     70  C   UNL A   1      43.228  24.960  26.757  1.00  0.00     0.057 A 
ATOM     71  C   UNL A   1      42.479  23.880  27.243  1.00  0.00     0.134 A 
ATOM     72  C   UNL A   1      43.777  24.800  25.472  1.00  0.00     0.134 A 
ATOM     73  F   UNL A   1      41.882  23.950  28.443  1.00  0.00    -0.206 F 
ATOM     74  C   UNL A   1      42.258  22.724  26.485  1.00  0.00     0.040 A 
ATOM     75  C   UNL A   1      43.576  23.645  24.710  1.00  0.00     0.040 A 
ATOM     76  F   UNL A   1      44.451  25.792  24.872  1.00  0.00    -0.206 F 
ATOM     77  C   UNL A   1      42.798  22.609  25.208  1.00  0.00     0.006 A 
ENDBRANCH  49  70
BRANCH  61  78
ATOM     78  C   UNL A   1      45.597  30.450  28.788  1.00  0.00     0.057 A 
ATOM     79  C   UNL A   1      46.893  30.714  28.322  1.00  0.00     0.134 A 
ATOM     80  C   UNL A   1      44.535  30.983  28.047  1.00  0.00     0.134 A 
ATOM     81  F   UNL A   1      47.967  30.166  28.908  1.00  0.00    -0.206 F 
ATOM     82  C   UNL A   1      47.121  31.505  27.192  1.00  0.00     0.040 A 
ATOM     83  C   UNL A   1      44.748  31.745  26.897  1.00  0.00     0.040 A 
ATOM     84  F   UNL A   1      43.266  30.726  28.403  1.00  0.00    -0.206 F 
ATOM     85  C   UNL A   1      46.045  32.016  26.470  1.00  0.00     0.006 A 
ENDBRANCH  61  78
ENDBRANCH  35  36
ENDBRANCH  28  30
ENDBRANCH  27  28
ENDBRANCH  26  27
ENDBRANCH   1  26
TORSDOF 13
ENDMDL
