MODEL 1
REMARK VINA RESULT:     -10.9      0.000      0.000
REMARK SMILES Cc1nc(/C=C/C(=O)N2CCC[C@@H]2C(=O)OCCOC(=O)c2ccc(-c3c4nc(c(-c5c(F)cccc5F)c5ccc([nH]5)c(-c5c(F)cccc5F)c5nc(c(-c6c(F)cccc6F)c6ccc3[nH]6)C=C5)C=C4)cc2)cs1
REMARK SMILES IDX 17 1 16 2 14 3 15 4 13 5 9 6 10 7 11 8 12 9 7 10 8 11 6 12
REMARK SMILES IDX 5 13 4 14 1 15 2 16 3 17 77 18 76 19 18 20 19 21 20 22 21 23
REMARK SMILES IDX 22 24 23 25 75 26 24 27 74 28 25 29 26 30 27 31 68 32 28 33
REMARK SMILES IDX 73 34 67 35 69 36 29 37 72 38 66 39 65 40 30 42 56 43 39 44
REMARK SMILES IDX 55 45 40 46 43 47 54 48 70 49 41 50 42 51 53 53 71 54 44 55
REMARK SMILES IDX 31 56 32 57 37 58 33 59 34 60 36 61 38 62 35 63 57 64 58 65
REMARK SMILES IDX 63 66 59 67 60 68 62 69 64 70 61 71 45 72 46 73 51 74 47 75
REMARK SMILES IDX 48 76 50 77 52 78 49 79
REMARK H PARENT 69 41 43 52
REMARK Flexibility Score: inf
ROOT
ATOM      1  C   UNL A   1      35.451  21.732  26.102  1.00  0.00     0.274 C 
ENDROOT
BRANCH   1   2
ATOM      2  O   UNL A   1      35.338  23.032  25.491  1.00  0.00    -0.461 OA
BRANCH   2   3
ATOM      3  C   UNL A   1      34.131  23.644  25.640  1.00  0.00     0.328 C 
ATOM      4  O   UNL A   1      33.962  24.852  25.510  1.00  0.00    -0.250 OA
BRANCH   3   5
ATOM      5  C   UNL A   1      33.003  22.677  26.044  1.00  0.00     0.195 C 
ATOM      6  N   UNL A   1      31.975  22.552  25.019  1.00  0.00    -0.325 N 
ATOM      7  C   UNL A   1      30.655  22.523  25.627  1.00  0.00     0.121 C 
ATOM      8  C   UNL A   1      30.824  23.362  26.876  1.00  0.00     0.024 C 
ATOM      9  C   UNL A   1      32.244  23.032  27.332  1.00  0.00     0.039 C 
BRANCH   6  10
ATOM     10  C   UNL A   1      32.269  22.045  23.776  1.00  0.00     0.247 C 
ATOM     11  O   UNL A   1      31.996  22.609  22.722  1.00  0.00    -0.270 OA
BRANCH  10  12
ATOM     12  C   UNL A   1      32.882  20.697  23.735  1.00  0.00     0.073 C 
ATOM     13  C   UNL A   1      32.568  19.776  24.660  1.00  0.00     0.035 C 
BRANCH  13  14
ATOM     14  C   UNL A   1      33.053  18.445  24.730  1.00  0.00     0.074 A 
ATOM     15  C   UNL A   1      32.153  15.077  25.751  1.00  0.00     0.079 C 
ATOM     16  C   UNL A   1      32.781  16.324  25.238  1.00  0.00     0.090 A 
ATOM     17  N   UNL A   1      32.187  17.498  25.226  1.00  0.00    -0.242 NA
ATOM     18  S   UNL A   1      34.382  16.297  24.609  1.00  0.00    -0.127 S 
ATOM     19  C   UNL A   1      34.289  17.989  24.331  1.00  0.00     0.095 A 
ENDBRANCH  13  14
ENDBRANCH  10  12
ENDBRANCH   6  10
ENDBRANCH   3   5
ENDBRANCH   2   3
ENDBRANCH   1   2
BRANCH   1  20
ATOM     20  C   UNL A   1      36.367  20.801  25.299  1.00  0.00     0.275 C 
BRANCH  20  21
ATOM     21  O   UNL A   1      37.623  21.421  24.964  1.00  0.00    -0.458 OA
BRANCH  21  22
ATOM     22  C   UNL A   1      38.664  21.065  25.750  1.00  0.00     0.338 C 
ATOM     23  O   UNL A   1      39.118  19.945  25.916  1.00  0.00    -0.246 OA
BRANCH  22  24
ATOM     24  C   UNL A   1      39.310  22.259  26.312  1.00  0.00     0.060 A 
ATOM     25  C   UNL A   1      38.816  23.509  25.931  1.00  0.00     0.016 A 
ATOM     26  C   UNL A   1      40.453  22.164  27.107  1.00  0.00     0.016 A 
ATOM     27  C   UNL A   1      39.457  24.672  26.338  1.00  0.00     0.010 A 
ATOM     28  C   UNL A   1      41.100  23.335  27.516  1.00  0.00     0.010 A 
ATOM     29  C   UNL A   1      40.611  24.594  27.124  1.00  0.00    -0.014 A 
BRANCH  29  30
ATOM     30  C   UNL A   1      41.323  25.839  27.493  1.00  0.00     0.031 A 
ATOM     31  C   UNL A   1      40.626  26.886  28.311  1.00  0.00     0.074 A 
ATOM     32  C   UNL A   1      42.607  26.007  27.127  1.00  0.00     0.049 A 
ATOM     33  N   UNL A   1      41.047  28.072  28.668  1.00  0.00    -0.248 NA
ATOM     34  C   UNL A   1      39.278  26.551  28.796  1.00  0.00     0.031 C 
ATOM     35  C   UNL A   1      43.407  25.031  26.388  1.00  0.00     0.029 A 
ATOM     36  N   UNL A   1      43.461  27.059  27.331  1.00  0.00    -0.354 N 
ATOM     37  C   UNL A   1      40.011  28.635  29.401  1.00  0.00     0.074 A 
ATOM     38  C   UNL A   1      38.936  27.665  29.430  1.00  0.00     0.031 C 
ATOM     39  C   UNL A   1      44.640  25.531  26.201  1.00  0.00     0.029 A 
ATOM     40  C   UNL A   1      44.698  26.877  26.764  1.00  0.00     0.049 A 
ATOM     41  H   UNL A   1      43.211  27.868  27.835  1.00  0.00     0.167 HD
ATOM     42  C   UNL A   1      39.963  29.850  29.994  1.00  0.00     0.037 A 
ATOM     43  C   UNL A   1      45.748  27.714  26.684  1.00  0.00     0.037 A 
ATOM     44  C   UNL A   1      41.040  30.806  29.976  1.00  0.00     0.049 A 
ATOM     45  C   UNL A   1      45.644  29.085  27.290  1.00  0.00     0.074 A 
ATOM     46  C   UNL A   1      41.088  32.065  30.549  1.00  0.00     0.029 A 
ATOM     47  N   UNL A   1      42.260  30.604  29.349  1.00  0.00    -0.354 N 
ATOM     48  N   UNL A   1      44.650  29.619  27.956  1.00  0.00    -0.248 NA
ATOM     49  C   UNL A   1      46.804  29.972  27.122  1.00  0.00     0.031 C 
ATOM     50  C   UNL A   1      42.327  32.639  30.241  1.00  0.00     0.029 A 
ATOM     51  C   UNL A   1      43.063  31.723  29.506  1.00  0.00     0.049 A 
ATOM     52  H   UNL A   1      42.519  29.788  28.865  1.00  0.00     0.167 HD
ATOM     53  C   UNL A   1      45.067  30.898  28.299  1.00  0.00     0.074 A 
ATOM     54  C   UNL A   1      46.410  31.055  27.780  1.00  0.00     0.031 C 
ATOM     55  C   UNL A   1      44.396  31.859  28.982  1.00  0.00     0.037 A 
BRANCH  42  56
ATOM     56  C   UNL A   1      38.690  30.228  30.690  1.00  0.00     0.057 A 
ATOM     57  C   UNL A   1      37.655  30.897  30.028  1.00  0.00     0.134 A 
ATOM     58  C   UNL A   1      38.488  29.891  32.035  1.00  0.00     0.134 A 
ATOM     59  F   UNL A   1      37.792  31.262  28.744  1.00  0.00    -0.206 F 
ATOM     60  C   UNL A   1      36.469  31.234  30.683  1.00  0.00     0.040 A 
ATOM     61  C   UNL A   1      37.300  30.204  32.694  1.00  0.00     0.040 A 
ATOM     62  F   UNL A   1      39.441  29.245  32.725  1.00  0.00    -0.206 F 
ATOM     63  C   UNL A   1      36.287  30.881  32.020  1.00  0.00     0.006 A 
ENDBRANCH  42  56
BRANCH  43  64
ATOM     64  C   UNL A   1      46.979  27.288  25.974  1.00  0.00     0.057 A 
ATOM     65  C   UNL A   1      48.046  26.703  26.662  1.00  0.00     0.134 A 
ATOM     66  C   UNL A   1      47.114  27.457  24.591  1.00  0.00     0.134 A 
ATOM     67  F   UNL A   1      47.982  26.538  27.992  1.00  0.00    -0.206 F 
ATOM     68  C   UNL A   1      49.210  26.306  26.002  1.00  0.00     0.040 A 
ATOM     69  C   UNL A   1      48.263  27.045  23.914  1.00  0.00     0.040 A 
ATOM     70  F   UNL A   1      46.127  28.015  23.876  1.00  0.00    -0.206 F 
ATOM     71  C   UNL A   1      49.317  26.471  24.622  1.00  0.00     0.006 A 
ENDBRANCH  43  64
BRANCH  55  72
ATOM     72  C   UNL A   1      45.115  33.151  29.220  1.00  0.00     0.057 A 
ATOM     73  C   UNL A   1      45.940  33.338  30.336  1.00  0.00     0.134 A 
ATOM     74  C   UNL A   1      45.006  34.208  28.309  1.00  0.00     0.134 A 
ATOM     75  F   UNL A   1      46.074  32.366  31.252  1.00  0.00    -0.206 F 
ATOM     76  C   UNL A   1      46.619  34.538  30.547  1.00  0.00     0.040 A 
ATOM     77  C   UNL A   1      45.695  35.407  28.497  1.00  0.00     0.040 A 
ATOM     78  F   UNL A   1      44.236  34.089  27.218  1.00  0.00    -0.206 F 
ATOM     79  C   UNL A   1      46.502  35.575  29.622  1.00  0.00     0.006 A 
ENDBRANCH  55  72
ENDBRANCH  29  30
ENDBRANCH  22  24
ENDBRANCH  21  22
ENDBRANCH  20  21
ENDBRANCH   1  20
TORSDOF 14
ENDMDL
MODEL 2
REMARK VINA RESULT:     -10.9      3.233      6.513
REMARK SMILES Cc1nc(/C=C/C(=O)N2CCC[C@@H]2C(=O)OCCOC(=O)c2ccc(-c3c4nc(c(-c5c(F)cccc5F)c5ccc([nH]5)c(-c5c(F)cccc5F)c5nc(c(-c6c(F)cccc6F)c6ccc3[nH]6)C=C5)C=C4)cc2)cs1
REMARK SMILES IDX 17 1 16 2 14 3 15 4 13 5 9 6 10 7 11 8 12 9 7 10 8 11 6 12
REMARK SMILES IDX 5 13 4 14 1 15 2 16 3 17 77 18 76 19 18 20 19 21 20 22 21 23
REMARK SMILES IDX 22 24 23 25 75 26 24 27 74 28 25 29 26 30 27 31 68 32 28 33
REMARK SMILES IDX 73 34 67 35 69 36 29 37 72 38 66 39 65 40 30 42 56 43 39 44
REMARK SMILES IDX 55 45 40 46 43 47 54 48 70 49 41 50 42 51 53 53 71 54 44 55
REMARK SMILES IDX 31 56 32 57 37 58 33 59 34 60 36 61 38 62 35 63 57 64 58 65
REMARK SMILES IDX 63 66 59 67 60 68 62 69 64 70 61 71 45 72 46 73 51 74 47 75
REMARK SMILES IDX 48 76 50 77 52 78 49 79
REMARK H PARENT 69 41 43 52
REMARK Flexibility Score: inf
ROOT
ATOM      1  C   UNL A   1      33.363  27.664  25.672  1.00  0.00     0.274 C 
ENDROOT
BRANCH   1   2
ATOM      2  O   UNL A   1      31.964  27.592  25.333  1.00  0.00    -0.461 OA
BRANCH   2   3
ATOM      3  C   UNL A   1      31.174  26.964  26.248  1.00  0.00     0.328 C 
ATOM      4  O   UNL A   1      31.106  27.297  27.427  1.00  0.00    -0.250 OA
BRANCH   3   5
ATOM      5  C   UNL A   1      30.415  25.755  25.672  1.00  0.00     0.195 C 
ATOM      6  N   UNL A   1      31.286  24.617  25.408  1.00  0.00    -0.325 N 
ATOM      7  C   UNL A   1      30.926  23.986  24.149  1.00  0.00     0.121 C 
ATOM      8  C   UNL A   1      30.384  25.132  23.323  1.00  0.00     0.024 C 
ATOM      9  C   UNL A   1      29.665  26.001  24.353  1.00  0.00     0.039 C 
BRANCH   6  10
ATOM     10  C   UNL A   1      31.963  23.990  26.426  1.00  0.00     0.247 C 
ATOM     11  O   UNL A   1      31.471  23.729  27.519  1.00  0.00    -0.270 OA
BRANCH  10  12
ATOM     12  C   UNL A   1      33.395  23.692  26.190  1.00  0.00     0.073 C 
ATOM     13  C   UNL A   1      33.798  22.438  25.935  1.00  0.00     0.035 C 
BRANCH  13  14
ATOM     14  C   UNL A   1      35.123  22.012  25.664  1.00  0.00     0.074 A 
ATOM     15  C   UNL A   1      38.611  22.941  26.077  1.00  0.00     0.079 C 
ATOM     16  C   UNL A   1      37.299  22.306  25.783  1.00  0.00     0.090 A 
ATOM     17  N   UNL A   1      36.138  22.825  26.119  1.00  0.00    -0.242 NA
ATOM     18  S   UNL A   1      37.226  20.799  24.956  1.00  0.00    -0.127 S 
ATOM     19  C   UNL A   1      35.511  20.860  25.017  1.00  0.00     0.095 A 
ENDBRANCH  13  14
ENDBRANCH  10  12
ENDBRANCH   6  10
ENDBRANCH   3   5
ENDBRANCH   2   3
ENDBRANCH   1   2
BRANCH   1  20
ATOM     20  C   UNL A   1      33.751  29.050  26.202  1.00  0.00     0.275 C 
BRANCH  20  21
ATOM     21  O   UNL A   1      34.146  29.018  27.587  1.00  0.00    -0.458 OA
BRANCH  21  22
ATOM     22  C   UNL A   1      34.731  30.150  28.041  1.00  0.00     0.338 C 
ATOM     23  O   UNL A   1      34.199  31.227  28.247  1.00  0.00    -0.246 OA
BRANCH  22  24
ATOM     24  C   UNL A   1      36.131  29.889  28.405  1.00  0.00     0.060 A 
ATOM     25  C   UNL A   1      37.107  30.084  27.425  1.00  0.00     0.016 A 
ATOM     26  C   UNL A   1      36.473  29.353  29.646  1.00  0.00     0.016 A 
ATOM     27  C   UNL A   1      38.431  29.745  27.674  1.00  0.00     0.010 A 
ATOM     28  C   UNL A   1      37.806  29.010  29.898  1.00  0.00     0.010 A 
ATOM     29  C   UNL A   1      38.789  29.194  28.909  1.00  0.00    -0.014 A 
BRANCH  29  30
ATOM     30  C   UNL A   1      40.190  28.773  29.137  1.00  0.00     0.031 A 
ATOM     31  C   UNL A   1      41.141  29.690  29.848  1.00  0.00     0.074 A 
ATOM     32  C   UNL A   1      40.593  27.552  28.741  1.00  0.00     0.049 A 
ATOM     33  N   UNL A   1      42.421  29.541  30.073  1.00  0.00    -0.248 NA
ATOM     34  C   UNL A   1      40.575  30.939  30.379  1.00  0.00     0.031 C 
ATOM     35  C   UNL A   1      39.742  26.549  28.100  1.00  0.00     0.029 A 
ATOM     36  N   UNL A   1      41.821  26.949  28.824  1.00  0.00    -0.354 N 
ATOM     37  C   UNL A   1      42.820  30.683  30.753  1.00  0.00     0.074 A 
ATOM     38  C   UNL A   1      41.648  31.523  30.896  1.00  0.00     0.031 C 
ATOM     39  C   UNL A   1      40.475  25.453  27.848  1.00  0.00     0.029 A 
ATOM     40  C   UNL A   1      41.853  25.694  28.265  1.00  0.00     0.049 A 
ATOM     41  H   UNL A   1      42.605  27.374  29.242  1.00  0.00     0.167 HD
ATOM     42  C   UNL A   1      44.052  31.000  31.216  1.00  0.00     0.037 A 
ATOM     43  C   UNL A   1      42.885  24.850  28.086  1.00  0.00     0.037 A 
ATOM     44  C   UNL A   1      45.211  30.157  31.085  1.00  0.00     0.049 A 
ATOM     45  C   UNL A   1      44.256  25.256  28.546  1.00  0.00     0.074 A 
ATOM     46  C   UNL A   1      46.503  30.389  31.522  1.00  0.00     0.029 A 
ATOM     47  N   UNL A   1      45.213  28.913  30.470  1.00  0.00    -0.354 N 
ATOM     48  N   UNL A   1      44.629  26.350  29.162  1.00  0.00    -0.248 NA
ATOM     49  C   UNL A   1      45.351  24.315  28.272  1.00  0.00     0.031 C 
ATOM     50  C   UNL A   1      47.296  29.301  31.142  1.00  0.00     0.029 A 
ATOM     51  C   UNL A   1      46.490  28.375  30.500  1.00  0.00     0.049 A 
ATOM     52  H   UNL A   1      44.426  28.478  30.071  1.00  0.00     0.167 HD
ATOM     53  C   UNL A   1      45.997  26.225  29.364  1.00  0.00     0.074 A 
ATOM     54  C   UNL A   1      46.386  24.941  28.816  1.00  0.00     0.031 C 
ATOM     55  C   UNL A   1      46.856  27.096  29.949  1.00  0.00     0.037 A 
BRANCH  42  56
ATOM     56  C   UNL A   1      44.215  32.334  31.882  1.00  0.00     0.057 A 
ATOM     57  C   UNL A   1      44.073  32.492  33.265  1.00  0.00     0.134 A 
ATOM     58  C   UNL A   1      44.546  33.468  31.130  1.00  0.00     0.134 A 
ATOM     59  F   UNL A   1      43.741  31.447  34.040  1.00  0.00    -0.206 F 
ATOM     60  C   UNL A   1      44.238  33.737  33.876  1.00  0.00     0.040 A 
ATOM     61  C   UNL A   1      44.733  34.713  31.732  1.00  0.00     0.040 A 
ATOM     62  F   UNL A   1      44.699  33.382  29.800  1.00  0.00    -0.206 F 
ATOM     63  C   UNL A   1      44.575  34.851  33.109  1.00  0.00     0.006 A 
ENDBRANCH  42  56
BRANCH  43  64
ATOM     64  C   UNL A   1      42.664  23.548  27.411  1.00  0.00     0.057 A 
ATOM     65  C   UNL A   1      42.877  23.398  26.038  1.00  0.00     0.134 A 
ATOM     66  C   UNL A   1      42.234  22.424  28.127  1.00  0.00     0.134 A 
ATOM     67  F   UNL A   1      43.266  24.446  25.297  1.00  0.00    -0.206 F 
ATOM     68  C   UNL A   1      42.665  22.177  25.396  1.00  0.00     0.040 A 
ATOM     69  C   UNL A   1      42.038  21.191  27.503  1.00  0.00     0.040 A 
ATOM     70  F   UNL A   1      42.009  22.505  29.446  1.00  0.00    -0.206 F 
ATOM     71  C   UNL A   1      42.250  21.067  26.131  1.00  0.00     0.006 A 
ENDBRANCH  43  64
BRANCH  55  72
ATOM     72  C   UNL A   1      48.291  26.677  30.042  1.00  0.00     0.057 A 
ATOM     73  C   UNL A   1      48.766  25.915  31.116  1.00  0.00     0.134 A 
ATOM     74  C   UNL A   1      49.200  27.014  29.032  1.00  0.00     0.134 A 
ATOM     75  F   UNL A   1      47.945  25.574  32.122  1.00  0.00    -0.206 F 
ATOM     76  C   UNL A   1      50.100  25.515  31.192  1.00  0.00     0.040 A 
ATOM     77  C   UNL A   1      50.533  26.604  29.085  1.00  0.00     0.040 A 
ATOM     78  F   UNL A   1      48.806  27.738  27.974  1.00  0.00    -0.206 F 
ATOM     79  C   UNL A   1      50.987  25.855  30.170  1.00  0.00     0.006 A 
ENDBRANCH  55  72
ENDBRANCH  29  30
ENDBRANCH  22  24
ENDBRANCH  21  22
ENDBRANCH  20  21
ENDBRANCH   1  20
TORSDOF 14
ENDMDL
MODEL 3
REMARK VINA RESULT:     -10.9      5.286      9.660
REMARK SMILES Cc1nc(/C=C/C(=O)N2CCC[C@@H]2C(=O)OCCOC(=O)c2ccc(-c3c4nc(c(-c5c(F)cccc5F)c5ccc([nH]5)c(-c5c(F)cccc5F)c5nc(c(-c6c(F)cccc6F)c6ccc3[nH]6)C=C5)C=C4)cc2)cs1
REMARK SMILES IDX 17 1 16 2 14 3 15 4 13 5 9 6 10 7 11 8 12 9 7 10 8 11 6 12
REMARK SMILES IDX 5 13 4 14 1 15 2 16 3 17 77 18 76 19 18 20 19 21 20 22 21 23
REMARK SMILES IDX 22 24 23 25 75 26 24 27 74 28 25 29 26 30 27 31 68 32 28 33
REMARK SMILES IDX 73 34 67 35 69 36 29 37 72 38 66 39 65 40 30 42 56 43 39 44
REMARK SMILES IDX 55 45 40 46 43 47 54 48 70 49 41 50 42 51 53 53 71 54 44 55
REMARK SMILES IDX 31 56 32 57 37 58 33 59 34 60 36 61 38 62 35 63 57 64 58 65
REMARK SMILES IDX 63 66 59 67 60 68 62 69 64 70 61 71 45 72 46 73 51 74 47 75
REMARK SMILES IDX 48 76 50 77 52 78 49 79
REMARK H PARENT 69 41 43 52
REMARK Flexibility Score: inf
ROOT
ATOM      1  C   UNL A   1      31.522  28.576  26.997  1.00  0.00     0.274 C 
ENDROOT
BRANCH   1   2
ATOM      2  O   UNL A   1      32.590  27.626  26.818  1.00  0.00    -0.461 OA
BRANCH   2   3
ATOM      3  C   UNL A   1      32.260  26.502  26.122  1.00  0.00     0.328 C 
ATOM      4  O   UNL A   1      31.731  25.520  26.631  1.00  0.00    -0.250 OA
BRANCH   3   5
ATOM      5  C   UNL A   1      32.669  26.561  24.639  1.00  0.00     0.195 C 
ATOM      6  N   UNL A   1      31.657  25.999  23.754  1.00  0.00    -0.325 N 
ATOM      7  C   UNL A   1      32.283  25.209  22.706  1.00  0.00     0.121 C 
ATOM      8  C   UNL A   1      33.539  24.682  23.367  1.00  0.00     0.024 C 
ATOM      9  C   UNL A   1      33.972  25.833  24.273  1.00  0.00     0.039 C 
BRANCH   6  10
ATOM     10  C   UNL A   1      30.404  26.557  23.662  1.00  0.00     0.247 C 
ATOM     11  O   UNL A   1      29.363  25.942  23.863  1.00  0.00    -0.270 OA
BRANCH  10  12
ATOM     12  C   UNL A   1      30.335  27.968  23.216  1.00  0.00     0.073 C 
ATOM     13  C   UNL A   1      29.152  28.596  23.120  1.00  0.00     0.035 C 
BRANCH  13  14
ATOM     14  C   UNL A   1      28.937  29.944  22.735  1.00  0.00     0.074 A 
ATOM     15  C   UNL A   1      28.013  32.047  19.921  1.00  0.00     0.079 C 
ATOM     16  C   UNL A   1      28.394  31.450  21.228  1.00  0.00     0.090 A 
ATOM     17  N   UNL A   1      28.540  30.159  21.435  1.00  0.00    -0.242 NA
ATOM     18  S   UNL A   1      28.676  32.455  22.596  1.00  0.00    -0.127 S 
ATOM     19  C   UNL A   1      29.057  31.064  23.527  1.00  0.00     0.095 A 
ENDBRANCH  13  14
ENDBRANCH  10  12
ENDBRANCH   6  10
ENDBRANCH   3   5
ENDBRANCH   2   3
ENDBRANCH   1   2
BRANCH   1  20
ATOM     20  C   UNL A   1      31.770  29.869  26.212  1.00  0.00     0.275 C 
BRANCH  20  21
ATOM     21  O   UNL A   1      33.163  30.232  26.176  1.00  0.00    -0.458 OA
BRANCH  21  22
ATOM     22  C   UNL A   1      33.508  31.258  26.988  1.00  0.00     0.338 C 
ATOM     23  O   UNL A   1      32.845  32.245  27.256  1.00  0.00    -0.246 OA
BRANCH  22  24
ATOM     24  C   UNL A   1      34.787  30.974  27.653  1.00  0.00     0.060 A 
ATOM     25  C   UNL A   1      35.039  29.657  28.046  1.00  0.00     0.016 A 
ATOM     26  C   UNL A   1      35.675  31.995  27.992  1.00  0.00     0.016 A 
ATOM     27  C   UNL A   1      36.178  29.348  28.780  1.00  0.00     0.010 A 
ATOM     28  C   UNL A   1      36.821  31.685  28.733  1.00  0.00     0.010 A 
ATOM     29  C   UNL A   1      37.072  30.362  29.140  1.00  0.00    -0.014 A 
BRANCH  29  30
ATOM     30  C   UNL A   1      38.245  30.031  29.981  1.00  0.00     0.031 A 
ATOM     31  C   UNL A   1      39.329  29.147  29.438  1.00  0.00     0.074 A 
ATOM     32  C   UNL A   1      38.352  30.559  31.213  1.00  0.00     0.049 A 
ATOM     33  N   UNL A   1      40.391  28.677  30.041  1.00  0.00    -0.248 NA
ATOM     34  C   UNL A   1      39.202  28.741  28.030  1.00  0.00     0.031 C 
ATOM     35  C   UNL A   1      37.395  31.483  31.822  1.00  0.00     0.029 A 
ATOM     36  N   UNL A   1      39.318  30.394  32.172  1.00  0.00    -0.354 N 
ATOM     37  C   UNL A   1      41.050  27.904  29.094  1.00  0.00     0.074 A 
ATOM     38  C   UNL A   1      40.263  27.959  27.879  1.00  0.00     0.031 C 
ATOM     39  C   UNL A   1      37.823  31.805  33.053  1.00  0.00     0.029 A 
ATOM     40  C   UNL A   1      39.055  31.074  33.335  1.00  0.00     0.049 A 
ATOM     41  H   UNL A   1      40.122  29.840  32.039  1.00  0.00     0.167 HD
ATOM     42  C   UNL A   1      42.206  27.213  29.229  1.00  0.00     0.037 A 
ATOM     43  C   UNL A   1      39.719  31.082  34.505  1.00  0.00     0.037 A 
ATOM     44  C   UNL A   1      42.993  27.173  30.434  1.00  0.00     0.049 A 
ATOM     45  C   UNL A   1      40.962  30.250  34.651  1.00  0.00     0.074 A 
ATOM     46  C   UNL A   1      44.180  26.502  30.669  1.00  0.00     0.029 A 
ATOM     47  N   UNL A   1      42.668  27.837  31.608  1.00  0.00    -0.354 N 
ATOM     48  N   UNL A   1      41.562  29.499  33.760  1.00  0.00    -0.248 NA
ATOM     49  C   UNL A   1      41.612  30.257  35.970  1.00  0.00     0.031 C 
ATOM     50  C   UNL A   1      44.558  26.733  31.997  1.00  0.00     0.029 A 
ATOM     51  C   UNL A   1      43.623  27.577  32.577  1.00  0.00     0.049 A 
ATOM     52  H   UNL A   1      41.877  28.408  31.734  1.00  0.00     0.167 HD
ATOM     53  C   UNL A   1      42.666  28.956  34.403  1.00  0.00     0.074 A 
ATOM     54  C   UNL A   1      42.661  29.474  35.756  1.00  0.00     0.031 C 
ATOM     55  C   UNL A   1      43.600  28.102  33.917  1.00  0.00     0.037 A 
BRANCH  42  56
ATOM     56  C   UNL A   1      42.674  26.417  28.048  1.00  0.00     0.057 A 
ATOM     57  C   UNL A   1      43.550  26.950  27.096  1.00  0.00     0.134 A 
ATOM     58  C   UNL A   1      42.262  25.089  27.878  1.00  0.00     0.134 A 
ATOM     59  F   UNL A   1      43.969  28.221  27.193  1.00  0.00    -0.206 F 
ATOM     60  C   UNL A   1      43.988  26.195  26.006  1.00  0.00     0.040 A 
ATOM     61  C   UNL A   1      42.708  24.318  26.804  1.00  0.00     0.040 A 
ATOM     62  F   UNL A   1      41.424  24.518  28.758  1.00  0.00    -0.206 F 
ATOM     63  C   UNL A   1      43.571  24.873  25.862  1.00  0.00     0.006 A 
ENDBRANCH  42  56
BRANCH  43  64
ATOM     64  C   UNL A   1      39.202  31.882  35.642  1.00  0.00     0.057 A 
ATOM     65  C   UNL A   1      38.277  31.348  36.543  1.00  0.00     0.134 A 
ATOM     66  C   UNL A   1      39.624  33.201  35.851  1.00  0.00     0.134 A 
ATOM     67  F   UNL A   1      37.819  30.098  36.378  1.00  0.00    -0.206 F 
ATOM     68  C   UNL A   1      37.782  32.098  37.611  1.00  0.00     0.040 A 
ATOM     69  C   UNL A   1      39.154  33.956  36.927  1.00  0.00     0.040 A 
ATOM     70  F   UNL A   1      40.508  33.771  35.020  1.00  0.00    -0.206 F 
ATOM     71  C   UNL A   1      38.226  33.404  37.809  1.00  0.00     0.006 A 
ENDBRANCH  43  64
BRANCH  55  72
ATOM     72  C   UNL A   1      44.700  27.695  34.849  1.00  0.00     0.057 A 
ATOM     73  C   UNL A   1      45.871  28.452  34.978  1.00  0.00     0.134 A 
ATOM     74  C   UNL A   1      44.574  26.551  35.647  1.00  0.00     0.134 A 
ATOM     75  F   UNL A   1      46.055  29.550  34.230  1.00  0.00    -0.206 F 
ATOM     76  C   UNL A   1      46.887  28.077  35.859  1.00  0.00     0.040 A 
ATOM     77  C   UNL A   1      45.574  26.177  36.545  1.00  0.00     0.040 A 
ATOM     78  F   UNL A   1      43.474  25.788  35.573  1.00  0.00    -0.206 F 
ATOM     79  C   UNL A   1      46.736  26.939  36.650  1.00  0.00     0.006 A 
ENDBRANCH  55  72
ENDBRANCH  29  30
ENDBRANCH  22  24
ENDBRANCH  21  22
ENDBRANCH  20  21
ENDBRANCH   1  20
TORSDOF 14
ENDMDL
