MODEL 1
REMARK VINA RESULT:     -12.6      0.000      0.000
REMARK SMILES C[C@@H](C(=O)OCCOC(=O)c1ccc(-c2c3nc(c(-c4c(F)cccc4F)c4ccc([nH]4)c(-c4c(F)cccc4F)c4nc(c(-c5c(F)cccc5F)c5ccc2[nH]5)C=C4)C=C3)cc1)c1ccc(C[C@H]2CCC[C@H]2O)cc1-c1ccc(O)cc1
REMARK SMILES IDX 6 1 5 2 3 3 4 4 2 5 1 6 65 7 66 8 77 9 67 10 76 11 68 12
REMARK SMILES IDX 78 13 79 14 84 15 80 16 83 17 81 18 82 19 69 21 70 22 71 23
REMARK SMILES IDX 74 24 72 25 73 26 75 27 7 29 8 30 9 31 10 32 11 33 12 34
REMARK SMILES IDX 64 35 13 36 63 37 14 38 15 39 16 40 57 41 17 42 62 43 56 44
REMARK SMILES IDX 58 45 18 46 61 47 55 48 54 49 19 51 45 52 28 53 44 54 29 55
REMARK SMILES IDX 32 56 43 57 59 58 30 59 31 60 42 62 60 63 33 64 20 65 21 66
REMARK SMILES IDX 26 67 22 68 23 69 25 70 27 71 24 72 46 73 47 74 52 75 48 76
REMARK SMILES IDX 49 77 51 78 53 79 50 80 34 81 35 82 40 83 36 84 37 85 39 86
REMARK SMILES IDX 41 87 38 88
REMARK H PARENT 82 20 75 28 58 50 32 61
REMARK Flexibility Score: inf
ROOT
ATOM      1  C   UNL A   1      33.010  30.362  27.254  1.00  0.00     0.274 C 
ENDROOT
BRANCH   1   2
ATOM      2  O   UNL A   1      33.057  29.038  27.832  1.00  0.00    -0.462 OA
BRANCH   2   3
ATOM      3  C   UNL A   1      32.119  28.144  27.402  1.00  0.00     0.313 C 
ATOM      4  O   UNL A   1      30.971  28.089  27.840  1.00  0.00    -0.252 OA
BRANCH   3   5
ATOM      5  C   UNL A   1      32.659  27.158  26.337  1.00  0.00     0.127 C 
ATOM      6  C   UNL A   1      34.163  27.274  26.095  1.00  0.00     0.025 C 
BRANCH   5   7
ATOM      7  C   UNL A   1      31.814  27.273  25.071  1.00  0.00    -0.026 A 
ATOM      8  C   UNL A   1      31.973  28.368  24.223  1.00  0.00     0.005 A 
ATOM      9  C   UNL A   1      30.728  26.409  24.821  1.00  0.00    -0.014 A 
ATOM     10  C   UNL A   1      30.934  28.762  23.387  1.00  0.00     0.004 A 
ATOM     11  C   UNL A   1      29.640  26.882  24.071  1.00  0.00     0.012 A 
ATOM     12  C   UNL A   1      29.694  28.133  23.465  1.00  0.00    -0.047 A 
BRANCH   9  13
ATOM     13  C   UNL A   1      30.817  24.978  25.104  1.00  0.00    -0.018 A 
ATOM     14  C   UNL A   1      31.488  24.175  24.158  1.00  0.00     0.012 A 
ATOM     15  C   UNL A   1      30.305  24.380  26.257  1.00  0.00     0.012 A 
ATOM     16  C   UNL A   1      31.667  22.814  24.369  1.00  0.00     0.047 A 
ATOM     17  C   UNL A   1      30.492  23.010  26.476  1.00  0.00     0.047 A 
ATOM     18  C   UNL A   1      31.178  22.244  25.534  1.00  0.00     0.115 A 
BRANCH  18  19
ATOM     19  O   UNL A   1      31.401  20.913  25.721  1.00  0.00    -0.508 OA
ATOM     20  H   UNL A   1      31.814  20.408  25.047  1.00  0.00     0.293 HD
ENDBRANCH  18  19
ENDBRANCH   9  13
BRANCH  12  21
ATOM     21  C   UNL A   1      28.454  28.845  23.001  1.00  0.00     0.041 C 
BRANCH  21  22
ATOM     22  C   UNL A   1      28.659  30.288  22.482  1.00  0.00     0.022 C 
ATOM     23  C   UNL A   1      28.026  30.606  21.128  1.00  0.00     0.007 C 
ATOM     24  C   UNL A   1      28.212  31.485  23.340  1.00  0.00     0.117 C 
ATOM     25  C   UNL A   1      28.175  32.120  20.984  1.00  0.00     0.003 C 
ATOM     26  C   UNL A   1      28.290  32.688  22.398  1.00  0.00     0.032 C 
BRANCH  24  27
ATOM     27  O   UNL A   1      26.903  31.421  23.875  1.00  0.00    -0.393 OA
ATOM     28  H   UNL A   1      26.731  30.523  24.201  1.00  0.00     0.210 HD
ENDBRANCH  24  27
ENDBRANCH  21  22
ENDBRANCH  12  21
ENDBRANCH   5   7
ENDBRANCH   3   5
ENDBRANCH   2   3
ENDBRANCH   1   2
BRANCH   1  29
ATOM     29  C   UNL A   1      34.298  31.141  27.547  1.00  0.00     0.275 C 
BRANCH  29  30
ATOM     30  O   UNL A   1      35.347  30.260  28.007  1.00  0.00    -0.458 OA
BRANCH  30  31
ATOM     31  C   UNL A   1      35.961  30.636  29.148  1.00  0.00     0.338 C 
ATOM     32  O   UNL A   1      35.434  31.161  30.129  1.00  0.00    -0.246 OA
BRANCH  31  33
ATOM     33  C   UNL A   1      37.362  30.179  29.170  1.00  0.00     0.060 A 
ATOM     34  C   UNL A   1      37.957  30.014  27.926  1.00  0.00     0.016 A 
ATOM     35  C   UNL A   1      38.085  29.856  30.324  1.00  0.00     0.016 A 
ATOM     36  C   UNL A   1      39.276  29.588  27.823  1.00  0.00     0.010 A 
ATOM     37  C   UNL A   1      39.412  29.380  30.214  1.00  0.00     0.010 A 
ATOM     38  C   UNL A   1      40.024  29.257  28.958  1.00  0.00    -0.014 A 
BRANCH  38  39
ATOM     39  C   UNL A   1      41.421  28.792  28.707  1.00  0.00     0.031 A 
ATOM     40  C   UNL A   1      41.648  27.402  28.181  1.00  0.00     0.074 A 
ATOM     41  C   UNL A   1      42.445  29.669  28.692  1.00  0.00     0.049 A 
ATOM     42  N   UNL A   1      42.759  26.846  27.772  1.00  0.00    -0.248 NA
ATOM     43  C   UNL A   1      40.466  26.530  28.088  1.00  0.00     0.031 C 
ATOM     44  C   UNL A   1      42.341  31.069  29.075  1.00  0.00     0.029 A 
ATOM     45  N   UNL A   1      43.743  29.549  28.246  1.00  0.00    -0.354 N 
ATOM     46  C   UNL A   1      42.423  25.543  27.434  1.00  0.00     0.074 A 
ATOM     47  C   UNL A   1      40.989  25.421  27.588  1.00  0.00     0.031 C 
ATOM     48  C   UNL A   1      43.459  31.714  28.704  1.00  0.00     0.029 A 
ATOM     49  C   UNL A   1      44.417  30.751  28.175  1.00  0.00     0.049 A 
ATOM     50  H   UNL A   1      44.151  28.687  28.002  1.00  0.00     0.167 HD
ATOM     51  C   UNL A   1      43.248  24.519  27.113  1.00  0.00     0.037 A 
ATOM     52  C   UNL A   1      45.668  31.039  27.754  1.00  0.00     0.037 A 
ATOM     53  C   UNL A   1      44.680  24.636  27.032  1.00  0.00     0.049 A 
ATOM     54  C   UNL A   1      46.577  29.887  27.412  1.00  0.00     0.074 A 
ATOM     55  C   UNL A   1      45.628  23.636  26.907  1.00  0.00     0.029 A 
ATOM     56  N   UNL A   1      45.370  25.838  27.075  1.00  0.00    -0.354 N 
ATOM     57  N   UNL A   1      46.282  28.617  27.269  1.00  0.00    -0.248 NA
ATOM     58  C   UNL A   1      48.008  30.192  27.259  1.00  0.00     0.031 C 
ATOM     59  C   UNL A   1      46.896  24.232  26.915  1.00  0.00     0.029 A 
ATOM     60  C   UNL A   1      46.733  25.606  26.991  1.00  0.00     0.049 A 
ATOM     61  H   UNL A   1      44.953  26.726  27.155  1.00  0.00     0.167 HD
ATOM     62  C   UNL A   1      47.492  27.966  27.068  1.00  0.00     0.074 A 
ATOM     63  C   UNL A   1      48.516  28.990  27.024  1.00  0.00     0.031 C 
ATOM     64  C   UNL A   1      47.739  26.637  26.974  1.00  0.00     0.037 A 
BRANCH  51  65
ATOM     65  C   UNL A   1      42.613  23.166  27.022  1.00  0.00     0.057 A 
ATOM     66  C   UNL A   1      42.332  22.540  25.802  1.00  0.00     0.134 A 
ATOM     67  C   UNL A   1      42.194  22.521  28.194  1.00  0.00     0.134 A 
ATOM     68  F   UNL A   1      42.670  23.126  24.644  1.00  0.00    -0.206 F 
ATOM     69  C   UNL A   1      41.633  21.332  25.751  1.00  0.00     0.040 A 
ATOM     70  C   UNL A   1      41.514  21.305  28.156  1.00  0.00     0.040 A 
ATOM     71  F   UNL A   1      42.419  23.078  29.393  1.00  0.00    -0.206 F 
ATOM     72  C   UNL A   1      41.221  20.712  26.931  1.00  0.00     0.006 A 
ENDBRANCH  51  65
BRANCH  52  73
ATOM     73  C   UNL A   1      46.178  32.444  27.715  1.00  0.00     0.057 A 
ATOM     74  C   UNL A   1      45.979  33.260  26.591  1.00  0.00     0.134 A 
ATOM     75  C   UNL A   1      46.901  33.005  28.776  1.00  0.00     0.134 A 
ATOM     76  F   UNL A   1      45.340  32.784  25.514  1.00  0.00    -0.206 F 
ATOM     77  C   UNL A   1      46.471  34.570  26.531  1.00  0.00     0.040 A 
ATOM     78  C   UNL A   1      47.356  34.325  28.750  1.00  0.00     0.040 A 
ATOM     79  F   UNL A   1      47.172  32.280  29.871  1.00  0.00    -0.206 F 
ATOM     80  C   UNL A   1      47.146  35.111  27.621  1.00  0.00     0.006 A 
ENDBRANCH  52  73
BRANCH  64  81
ATOM     81  C   UNL A   1      49.175  26.223  26.848  1.00  0.00     0.057 A 
ATOM     82  C   UNL A   1      49.960  25.953  27.977  1.00  0.00     0.134 A 
ATOM     83  C   UNL A   1      49.772  26.073  25.592  1.00  0.00     0.134 A 
ATOM     84  F   UNL A   1      49.448  26.089  29.211  1.00  0.00    -0.206 F 
ATOM     85  C   UNL A   1      51.298  25.575  27.862  1.00  0.00     0.040 A 
ATOM     86  C   UNL A   1      51.104  25.675  25.463  1.00  0.00     0.040 A 
ATOM     87  F   UNL A   1      49.072  26.309  24.472  1.00  0.00    -0.206 F 
ATOM     88  C   UNL A   1      51.872  25.431  26.600  1.00  0.00     0.006 A 
ENDBRANCH  64  81
ENDBRANCH  38  39
ENDBRANCH  31  33
ENDBRANCH  30  31
ENDBRANCH  29  30
ENDBRANCH   1  29
TORSDOF 17
ENDMDL
MODEL 2
REMARK VINA RESULT:     -12.4      3.938      5.383
REMARK SMILES C[C@@H](C(=O)OCCOC(=O)c1ccc(-c2c3nc(c(-c4c(F)cccc4F)c4ccc([nH]4)c(-c4c(F)cccc4F)c4nc(c(-c5c(F)cccc5F)c5ccc2[nH]5)C=C4)C=C3)cc1)c1ccc(C[C@H]2CCC[C@H]2O)cc1-c1ccc(O)cc1
REMARK SMILES IDX 6 1 5 2 3 3 4 4 2 5 1 6 65 7 66 8 77 9 67 10 76 11 68 12
REMARK SMILES IDX 78 13 79 14 84 15 80 16 83 17 81 18 82 19 69 21 70 22 71 23
REMARK SMILES IDX 74 24 72 25 73 26 75 27 7 29 8 30 9 31 10 32 11 33 12 34
REMARK SMILES IDX 64 35 13 36 63 37 14 38 15 39 16 40 57 41 17 42 62 43 56 44
REMARK SMILES IDX 58 45 18 46 61 47 55 48 54 49 19 51 45 52 28 53 44 54 29 55
REMARK SMILES IDX 32 56 43 57 59 58 30 59 31 60 42 62 60 63 33 64 20 65 21 66
REMARK SMILES IDX 26 67 22 68 23 69 25 70 27 71 24 72 46 73 47 74 52 75 48 76
REMARK SMILES IDX 49 77 51 78 53 79 50 80 34 81 35 82 40 83 36 84 37 85 39 86
REMARK SMILES IDX 41 87 38 88
REMARK H PARENT 82 20 75 28 58 50 32 61
REMARK Flexibility Score: inf
ROOT
ATOM      1  C   UNL A   1      32.189  30.766  26.960  1.00  0.00     0.274 C 
ENDROOT
BRANCH   1   2
ATOM      2  O   UNL A   1      32.844  29.525  27.306  1.00  0.00    -0.462 OA
BRANCH   2   3
ATOM      3  C   UNL A   1      32.080  28.394  27.271  1.00  0.00     0.313 C 
ATOM      4  O   UNL A   1      31.093  28.210  27.980  1.00  0.00    -0.252 OA
BRANCH   3   5
ATOM      5  C   UNL A   1      32.613  27.328  26.281  1.00  0.00     0.127 C 
ATOM      6  C   UNL A   1      34.127  27.380  26.076  1.00  0.00     0.025 C 
BRANCH   5   7
ATOM      7  C   UNL A   1      31.806  27.395  24.988  1.00  0.00    -0.026 A 
ATOM      8  C   UNL A   1      31.987  28.460  24.107  1.00  0.00     0.005 A 
ATOM      9  C   UNL A   1      30.731  26.518  24.737  1.00  0.00    -0.014 A 
ATOM     10  C   UNL A   1      30.972  28.820  23.228  1.00  0.00     0.004 A 
ATOM     11  C   UNL A   1      29.664  26.960  23.939  1.00  0.00     0.012 A 
ATOM     12  C   UNL A   1      29.732  28.189  23.291  1.00  0.00    -0.047 A 
BRANCH   9  13
ATOM     13  C   UNL A   1      30.816  25.098  25.072  1.00  0.00    -0.018 A 
ATOM     14  C   UNL A   1      31.400  24.244  24.114  1.00  0.00     0.012 A 
ATOM     15  C   UNL A   1      30.382  24.559  26.285  1.00  0.00     0.012 A 
ATOM     16  C   UNL A   1      31.571  22.889  24.369  1.00  0.00     0.047 A 
ATOM     17  C   UNL A   1      30.561  23.196  26.547  1.00  0.00     0.047 A 
ATOM     18  C   UNL A   1      31.160  22.377  25.590  1.00  0.00     0.115 A 
BRANCH  18  19
ATOM     19  O   UNL A   1      31.375  21.051  25.815  1.00  0.00    -0.508 OA
ATOM     20  H   UNL A   1      30.871  20.598  26.463  1.00  0.00     0.293 HD
ENDBRANCH  18  19
ENDBRANCH   9  13
BRANCH  12  21
ATOM     21  C   UNL A   1      28.504  28.879  22.765  1.00  0.00     0.041 C 
BRANCH  21  22
ATOM     22  C   UNL A   1      28.696  30.347  22.315  1.00  0.00     0.022 C 
ATOM     23  C   UNL A   1      27.993  30.743  21.018  1.00  0.00     0.007 C 
ATOM     24  C   UNL A   1      28.309  31.498  23.261  1.00  0.00     0.117 C 
ATOM     25  C   UNL A   1      28.150  32.262  20.949  1.00  0.00     0.003 C 
ATOM     26  C   UNL A   1      28.348  32.750  22.383  1.00  0.00     0.032 C 
BRANCH  24  27
ATOM     27  O   UNL A   1      27.031  31.415  23.864  1.00  0.00    -0.393 OA
ATOM     28  H   UNL A   1      27.080  30.845  24.648  1.00  0.00     0.210 HD
ENDBRANCH  24  27
ENDBRANCH  21  22
ENDBRANCH  12  21
ENDBRANCH   5   7
ENDBRANCH   3   5
ENDBRANCH   2   3
ENDBRANCH   1   2
BRANCH   1  29
ATOM     29  C   UNL A   1      33.100  31.969  27.236  1.00  0.00     0.275 C 
BRANCH  29  30
ATOM     30  O   UNL A   1      32.331  33.120  27.652  1.00  0.00    -0.458 OA
BRANCH  30  31
ATOM     31  C   UNL A   1      33.019  34.063  28.328  1.00  0.00     0.338 C 
ATOM     32  O   UNL A   1      32.579  35.133  28.749  1.00  0.00    -0.246 OA
BRANCH  31  33
ATOM     33  C   UNL A   1      34.370  33.587  28.675  1.00  0.00     0.060 A 
ATOM     34  C   UNL A   1      34.449  32.779  29.801  1.00  0.00     0.016 A 
ATOM     35  C   UNL A   1      35.544  33.935  27.997  1.00  0.00     0.016 A 
ATOM     36  C   UNL A   1      35.672  32.271  30.223  1.00  0.00     0.010 A 
ATOM     37  C   UNL A   1      36.791  33.453  28.455  1.00  0.00     0.010 A 
ATOM     38  C   UNL A   1      36.862  32.601  29.567  1.00  0.00    -0.014 A 
BRANCH  38  39
ATOM     39  C   UNL A   1      38.108  32.006  30.135  1.00  0.00     0.031 A 
ATOM     40  C   UNL A   1      38.691  30.776  29.495  1.00  0.00     0.074 A 
ATOM     41  C   UNL A   1      38.853  32.690  31.027  1.00  0.00     0.049 A 
ATOM     42  N   UNL A   1      39.826  30.177  29.743  1.00  0.00    -0.248 NA
ATOM     43  C   UNL A   1      37.896  30.148  28.427  1.00  0.00     0.031 C 
ATOM     44  C   UNL A   1      38.457  33.947  31.644  1.00  0.00     0.029 A 
ATOM     45  N   UNL A   1      40.134  32.488  31.492  1.00  0.00    -0.354 N 
ATOM     46  C   UNL A   1      39.854  29.069  28.908  1.00  0.00     0.074 A 
ATOM     47  C   UNL A   1      38.672  29.134  28.076  1.00  0.00     0.031 C 
ATOM     48  C   UNL A   1      39.515  34.484  32.272  1.00  0.00     0.029 A 
ATOM     49  C   UNL A   1      40.633  33.550  32.218  1.00  0.00     0.049 A 
ATOM     50  H   UNL A   1      40.644  31.663  31.324  1.00  0.00     0.167 HD
ATOM     51  C   UNL A   1      40.740  28.044  28.900  1.00  0.00     0.037 A 
ATOM     52  C   UNL A   1      41.841  33.739  32.791  1.00  0.00     0.037 A 
ATOM     53  C   UNL A   1      41.873  27.956  29.781  1.00  0.00     0.049 A 
ATOM     54  C   UNL A   1      42.811  32.585  32.784  1.00  0.00     0.074 A 
ATOM     55  C   UNL A   1      42.724  26.886  29.999  1.00  0.00     0.029 A 
ATOM     56  N   UNL A   1      42.311  28.988  30.599  1.00  0.00    -0.354 N 
ATOM     57  N   UNL A   1      42.741  31.453  32.125  1.00  0.00    -0.248 NA
ATOM     58  C   UNL A   1      43.981  32.695  33.667  1.00  0.00     0.031 C 
ATOM     59  C   UNL A   1      43.652  27.259  30.981  1.00  0.00     0.029 A 
ATOM     60  C   UNL A   1      43.412  28.577  31.333  1.00  0.00     0.049 A 
ATOM     61  H   UNL A   1      41.898  29.880  30.651  1.00  0.00     0.167 HD
ATOM     62  C   UNL A   1      43.823  30.696  32.556  1.00  0.00     0.074 A 
ATOM     63  C   UNL A   1      44.579  31.527  33.470  1.00  0.00     0.031 C 
ATOM     64  C   UNL A   1      44.136  29.412  32.257  1.00  0.00     0.037 A 
BRANCH  51  65
ATOM     65  C   UNL A   1      40.382  26.873  28.039  1.00  0.00     0.057 A 
ATOM     66  C   UNL A   1      39.539  25.843  28.472  1.00  0.00     0.134 A 
ATOM     67  C   UNL A   1      40.975  26.739  26.776  1.00  0.00     0.134 A 
ATOM     68  F   UNL A   1      38.974  25.892  29.687  1.00  0.00    -0.206 F 
ATOM     69  C   UNL A   1      39.320  24.707  27.688  1.00  0.00     0.040 A 
ATOM     70  C   UNL A   1      40.748  25.620  25.976  1.00  0.00     0.040 A 
ATOM     71  F   UNL A   1      41.805  27.684  26.312  1.00  0.00    -0.206 F 
ATOM     72  C   UNL A   1      39.927  24.594  26.437  1.00  0.00     0.006 A 
ENDBRANCH  51  65
BRANCH  52  73
ATOM     73  C   UNL A   1      42.185  35.012  33.494  1.00  0.00     0.057 A 
ATOM     74  C   UNL A   1      41.772  35.251  34.814  1.00  0.00     0.134 A 
ATOM     75  C   UNL A   1      42.905  36.040  32.869  1.00  0.00     0.134 A 
ATOM     76  F   UNL A   1      41.037  34.340  35.467  1.00  0.00    -0.206 F 
ATOM     77  C   UNL A   1      42.066  36.448  35.477  1.00  0.00     0.040 A 
ATOM     78  C   UNL A   1      43.248  37.219  33.534  1.00  0.00     0.040 A 
ATOM     79  F   UNL A   1      43.302  35.912  31.595  1.00  0.00    -0.206 F 
ATOM     80  C   UNL A   1      42.822  37.429  34.842  1.00  0.00     0.006 A 
ENDBRANCH  52  73
BRANCH  64  81
ATOM     81  C   UNL A   1      45.328  28.827  32.954  1.00  0.00     0.057 A 
ATOM     82  C   UNL A   1      46.614  28.916  32.405  1.00  0.00     0.134 A 
ATOM     83  C   UNL A   1      45.194  28.188  34.192  1.00  0.00     0.134 A 
ATOM     84  F   UNL A   1      46.807  29.508  31.215  1.00  0.00    -0.206 F 
ATOM     85  C   UNL A   1      47.722  28.365  33.049  1.00  0.00     0.040 A 
ATOM     86  C   UNL A   1      46.298  27.651  34.856  1.00  0.00     0.040 A 
ATOM     87  F   UNL A   1      43.991  28.077  34.774  1.00  0.00    -0.206 F 
ATOM     88  C   UNL A   1      47.565  27.734  34.282  1.00  0.00     0.006 A 
ENDBRANCH  64  81
ENDBRANCH  38  39
ENDBRANCH  31  33
ENDBRANCH  30  31
ENDBRANCH  29  30
ENDBRANCH   1  29
TORSDOF 17
ENDMDL
MODEL 3
REMARK VINA RESULT:     -12.3      5.722     10.868
REMARK SMILES C[C@@H](C(=O)OCCOC(=O)c1ccc(-c2c3nc(c(-c4c(F)cccc4F)c4ccc([nH]4)c(-c4c(F)cccc4F)c4nc(c(-c5c(F)cccc5F)c5ccc2[nH]5)C=C4)C=C3)cc1)c1ccc(C[C@H]2CCC[C@H]2O)cc1-c1ccc(O)cc1
REMARK SMILES IDX 6 1 5 2 3 3 4 4 2 5 1 6 65 7 66 8 77 9 67 10 76 11 68 12
REMARK SMILES IDX 78 13 79 14 84 15 80 16 83 17 81 18 82 19 69 21 70 22 71 23
REMARK SMILES IDX 74 24 72 25 73 26 75 27 7 29 8 30 9 31 10 32 11 33 12 34
REMARK SMILES IDX 64 35 13 36 63 37 14 38 15 39 16 40 57 41 17 42 62 43 56 44
REMARK SMILES IDX 58 45 18 46 61 47 55 48 54 49 19 51 45 52 28 53 44 54 29 55
REMARK SMILES IDX 32 56 43 57 59 58 30 59 31 60 42 62 60 63 33 64 20 65 21 66
REMARK SMILES IDX 26 67 22 68 23 69 25 70 27 71 24 72 46 73 47 74 52 75 48 76
REMARK SMILES IDX 49 77 51 78 53 79 50 80 34 81 35 82 40 83 36 84 37 85 39 86
REMARK SMILES IDX 41 87 38 88
REMARK H PARENT 82 20 75 28 58 50 32 61
REMARK Flexibility Score: inf
ROOT
ATOM      1  C   UNL A   1      38.158  21.984  25.497  1.00  0.00     0.274 C 
ENDROOT
BRANCH   1   2
ATOM      2  O   UNL A   1      37.479  23.209  25.143  1.00  0.00    -0.462 OA
BRANCH   2   3
ATOM      3  C   UNL A   1      36.561  23.137  24.135  1.00  0.00     0.313 C 
ATOM      4  O   UNL A   1      36.768  22.583  23.057  1.00  0.00    -0.252 OA
BRANCH   3   5
ATOM      5  C   UNL A   1      35.239  23.875  24.460  1.00  0.00     0.127 C 
ATOM      6  C   UNL A   1      35.330  24.797  25.675  1.00  0.00     0.025 C 
BRANCH   5   7
ATOM      7  C   UNL A   1      34.101  22.860  24.531  1.00  0.00    -0.026 A 
ATOM      8  C   UNL A   1      34.123  21.854  25.495  1.00  0.00     0.005 A 
ATOM      9  C   UNL A   1      33.116  22.777  23.526  1.00  0.00    -0.014 A 
ATOM     10  C   UNL A   1      33.425  20.670  25.286  1.00  0.00     0.004 A 
ATOM     11  C   UNL A   1      32.517  21.536  23.261  1.00  0.00     0.012 A 
ATOM     12  C   UNL A   1      32.786  20.438  24.070  1.00  0.00    -0.047 A 
BRANCH   9  13
ATOM     13  C   UNL A   1      32.532  23.980  22.935  1.00  0.00    -0.018 A 
ATOM     14  C   UNL A   1      31.515  24.628  23.665  1.00  0.00     0.012 A 
ATOM     15  C   UNL A   1      32.944  24.526  21.717  1.00  0.00     0.012 A 
ATOM     16  C   UNL A   1      30.940  25.806  23.207  1.00  0.00     0.047 A 
ATOM     17  C   UNL A   1      32.372  25.718  21.257  1.00  0.00     0.047 A 
ATOM     18  C   UNL A   1      31.382  26.349  22.010  1.00  0.00     0.115 A 
BRANCH  18  19
ATOM     19  O   UNL A   1      30.817  27.522  21.610  1.00  0.00    -0.508 OA
ATOM     20  H   UNL A   1      29.933  27.535  21.300  1.00  0.00     0.293 HD
ENDBRANCH  18  19
ENDBRANCH   9  13
BRANCH  12  21
ATOM     21  C   UNL A   1      32.503  19.031  23.621  1.00  0.00     0.041 C 
BRANCH  21  22
ATOM     22  C   UNL A   1      33.143  17.909  24.474  1.00  0.00     0.022 C 
ATOM     23  C   UNL A   1      32.184  16.842  24.998  1.00  0.00     0.007 C 
ATOM     24  C   UNL A   1      34.289  17.062  23.894  1.00  0.00     0.117 C 
ATOM     25  C   UNL A   1      33.097  15.764  25.582  1.00  0.00     0.003 C 
ATOM     26  C   UNL A   1      34.444  15.897  24.874  1.00  0.00     0.032 C 
BRANCH  24  27
ATOM     27  O   UNL A   1      34.085  16.530  22.598  1.00  0.00    -0.393 OA
ATOM     28  H   UNL A   1      34.866  16.706  22.050  1.00  0.00     0.210 HD
ENDBRANCH  24  27
ENDBRANCH  21  22
ENDBRANCH  12  21
ENDBRANCH   5   7
ENDBRANCH   3   5
ENDBRANCH   2   3
ENDBRANCH   1   2
BRANCH   1  29
ATOM     29  C   UNL A   1      39.402  22.265  26.350  1.00  0.00     0.275 C 
BRANCH  29  30
ATOM     30  O   UNL A   1      39.469  23.657  26.730  1.00  0.00    -0.458 OA
BRANCH  30  31
ATOM     31  C   UNL A   1      40.684  24.233  26.612  1.00  0.00     0.338 C 
ATOM     32  O   UNL A   1      41.545  23.966  25.774  1.00  0.00    -0.246 OA
BRANCH  31  33
ATOM     33  C   UNL A   1      40.816  25.382  27.526  1.00  0.00     0.060 A 
ATOM     34  C   UNL A   1      39.849  25.472  28.517  1.00  0.00     0.016 A 
ATOM     35  C   UNL A   1      41.786  26.385  27.421  1.00  0.00     0.016 A 
ATOM     36  C   UNL A   1      39.873  26.514  29.437  1.00  0.00     0.010 A 
ATOM     37  C   UNL A   1      41.781  27.467  28.330  1.00  0.00     0.010 A 
ATOM     38  C   UNL A   1      40.829  27.532  29.358  1.00  0.00    -0.014 A 
BRANCH  38  39
ATOM     39  C   UNL A   1      40.730  28.603  30.393  1.00  0.00     0.031 A 
ATOM     40  C   UNL A   1      39.578  29.568  30.343  1.00  0.00     0.074 A 
ATOM     41  C   UNL A   1      41.493  28.558  31.504  1.00  0.00     0.049 A 
ATOM     42  N   UNL A   1      39.230  30.484  31.209  1.00  0.00    -0.248 NA
ATOM     43  C   UNL A   1      38.694  29.479  29.169  1.00  0.00     0.031 C 
ATOM     44  C   UNL A   1      42.572  27.609  31.729  1.00  0.00     0.029 A 
ATOM     45  N   UNL A   1      41.417  29.252  32.692  1.00  0.00    -0.354 N 
ATOM     46  C   UNL A   1      38.128  31.120  30.658  1.00  0.00     0.074 A 
ATOM     47  C   UNL A   1      37.802  30.421  29.433  1.00  0.00     0.031 C 
ATOM     48  C   UNL A   1      42.950  27.664  33.016  1.00  0.00     0.029 A 
ATOM     49  C   UNL A   1      42.233  28.745  33.683  1.00  0.00     0.049 A 
ATOM     50  H   UNL A   1      40.836  30.036  32.822  1.00  0.00     0.167 HD
ATOM     51  C   UNL A   1      37.501  32.240  31.090  1.00  0.00     0.037 A 
ATOM     52  C   UNL A   1      42.401  29.121  34.969  1.00  0.00     0.037 A 
ATOM     53  C   UNL A   1      37.879  32.967  32.272  1.00  0.00     0.049 A 
ATOM     54  C   UNL A   1      41.707  30.377  35.430  1.00  0.00     0.074 A 
ATOM     55  C   UNL A   1      37.451  34.210  32.704  1.00  0.00     0.029 A 
ATOM     56  N   UNL A   1      38.789  32.508  33.215  1.00  0.00    -0.354 N 
ATOM     57  N   UNL A   1      40.784  31.081  34.818  1.00  0.00    -0.248 NA
ATOM     58  C   UNL A   1      42.137  30.940  36.718  1.00  0.00     0.031 C 
ATOM     59  C   UNL A   1      38.133  34.521  33.887  1.00  0.00     0.029 A 
ATOM     60  C   UNL A   1      38.944  33.448  34.220  1.00  0.00     0.049 A 
ATOM     61  H   UNL A   1      39.255  31.643  33.174  1.00  0.00     0.167 HD
ATOM     62  C   UNL A   1      40.567  32.197  35.617  1.00  0.00     0.074 A 
ATOM     63  C   UNL A   1      41.393  32.034  36.797  1.00  0.00     0.031 C 
ATOM     64  C   UNL A   1      39.789  33.280  35.375  1.00  0.00     0.037 A 
BRANCH  51  65
ATOM     65  C   UNL A   1      36.482  32.824  30.160  1.00  0.00     0.057 A 
ATOM     66  C   UNL A   1      36.829  33.581  29.035  1.00  0.00     0.134 A 
ATOM     67  C   UNL A   1      35.120  32.692  30.460  1.00  0.00     0.134 A 
ATOM     68  F   UNL A   1      38.117  33.779  28.719  1.00  0.00    -0.206 F 
ATOM     69  C   UNL A   1      35.853  34.209  28.256  1.00  0.00     0.040 A 
ATOM     70  C   UNL A   1      34.137  33.296  29.678  1.00  0.00     0.040 A 
ATOM     71  F   UNL A   1      34.725  31.992  31.534  1.00  0.00    -0.206 F 
ATOM     72  C   UNL A   1      34.503  34.068  28.578  1.00  0.00     0.006 A 
ENDBRANCH  51  65
BRANCH  52  73
ATOM     73  C   UNL A   1      43.316  28.380  35.889  1.00  0.00     0.057 A 
ATOM     74  C   UNL A   1      44.664  28.746  36.027  1.00  0.00     0.134 A 
ATOM     75  C   UNL A   1      42.890  27.272  36.633  1.00  0.00     0.134 A 
ATOM     76  F   UNL A   1      45.165  29.765  35.313  1.00  0.00    -0.206 F 
ATOM     77  C   UNL A   1      45.539  28.047  36.867  1.00  0.00     0.040 A 
ATOM     78  C   UNL A   1      43.738  26.595  37.513  1.00  0.00     0.040 A 
ATOM     79  F   UNL A   1      41.628  26.830  36.529  1.00  0.00    -0.206 F 
ATOM     80  C   UNL A   1      45.071  26.979  37.627  1.00  0.00     0.006 A 
ENDBRANCH  52  73
BRANCH  64  81
ATOM     81  C   UNL A   1      39.827  34.381  36.392  1.00  0.00     0.057 A 
ATOM     82  C   UNL A   1      40.691  35.475  36.254  1.00  0.00     0.134 A 
ATOM     83  C   UNL A   1      38.980  34.359  37.505  1.00  0.00     0.134 A 
ATOM     84  F   UNL A   1      41.536  35.549  35.213  1.00  0.00    -0.206 F 
ATOM     85  C   UNL A   1      40.732  36.496  37.203  1.00  0.00     0.040 A 
ATOM     86  C   UNL A   1      38.997  35.386  38.451  1.00  0.00     0.040 A 
ATOM     87  F   UNL A   1      38.124  33.344  37.690  1.00  0.00    -0.206 F 
ATOM     88  C   UNL A   1      39.879  36.454  38.305  1.00  0.00     0.006 A 
ENDBRANCH  64  81
ENDBRANCH  38  39
ENDBRANCH  31  33
ENDBRANCH  30  31
ENDBRANCH  29  30
ENDBRANCH   1  29
TORSDOF 17
ENDMDL
