MODEL 1
REMARK VINA RESULT:     -12.1      0.000      0.000
REMARK SMILES O=C(OCCOC(=O)[C@@H]1CCCN(c2ccc3cc(S(=O)(=O)N4CCCCC4)ccc3n2)C1)c1ccc(-c2c3nc(c(-c4c(F)cccc4F)c4ccc([nH]4)c(-c4c(F)cccc4F)c4nc(c(-c5c(F)cccc5F)c5ccc2[nH]5)C=C4)C=C3)cc1
REMARK SMILES IDX 5 1 4 2 3 3 2 4 1 5 34 6 35 7 87 8 36 9 86 10 37 11 38 12
REMARK SMILES IDX 39 13 80 14 40 15 85 16 79 17 81 18 41 19 84 20 78 21 77 22
REMARK SMILES IDX 42 24 68 25 51 26 67 27 52 28 55 29 66 30 82 31 53 32 54 33
REMARK SMILES IDX 65 35 83 36 56 37 43 38 44 39 49 40 45 41 46 42 48 43 50 44
REMARK SMILES IDX 47 45 69 46 70 47 75 48 71 49 72 50 74 51 76 52 73 53 57 54
REMARK SMILES IDX 58 55 63 56 59 57 60 58 62 59 64 60 61 61 6 62 7 63 8 64
REMARK SMILES IDX 9 65 10 66 33 67 11 68 13 69 12 70 14 71 15 72 32 73 16 74
REMARK SMILES IDX 31 75 17 76 30 77 18 78 29 79 19 80 20 81 21 82 22 83 23 84
REMARK SMILES IDX 24 85 28 86 25 87 27 88 26 89
REMARK H PARENT 81 23 55 34
REMARK Flexibility Score: inf
ROOT
ATOM      1  C   UNL A   1      33.798  36.957  28.751  1.00  0.00     0.274 C 
ENDROOT
BRANCH   1   2
ATOM      2  C   UNL A   1      32.527  36.593  29.513  1.00  0.00     0.275 C 
BRANCH   2   3
ATOM      3  O   UNL A   1      32.634  36.884  30.932  1.00  0.00    -0.458 OA
BRANCH   3   4
ATOM      4  C   UNL A   1      32.606  36.100  32.035  1.00  0.00     0.338 C 
ATOM      5  O   UNL A   1      31.614  36.145  32.762  1.00  0.00    -0.246 OA
BRANCH   4   6
ATOM      6  C   UNL A   1      33.706  35.179  32.458  1.00  0.00     0.060 A 
ATOM      7  C   UNL A   1      33.515  33.900  32.973  1.00  0.00     0.016 A 
ATOM      8  C   UNL A   1      35.026  35.686  32.436  1.00  0.00     0.016 A 
ATOM      9  C   UNL A   1      34.620  33.114  33.353  1.00  0.00     0.010 A 
ATOM     10  C   UNL A   1      36.128  34.922  32.867  1.00  0.00     0.010 A 
ATOM     11  C   UNL A   1      35.939  33.611  33.311  1.00  0.00    -0.014 A 
BRANCH  11  12
ATOM     12  C   UNL A   1      37.031  32.777  33.903  1.00  0.00     0.031 A 
ATOM     13  C   UNL A   1      37.740  31.822  32.988  1.00  0.00     0.074 A 
ATOM     14  C   UNL A   1      37.475  32.899  35.172  1.00  0.00     0.049 A 
ATOM     15  N   UNL A   1      38.910  31.256  33.112  1.00  0.00    -0.248 NA
ATOM     16  C   UNL A   1      37.014  31.468  31.758  1.00  0.00     0.031 C 
ATOM     17  C   UNL A   1      36.861  33.716  36.205  1.00  0.00     0.029 A 
ATOM     18  N   UNL A   1      38.610  32.400  35.784  1.00  0.00    -0.354 N 
ATOM     19  C   UNL A   1      39.065  30.483  31.971  1.00  0.00     0.074 A 
ATOM     20  C   UNL A   1      37.889  30.687  31.150  1.00  0.00     0.031 C 
ATOM     21  C   UNL A   1      37.700  33.824  37.247  1.00  0.00     0.029 A 
ATOM     22  C   UNL A   1      38.894  33.028  36.983  1.00  0.00     0.049 A 
ATOM     23  H   UNL A   1      39.157  31.675  35.406  1.00  0.00     0.167 HD
ATOM     24  C   UNL A   1      40.059  29.618  31.663  1.00  0.00     0.037 A 
ATOM     25  C   UNL A   1      40.017  33.024  37.734  1.00  0.00     0.037 A 
ATOM     26  C   UNL A   1      41.137  29.280  32.547  1.00  0.00     0.049 A 
ATOM     27  C   UNL A   1      41.170  32.143  37.321  1.00  0.00     0.074 A 
ATOM     28  C   UNL A   1      42.066  28.263  32.422  1.00  0.00     0.029 A 
ATOM     29  N   UNL A   1      41.406  29.923  33.747  1.00  0.00    -0.354 N 
ATOM     30  N   UNL A   1      41.329  31.432  36.230  1.00  0.00    -0.248 NA
ATOM     31  C   UNL A   1      42.300  32.059  38.258  1.00  0.00     0.031 C 
ATOM     32  C   UNL A   1      42.846  28.243  33.584  1.00  0.00     0.029 A 
ATOM     33  C   UNL A   1      42.474  29.310  34.385  1.00  0.00     0.049 A 
ATOM     34  H   UNL A   1      40.909  30.699  34.094  1.00  0.00     0.167 HD
ATOM     35  C   UNL A   1      42.536  30.757  36.387  1.00  0.00     0.074 A 
ATOM     36  C   UNL A   1      43.135  31.264  37.604  1.00  0.00     0.031 C 
ATOM     37  C   UNL A   1      43.063  29.763  35.623  1.00  0.00     0.037 A 
BRANCH  24  38
ATOM     38  C   UNL A   1      39.890  28.866  30.379  1.00  0.00     0.057 A 
ATOM     39  C   UNL A   1      40.348  29.371  29.155  1.00  0.00     0.134 A 
ATOM     40  C   UNL A   1      39.160  27.672  30.359  1.00  0.00     0.134 A 
ATOM     41  F   UNL A   1      41.011  30.535  29.104  1.00  0.00    -0.206 F 
ATOM     42  C   UNL A   1      40.059  28.724  27.952  1.00  0.00     0.040 A 
ATOM     43  C   UNL A   1      38.881  27.008  29.165  1.00  0.00     0.040 A 
ATOM     44  F   UNL A   1      38.676  27.152  31.497  1.00  0.00    -0.206 F 
ATOM     45  C   UNL A   1      39.322  27.541  27.955  1.00  0.00     0.006 A 
ENDBRANCH  24  38
BRANCH  25  46
ATOM     46  C   UNL A   1      40.182  33.974  38.881  1.00  0.00     0.057 A 
ATOM     47  C   UNL A   1      39.755  33.613  40.170  1.00  0.00     0.134 A 
ATOM     48  C   UNL A   1      40.748  35.246  38.742  1.00  0.00     0.134 A 
ATOM     49  F   UNL A   1      39.146  32.435  40.377  1.00  0.00    -0.206 F 
ATOM     50  C   UNL A   1      39.894  34.464  41.269  1.00  0.00     0.040 A 
ATOM     51  C   UNL A   1      40.910  36.103  39.835  1.00  0.00     0.040 A 
ATOM     52  F   UNL A   1      41.163  35.675  37.542  1.00  0.00    -0.206 F 
ATOM     53  C   UNL A   1      40.482  35.713  41.104  1.00  0.00     0.006 A 
ENDBRANCH  25  46
BRANCH  37  54
ATOM     54  C   UNL A   1      44.325  29.084  36.112  1.00  0.00     0.057 A 
ATOM     55  C   UNL A   1      44.288  27.907  36.877  1.00  0.00     0.134 A 
ATOM     56  C   UNL A   1      45.599  29.572  35.785  1.00  0.00     0.134 A 
ATOM     57  F   UNL A   1      43.116  27.331  37.187  1.00  0.00    -0.206 F 
ATOM     58  C   UNL A   1      45.450  27.312  37.376  1.00  0.00     0.040 A 
ATOM     59  C   UNL A   1      46.769  28.980  36.264  1.00  0.00     0.040 A 
ATOM     60  F   UNL A   1      45.740  30.622  34.964  1.00  0.00    -0.206 F 
ATOM     61  C   UNL A   1      46.695  27.856  37.079  1.00  0.00     0.006 A 
ENDBRANCH  37  54
ENDBRANCH  11  12
ENDBRANCH   4   6
ENDBRANCH   3   4
ENDBRANCH   2   3
ENDBRANCH   1   2
BRANCH   1  62
ATOM     62  O   UNL A   1      34.418  35.724  28.391  1.00  0.00    -0.462 OA
BRANCH  62  63
ATOM     63  C   UNL A   1      33.715  34.569  28.533  1.00  0.00     0.310 C 
ATOM     64  O   UNL A   1      32.671  34.311  27.952  1.00  0.00    -0.252 OA
BRANCH  63  65
ATOM     65  C   UNL A   1      34.516  33.603  29.388  1.00  0.00     0.118 C 
ATOM     66  C   UNL A   1      36.037  33.727  29.252  1.00  0.00     0.019 C 
ATOM     67  C   UNL A   1      34.079  32.169  29.132  1.00  0.00     0.133 C 
ATOM     68  C   UNL A   1      36.601  33.016  28.014  1.00  0.00     0.022 C 
ATOM     69  N   UNL A   1      34.612  31.665  27.872  1.00  0.00    -0.356 N 
ATOM     70  C   UNL A   1      36.064  31.587  27.841  1.00  0.00     0.118 C 
BRANCH  69  71
ATOM     71  C   UNL A   1      33.868  30.616  27.331  1.00  0.00     0.129 A 
ATOM     72  C   UNL A   1      32.481  30.749  27.264  1.00  0.00     0.047 A 
ATOM     73  N   UNL A   1      34.472  29.483  26.934  1.00  0.00    -0.231 NA
ATOM     74  C   UNL A   1      31.696  29.701  26.794  1.00  0.00     0.014 A 
ATOM     75  C   UNL A   1      33.709  28.450  26.515  1.00  0.00     0.073 A 
ATOM     76  C   UNL A   1      32.308  28.512  26.409  1.00  0.00     0.002 A 
ATOM     77  C   UNL A   1      34.311  27.253  26.172  1.00  0.00     0.030 A 
ATOM     78  C   UNL A   1      31.573  27.413  25.919  1.00  0.00     0.032 A 
ATOM     79  C   UNL A   1      33.598  26.136  25.719  1.00  0.00     0.024 A 
ATOM     80  C   UNL A   1      32.223  26.228  25.554  1.00  0.00     0.083 A 
BRANCH  80  81
ATOM     81  S   UNL A   1      31.227  24.961  24.790  1.00  0.00     0.243 S 
ATOM     82  O   UNL A   1      30.084  24.765  25.655  1.00  0.00    -0.207 OA
ATOM     83  O   UNL A   1      31.054  25.388  23.416  1.00  0.00    -0.207 OA
BRANCH  81  84
ATOM     84  N   UNL A   1      32.130  23.517  24.749  1.00  0.00    -0.198 NA
ATOM     85  C   UNL A   1      31.551  22.335  25.433  1.00  0.00     0.102 C 
ATOM     86  C   UNL A   1      32.930  23.263  23.528  1.00  0.00     0.102 C 
ATOM     87  C   UNL A   1      32.568  21.211  25.602  1.00  0.00     0.017 C 
ATOM     88  C   UNL A   1      33.942  22.155  23.782  1.00  0.00     0.017 C 
ATOM     89  C   UNL A   1      33.267  20.894  24.291  1.00  0.00     0.003 C 
ENDBRANCH  81  84
ENDBRANCH  80  81
ENDBRANCH  69  71
ENDBRANCH  63  65
ENDBRANCH  62  63
ENDBRANCH   1  62
TORSDOF 14
ENDMDL
MODEL 2
REMARK VINA RESULT:     -11.9      4.456      9.115
REMARK SMILES O=C(OCCOC(=O)[C@@H]1CCCN(c2ccc3cc(S(=O)(=O)N4CCCCC4)ccc3n2)C1)c1ccc(-c2c3nc(c(-c4c(F)cccc4F)c4ccc([nH]4)c(-c4c(F)cccc4F)c4nc(c(-c5c(F)cccc5F)c5ccc2[nH]5)C=C4)C=C3)cc1
REMARK SMILES IDX 5 1 4 2 3 3 2 4 1 5 34 6 35 7 87 8 36 9 86 10 37 11 38 12
REMARK SMILES IDX 39 13 80 14 40 15 85 16 79 17 81 18 41 19 84 20 78 21 77 22
REMARK SMILES IDX 42 24 68 25 51 26 67 27 52 28 55 29 66 30 82 31 53 32 54 33
REMARK SMILES IDX 65 35 83 36 56 37 43 38 44 39 49 40 45 41 46 42 48 43 50 44
REMARK SMILES IDX 47 45 69 46 70 47 75 48 71 49 72 50 74 51 76 52 73 53 57 54
REMARK SMILES IDX 58 55 63 56 59 57 60 58 62 59 64 60 61 61 6 62 7 63 8 64
REMARK SMILES IDX 9 65 10 66 33 67 11 68 13 69 12 70 14 71 15 72 32 73 16 74
REMARK SMILES IDX 31 75 17 76 30 77 18 78 29 79 19 80 20 81 21 82 22 83 23 84
REMARK SMILES IDX 24 85 28 86 25 87 27 88 26 89
REMARK H PARENT 81 23 55 34
REMARK Flexibility Score: inf
ROOT
ATOM      1  C   UNL A   1      32.024  27.783  24.552  1.00  0.00     0.274 C 
ENDROOT
BRANCH   1   2
ATOM      2  C   UNL A   1      32.511  29.218  24.731  1.00  0.00     0.275 C 
BRANCH   2   3
ATOM      3  O   UNL A   1      32.178  29.753  26.040  1.00  0.00    -0.458 OA
BRANCH   3   4
ATOM      4  C   UNL A   1      32.684  30.774  26.770  1.00  0.00     0.338 C 
ATOM      5  O   UNL A   1      32.029  31.812  26.860  1.00  0.00    -0.246 OA
BRANCH   4   6
ATOM      6  C   UNL A   1      34.001  30.748  27.479  1.00  0.00     0.060 A 
ATOM      7  C   UNL A   1      34.824  31.855  27.665  1.00  0.00     0.016 A 
ATOM      8  C   UNL A   1      34.495  29.488  27.891  1.00  0.00     0.016 A 
ATOM      9  C   UNL A   1      36.053  31.723  28.338  1.00  0.00     0.010 A 
ATOM     10  C   UNL A   1      35.750  29.346  28.515  1.00  0.00     0.010 A 
ATOM     11  C   UNL A   1      36.537  30.470  28.768  1.00  0.00    -0.014 A 
BRANCH  11  12
ATOM     12  C   UNL A   1      37.931  30.396  29.309  1.00  0.00     0.031 A 
ATOM     13  C   UNL A   1      38.140  30.829  30.731  1.00  0.00     0.074 A 
ATOM     14  C   UNL A   1      38.979  29.879  28.634  1.00  0.00     0.049 A 
ATOM     15  N   UNL A   1      39.114  30.552  31.556  1.00  0.00    -0.248 NA
ATOM     16  C   UNL A   1      37.090  31.695  31.289  1.00  0.00     0.031 C 
ATOM     17  C   UNL A   1      38.969  29.483  27.236  1.00  0.00     0.029 A 
ATOM     18  N   UNL A   1      40.240  29.511  29.066  1.00  0.00    -0.354 N 
ATOM     19  C   UNL A   1      38.790  31.204  32.735  1.00  0.00     0.074 A 
ATOM     20  C   UNL A   1      37.512  31.853  32.531  1.00  0.00     0.031 C 
ATOM     21  C   UNL A   1      40.071  28.765  26.967  1.00  0.00     0.029 A 
ATOM     22  C   UNL A   1      40.903  28.701  28.164  1.00  0.00     0.049 A 
ATOM     23  H   UNL A   1      40.624  29.797  29.927  1.00  0.00     0.167 HD
ATOM     24  C   UNL A   1      39.523  31.321  33.867  1.00  0.00     0.037 A 
ATOM     25  C   UNL A   1      42.005  27.935  28.313  1.00  0.00     0.037 A 
ATOM     26  C   UNL A   1      40.864  30.829  34.014  1.00  0.00     0.049 A 
ATOM     27  C   UNL A   1      42.756  27.981  29.622  1.00  0.00     0.074 A 
ATOM     28  C   UNL A   1      41.766  31.083  35.031  1.00  0.00     0.029 A 
ATOM     29  N   UNL A   1      41.512  30.016  33.096  1.00  0.00    -0.354 N 
ATOM     30  N   UNL A   1      42.438  28.576  30.747  1.00  0.00    -0.248 NA
ATOM     31  C   UNL A   1      44.031  27.252  29.672  1.00  0.00     0.031 C 
ATOM     32  C   UNL A   1      42.985  30.487  34.687  1.00  0.00     0.029 A 
ATOM     33  C   UNL A   1      42.813  29.776  33.511  1.00  0.00     0.049 A 
ATOM     34  H   UNL A   1      41.107  29.664  32.270  1.00  0.00     0.167 HD
ATOM     35  C   UNL A   1      43.509  28.359  31.609  1.00  0.00     0.074 A 
ATOM     36  C   UNL A   1      44.408  27.451  30.928  1.00  0.00     0.031 C 
ATOM     37  C   UNL A   1      43.750  28.914  32.827  1.00  0.00     0.037 A 
BRANCH  24  38
ATOM     38  C   UNL A   1      38.923  32.169  34.945  1.00  0.00     0.057 A 
ATOM     39  C   UNL A   1      39.042  33.565  34.946  1.00  0.00     0.134 A 
ATOM     40  C   UNL A   1      38.313  31.567  36.051  1.00  0.00     0.134 A 
ATOM     41  F   UNL A   1      39.659  34.196  33.936  1.00  0.00    -0.206 F 
ATOM     42  C   UNL A   1      38.599  34.329  36.027  1.00  0.00     0.040 A 
ATOM     43  C   UNL A   1      37.851  32.321  37.129  1.00  0.00     0.040 A 
ATOM     44  F   UNL A   1      38.192  30.232  36.117  1.00  0.00    -0.206 F 
ATOM     45  C   UNL A   1      38.004  33.706  37.123  1.00  0.00     0.006 A 
ENDBRANCH  24  38
BRANCH  25  46
ATOM     46  C   UNL A   1      42.409  26.950  27.260  1.00  0.00     0.057 A 
ATOM     47  C   UNL A   1      43.350  27.304  26.277  1.00  0.00     0.134 A 
ATOM     48  C   UNL A   1      41.885  25.655  27.186  1.00  0.00     0.134 A 
ATOM     49  F   UNL A   1      43.855  28.547  26.240  1.00  0.00    -0.206 F 
ATOM     50  C   UNL A   1      43.759  26.417  25.280  1.00  0.00     0.040 A 
ATOM     51  C   UNL A   1      42.298  24.748  26.204  1.00  0.00     0.040 A 
ATOM     52  F   UNL A   1      40.968  25.243  28.073  1.00  0.00    -0.206 F 
ATOM     53  C   UNL A   1      43.238  25.128  25.247  1.00  0.00     0.006 A 
ENDBRANCH  25  46
BRANCH  37  54
ATOM     54  C   UNL A   1      45.081  28.626  33.488  1.00  0.00     0.057 A 
ATOM     55  C   UNL A   1      45.280  27.498  34.299  1.00  0.00     0.134 A 
ATOM     56  C   UNL A   1      46.197  29.451  33.286  1.00  0.00     0.134 A 
ATOM     57  F   UNL A   1      44.287  26.617  34.499  1.00  0.00    -0.206 F 
ATOM     58  C   UNL A   1      46.492  27.262  34.954  1.00  0.00     0.040 A 
ATOM     59  C   UNL A   1      47.418  29.220  33.923  1.00  0.00     0.040 A 
ATOM     60  F   UNL A   1      46.140  30.488  32.437  1.00  0.00    -0.206 F 
ATOM     61  C   UNL A   1      47.562  28.132  34.776  1.00  0.00     0.006 A 
ENDBRANCH  37  54
ENDBRANCH  11  12
ENDBRANCH   4   6
ENDBRANCH   3   4
ENDBRANCH   2   3
ENDBRANCH   1   2
BRANCH   1  62
ATOM     62  O   UNL A   1      32.730  26.995  25.508  1.00  0.00    -0.462 OA
BRANCH  62  63
ATOM     63  C   UNL A   1      32.693  25.641  25.399  1.00  0.00     0.310 C 
ATOM     64  O   UNL A   1      32.234  24.885  26.242  1.00  0.00    -0.252 OA
BRANCH  63  65
ATOM     65  C   UNL A   1      33.155  25.243  24.009  1.00  0.00     0.118 C 
ATOM     66  C   UNL A   1      32.252  24.235  23.291  1.00  0.00     0.019 C 
ATOM     67  C   UNL A   1      34.589  24.737  24.042  1.00  0.00     0.133 C 
ATOM     68  C   UNL A   1      32.490  22.782  23.727  1.00  0.00     0.022 C 
ATOM     69  N   UNL A   1      34.664  23.381  24.573  1.00  0.00    -0.356 N 
ATOM     70  C   UNL A   1      33.975  22.394  23.754  1.00  0.00     0.118 C 
BRANCH  69  71
ATOM     71  C   UNL A   1      35.911  23.061  25.110  1.00  0.00     0.129 A 
ATOM     72  C   UNL A   1      36.634  24.063  25.757  1.00  0.00     0.047 A 
ATOM     73  N   UNL A   1      36.424  21.827  24.960  1.00  0.00    -0.231 NA
ATOM     74  C   UNL A   1      37.909  23.804  26.249  1.00  0.00     0.014 A 
ATOM     75  C   UNL A   1      37.678  21.585  25.401  1.00  0.00     0.073 A 
ATOM     76  C   UNL A   1      38.463  22.539  26.072  1.00  0.00     0.002 A 
ATOM     77  C   UNL A   1      38.246  20.342  25.190  1.00  0.00     0.030 A 
ATOM     78  C   UNL A   1      39.747  22.208  26.550  1.00  0.00     0.032 A 
ATOM     79  C   UNL A   1      39.534  20.003  25.622  1.00  0.00     0.024 A 
ATOM     80  C   UNL A   1      40.276  20.929  26.341  1.00  0.00     0.083 A 
BRANCH  80  81
ATOM     81  S   UNL A   1      41.834  20.558  27.129  1.00  0.00     0.243 S 
ATOM     82  O   UNL A   1      42.153  21.702  27.957  1.00  0.00    -0.207 OA
ATOM     83  O   UNL A   1      41.662  19.243  27.713  1.00  0.00    -0.207 OA
BRANCH  81  84
ATOM     84  N   UNL A   1      43.026  20.412  25.921  1.00  0.00    -0.198 NA
ATOM     85  C   UNL A   1      43.992  21.530  25.785  1.00  0.00     0.102 C 
ATOM     86  C   UNL A   1      43.531  19.047  25.642  1.00  0.00     0.102 C 
ATOM     87  C   UNL A   1      44.799  21.438  24.492  1.00  0.00     0.017 C 
ATOM     88  C   UNL A   1      44.296  19.028  24.326  1.00  0.00     0.017 C 
ATOM     89  C   UNL A   1      45.410  20.058  24.317  1.00  0.00     0.003 C 
ENDBRANCH  81  84
ENDBRANCH  80  81
ENDBRANCH  69  71
ENDBRANCH  63  65
ENDBRANCH  62  63
ENDBRANCH   1  62
TORSDOF 14
ENDMDL
MODEL 3
REMARK VINA RESULT:     -11.8      5.385      9.236
REMARK SMILES O=C(OCCOC(=O)[C@@H]1CCCN(c2ccc3cc(S(=O)(=O)N4CCCCC4)ccc3n2)C1)c1ccc(-c2c3nc(c(-c4c(F)cccc4F)c4ccc([nH]4)c(-c4c(F)cccc4F)c4nc(c(-c5c(F)cccc5F)c5ccc2[nH]5)C=C4)C=C3)cc1
REMARK SMILES IDX 5 1 4 2 3 3 2 4 1 5 34 6 35 7 87 8 36 9 86 10 37 11 38 12
REMARK SMILES IDX 39 13 80 14 40 15 85 16 79 17 81 18 41 19 84 20 78 21 77 22
REMARK SMILES IDX 42 24 68 25 51 26 67 27 52 28 55 29 66 30 82 31 53 32 54 33
REMARK SMILES IDX 65 35 83 36 56 37 43 38 44 39 49 40 45 41 46 42 48 43 50 44
REMARK SMILES IDX 47 45 69 46 70 47 75 48 71 49 72 50 74 51 76 52 73 53 57 54
REMARK SMILES IDX 58 55 63 56 59 57 60 58 62 59 64 60 61 61 6 62 7 63 8 64
REMARK SMILES IDX 9 65 10 66 33 67 11 68 13 69 12 70 14 71 15 72 32 73 16 74
REMARK SMILES IDX 31 75 17 76 30 77 18 78 29 79 19 80 20 81 21 82 22 83 23 84
REMARK SMILES IDX 24 85 28 86 25 87 27 88 26 89
REMARK H PARENT 81 23 55 34
REMARK Flexibility Score: inf
ROOT
ATOM      1  C   UNL A   1      34.754  33.108  29.923  1.00  0.00     0.274 C 
ENDROOT
BRANCH   1   2
ATOM      2  C   UNL A   1      34.856  32.890  28.417  1.00  0.00     0.275 C 
BRANCH   2   3
ATOM      3  O   UNL A   1      34.207  31.663  27.992  1.00  0.00    -0.458 OA
BRANCH   3   4
ATOM      4  C   UNL A   1      34.637  30.384  27.888  1.00  0.00     0.338 C 
ATOM      5  O   UNL A   1      33.840  29.525  27.512  1.00  0.00    -0.246 OA
BRANCH   4   6
ATOM      6  C   UNL A   1      36.021  29.919  28.211  1.00  0.00     0.060 A 
ATOM      7  C   UNL A   1      36.433  29.456  29.458  1.00  0.00     0.016 A 
ATOM      8  C   UNL A   1      37.009  30.065  27.209  1.00  0.00     0.016 A 
ATOM      9  C   UNL A   1      37.765  29.050  29.662  1.00  0.00     0.010 A 
ATOM     10  C   UNL A   1      38.355  29.712  27.429  1.00  0.00     0.010 A 
ATOM     11  C   UNL A   1      38.746  29.176  28.657  1.00  0.00    -0.014 A 
BRANCH  11  12
ATOM     12  C   UNL A   1      40.171  28.893  29.017  1.00  0.00     0.031 A 
ATOM     13  C   UNL A   1      40.744  27.579  28.573  1.00  0.00     0.074 A 
ATOM     14  C   UNL A   1      40.988  29.777  29.625  1.00  0.00     0.049 A 
ATOM     15  N   UNL A   1      41.990  27.216  28.424  1.00  0.00    -0.248 NA
ATOM     16  C   UNL A   1      39.758  26.535  28.251  1.00  0.00     0.031 C 
ATOM     17  C   UNL A   1      40.582  31.057  30.182  1.00  0.00     0.029 A 
ATOM     18  N   UNL A   1      42.361  29.771  29.795  1.00  0.00    -0.354 N 
ATOM     19  C   UNL A   1      41.938  25.904  27.982  1.00  0.00     0.074 A 
ATOM     20  C   UNL A   1      40.540  25.549  27.848  1.00  0.00     0.031 C 
ATOM     21  C   UNL A   1      41.671  31.791  30.456  1.00  0.00     0.029 A 
ATOM     22  C   UNL A   1      42.864  31.008  30.152  1.00  0.00     0.049 A 
ATOM     23  H   UNL A   1      42.919  28.970  29.674  1.00  0.00     0.167 HD
ATOM     24  C   UNL A   1      42.958  25.038  27.778  1.00  0.00     0.037 A 
ATOM     25  C   UNL A   1      44.132  31.476  30.153  1.00  0.00     0.037 A 
ATOM     26  C   UNL A   1      44.332  25.326  28.076  1.00  0.00     0.049 A 
ATOM     27  C   UNL A   1      45.259  30.533  29.811  1.00  0.00     0.074 A 
ATOM     28  C   UNL A   1      45.406  24.454  28.113  1.00  0.00     0.029 A 
ATOM     29  N   UNL A   1      44.818  26.575  28.433  1.00  0.00    -0.354 N 
ATOM     30  N   UNL A   1      45.212  29.299  29.368  1.00  0.00    -0.248 NA
ATOM     31  C   UNL A   1      46.624  31.053  29.982  1.00  0.00     0.031 C 
ATOM     32  C   UNL A   1      46.524  25.163  28.568  1.00  0.00     0.029 A 
ATOM     33  C   UNL A   1      46.173  26.495  28.714  1.00  0.00     0.049 A 
ATOM     34  H   UNL A   1      44.278  27.397  28.481  1.00  0.00     0.167 HD
ATOM     35  C   UNL A   1      46.534  28.872  29.284  1.00  0.00     0.074 A 
ATOM     36  C   UNL A   1      47.357  30.027  29.573  1.00  0.00     0.031 C 
ATOM     37  C   UNL A   1      47.013  27.621  29.052  1.00  0.00     0.037 A 
BRANCH  24  38
ATOM     38  C   UNL A   1      42.562  23.651  27.376  1.00  0.00     0.057 A 
ATOM     39  C   UNL A   1      42.316  22.645  28.320  1.00  0.00     0.134 A 
ATOM     40  C   UNL A   1      42.536  23.295  26.023  1.00  0.00     0.134 A 
ATOM     41  F   UNL A   1      42.373  22.914  29.632  1.00  0.00    -0.206 F 
ATOM     42  C   UNL A   1      42.085  21.325  27.927  1.00  0.00     0.040 A 
ATOM     43  C   UNL A   1      42.290  21.984  25.618  1.00  0.00     0.040 A 
ATOM     44  F   UNL A   1      42.788  24.210  25.075  1.00  0.00    -0.206 F 
ATOM     45  C   UNL A   1      42.074  20.992  26.573  1.00  0.00     0.006 A 
ENDBRANCH  24  38
BRANCH  25  46
ATOM     46  C   UNL A   1      44.417  32.933  30.353  1.00  0.00     0.057 A 
ATOM     47  C   UNL A   1      44.427  33.813  29.256  1.00  0.00     0.134 A 
ATOM     48  C   UNL A   1      44.690  33.491  31.606  1.00  0.00     0.134 A 
ATOM     49  F   UNL A   1      44.236  33.347  28.012  1.00  0.00    -0.206 F 
ATOM     50  C   UNL A   1      44.683  35.178  29.397  1.00  0.00     0.040 A 
ATOM     51  C   UNL A   1      44.931  34.860  31.766  1.00  0.00     0.040 A 
ATOM     52  F   UNL A   1      44.719  32.717  32.700  1.00  0.00    -0.206 F 
ATOM     53  C   UNL A   1      44.928  35.708  30.659  1.00  0.00     0.006 A 
ENDBRANCH  25  46
BRANCH  37  54
ATOM     54  C   UNL A   1      48.505  27.397  29.176  1.00  0.00     0.057 A 
ATOM     55  C   UNL A   1      49.104  27.031  30.392  1.00  0.00     0.134 A 
ATOM     56  C   UNL A   1      49.360  27.499  28.069  1.00  0.00     0.134 A 
ATOM     57  F   UNL A   1      48.358  26.848  31.492  1.00  0.00    -0.206 F 
ATOM     58  C   UNL A   1      50.487  26.879  30.519  1.00  0.00     0.040 A 
ATOM     59  C   UNL A   1      50.742  27.336  28.178  1.00  0.00     0.040 A 
ATOM     60  F   UNL A   1      48.869  27.730  26.842  1.00  0.00    -0.206 F 
ATOM     61  C   UNL A   1      51.312  27.043  29.411  1.00  0.00     0.006 A 
ENDBRANCH  37  54
ENDBRANCH  11  12
ENDBRANCH   4   6
ENDBRANCH   3   4
ENDBRANCH   2   3
ENDBRANCH   1   2
BRANCH   1  62
ATOM     62  O   UNL A   1      36.081  32.998  30.437  1.00  0.00    -0.462 OA
BRANCH  62  63
ATOM     63  C   UNL A   1      36.363  33.547  31.648  1.00  0.00     0.310 C 
ATOM     64  O   UNL A   1      36.897  34.633  31.815  1.00  0.00    -0.252 OA
BRANCH  63  65
ATOM     65  C   UNL A   1      35.764  32.677  32.738  1.00  0.00     0.118 C 
ATOM     66  C   UNL A   1      35.537  33.383  34.078  1.00  0.00     0.019 C 
ATOM     67  C   UNL A   1      36.594  31.419  32.940  1.00  0.00     0.133 C 
ATOM     68  C   UNL A   1      36.806  33.492  34.936  1.00  0.00     0.022 C 
ATOM     69  N   UNL A   1      37.816  31.699  33.684  1.00  0.00    -0.356 N 
ATOM     70  C   UNL A   1      37.579  32.168  35.041  1.00  0.00     0.118 C 
BRANCH  69  71
ATOM     71  C   UNL A   1      38.832  30.769  33.460  1.00  0.00     0.129 A 
ATOM     72  C   UNL A   1      38.482  29.498  33.005  1.00  0.00     0.047 A 
ATOM     73  N   UNL A   1      40.113  31.077  33.727  1.00  0.00    -0.231 NA
ATOM     74  C   UNL A   1      39.456  28.520  32.831  1.00  0.00     0.014 A 
ATOM     75  C   UNL A   1      41.054  30.117  33.598  1.00  0.00     0.073 A 
ATOM     76  C   UNL A   1      40.781  28.819  33.135  1.00  0.00     0.002 A 
ATOM     77  C   UNL A   1      42.365  30.399  33.938  1.00  0.00     0.030 A 
ATOM     78  C   UNL A   1      41.818  27.877  32.977  1.00  0.00     0.032 A 
ATOM     79  C   UNL A   1      43.405  29.468  33.826  1.00  0.00     0.024 A 
ATOM     80  C   UNL A   1      43.138  28.210  33.305  1.00  0.00     0.083 A 
BRANCH  80  81
ATOM     81  S   UNL A   1      44.398  27.009  32.912  1.00  0.00     0.243 S 
ATOM     82  O   UNL A   1      44.420  26.901  31.469  1.00  0.00    -0.207 OA
ATOM     83  O   UNL A   1      45.574  27.438  33.643  1.00  0.00    -0.207 OA
BRANCH  81  84
ATOM     84  N   UNL A   1      43.931  25.506  33.563  1.00  0.00    -0.198 NA
ATOM     85  C   UNL A   1      44.478  24.288  32.916  1.00  0.00     0.102 C 
ATOM     86  C   UNL A   1      43.713  25.450  35.027  1.00  0.00     0.102 C 
ATOM     87  C   UNL A   1      43.758  23.022  33.370  1.00  0.00     0.017 C 
ATOM     88  C   UNL A   1      42.963  24.179  35.399  1.00  0.00     0.017 C 
ATOM     89  C   UNL A   1      43.678  22.943  34.885  1.00  0.00     0.003 C 
ENDBRANCH  81  84
ENDBRANCH  80  81
ENDBRANCH  69  71
ENDBRANCH  63  65
ENDBRANCH  62  63
ENDBRANCH   1  62
TORSDOF 14
ENDMDL
