MODEL 1
REMARK VINA RESULT:     -12.8      0.000      0.000
REMARK SMILES O=C(OCCOC(=O)[C@@H](Cc1c[nH]c2ccccc12)Nc1ncnc2ccccc12)c1ccc(-c2c3nc(c(-c4c(F)cccc4F)c4ccc([nH]4)c(-c4c(F)cccc4F)c4nc(c(-c5c(F)cccc5F)c5ccc2[nH]5)C=C4)C=C3)cc1
REMARK SMILES IDX 4 1 3 2 2 3 1 4 31 5 32 6 84 7 33 8 83 9 34 10 35 11 36 12
REMARK SMILES IDX 77 13 37 14 82 15 76 16 78 17 38 18 81 19 75 20 74 21 39 23
REMARK SMILES IDX 65 24 48 25 64 26 49 27 52 28 63 29 79 30 50 31 51 32 62 34
REMARK SMILES IDX 80 35 53 36 40 37 41 38 46 39 42 40 43 41 45 42 47 43 44 44
REMARK SMILES IDX 66 45 67 46 72 47 68 48 69 49 71 50 73 51 70 52 54 53 55 54
REMARK SMILES IDX 60 55 56 56 57 57 59 58 61 59 58 60 5 61 6 62 7 63 8 64 9 65
REMARK SMILES IDX 10 66 11 67 12 68 19 69 13 70 14 71 18 72 15 74 17 75 16 76
REMARK SMILES IDX 20 77 21 79 22 80 30 81 23 82 25 83 29 84 24 85 26 86 28 87
REMARK SMILES IDX 27 88
REMARK H PARENT 78 22 52 33 13 73 20 78
REMARK Flexibility Score: inf
ROOT
ATOM      1  C   UNL A   1      32.777  29.967  27.143  1.00  0.00     0.275 C 
ENDROOT
BRANCH   1   2
ATOM      2  O   UNL A   1      34.072  29.629  27.611  1.00  0.00    -0.458 OA
BRANCH   2   3
ATOM      3  C   UNL A   1      34.756  30.596  28.227  1.00  0.00     0.338 C 
ATOM      4  O   UNL A   1      34.249  31.685  28.481  1.00  0.00    -0.246 OA
BRANCH   3   5
ATOM      5  C   UNL A   1      36.115  30.339  28.785  1.00  0.00     0.060 A 
ATOM      6  C   UNL A   1      36.695  29.334  30.244  1.00  0.00     0.016 A 
ATOM      7  C   UNL A   1      37.176  30.451  27.342  1.00  0.00     0.016 A 
ATOM      8  C   UNL A   1      38.365  28.566  30.211  1.00  0.00     0.010 A 
ATOM      9  C   UNL A   1      38.713  29.547  27.294  1.00  0.00     0.010 A 
ATOM     10  C   UNL A   1      39.393  28.717  28.725  1.00  0.00    -0.014 A 
BRANCH  10  11
ATOM     11  C   UNL A   1      40.832  28.281  28.687  1.00  0.00     0.031 A 
ATOM     12  C   UNL A   1      41.237  26.842  28.359  1.00  0.00     0.074 A 
ATOM     13  C   UNL A   1      41.790  29.215  28.831  1.00  0.00     0.049 A 
ATOM     14  N   UNL A   1      42.362  26.388  27.847  1.00  0.00    -0.248 NA
ATOM     15  C   UNL A   1      40.275  25.757  28.586  1.00  0.00     0.031 C 
ATOM     16  C   UNL A   1      41.558  30.607  29.214  1.00  0.00     0.029 A 
ATOM     17  N   UNL A   1      43.148  29.151  28.650  1.00  0.00    -0.354 N 
ATOM     18  C   UNL A   1      42.165  25.024  27.615  1.00  0.00     0.074 A 
ATOM     19  C   UNL A   1      40.834  24.705  28.025  1.00  0.00     0.031 C 
ATOM     20  C   UNL A   1      42.702  31.294  29.116  1.00  0.00     0.029 A 
ATOM     21  C   UNL A   1      43.776  30.367  28.789  1.00  0.00     0.049 A 
ATOM     22  H   UNL A   1      43.627  28.317  28.440  1.00  0.00     0.167 HD
ATOM     23  C   UNL A   1      43.024  24.065  27.199  1.00  0.00     0.037 A 
ATOM     24  C   UNL A   1      45.079  30.693  28.702  1.00  0.00     0.037 A 
ATOM     25  C   UNL A   1      44.433  24.290  27.129  1.00  0.00     0.049 A 
ATOM     26  C   UNL A   1      46.052  29.594  28.390  1.00  0.00     0.074 A 
ATOM     27  C   UNL A   1      45.447  23.378  26.921  1.00  0.00     0.029 A 
ATOM     28  N   UNL A   1      45.025  25.519  27.387  1.00  0.00    -0.354 N 
ATOM     29  N   UNL A   1      45.805  28.337  28.101  1.00  0.00    -0.248 NA
ATOM     30  C   UNL A   1      47.475  29.940  28.423  1.00  0.00     0.031 C 
ATOM     31  C   UNL A   1      46.658  24.037  27.157  1.00  0.00     0.029 A 
ATOM     32  C   UNL A   1      46.396  25.380  27.404  1.00  0.00     0.049 A 
ATOM     33  H   UNL A   1      44.539  26.361  27.537  1.00  0.00     0.167 HD
ATOM     34  C   UNL A   1      47.042  27.738  27.916  1.00  0.00     0.074 A 
ATOM     35  C   UNL A   1      48.036  28.778  28.111  1.00  0.00     0.031 C 
ATOM     36  C   UNL A   1      47.337  26.450  27.616  1.00  0.00     0.037 A 
BRANCH  23  37
ATOM     37  C   UNL A   1      42.453  22.681  27.006  1.00  0.00     0.057 A 
ATOM     38  C   UNL A   1      42.142  21.854  28.097  1.00  0.00     0.134 A 
ATOM     39  C   UNL A   1      42.337  22.119  25.727  1.00  0.00     0.134 A 
ATOM     40  F   UNL A   1      42.279  22.306  29.354  1.00  0.00    -0.206 F 
ATOM     41  C   UNL A   1      41.764  20.517  27.924  1.00  0.00     0.040 A 
ATOM     42  C   UNL A   1      41.943  20.791  25.541  1.00  0.00     0.040 A 
ATOM     43  F   UNL A   1      42.652  22.835  24.638  1.00  0.00    -0.206 F 
ATOM     44  C   UNL A   1      41.665  19.983  26.641  1.00  0.00     0.006 A 
ENDBRANCH  23  37
BRANCH  24  45
ATOM     45  C   UNL A   1      45.504  32.094  28.977  1.00  0.00     0.057 A 
ATOM     46  C   UNL A   1      45.507  33.080  27.985  1.00  0.00     0.134 A 
ATOM     47  C   UNL A   1      45.848  32.498  30.278  1.00  0.00     0.134 A 
ATOM     48  F   UNL A   1      45.213  32.765  26.716  1.00  0.00    -0.206 F 
ATOM     49  C   UNL A   1      45.814  34.414  28.278  1.00  0.00     0.040 A 
ATOM     50  C   UNL A   1      46.118  33.830  30.592  1.00  0.00     0.040 A 
ATOM     51  F   UNL A   1      45.870  31.604  31.278  1.00  0.00    -0.206 F 
ATOM     52  C   UNL A   1      46.103  34.793  29.589  1.00  0.00     0.006 A 
ENDBRANCH  24  45
BRANCH  36  53
ATOM     53  C   UNL A   1      48.780  26.102  27.443  1.00  0.00     0.057 A 
ATOM     54  C   UNL A   1      49.425  26.201  26.206  1.00  0.00     0.134 A 
ATOM     55  C   UNL A   1      49.550  25.763  28.563  1.00  0.00     0.134 A 
ATOM     56  F   UNL A   1      48.736  26.523  25.101  1.00  0.00    -0.206 F 
ATOM     57  C   UNL A   1      50.792  25.956  26.086  1.00  0.00     0.040 A 
ATOM     58  C   UNL A   1      50.921  25.548  28.460  1.00  0.00     0.040 A 
ATOM     59  F   UNL A   1      48.984  25.674  29.777  1.00  0.00    -0.206 F 
ATOM     60  C   UNL A   1      51.544  25.640  27.217  1.00  0.00     0.006 A 
ENDBRANCH  36  53
ENDBRANCH  10  11
ENDBRANCH   3   5
ENDBRANCH   2   3
ENDBRANCH   1   2
BRANCH   1  61
ATOM     61  C   UNL A   1      32.635  29.694  25.627  1.00  0.00     0.274 C 
BRANCH  61  62
ATOM     62  O   UNL A   1      31.387  29.010  25.315  1.00  0.00    -0.461 OA
BRANCH  62  63
ATOM     63  C   UNL A   1      31.309  27.724  24.848  1.00  0.00     0.329 C 
ATOM     64  O   UNL A   1      30.608  27.425  23.890  1.00  0.00    -0.250 OA
BRANCH  63  65
ATOM     65  C   UNL A   1      32.218  26.646  25.702  1.00  0.00     0.195 C 
BRANCH  65  66
ATOM     66  C   UNL A   1      31.636  25.071  26.520  1.00  0.00     0.074 C 
BRANCH  66  67
ATOM     67  C   UNL A   1      32.551  23.141  26.824  1.00  0.00    -0.020 A 
ATOM     68  C   UNL A   1      33.327  22.480  27.875  1.00  0.00     0.087 A 
ATOM     69  C   UNL A   1      32.717  21.740  25.821  1.00  0.00     0.003 A 
ATOM     70  N   UNL A   1      34.267  21.602  27.365  1.00  0.00    -0.361 N 
ATOM     71  C   UNL A   1      33.882  21.072  26.175  1.00  0.00     0.046 A 
ATOM     72  C   UNL A   1      32.077  21.178  24.649  1.00  0.00     0.010 A 
ATOM     73  H   UNL A   1      35.117  21.387  27.812  1.00  0.00     0.166 HD
ATOM     74  C   UNL A   1      34.483  20.061  25.397  1.00  0.00     0.026 A 
ATOM     75  C   UNL A   1      32.639  20.166  23.866  1.00  0.00     0.001 A 
ATOM     76  C   UNL A   1      33.856  19.635  24.225  1.00  0.00     0.002 A 
ENDBRANCH  66  67
ENDBRANCH  65  66
BRANCH  65  77
ATOM     77  N   UNL A   1      33.491  26.384  24.986  1.00  0.00    -0.356 N 
ATOM     78  H   UNL A   1      34.170  27.089  25.084  1.00  0.00     0.163 HD
BRANCH  77  79
ATOM     79  C   UNL A   1      33.876  25.322  24.215  1.00  0.00     0.137 A 
ATOM     80  N   UNL A   1      33.018  25.168  23.189  1.00  0.00    -0.219 NA
ATOM     81  C   UNL A   1      34.955  24.433  24.416  1.00  0.00     0.043 A 
ATOM     82  C   UNL A   1      33.267  24.183  22.322  1.00  0.00     0.224 A 
ATOM     83  C   UNL A   1      35.112  23.455  23.413  1.00  0.00     0.076 A 
ATOM     84  C   UNL A   1      35.851  24.388  25.519  1.00  0.00     0.014 A 
ATOM     85  N   UNL A   1      34.288  23.330  22.374  1.00  0.00    -0.236 NA
ATOM     86  C   UNL A   1      36.160  22.546  23.497  1.00  0.00     0.029 A 
ATOM     87  C   UNL A   1      36.879  23.446  25.599  1.00  0.00     0.001 A 
ATOM     88  C   UNL A   1      37.046  22.532  24.573  1.00  0.00     0.002 A 
ENDBRANCH  77  79
ENDBRANCH  65  77
ENDBRANCH  63  65
ENDBRANCH  62  63
ENDBRANCH  61  62
ENDBRANCH   1  61
TORSDOF 15
ENDMDL
MODEL 2
REMARK VINA RESULT:     -12.4      3.318      8.084
REMARK SMILES O=C(OCCOC(=O)[C@@H](Cc1c[nH]c2ccccc12)Nc1ncnc2ccccc12)c1ccc(-c2c3nc(c(-c4c(F)cccc4F)c4ccc([nH]4)c(-c4c(F)cccc4F)c4nc(c(-c5c(F)cccc5F)c5ccc2[nH]5)C=C4)C=C3)cc1
REMARK SMILES IDX 4 1 3 2 2 3 1 4 31 5 32 6 84 7 33 8 83 9 34 10 35 11 36 12
REMARK SMILES IDX 77 13 37 14 82 15 76 16 78 17 38 18 81 19 75 20 74 21 39 23
REMARK SMILES IDX 65 24 48 25 64 26 49 27 52 28 63 29 79 30 50 31 51 32 62 34
REMARK SMILES IDX 80 35 53 36 40 37 41 38 46 39 42 40 43 41 45 42 47 43 44 44
REMARK SMILES IDX 66 45 67 46 72 47 68 48 69 49 71 50 73 51 70 52 54 53 55 54
REMARK SMILES IDX 60 55 56 56 57 57 59 58 61 59 58 60 5 61 6 62 7 63 8 64 9 65
REMARK SMILES IDX 10 66 11 67 12 68 19 69 13 70 14 71 18 72 15 74 17 75 16 76
REMARK SMILES IDX 20 77 21 79 22 80 30 81 23 82 25 83 29 84 24 85 26 86 28 87
REMARK SMILES IDX 27 88
REMARK H PARENT 78 22 52 33 13 73 20 78
REMARK Flexibility Score: inf
ROOT
ATOM      1  C   UNL A   1      39.580  20.399  25.624  1.00  0.00     0.275 C 
ENDROOT
BRANCH   1   2
ATOM      2  O   UNL A   1      40.245  19.164  25.829  1.00  0.00    -0.458 OA
BRANCH   2   3
ATOM      3  C   UNL A   1      41.571  19.216  25.978  1.00  0.00     0.338 C 
ATOM      4  O   UNL A   1      42.285  18.244  25.747  1.00  0.00    -0.246 OA
BRANCH   3   5
ATOM      5  C   UNL A   1      42.261  20.505  26.269  1.00  0.00     0.060 A 
ATOM      6  C   UNL A   1      42.710  21.953  25.185  1.00  0.00     0.016 A 
ATOM      7  C   UNL A   1      41.837  20.815  27.985  1.00  0.00     0.016 A 
ATOM      8  C   UNL A   1      42.801  23.638  25.912  1.00  0.00     0.010 A 
ATOM      9  C   UNL A   1      41.775  22.489  28.599  1.00  0.00     0.010 A 
ATOM     10  C   UNL A   1      42.364  23.888  27.655  1.00  0.00    -0.014 A 
BRANCH  10  11
ATOM     11  C   UNL A   1      42.590  25.194  28.368  1.00  0.00     0.031 A 
ATOM     12  C   UNL A   1      43.984  25.652  28.801  1.00  0.00     0.074 A 
ATOM     13  C   UNL A   1      41.548  26.030  28.521  1.00  0.00     0.049 A 
ATOM     14  N   UNL A   1      44.437  26.872  28.999  1.00  0.00    -0.248 NA
ATOM     15  C   UNL A   1      45.036  24.650  29.013  1.00  0.00     0.031 C 
ATOM     16  C   UNL A   1      40.155  25.704  28.221  1.00  0.00     0.029 A 
ATOM     17  N   UNL A   1      41.491  27.335  28.941  1.00  0.00    -0.354 N 
ATOM     18  C   UNL A   1      45.808  26.748  29.242  1.00  0.00     0.074 A 
ATOM     19  C   UNL A   1      46.134  25.359  29.168  1.00  0.00     0.031 C 
ATOM     20  C   UNL A   1      39.402  26.803  28.340  1.00  0.00     0.029 A 
ATOM     21  C   UNL A   1      40.233  27.884  28.851  1.00  0.00     0.049 A 
ATOM     22  H   UNL A   1      42.274  27.830  29.274  1.00  0.00     0.167 HD
ATOM     23  C   UNL A   1      46.729  27.671  29.603  1.00  0.00     0.037 A 
ATOM     24  C   UNL A   1      39.789  29.111  29.180  1.00  0.00     0.037 A 
ATOM     25  C   UNL A   1      46.359  28.983  30.027  1.00  0.00     0.049 A 
ATOM     26  C   UNL A   1      40.788  30.088  29.726  1.00  0.00     0.074 A 
ATOM     27  C   UNL A   1      47.142  29.961  30.607  1.00  0.00     0.029 A 
ATOM     28  N   UNL A   1      45.051  29.450  30.017  1.00  0.00    -0.354 N 
ATOM     29  N   UNL A   1      42.086  29.947  29.862  1.00  0.00    -0.248 NA
ATOM     30  C   UNL A   1      40.267  31.375  30.197  1.00  0.00     0.031 C 
ATOM     31  C   UNL A   1      46.287  30.978  31.043  1.00  0.00     0.029 A 
ATOM     32  C   UNL A   1      44.992  30.681  30.635  1.00  0.00     0.049 A 
ATOM     33  H   UNL A   1      44.283  28.974  29.627  1.00  0.00     0.167 HD
ATOM     34  C   UNL A   1      42.542  31.126  30.432  1.00  0.00     0.074 A 
ATOM     35  C   UNL A   1      41.379  31.977  30.601  1.00  0.00     0.031 C 
ATOM     36  C   UNL A   1      43.802  31.478  30.787  1.00  0.00     0.037 A 
BRANCH  23  37
ATOM     37  C   UNL A   1      48.154  27.191  29.735  1.00  0.00     0.057 A 
ATOM     38  C   UNL A   1      48.641  26.649  30.936  1.00  0.00     0.134 A 
ATOM     39  C   UNL A   1      49.082  27.390  28.704  1.00  0.00     0.134 A 
ATOM     40  F   UNL A   1      47.821  26.479  31.986  1.00  0.00    -0.206 F 
ATOM     41  C   UNL A   1      49.996  26.351  31.113  1.00  0.00     0.040 A 
ATOM     42  C   UNL A   1      50.435  27.078  28.863  1.00  0.00     0.040 A 
ATOM     43  F   UNL A   1      48.700  27.936  27.541  1.00  0.00    -0.206 F 
ATOM     44  C   UNL A   1      50.898  26.567  30.074  1.00  0.00     0.006 A 
ENDBRANCH  23  37
BRANCH  24  45
ATOM     45  C   UNL A   1      38.339  29.425  29.050  1.00  0.00     0.057 A 
ATOM     46  C   UNL A   1      37.473  29.413  30.149  1.00  0.00     0.134 A 
ATOM     47  C   UNL A   1      37.799  29.826  27.817  1.00  0.00     0.134 A 
ATOM     48  F   UNL A   1      37.911  29.018  31.352  1.00  0.00    -0.206 F 
ATOM     49  C   UNL A   1      36.134  29.805  30.031  1.00  0.00     0.040 A 
ATOM     50  C   UNL A   1      36.478  30.257  27.694  1.00  0.00     0.040 A 
ATOM     51  F   UNL A   1      38.570  29.858  26.721  1.00  0.00    -0.206 F 
ATOM     52  C   UNL A   1      35.640  30.245  28.803  1.00  0.00     0.006 A 
ENDBRANCH  24  45
BRANCH  36  53
ATOM     53  C   UNL A   1      43.994  32.847  31.355  1.00  0.00     0.057 A 
ATOM     54  C   UNL A   1      44.192  33.967  30.543  1.00  0.00     0.134 A 
ATOM     55  C   UNL A   1      43.872  33.046  32.737  1.00  0.00     0.134 A 
ATOM     56  F   UNL A   1      44.315  33.833  29.214  1.00  0.00    -0.206 F 
ATOM     57  C   UNL A   1      44.280  35.246  31.091  1.00  0.00     0.040 A 
ATOM     58  C   UNL A   1      43.927  34.322  33.290  1.00  0.00     0.040 A 
ATOM     59  F   UNL A   1      43.660  32.007  33.558  1.00  0.00    -0.206 F 
ATOM     60  C   UNL A   1      44.136  35.425  32.466  1.00  0.00     0.006 A 
ENDBRANCH  36  53
ENDBRANCH  10  11
ENDBRANCH   3   5
ENDBRANCH   2   3
ENDBRANCH   1   2
BRANCH   1  61
ATOM     61  C   UNL A   1      38.191  20.191  24.976  1.00  0.00     0.274 C 
BRANCH  61  62
ATOM     62  O   UNL A   1      37.375  21.396  25.050  1.00  0.00    -0.461 OA
BRANCH  62  63
ATOM     63  C   UNL A   1      36.013  21.415  24.889  1.00  0.00     0.329 C 
ATOM     64  O   UNL A   1      35.319  20.439  25.138  1.00  0.00    -0.250 OA
BRANCH  63  65
ATOM     65  C   UNL A   1      35.427  22.847  24.322  1.00  0.00     0.195 C 
BRANCH  65  66
ATOM     66  C   UNL A   1      34.177  23.099  22.957  1.00  0.00     0.074 C 
BRANCH  66  67
ATOM     67  C   UNL A   1      33.035  24.806  22.298  1.00  0.00    -0.020 A 
ATOM     68  C   UNL A   1      33.221  25.921  21.368  1.00  0.00     0.087 A 
ATOM     69  C   UNL A   1      31.495  25.449  22.759  1.00  0.00     0.003 A 
ATOM     70  N   UNL A   1      32.602  27.081  21.801  1.00  0.00    -0.361 N 
ATOM     71  C   UNL A   1      31.507  26.824  22.564  1.00  0.00     0.046 A 
ATOM     72  C   UNL A   1      30.292  24.982  23.419  1.00  0.00     0.010 A 
ATOM     73  H   UNL A   1      32.919  27.987  21.584  1.00  0.00     0.166 HD
ATOM     74  C   UNL A   1      30.542  27.708  23.090  1.00  0.00     0.026 A 
ATOM     75  C   UNL A   1      29.310  25.831  23.936  1.00  0.00     0.001 A 
ATOM     76  C   UNL A   1      29.456  27.192  23.799  1.00  0.00     0.002 A 
ENDBRANCH  66  67
ENDBRANCH  65  66
BRANCH  65  77
ATOM     77  N   UNL A   1      35.095  23.741  25.459  1.00  0.00    -0.356 N 
ATOM     78  H   UNL A   1      35.873  24.064  25.968  1.00  0.00     0.163 HD
BRANCH  77  79
ATOM     79  C   UNL A   1      33.887  24.191  25.915  1.00  0.00     0.137 A 
ATOM     80  N   UNL A   1      33.120  23.147  26.283  1.00  0.00    -0.219 NA
ATOM     81  C   UNL A   1      33.406  25.517  25.974  1.00  0.00     0.043 A 
ATOM     82  C   UNL A   1      31.909  23.417  26.775  1.00  0.00     0.224 A 
ATOM     83  C   UNL A   1      32.121  25.658  26.535  1.00  0.00     0.076 A 
ATOM     84  C   UNL A   1      34.043  26.695  25.495  1.00  0.00     0.014 A 
ATOM     85  N   UNL A   1      31.379  24.628  26.939  1.00  0.00    -0.236 NA
ATOM     86  C   UNL A   1      31.563  26.924  26.668  1.00  0.00     0.029 A 
ATOM     87  C   UNL A   1      33.451  27.955  25.611  1.00  0.00     0.001 A 
ATOM     88  C   UNL A   1      32.212  28.072  26.217  1.00  0.00     0.002 A 
ENDBRANCH  77  79
ENDBRANCH  65  77
ENDBRANCH  63  65
ENDBRANCH  62  63
ENDBRANCH  61  62
ENDBRANCH   1  61
TORSDOF 15
ENDMDL
MODEL 3
REMARK VINA RESULT:     -12.2      4.132      8.026
REMARK SMILES O=C(OCCOC(=O)[C@@H](Cc1c[nH]c2ccccc12)Nc1ncnc2ccccc12)c1ccc(-c2c3nc(c(-c4c(F)cccc4F)c4ccc([nH]4)c(-c4c(F)cccc4F)c4nc(c(-c5c(F)cccc5F)c5ccc2[nH]5)C=C4)C=C3)cc1
REMARK SMILES IDX 4 1 3 2 2 3 1 4 31 5 32 6 84 7 33 8 83 9 34 10 35 11 36 12
REMARK SMILES IDX 77 13 37 14 82 15 76 16 78 17 38 18 81 19 75 20 74 21 39 23
REMARK SMILES IDX 65 24 48 25 64 26 49 27 52 28 63 29 79 30 50 31 51 32 62 34
REMARK SMILES IDX 80 35 53 36 40 37 41 38 46 39 42 40 43 41 45 42 47 43 44 44
REMARK SMILES IDX 66 45 67 46 72 47 68 48 69 49 71 50 73 51 70 52 54 53 55 54
REMARK SMILES IDX 60 55 56 56 57 57 59 58 61 59 58 60 5 61 6 62 7 63 8 64 9 65
REMARK SMILES IDX 10 66 11 67 12 68 19 69 13 70 14 71 18 72 15 74 17 75 16 76
REMARK SMILES IDX 20 77 21 79 22 80 30 81 23 82 25 83 29 84 24 85 26 86 28 87
REMARK SMILES IDX 27 88
REMARK H PARENT 78 22 52 33 13 73 20 78
REMARK Flexibility Score: inf
ROOT
ATOM      1  C   UNL A   1      31.496  28.393  26.443  1.00  0.00     0.275 C 
ENDROOT
BRANCH   1   2
ATOM      2  O   UNL A   1      32.338  29.391  25.891  1.00  0.00    -0.458 OA
BRANCH   2   3
ATOM      3  C   UNL A   1      32.594  30.451  26.663  1.00  0.00     0.338 C 
ATOM      4  O   UNL A   1      31.697  31.065  27.235  1.00  0.00    -0.246 OA
BRANCH   3   5
ATOM      5  C   UNL A   1      33.995  30.835  27.000  1.00  0.00     0.060 A 
ATOM      6  C   UNL A   1      34.735  32.424  27.632  1.00  0.00     0.016 A 
ATOM      7  C   UNL A   1      34.731  29.281  27.510  1.00  0.00     0.016 A 
ATOM      8  C   UNL A   1      36.245  32.370  28.677  1.00  0.00     0.010 A 
ATOM      9  C   UNL A   1      36.093  29.276  28.663  1.00  0.00     0.010 A 
ATOM     10  C   UNL A   1      36.947  30.767  29.158  1.00  0.00    -0.014 A 
BRANCH  10  11
ATOM     11  C   UNL A   1      38.276  30.639  29.850  1.00  0.00     0.031 A 
ATOM     12  C   UNL A   1      38.495  31.122  31.286  1.00  0.00     0.074 A 
ATOM     13  C   UNL A   1      39.264  29.974  29.224  1.00  0.00     0.049 A 
ATOM     14  N   UNL A   1      39.372  30.714  32.178  1.00  0.00    -0.248 NA
ATOM     15  C   UNL A   1      37.619  32.165  31.833  1.00  0.00     0.031 C 
ATOM     16  C   UNL A   1      39.224  29.518  27.836  1.00  0.00     0.029 A 
ATOM     17  N   UNL A   1      40.485  29.538  29.674  1.00  0.00    -0.354 N 
ATOM     18  C   UNL A   1      39.057  31.375  33.369  1.00  0.00     0.074 A 
ATOM     19  C   UNL A   1      37.922  32.204  33.114  1.00  0.00     0.031 C 
ATOM     20  C   UNL A   1      40.299  28.763  27.582  1.00  0.00     0.029 A 
ATOM     21  C   UNL A   1      41.171  28.785  28.748  1.00  0.00     0.049 A 
ATOM     22  H   UNL A   1      40.835  29.743  30.570  1.00  0.00     0.167 HD
ATOM     23  C   UNL A   1      39.695  31.399  34.562  1.00  0.00     0.037 A 
ATOM     24  C   UNL A   1      42.385  28.209  28.817  1.00  0.00     0.037 A 
ATOM     25  C   UNL A   1      41.011  30.869  34.727  1.00  0.00     0.049 A 
ATOM     26  C   UNL A   1      43.158  28.367  30.093  1.00  0.00     0.074 A 
ATOM     27  C   UNL A   1      41.865  30.990  35.805  1.00  0.00     0.029 A 
ATOM     28  N   UNL A   1      41.702  30.210  33.720  1.00  0.00    -0.354 N 
ATOM     29  N   UNL A   1      42.782  28.935  31.216  1.00  0.00    -0.248 NA
ATOM     30  C   UNL A   1      44.527  27.844  30.108  1.00  0.00     0.031 C 
ATOM     31  C   UNL A   1      43.111  30.493  35.408  1.00  0.00     0.029 A 
ATOM     32  C   UNL A   1      42.997  29.968  34.126  1.00  0.00     0.049 A 
ATOM     33  H   UNL A   1      41.325  29.956  32.848  1.00  0.00     0.167 HD
ATOM     34  C   UNL A   1      43.866  28.836  32.075  1.00  0.00     0.074 A 
ATOM     35  C   UNL A   1      44.909  28.139  31.344  1.00  0.00     0.031 C 
ATOM     36  C   UNL A   1      43.996  29.280  33.350  1.00  0.00     0.037 A 
BRANCH  23  37
ATOM     37  C   UNL A   1      39.039  32.194  35.666  1.00  0.00     0.057 A 
ATOM     38  C   UNL A   1      39.317  33.557  35.857  1.00  0.00     0.134 A 
ATOM     39  C   UNL A   1      38.228  31.568  36.623  1.00  0.00     0.134 A 
ATOM     40  F   UNL A   1      40.128  34.211  35.010  1.00  0.00    -0.206 F 
ATOM     41  C   UNL A   1      38.837  34.257  36.969  1.00  0.00     0.040 A 
ATOM     42  C   UNL A   1      37.728  32.262  37.728  1.00  0.00     0.040 A 
ATOM     43  F   UNL A   1      37.949  30.260  36.528  1.00  0.00    -0.206 F 
ATOM     44  C   UNL A   1      38.040  33.608  37.910  1.00  0.00     0.006 A 
ENDBRANCH  23  37
BRANCH  24  45
ATOM     45  C   UNL A   1      42.930  27.504  27.624  1.00  0.00     0.057 A 
ATOM     46  C   UNL A   1      43.659  28.170  26.633  1.00  0.00     0.134 A 
ATOM     47  C   UNL A   1      42.797  26.112  27.491  1.00  0.00     0.134 A 
ATOM     48  F   UNL A   1      43.807  29.501  26.681  1.00  0.00    -0.206 F 
ATOM     49  C   UNL A   1      44.249  27.479  25.568  1.00  0.00     0.040 A 
ATOM     50  C   UNL A   1      43.412  25.406  26.457  1.00  0.00     0.040 A 
ATOM     51  F   UNL A   1      42.108  25.409  28.402  1.00  0.00    -0.206 F 
ATOM     52  C   UNL A   1      44.140  26.090  25.489  1.00  0.00     0.006 A 
ENDBRANCH  24  45
BRANCH  36  53
ATOM     53  C   UNL A   1      45.289  28.995  34.044  1.00  0.00     0.057 A 
ATOM     54  C   UNL A   1      46.357  29.896  34.024  1.00  0.00     0.134 A 
ATOM     55  C   UNL A   1      45.414  27.840  34.827  1.00  0.00     0.134 A 
ATOM     56  F   UNL A   1      46.290  31.018  33.291  1.00  0.00    -0.206 F 
ATOM     57  C   UNL A   1      47.520  29.649  34.751  1.00  0.00     0.040 A 
ATOM     58  C   UNL A   1      46.558  27.599  35.581  1.00  0.00     0.040 A 
ATOM     59  F   UNL A   1      44.410  26.952  34.897  1.00  0.00    -0.206 F 
ATOM     60  C   UNL A   1      47.617  28.503  35.541  1.00  0.00     0.006 A 
ENDBRANCH  36  53
ENDBRANCH  10  11
ENDBRANCH   3   5
ENDBRANCH   2   3
ENDBRANCH   1   2
BRANCH   1  61
ATOM     61  C   UNL A   1      32.044  26.974  26.161  1.00  0.00     0.274 C 
BRANCH  61  62
ATOM     62  O   UNL A   1      31.274  25.950  26.856  1.00  0.00    -0.461 OA
BRANCH  62  63
ATOM     63  C   UNL A   1      31.302  24.617  26.537  1.00  0.00     0.329 C 
ATOM     64  O   UNL A   1      31.337  23.747  27.398  1.00  0.00    -0.250 OA
BRANCH  63  65
ATOM     65  C   UNL A   1      31.302  24.316  24.917  1.00  0.00     0.195 C 
BRANCH  65  66
ATOM     66  C   UNL A   1      30.423  25.285  23.584  1.00  0.00     0.074 C 
BRANCH  66  67
ATOM     67  C   UNL A   1      30.442  27.367  23.016  1.00  0.00    -0.020 A 
ATOM     68  C   UNL A   1      31.439  28.345  22.578  1.00  0.00     0.087 A 
ATOM     69  C   UNL A   1      29.223  28.595  22.982  1.00  0.00     0.003 A 
ATOM     70  N   UNL A   1      31.158  29.624  23.027  1.00  0.00    -0.361 N 
ATOM     71  C   UNL A   1      29.825  29.829  23.190  1.00  0.00     0.046 A 
ATOM     72  C   UNL A   1      27.776  28.669  22.954  1.00  0.00     0.010 A 
ATOM     73  H   UNL A   1      31.845  30.305  23.210  1.00  0.00     0.166 HD
ATOM     74  C   UNL A   1      29.123  31.010  23.507  1.00  0.00     0.026 A 
ATOM     75  C   UNL A   1      27.052  29.827  23.247  1.00  0.00     0.001 A 
ATOM     76  C   UNL A   1      27.728  30.985  23.555  1.00  0.00     0.002 A 
ENDBRANCH  66  67
ENDBRANCH  65  66
BRANCH  65  77
ATOM     77  N   UNL A   1      32.680  24.002  24.464  1.00  0.00    -0.356 N 
ATOM     78  H   UNL A   1      33.055  24.641  23.816  1.00  0.00     0.163 HD
BRANCH  77  79
ATOM     79  C   UNL A   1      33.514  22.971  24.799  1.00  0.00     0.137 A 
ATOM     80  N   UNL A   1      34.594  23.450  25.445  1.00  0.00    -0.219 NA
ATOM     81  C   UNL A   1      33.376  21.597  24.507  1.00  0.00     0.043 A 
ATOM     82  C   UNL A   1      35.502  22.564  25.863  1.00  0.00     0.224 A 
ATOM     83  C   UNL A   1      34.395  20.775  25.028  1.00  0.00     0.076 A 
ATOM     84  C   UNL A   1      32.370  20.971  23.720  1.00  0.00     0.014 A 
ATOM     85  N   UNL A   1      35.444  21.243  25.704  1.00  0.00    -0.236 NA
ATOM     86  C   UNL A   1      34.344  19.400  24.824  1.00  0.00     0.029 A 
ATOM     87  C   UNL A   1      32.354  19.592  23.502  1.00  0.00     0.001 A 
ATOM     88  C   UNL A   1      33.336  18.800  24.072  1.00  0.00     0.002 A 
ENDBRANCH  77  79
ENDBRANCH  65  77
ENDBRANCH  63  65
ENDBRANCH  62  63
ENDBRANCH  61  62
ENDBRANCH   1  61
TORSDOF 15
ENDMDL
