MODEL 1
REMARK VINA RESULT:     -12.4      0.000      0.000
REMARK SMILES CC1=C(C#N)C(=O)N(C)C(=O)/C1=C\Nc1ccc(C(=O)OCCOC(=O)c2ccc(-c3c4nc(c(-c5c(F)cccc5F)c5ccc([nH]5)c(-c5c(F)cccc5F)c5nc(c(-c6c(F)cccc6F)c6ccc3[nH]6)C=C5)C=C4)cc2)c(O)c1
REMARK SMILES IDX 22 1 21 2 19 3 20 4 18 5 15 6 16 7 83 8 17 9 81 10 14 11
REMARK SMILES IDX 13 13 1 14 2 15 3 16 12 17 6 18 10 19 7 20 8 21 11 22 9 23
REMARK SMILES IDX 4 24 5 25 82 26 23 28 24 29 25 30 26 31 27 32 28 33 80 34
REMARK SMILES IDX 29 35 79 36 30 37 31 38 32 39 73 40 33 41 78 42 72 43 74 44
REMARK SMILES IDX 34 45 77 46 71 47 70 48 35 50 61 51 44 52 60 53 45 54 48 55
REMARK SMILES IDX 59 56 75 57 46 58 47 59 58 61 76 62 49 63 36 64 37 65 42 66
REMARK SMILES IDX 38 67 39 68 41 69 43 70 40 71 62 72 63 73 68 74 64 75 65 76
REMARK SMILES IDX 67 77 69 78 66 79 50 80 51 81 56 82 52 83 53 84 55 85 57 86
REMARK SMILES IDX 54 87
REMARK H PARENT 14 12 82 27 74 49 48 60
REMARK Flexibility Score: inf
ROOT
ATOM      1  C   UNL A   1      42.463  20.793  26.095  1.00  0.00     0.275 C 
ENDROOT
BRANCH   1   2
ATOM      2  O   UNL A   1      41.144  21.211  25.678  1.00  0.00    -0.458 OA
BRANCH   2   3
ATOM      3  C   UNL A   1      40.260  21.464  26.679  1.00  0.00     0.342 C 
ATOM      4  O   UNL A   1      40.478  21.362  27.877  1.00  0.00    -0.246 OA
BRANCH   3   5
ATOM      5  C   UNL A   1      38.995  22.016  26.133  1.00  0.00     0.101 A 
ATOM      6  C   UNL A   1      36.681  23.267  25.108  1.00  0.00     0.042 A 
ATOM      7  C   UNL A   1      37.570  23.979  25.914  1.00  0.00     0.027 A 
ATOM      8  C   UNL A   1      36.954  21.921  24.832  1.00  0.00     0.073 A 
ATOM      9  C   UNL A   1      38.690  23.346  26.460  1.00  0.00     0.022 A 
ATOM     10  C   UNL A   1      38.113  21.307  25.313  1.00  0.00     0.132 A 
BRANCH   6  11
ATOM     11  N   UNL A   1      35.536  23.866  24.569  1.00  0.00    -0.361 N 
ATOM     12  H   UNL A   1      35.210  23.486  23.722  1.00  0.00     0.166 HD
BRANCH  11  13
ATOM     13  C   UNL A   1      34.809  24.918  25.077  1.00  0.00     0.097 C 
ATOM     14  C   UNL A   1      33.691  27.296  26.450  1.00  0.00     0.047 C 
ATOM     15  C   UNL A   1      33.310  26.912  25.039  1.00  0.00    -0.013 C 
ATOM     16  C   UNL A   1      32.452  27.652  24.308  1.00  0.00     0.121 C 
ATOM     17  C   UNL A   1      33.939  25.729  24.437  1.00  0.00     0.060 C 
ATOM     18  C   UNL A   1      32.047  27.260  22.933  1.00  0.00     0.271 C 
ATOM     19  C   UNL A   1      33.628  25.379  22.998  1.00  0.00     0.262 C 
ATOM     20  O   UNL A   1      31.238  27.947  22.311  1.00  0.00    -0.268 OA
ATOM     21  N   UNL A   1      32.625  26.121  22.399  1.00  0.00    -0.277 N 
ATOM     22  O   UNL A   1      34.241  24.490  22.403  1.00  0.00    -0.269 OA
ATOM     23  C   UNL A   1      32.204  25.750  21.058  1.00  0.00     0.157 C 
BRANCH  16  24
ATOM     24  C   UNL A   1      31.873  28.973  24.788  1.00  0.00     0.105 C 
ATOM     25  N   UNL A   1      31.393  30.069  25.186  1.00  0.00    -0.192 NA
ENDBRANCH  16  24
ENDBRANCH  11  13
ENDBRANCH   6  11
BRANCH  10  26
ATOM     26  O   UNL A   1      38.301  20.005  24.937  1.00  0.00    -0.507 OA
ATOM     27  H   UNL A   1      38.980  19.787  24.329  1.00  0.00     0.293 HD
ENDBRANCH  10  26
ENDBRANCH   3   5
ENDBRANCH   2   3
ENDBRANCH   1   2
BRANCH   1  28
ATOM     28  C   UNL A   1      43.535  21.643  25.413  1.00  0.00     0.275 C 
BRANCH  28  29
ATOM     29  O   UNL A   1      42.934  22.848  24.904  1.00  0.00    -0.458 OA
BRANCH  29  30
ATOM     30  C   UNL A   1      43.673  23.974  25.007  1.00  0.00     0.338 C 
ATOM     31  O   UNL A   1      44.695  24.254  24.399  1.00  0.00    -0.246 OA
BRANCH  30  32
ATOM     32  C   UNL A   1      43.044  24.879  25.982  1.00  0.00     0.060 A 
ATOM     33  C   UNL A   1      43.453  26.209  26.035  1.00  0.00     0.016 A 
ATOM     34  C   UNL A   1      42.133  24.392  26.918  1.00  0.00     0.016 A 
ATOM     35  C   UNL A   1      43.008  27.045  27.057  1.00  0.00     0.010 A 
ATOM     36  C   UNL A   1      41.627  25.252  27.901  1.00  0.00     0.010 A 
ATOM     37  C   UNL A   1      42.085  26.579  28.005  1.00  0.00    -0.014 A 
BRANCH  37  38
ATOM     38  C   UNL A   1      41.668  27.458  29.135  1.00  0.00     0.031 A 
ATOM     39  C   UNL A   1      42.461  27.476  30.417  1.00  0.00     0.074 A 
ATOM     40  C   UNL A   1      40.604  28.279  29.013  1.00  0.00     0.049 A 
ATOM     41  N   UNL A   1      42.201  28.088  31.545  1.00  0.00    -0.248 NA
ATOM     42  C   UNL A   1      43.707  26.693  30.436  1.00  0.00     0.031 C 
ATOM     43  C   UNL A   1      39.758  28.398  27.825  1.00  0.00     0.029 A 
ATOM     44  N   UNL A   1      40.064  29.181  29.897  1.00  0.00    -0.354 N 
ATOM     45  C   UNL A   1      43.214  27.717  32.423  1.00  0.00     0.074 A 
ATOM     46  C   UNL A   1      44.095  26.828  31.696  1.00  0.00     0.031 C 
ATOM     47  C   UNL A   1      38.836  29.352  28.037  1.00  0.00     0.029 A 
ATOM     48  C   UNL A   1      38.980  29.862  29.397  1.00  0.00     0.049 A 
ATOM     49  H   UNL A   1      40.420  29.327  30.803  1.00  0.00     0.167 HD
ATOM     50  C   UNL A   1      43.396  28.084  33.715  1.00  0.00     0.037 A 
ATOM     51  C   UNL A   1      38.174  30.776  29.972  1.00  0.00     0.037 A 
ATOM     52  C   UNL A   1      42.562  29.017  34.427  1.00  0.00     0.049 A 
ATOM     53  C   UNL A   1      38.403  31.175  31.402  1.00  0.00     0.074 A 
ATOM     54  C   UNL A   1      42.685  29.460  35.733  1.00  0.00     0.029 A 
ATOM     55  N   UNL A   1      41.464  29.667  33.888  1.00  0.00    -0.354 N 
ATOM     56  N   UNL A   1      39.335  30.775  32.232  1.00  0.00    -0.248 NA
ATOM     57  C   UNL A   1      37.456  32.140  31.980  1.00  0.00     0.031 C 
ATOM     58  C   UNL A   1      41.645  30.362  35.992  1.00  0.00     0.029 A 
ATOM     59  C   UNL A   1      40.897  30.504  34.835  1.00  0.00     0.049 A 
ATOM     60  H   UNL A   1      41.134  29.550  32.967  1.00  0.00     0.167 HD
ATOM     61  C   UNL A   1      39.088  31.439  33.426  1.00  0.00     0.074 A 
ATOM     62  C   UNL A   1      37.937  32.289  33.206  1.00  0.00     0.031 C 
ATOM     63  C   UNL A   1      39.750  31.342  34.604  1.00  0.00     0.037 A 
BRANCH  50  64
ATOM     64  C   UNL A   1      44.534  27.447  34.457  1.00  0.00     0.057 A 
ATOM     65  C   UNL A   1      45.801  28.039  34.529  1.00  0.00     0.134 A 
ATOM     66  C   UNL A   1      44.344  26.236  35.136  1.00  0.00     0.134 A 
ATOM     67  F   UNL A   1      46.051  29.189  33.886  1.00  0.00    -0.206 F 
ATOM     68  C   UNL A   1      46.846  27.437  35.234  1.00  0.00     0.040 A 
ATOM     69  C   UNL A   1      45.375  25.637  35.862  1.00  0.00     0.040 A 
ATOM     70  F   UNL A   1      43.153  25.620  35.110  1.00  0.00    -0.206 F 
ATOM     71  C   UNL A   1      46.631  26.236  35.907  1.00  0.00     0.006 A 
ENDBRANCH  50  64
BRANCH  51  72
ATOM     72  C   UNL A   1      37.052  31.363  29.198  1.00  0.00     0.057 A 
ATOM     73  C   UNL A   1      35.885  30.631  28.949  1.00  0.00     0.134 A 
ATOM     74  C   UNL A   1      37.121  32.664  28.686  1.00  0.00     0.134 A 
ATOM     75  F   UNL A   1      35.772  29.370  29.393  1.00  0.00    -0.206 F 
ATOM     76  C   UNL A   1      34.829  31.169  28.212  1.00  0.00     0.040 A 
ATOM     77  C   UNL A   1      36.063  33.223  27.968  1.00  0.00     0.040 A 
ATOM     78  F   UNL A   1      38.213  33.414  28.889  1.00  0.00    -0.206 F 
ATOM     79  C   UNL A   1      34.914  32.473  27.726  1.00  0.00     0.006 A 
ENDBRANCH  51  72
BRANCH  63  80
ATOM     80  C   UNL A   1      39.250  32.189  35.736  1.00  0.00     0.057 A 
ATOM     81  C   UNL A   1      39.678  33.512  35.909  1.00  0.00     0.134 A 
ATOM     82  C   UNL A   1      38.327  31.681  36.658  1.00  0.00     0.134 A 
ATOM     83  F   UNL A   1      40.573  34.052  35.067  1.00  0.00    -0.206 F 
ATOM     84  C   UNL A   1      39.222  34.293  36.972  1.00  0.00     0.040 A 
ATOM     85  C   UNL A   1      37.848  32.459  37.713  1.00  0.00     0.040 A 
ATOM     86  F   UNL A   1      37.874  30.423  36.546  1.00  0.00    -0.206 F 
ATOM     87  C   UNL A   1      38.301  33.766  37.876  1.00  0.00     0.006 A 
ENDBRANCH  63  80
ENDBRANCH  37  38
ENDBRANCH  30  32
ENDBRANCH  29  30
ENDBRANCH  28  29
ENDBRANCH   1  28
TORSDOF 15
ENDMDL
MODEL 2
REMARK VINA RESULT:     -11.8      1.767      2.202
REMARK SMILES CC1=C(C#N)C(=O)N(C)C(=O)/C1=C\Nc1ccc(C(=O)OCCOC(=O)c2ccc(-c3c4nc(c(-c5c(F)cccc5F)c5ccc([nH]5)c(-c5c(F)cccc5F)c5nc(c(-c6c(F)cccc6F)c6ccc3[nH]6)C=C5)C=C4)cc2)c(O)c1
REMARK SMILES IDX 22 1 21 2 19 3 20 4 18 5 15 6 16 7 83 8 17 9 81 10 14 11
REMARK SMILES IDX 13 13 1 14 2 15 3 16 12 17 6 18 10 19 7 20 8 21 11 22 9 23
REMARK SMILES IDX 4 24 5 25 82 26 23 28 24 29 25 30 26 31 27 32 28 33 80 34
REMARK SMILES IDX 29 35 79 36 30 37 31 38 32 39 73 40 33 41 78 42 72 43 74 44
REMARK SMILES IDX 34 45 77 46 71 47 70 48 35 50 61 51 44 52 60 53 45 54 48 55
REMARK SMILES IDX 59 56 75 57 46 58 47 59 58 61 76 62 49 63 36 64 37 65 42 66
REMARK SMILES IDX 38 67 39 68 41 69 43 70 40 71 62 72 63 73 68 74 64 75 65 76
REMARK SMILES IDX 67 77 69 78 66 79 50 80 51 81 56 82 52 83 53 84 55 85 57 86
REMARK SMILES IDX 54 87
REMARK H PARENT 14 12 82 27 74 49 48 60
REMARK Flexibility Score: inf
ROOT
ATOM      1  C   UNL A   1      44.143  21.490  25.772  1.00  0.00     0.275 C 
ENDROOT
BRANCH   1   2
ATOM      2  O   UNL A   1      42.976  20.681  26.036  1.00  0.00    -0.458 OA
BRANCH   2   3
ATOM      3  C   UNL A   1      42.136  21.151  26.996  1.00  0.00     0.342 C 
ATOM      4  O   UNL A   1      42.462  21.590  28.088  1.00  0.00    -0.246 OA
BRANCH   3   5
ATOM      5  C   UNL A   1      40.738  21.186  26.496  1.00  0.00     0.101 A 
ATOM      6  C   UNL A   1      38.106  21.470  25.514  1.00  0.00     0.042 A 
ATOM      7  C   UNL A   1      38.769  22.557  26.084  1.00  0.00     0.027 A 
ATOM      8  C   UNL A   1      38.769  20.237  25.452  1.00  0.00     0.073 A 
ATOM      9  C   UNL A   1      40.052  22.405  26.613  1.00  0.00     0.022 A 
ATOM     10  C   UNL A   1      40.081  20.100  25.911  1.00  0.00     0.132 A 
BRANCH   6  11
ATOM     11  N   UNL A   1      36.809  21.585  25.001  1.00  0.00    -0.361 N 
ATOM     12  H   UNL A   1      36.737  21.643  24.021  1.00  0.00     0.166 HD
BRANCH  11  13
ATOM     13  C   UNL A   1      35.622  21.627  25.696  1.00  0.00     0.097 C 
ATOM     14  C   UNL A   1      33.374  21.831  27.619  1.00  0.00     0.047 C 
ATOM     15  C   UNL A   1      33.253  22.251  26.172  1.00  0.00    -0.013 C 
ATOM     16  C   UNL A   1      32.113  22.771  25.676  1.00  0.00     0.121 C 
ATOM     17  C   UNL A   1      34.433  22.134  25.303  1.00  0.00     0.060 C 
ATOM     18  C   UNL A   1      31.977  23.153  24.245  1.00  0.00     0.271 C 
ATOM     19  C   UNL A   1      34.350  22.625  23.875  1.00  0.00     0.262 C 
ATOM     20  O   UNL A   1      30.910  23.597  23.826  1.00  0.00    -0.268 OA
ATOM     21  N   UNL A   1      33.091  23.001  23.438  1.00  0.00    -0.277 N 
ATOM     22  O   UNL A   1      35.349  22.688  23.155  1.00  0.00    -0.269 OA
ATOM     23  C   UNL A   1      32.931  23.367  22.040  1.00  0.00     0.157 C 
BRANCH  16  24
ATOM     24  C   UNL A   1      30.894  23.074  26.531  1.00  0.00     0.105 C 
ATOM     25  N   UNL A   1      29.883  23.326  27.243  1.00  0.00    -0.192 NA
ENDBRANCH  16  24
ENDBRANCH  11  13
ENDBRANCH   6  11
BRANCH  10  26
ATOM     26  O   UNL A   1      40.645  18.863  25.753  1.00  0.00    -0.507 OA
ATOM     27  H   UNL A   1      40.167  18.096  25.998  1.00  0.00     0.293 HD
ENDBRANCH  10  26
ENDBRANCH   3   5
ENDBRANCH   2   3
ENDBRANCH   1   2
BRANCH   1  28
ATOM     28  C   UNL A   1      44.003  22.209  24.430  1.00  0.00     0.275 C 
BRANCH  28  29
ATOM     29  O   UNL A   1      43.366  23.483  24.635  1.00  0.00    -0.458 OA
BRANCH  29  30
ATOM     30  C   UNL A   1      44.170  24.498  25.020  1.00  0.00     0.338 C 
ATOM     31  O   UNL A   1      45.300  24.744  24.627  1.00  0.00    -0.246 OA
BRANCH  30  32
ATOM     32  C   UNL A   1      43.464  25.327  26.010  1.00  0.00     0.060 A 
ATOM     33  C   UNL A   1      43.743  26.690  26.073  1.00  0.00     0.016 A 
ATOM     34  C   UNL A   1      42.614  24.745  26.947  1.00  0.00     0.016 A 
ATOM     35  C   UNL A   1      43.227  27.469  27.108  1.00  0.00     0.010 A 
ATOM     36  C   UNL A   1      42.036  25.541  27.944  1.00  0.00     0.010 A 
ATOM     37  C   UNL A   1      42.364  26.906  28.059  1.00  0.00    -0.014 A 
BRANCH  37  38
ATOM     38  C   UNL A   1      41.873  27.729  29.201  1.00  0.00     0.031 A 
ATOM     39  C   UNL A   1      42.634  27.753  30.503  1.00  0.00     0.074 A 
ATOM     40  C   UNL A   1      40.769  28.494  29.075  1.00  0.00     0.049 A 
ATOM     41  N   UNL A   1      42.315  28.317  31.640  1.00  0.00    -0.248 NA
ATOM     42  C   UNL A   1      43.920  27.038  30.531  1.00  0.00     0.031 C 
ATOM     43  C   UNL A   1      39.945  28.601  27.871  1.00  0.00     0.029 A 
ATOM     44  N   UNL A   1      40.161  29.340  29.970  1.00  0.00    -0.354 N 
ATOM     45  C   UNL A   1      43.326  27.977  32.532  1.00  0.00     0.074 A 
ATOM     46  C   UNL A   1      44.270  27.157  31.804  1.00  0.00     0.031 C 
ATOM     47  C   UNL A   1      38.968  29.498  28.086  1.00  0.00     0.029 A 
ATOM     48  C   UNL A   1      39.053  29.976  29.462  1.00  0.00     0.049 A 
ATOM     49  H   UNL A   1      40.487  29.479  30.888  1.00  0.00     0.167 HD
ATOM     50  C   UNL A   1      43.458  28.315  33.838  1.00  0.00     0.037 A 
ATOM     51  C   UNL A   1      38.185  30.829  30.042  1.00  0.00     0.037 A 
ATOM     52  C   UNL A   1      42.558  29.181  34.554  1.00  0.00     0.049 A 
ATOM     53  C   UNL A   1      38.359  31.198  31.487  1.00  0.00     0.074 A 
ATOM     54  C   UNL A   1      42.626  29.593  35.875  1.00  0.00     0.029 A 
ATOM     55  N   UNL A   1      41.439  29.787  34.006  1.00  0.00    -0.354 N 
ATOM     56  N   UNL A   1      39.292  30.825  32.329  1.00  0.00    -0.248 NA
ATOM     57  C   UNL A   1      37.348  32.094  32.067  1.00  0.00     0.031 C 
ATOM     58  C   UNL A   1      41.534  30.430  36.132  1.00  0.00     0.029 A 
ATOM     59  C   UNL A   1      40.805  30.565  34.961  1.00  0.00     0.049 A 
ATOM     60  H   UNL A   1      41.138  29.679  33.074  1.00  0.00     0.167 HD
ATOM     61  C   UNL A   1      38.982  31.441  33.535  1.00  0.00     0.074 A 
ATOM     62  C   UNL A   1      37.792  32.234  33.309  1.00  0.00     0.031 C 
ATOM     63  C   UNL A   1      39.620  31.346  34.726  1.00  0.00     0.037 A 
BRANCH  50  64
ATOM     64  C   UNL A   1      44.611  27.720  34.590  1.00  0.00     0.057 A 
ATOM     65  C   UNL A   1      45.876  28.319  34.612  1.00  0.00     0.134 A 
ATOM     66  C   UNL A   1      44.439  26.542  35.330  1.00  0.00     0.134 A 
ATOM     67  F   UNL A   1      46.110  29.438  33.909  1.00  0.00    -0.206 F 
ATOM     68  C   UNL A   1      46.936  27.756  35.327  1.00  0.00     0.040 A 
ATOM     69  C   UNL A   1      45.485  25.983  36.066  1.00  0.00     0.040 A 
ATOM     70  F   UNL A   1      43.250  25.921  35.354  1.00  0.00    -0.206 F 
ATOM     71  C   UNL A   1      46.739  26.588  36.061  1.00  0.00     0.006 A 
ENDBRANCH  50  64
BRANCH  51  72
ATOM     72  C   UNL A   1      37.051  31.376  29.256  1.00  0.00     0.057 A 
ATOM     73  C   UNL A   1      37.085  32.681  28.752  1.00  0.00     0.134 A 
ATOM     74  C   UNL A   1      35.907  30.612  28.997  1.00  0.00     0.134 A 
ATOM     75  F   UNL A   1      38.144  33.470  28.990  1.00  0.00    -0.206 F 
ATOM     76  C   UNL A   1      36.019  33.210  28.023  1.00  0.00     0.040 A 
ATOM     77  C   UNL A   1      34.844  31.119  28.250  1.00  0.00     0.040 A 
ATOM     78  F   UNL A   1      35.815  29.355  29.456  1.00  0.00    -0.206 F 
ATOM     79  C   UNL A   1      34.897  32.424  27.764  1.00  0.00     0.006 A 
ENDBRANCH  51  72
BRANCH  63  80
ATOM     80  C   UNL A   1      39.050  32.133  35.867  1.00  0.00     0.057 A 
ATOM     81  C   UNL A   1      39.385  33.477  36.074  1.00  0.00     0.134 A 
ATOM     82  C   UNL A   1      38.149  31.544  36.764  1.00  0.00     0.134 A 
ATOM     83  F   UNL A   1      40.253  34.094  35.258  1.00  0.00    -0.206 F 
ATOM     84  C   UNL A   1      38.863  34.202  37.147  1.00  0.00     0.040 A 
ATOM     85  C   UNL A   1      37.605  32.264  37.828  1.00  0.00     0.040 A 
ATOM     86  F   UNL A   1      37.784  30.261  36.618  1.00  0.00    -0.206 F 
ATOM     87  C   UNL A   1      37.967  33.595  38.025  1.00  0.00     0.006 A 
ENDBRANCH  63  80
ENDBRANCH  37  38
ENDBRANCH  30  32
ENDBRANCH  29  30
ENDBRANCH  28  29
ENDBRANCH   1  28
TORSDOF 15
ENDMDL
MODEL 3
REMARK VINA RESULT:     -11.7      4.645      9.973
REMARK SMILES CC1=C(C#N)C(=O)N(C)C(=O)/C1=C\Nc1ccc(C(=O)OCCOC(=O)c2ccc(-c3c4nc(c(-c5c(F)cccc5F)c5ccc([nH]5)c(-c5c(F)cccc5F)c5nc(c(-c6c(F)cccc6F)c6ccc3[nH]6)C=C5)C=C4)cc2)c(O)c1
REMARK SMILES IDX 22 1 21 2 19 3 20 4 18 5 15 6 16 7 83 8 17 9 81 10 14 11
REMARK SMILES IDX 13 13 1 14 2 15 3 16 12 17 6 18 10 19 7 20 8 21 11 22 9 23
REMARK SMILES IDX 4 24 5 25 82 26 23 28 24 29 25 30 26 31 27 32 28 33 80 34
REMARK SMILES IDX 29 35 79 36 30 37 31 38 32 39 73 40 33 41 78 42 72 43 74 44
REMARK SMILES IDX 34 45 77 46 71 47 70 48 35 50 61 51 44 52 60 53 45 54 48 55
REMARK SMILES IDX 59 56 75 57 46 58 47 59 58 61 76 62 49 63 36 64 37 65 42 66
REMARK SMILES IDX 38 67 39 68 41 69 43 70 40 71 62 72 63 73 68 74 64 75 65 76
REMARK SMILES IDX 67 77 69 78 66 79 50 80 51 81 56 82 52 83 53 84 55 85 57 86
REMARK SMILES IDX 54 87
REMARK H PARENT 14 12 82 27 74 49 48 60
REMARK Flexibility Score: inf
ROOT
ATOM      1  C   UNL A   1      34.115  34.367  30.519  1.00  0.00     0.275 C 
ENDROOT
BRANCH   1   2
ATOM      2  O   UNL A   1      34.888  33.615  29.558  1.00  0.00    -0.458 OA
BRANCH   2   3
ATOM      3  C   UNL A   1      34.515  33.758  28.258  1.00  0.00     0.342 C 
ATOM      4  O   UNL A   1      34.748  34.719  27.543  1.00  0.00    -0.246 OA
BRANCH   3   5
ATOM      5  C   UNL A   1      33.877  32.514  27.758  1.00  0.00     0.101 A 
ATOM      6  C   UNL A   1      32.796  30.036  26.943  1.00  0.00     0.042 A 
ATOM      7  C   UNL A   1      34.083  30.104  27.478  1.00  0.00     0.027 A 
ATOM      8  C   UNL A   1      32.061  31.221  26.808  1.00  0.00     0.073 A 
ATOM      9  C   UNL A   1      34.635  31.336  27.836  1.00  0.00     0.022 A 
ATOM     10  C   UNL A   1      32.582  32.445  27.238  1.00  0.00     0.132 A 
BRANCH   6  11
ATOM     11  N   UNL A   1      32.226  28.820  26.549  1.00  0.00    -0.361 N 
ATOM     12  H   UNL A   1      31.988  28.201  27.276  1.00  0.00     0.166 HD
BRANCH  11  13
ATOM     13  C   UNL A   1      31.956  28.383  25.273  1.00  0.00     0.097 C 
ATOM     14  C   UNL A   1      31.314  27.966  22.408  1.00  0.00     0.047 C 
ATOM     15  C   UNL A   1      32.281  27.085  23.166  1.00  0.00    -0.013 C 
ATOM     16  C   UNL A   1      32.932  26.067  22.569  1.00  0.00     0.121 C 
ATOM     17  C   UNL A   1      32.553  27.390  24.578  1.00  0.00     0.060 C 
ATOM     18  C   UNL A   1      33.858  25.177  23.319  1.00  0.00     0.271 C 
ATOM     19  C   UNL A   1      33.578  26.568  25.326  1.00  0.00     0.262 C 
ATOM     20  O   UNL A   1      34.410  24.240  22.743  1.00  0.00    -0.268 OA
ATOM     21  N   UNL A   1      34.071  25.461  24.656  1.00  0.00    -0.277 N 
ATOM     22  O   UNL A   1      33.950  26.877  26.460  1.00  0.00    -0.269 OA
ATOM     23  C   UNL A   1      34.969  24.569  25.372  1.00  0.00     0.157 C 
BRANCH  16  24
ATOM     24  C   UNL A   1      32.836  25.774  21.081  1.00  0.00     0.105 C 
ATOM     25  N   UNL A   1      32.755  25.532  19.846  1.00  0.00    -0.192 NA
ENDBRANCH  16  24
ENDBRANCH  11  13
ENDBRANCH   6  11
BRANCH  10  26
ATOM     26  O   UNL A   1      31.755  33.527  27.104  1.00  0.00    -0.507 OA
ATOM     27  H   UNL A   1      32.107  34.356  26.846  1.00  0.00     0.293 HD
ENDBRANCH  10  26
ENDBRANCH   3   5
ENDBRANCH   2   3
ENDBRANCH   1   2
BRANCH   1  28
ATOM     28  C   UNL A   1      34.212  33.724  31.904  1.00  0.00     0.275 C 
BRANCH  28  29
ATOM     29  O   UNL A   1      34.789  32.411  31.779  1.00  0.00    -0.458 OA
BRANCH  29  30
ATOM     30  C   UNL A   1      35.805  32.123  32.621  1.00  0.00     0.338 C 
ATOM     31  O   UNL A   1      35.867  32.347  33.820  1.00  0.00    -0.246 OA
BRANCH  30  32
ATOM     32  C   UNL A   1      36.878  31.447  31.873  1.00  0.00     0.060 A 
ATOM     33  C   UNL A   1      37.836  30.719  32.572  1.00  0.00     0.016 A 
ATOM     34  C   UNL A   1      37.003  31.625  30.496  1.00  0.00     0.016 A 
ATOM     35  C   UNL A   1      38.959  30.217  31.916  1.00  0.00     0.010 A 
ATOM     36  C   UNL A   1      38.092  31.056  29.824  1.00  0.00     0.010 A 
ATOM     37  C   UNL A   1      39.103  30.376  30.530  1.00  0.00    -0.014 A 
BRANCH  37  38
ATOM     38  C   UNL A   1      40.339  29.897  29.848  1.00  0.00     0.031 A 
ATOM     39  C   UNL A   1      41.525  30.815  29.691  1.00  0.00     0.074 A 
ATOM     40  C   UNL A   1      40.431  28.628  29.401  1.00  0.00     0.049 A 
ATOM     41  N   UNL A   1      42.644  30.621  29.039  1.00  0.00    -0.248 NA
ATOM     42  C   UNL A   1      41.435  32.130  30.346  1.00  0.00     0.031 C 
ATOM     43  C   UNL A   1      39.383  27.613  29.508  1.00  0.00     0.029 A 
ATOM     44  N   UNL A   1      41.466  27.971  28.780  1.00  0.00    -0.354 N 
ATOM     45  C   UNL A   1      43.363  31.806  29.153  1.00  0.00     0.074 A 
ATOM     46  C   UNL A   1      42.554  32.713  29.940  1.00  0.00     0.031 C 
ATOM     47  C   UNL A   1      39.843  26.452  29.015  1.00  0.00     0.029 A 
ATOM     48  C   UNL A   1      41.191  26.655  28.493  1.00  0.00     0.049 A 
ATOM     49  H   UNL A   1      42.323  28.402  28.560  1.00  0.00     0.167 HD
ATOM     50  C   UNL A   1      44.584  32.111  28.652  1.00  0.00     0.037 A 
ATOM     51  C   UNL A   1      41.927  25.721  27.859  1.00  0.00     0.037 A 
ATOM     52  C   UNL A   1      45.423  31.196  27.923  1.00  0.00     0.049 A 
ATOM     53  C   UNL A   1      43.283  26.081  27.323  1.00  0.00     0.074 A 
ATOM     54  C   UNL A   1      46.684  31.416  27.395  1.00  0.00     0.029 A 
ATOM     55  N   UNL A   1      45.096  29.880  27.639  1.00  0.00    -0.354 N 
ATOM     56  N   UNL A   1      43.925  27.221  27.396  1.00  0.00    -0.248 NA
ATOM     57  C   UNL A   1      44.009  25.027  26.600  1.00  0.00     0.031 C 
ATOM     58  C   UNL A   1      47.111  30.238  26.770  1.00  0.00     0.029 A 
ATOM     59  C   UNL A   1      46.128  29.276  26.939  1.00  0.00     0.049 A 
ATOM     60  H   UNL A   1      44.254  29.439  27.896  1.00  0.00     0.167 HD
ATOM     61  C   UNL A   1      45.128  27.021  26.731  1.00  0.00     0.074 A 
ATOM     62  C   UNL A   1      45.140  25.643  26.287  1.00  0.00     0.031 C 
ATOM     63  C   UNL A   1      46.127  27.906  26.500  1.00  0.00     0.037 A 
BRANCH  50  64
ATOM     64  C   UNL A   1      45.079  33.514  28.851  1.00  0.00     0.057 A 
ATOM     65  C   UNL A   1      44.788  34.542  27.946  1.00  0.00     0.134 A 
ATOM     66  C   UNL A   1      45.832  33.842  29.986  1.00  0.00     0.134 A 
ATOM     67  F   UNL A   1      44.087  34.288  26.831  1.00  0.00    -0.206 F 
ATOM     68  C   UNL A   1      45.248  35.845  28.154  1.00  0.00     0.040 A 
ATOM     69  C   UNL A   1      46.277  35.145  30.215  1.00  0.00     0.040 A 
ATOM     70  F   UNL A   1      46.140  32.904  30.894  1.00  0.00    -0.206 F 
ATOM     71  C   UNL A   1      45.990  36.149  29.294  1.00  0.00     0.006 A 
ENDBRANCH  50  64
BRANCH  51  72
ATOM     72  C   UNL A   1      41.383  24.353  27.674  1.00  0.00     0.057 A 
ATOM     73  C   UNL A   1      41.842  23.282  28.448  1.00  0.00     0.134 A 
ATOM     74  C   UNL A   1      40.397  24.083  26.717  1.00  0.00     0.134 A 
ATOM     75  F   UNL A   1      42.805  23.474  29.363  1.00  0.00    -0.206 F 
ATOM     76  C   UNL A   1      41.347  21.989  28.273  1.00  0.00     0.040 A 
ATOM     77  C   UNL A   1      39.876  22.801  26.548  1.00  0.00     0.040 A 
ATOM     78  F   UNL A   1      39.918  25.068  25.943  1.00  0.00    -0.206 F 
ATOM     79  C   UNL A   1      40.354  21.748  27.325  1.00  0.00     0.006 A 
ENDBRANCH  51  72
BRANCH  63  80
ATOM     80  C   UNL A   1      47.321  27.402  25.745  1.00  0.00     0.057 A 
ATOM     81  C   UNL A   1      48.408  26.809  26.401  1.00  0.00     0.134 A 
ATOM     82  C   UNL A   1      47.380  27.501  24.350  1.00  0.00     0.134 A 
ATOM     83  F   UNL A   1      48.416  26.697  27.737  1.00  0.00    -0.206 F 
ATOM     84  C   UNL A   1      49.523  26.353  25.696  1.00  0.00     0.040 A 
ATOM     85  C   UNL A   1      48.482  27.031  23.632  1.00  0.00     0.040 A 
ATOM     86  F   UNL A   1      46.370  28.055  23.663  1.00  0.00    -0.206 F 
ATOM     87  C   UNL A   1      49.560  26.461  24.307  1.00  0.00     0.006 A 
ENDBRANCH  63  80
ENDBRANCH  37  38
ENDBRANCH  30  32
ENDBRANCH  29  30
ENDBRANCH  28  29
ENDBRANCH   1  28
TORSDOF 15
ENDMDL
