MODEL 1
REMARK VINA RESULT:     -10.7      0.000      0.000
REMARK SMILES C#CC[C@]1(C(=O)OCCOC(=O)c2ccc(-c3c4nc(c(-c5c(F)cccc5F)c5ccc([nH]5)c(-c5c(F)cccc5F)c5nc(c(-c6c(F)cccc6F)c6ccc3[nH]6)C=C5)C=C4)cc2)CCCN(C(=O)OC(C)(C)C)C1
REMARK SMILES IDX 8 1 7 2 5 3 6 4 4 5 67 6 78 7 68 8 70 9 69 10 3 11 2 12 1 13
REMARK SMILES IDX 71 14 72 15 73 16 74 17 75 18 76 19 77 20 9 21 10 22 11 23
REMARK SMILES IDX 12 24 13 25 14 26 66 27 15 28 65 29 16 30 17 31 18 32 59 33
REMARK SMILES IDX 19 34 64 35 58 36 60 37 20 38 63 39 57 40 56 41 21 43 47 44
REMARK SMILES IDX 30 45 46 46 31 47 34 48 45 49 61 50 32 51 33 52 44 54 62 55
REMARK SMILES IDX 35 56 22 57 23 58 28 59 24 60 25 61 27 62 29 63 26 64 48 65
REMARK SMILES IDX 49 66 54 67 50 68 51 69 53 70 55 71 52 72 36 73 37 74 42 75
REMARK SMILES IDX 38 76 39 77 41 78 43 79 40 80
REMARK H PARENT 60 42 34 53
REMARK Flexibility Score: inf
ROOT
ATOM      1  C   UNL A   1      34.691  21.057  25.413  1.00  0.00     0.274 C 
ENDROOT
BRANCH   1   2
ATOM      2  O   UNL A   1      34.625  22.464  25.098  1.00  0.00    -0.462 OA
BRANCH   2   3
ATOM      3  C   UNL A   1      33.680  22.835  24.195  1.00  0.00     0.314 C 
ATOM      4  O   UNL A   1      33.338  22.147  23.240  1.00  0.00    -0.252 OA
BRANCH   3   5
ATOM      5  C   UNL A   1      33.126  24.237  24.442  1.00  0.00     0.097 C 
ATOM      6  C   UNL A   1      33.748  24.939  25.681  1.00  0.00     0.023 C 
ATOM      7  C   UNL A   1      33.562  25.039  23.188  1.00  0.00     0.142 C 
ATOM      8  C   UNL A   1      33.404  26.432  25.755  1.00  0.00     0.023 C 
ATOM      9  N   UNL A   1      33.208  26.451  23.317  1.00  0.00    -0.307 N 
ATOM     10  C   UNL A   1      33.782  27.148  24.461  1.00  0.00     0.123 C 
BRANCH   5  11
ATOM     11  C   UNL A   1      31.572  24.143  24.470  1.00  0.00     0.110 C 
BRANCH  11  12
ATOM     12  C   UNL A   1      30.980  23.502  25.715  1.00  0.00    -0.105 C 
ATOM     13  C   UNL A   1      30.473  22.953  26.783  1.00  0.00     0.004 C 
ENDBRANCH  11  12
ENDBRANCH   5  11
BRANCH   9  14
ATOM     14  C   UNL A   1      32.259  26.994  22.465  1.00  0.00     0.410 C 
ATOM     15  O   UNL A   1      31.710  26.353  21.584  1.00  0.00    -0.224 OA
BRANCH  14  16
ATOM     16  O   UNL A   1      31.987  28.293  22.754  1.00  0.00    -0.444 OA
BRANCH  16  17
ATOM     17  C   UNL A   1      30.757  28.652  23.435  1.00  0.00     0.106 C 
ATOM     18  C   UNL A   1      29.978  27.408  23.882  1.00  0.00     0.056 C 
ATOM     19  C   UNL A   1      31.027  29.611  24.601  1.00  0.00     0.056 C 
ATOM     20  C   UNL A   1      29.927  29.393  22.377  1.00  0.00     0.056 C 
ENDBRANCH  16  17
ENDBRANCH  14  16
ENDBRANCH   9  14
ENDBRANCH   3   5
ENDBRANCH   2   3
ENDBRANCH   1   2
BRANCH   1  21
ATOM     21  C   UNL A   1      36.045  20.491  25.001  1.00  0.00     0.275 C 
BRANCH  21  22
ATOM     22  O   UNL A   1      37.034  21.534  25.051  1.00  0.00    -0.458 OA
BRANCH  22  23
ATOM     23  C   UNL A   1      38.248  21.168  25.521  1.00  0.00     0.338 C 
ATOM     24  O   UNL A   1      38.804  20.092  25.374  1.00  0.00    -0.246 OA
BRANCH  23  25
ATOM     25  C   UNL A   1      38.869  22.288  26.255  1.00  0.00     0.060 A 
ATOM     26  C   UNL A   1      38.400  23.588  26.086  1.00  0.00     0.016 A 
ATOM     27  C   UNL A   1      40.035  22.061  26.982  1.00  0.00     0.016 A 
ATOM     28  C   UNL A   1      39.178  24.668  26.505  1.00  0.00     0.010 A 
ATOM     29  C   UNL A   1      40.732  23.144  27.528  1.00  0.00     0.010 A 
ATOM     30  C   UNL A   1      40.345  24.469  27.256  1.00  0.00    -0.014 A 
BRANCH  30  31
ATOM     31  C   UNL A   1      41.182  25.607  27.746  1.00  0.00     0.031 A 
ATOM     32  C   UNL A   1      40.565  26.681  28.609  1.00  0.00     0.074 A 
ATOM     33  C   UNL A   1      42.480  25.727  27.399  1.00  0.00     0.049 A 
ATOM     34  N   UNL A   1      40.963  27.911  28.823  1.00  0.00    -0.248 NA
ATOM     35  C   UNL A   1      39.318  26.330  29.307  1.00  0.00     0.031 C 
ATOM     36  C   UNL A   1      43.264  24.747  26.645  1.00  0.00     0.029 A 
ATOM     37  N   UNL A   1      43.370  26.753  27.623  1.00  0.00    -0.354 N 
ATOM     38  C   UNL A   1      39.975  28.501  29.602  1.00  0.00     0.074 A 
ATOM     39  C   UNL A   1      38.967  27.490  29.844  1.00  0.00     0.031 C 
ATOM     40  C   UNL A   1      44.514  25.202  26.491  1.00  0.00     0.029 A 
ATOM     41  C   UNL A   1      44.587  26.559  27.016  1.00  0.00     0.049 A 
ATOM     42  H   UNL A   1      43.155  27.546  28.165  1.00  0.00     0.167 HD
ATOM     43  C   UNL A   1      39.910  29.776  30.058  1.00  0.00     0.037 A 
ATOM     44  C   UNL A   1      45.622  27.397  26.819  1.00  0.00     0.037 A 
ATOM     45  C   UNL A   1      40.954  30.752  29.877  1.00  0.00     0.049 A 
ATOM     46  C   UNL A   1      45.519  28.817  27.290  1.00  0.00     0.074 A 
ATOM     47  C   UNL A   1      40.989  32.070  30.299  1.00  0.00     0.029 A 
ATOM     48  N   UNL A   1      42.162  30.504  29.243  1.00  0.00    -0.354 N 
ATOM     49  N   UNL A   1      44.532  29.408  27.918  1.00  0.00    -0.248 NA
ATOM     50  C   UNL A   1      46.661  29.694  26.998  1.00  0.00     0.031 C 
ATOM     51  C   UNL A   1      42.209  32.627  29.898  1.00  0.00     0.029 A 
ATOM     52  C   UNL A   1      42.948  31.644  29.262  1.00  0.00     0.049 A 
ATOM     53  H   UNL A   1      42.421  29.645  28.839  1.00  0.00     0.167 HD
ATOM     54  C   UNL A   1      44.940  30.720  28.114  1.00  0.00     0.074 A 
ATOM     55  C   UNL A   1      46.268  30.836  27.545  1.00  0.00     0.031 C 
ATOM     56  C   UNL A   1      44.274  31.737  28.709  1.00  0.00     0.037 A 
BRANCH  43  57
ATOM     57  C   UNL A   1      38.655  30.211  30.759  1.00  0.00     0.057 A 
ATOM     58  C   UNL A   1      37.568  30.769  30.079  1.00  0.00     0.134 A 
ATOM     59  C   UNL A   1      38.517  30.014  32.142  1.00  0.00     0.134 A 
ATOM     60  F   UNL A   1      37.636  30.996  28.758  1.00  0.00    -0.206 F 
ATOM     61  C   UNL A   1      36.397  31.135  30.747  1.00  0.00     0.040 A 
ATOM     62  C   UNL A   1      37.343  30.352  32.817  1.00  0.00     0.040 A 
ATOM     63  F   UNL A   1      39.516  29.476  32.856  1.00  0.00    -0.206 F 
ATOM     64  C   UNL A   1      36.280  30.919  32.119  1.00  0.00     0.006 A 
ENDBRANCH  43  57
BRANCH  44  65
ATOM     65  C   UNL A   1      46.816  26.925  26.072  1.00  0.00     0.057 A 
ATOM     66  C   UNL A   1      47.833  26.212  26.714  1.00  0.00     0.134 A 
ATOM     67  C   UNL A   1      46.954  27.152  24.696  1.00  0.00     0.134 A 
ATOM     68  F   UNL A   1      47.768  25.986  28.034  1.00  0.00    -0.206 F 
ATOM     69  C   UNL A   1      48.945  25.739  26.016  1.00  0.00     0.040 A 
ATOM     70  C   UNL A   1      48.045  26.660  23.980  1.00  0.00     0.040 A 
ATOM     71  F   UNL A   1      46.011  27.828  24.022  1.00  0.00    -0.206 F 
ATOM     72  C   UNL A   1      49.047  25.954  24.642  1.00  0.00     0.006 A 
ENDBRANCH  44  65
BRANCH  56  73
ATOM     73  C   UNL A   1      44.993  33.046  28.830  1.00  0.00     0.057 A 
ATOM     74  C   UNL A   1      44.878  34.046  27.858  1.00  0.00     0.134 A 
ATOM     75  C   UNL A   1      45.782  33.317  29.954  1.00  0.00     0.134 A 
ATOM     76  F   UNL A   1      44.148  33.838  26.751  1.00  0.00    -0.206 F 
ATOM     77  C   UNL A   1      45.540  35.267  27.990  1.00  0.00     0.040 A 
ATOM     78  C   UNL A   1      46.432  34.542  30.108  1.00  0.00     0.040 A 
ATOM     79  F   UNL A   1      45.927  32.401  30.923  1.00  0.00    -0.206 F 
ATOM     80  C   UNL A   1      46.315  35.520  29.122  1.00  0.00     0.006 A 
ENDBRANCH  56  73
ENDBRANCH  30  31
ENDBRANCH  23  25
ENDBRANCH  22  23
ENDBRANCH  21  22
ENDBRANCH   1  21
TORSDOF 16
ENDMDL
MODEL 2
REMARK VINA RESULT:     -10.5      3.611      8.646
REMARK SMILES C#CC[C@]1(C(=O)OCCOC(=O)c2ccc(-c3c4nc(c(-c5c(F)cccc5F)c5ccc([nH]5)c(-c5c(F)cccc5F)c5nc(c(-c6c(F)cccc6F)c6ccc3[nH]6)C=C5)C=C4)cc2)CCCN(C(=O)OC(C)(C)C)C1
REMARK SMILES IDX 8 1 7 2 5 3 6 4 4 5 67 6 78 7 68 8 70 9 69 10 3 11 2 12 1 13
REMARK SMILES IDX 71 14 72 15 73 16 74 17 75 18 76 19 77 20 9 21 10 22 11 23
REMARK SMILES IDX 12 24 13 25 14 26 66 27 15 28 65 29 16 30 17 31 18 32 59 33
REMARK SMILES IDX 19 34 64 35 58 36 60 37 20 38 63 39 57 40 56 41 21 43 47 44
REMARK SMILES IDX 30 45 46 46 31 47 34 48 45 49 61 50 32 51 33 52 44 54 62 55
REMARK SMILES IDX 35 56 22 57 23 58 28 59 24 60 25 61 27 62 29 63 26 64 48 65
REMARK SMILES IDX 49 66 54 67 50 68 51 69 53 70 55 71 52 72 36 73 37 74 42 75
REMARK SMILES IDX 38 76 39 77 41 78 43 79 40 80
REMARK H PARENT 60 42 34 53
REMARK Flexibility Score: inf
ROOT
ATOM      1  C   UNL A   1      32.300  27.807  24.048  1.00  0.00     0.274 C 
ENDROOT
BRANCH   1   2
ATOM      2  O   UNL A   1      33.464  27.001  24.325  1.00  0.00    -0.462 OA
BRANCH   2   3
ATOM      3  C   UNL A   1      33.675  25.942  23.499  1.00  0.00     0.314 C 
ATOM      4  O   UNL A   1      33.781  26.035  22.282  1.00  0.00    -0.252 OA
BRANCH   3   5
ATOM      5  C   UNL A   1      33.699  24.601  24.230  1.00  0.00     0.097 C 
ATOM      6  C   UNL A   1      33.772  24.740  25.776  1.00  0.00     0.023 C 
ATOM      7  C   UNL A   1      32.328  23.962  23.887  1.00  0.00     0.142 C 
ATOM      8  C   UNL A   1      33.509  23.416  26.506  1.00  0.00     0.023 C 
ATOM      9  N   UNL A   1      32.136  22.708  24.611  1.00  0.00    -0.307 N 
ATOM     10  C   UNL A   1      32.185  22.798  26.064  1.00  0.00     0.123 C 
BRANCH   5  11
ATOM     11  C   UNL A   1      34.834  23.734  23.609  1.00  0.00     0.110 C 
BRANCH  11  12
ATOM     12  C   UNL A   1      36.076  23.572  24.470  1.00  0.00    -0.105 C 
ATOM     13  C   UNL A   1      37.141  23.433  25.207  1.00  0.00     0.004 C 
ENDBRANCH  11  12
ENDBRANCH   5  11
BRANCH   9  14
ATOM     14  C   UNL A   1      32.072  21.518  23.902  1.00  0.00     0.410 C 
ATOM     15  O   UNL A   1      32.146  21.462  22.685  1.00  0.00    -0.224 OA
BRANCH  14  16
ATOM     16  O   UNL A   1      31.964  20.436  24.715  1.00  0.00    -0.444 OA
BRANCH  16  17
ATOM     17  C   UNL A   1      32.971  19.392  24.687  1.00  0.00     0.106 C 
ATOM     18  C   UNL A   1      32.758  18.437  23.506  1.00  0.00     0.056 C 
ATOM     19  C   UNL A   1      34.386  19.984  24.701  1.00  0.00     0.056 C 
ATOM     20  C   UNL A   1      32.757  18.609  25.992  1.00  0.00     0.056 C 
ENDBRANCH  16  17
ENDBRANCH  14  16
ENDBRANCH   9  14
ENDBRANCH   3   5
ENDBRANCH   2   3
ENDBRANCH   1   2
BRANCH   1  21
ATOM     21  C   UNL A   1      31.998  28.716  25.234  1.00  0.00     0.275 C 
BRANCH  21  22
ATOM     22  O   UNL A   1      33.127  29.573  25.478  1.00  0.00    -0.458 OA
BRANCH  22  23
ATOM     23  C   UNL A   1      32.939  30.541  26.405  1.00  0.00     0.338 C 
ATOM     24  O   UNL A   1      31.989  31.300  26.498  1.00  0.00    -0.246 OA
BRANCH  23  25
ATOM     25  C   UNL A   1      34.067  30.560  27.356  1.00  0.00     0.060 A 
ATOM     26  C   UNL A   1      34.739  31.748  27.631  1.00  0.00     0.016 A 
ATOM     27  C   UNL A   1      34.565  29.354  27.845  1.00  0.00     0.016 A 
ATOM     28  C   UNL A   1      35.988  31.713  28.254  1.00  0.00     0.010 A 
ATOM     29  C   UNL A   1      35.743  29.346  28.598  1.00  0.00     0.010 A 
ATOM     30  C   UNL A   1      36.503  30.517  28.772  1.00  0.00    -0.014 A 
BRANCH  30  31
ATOM     31  C   UNL A   1      37.822  30.453  29.473  1.00  0.00     0.031 A 
ATOM     32  C   UNL A   1      38.967  29.684  28.857  1.00  0.00     0.074 A 
ATOM     33  C   UNL A   1      38.010  31.034  30.676  1.00  0.00     0.049 A 
ATOM     34  N   UNL A   1      40.032  29.177  29.426  1.00  0.00    -0.248 NA
ATOM     35  C   UNL A   1      38.888  29.432  27.410  1.00  0.00     0.031 C 
ATOM     36  C   UNL A   1      37.050  31.884  31.381  1.00  0.00     0.029 A 
ATOM     37  N   UNL A   1      39.083  30.972  31.536  1.00  0.00    -0.354 N 
ATOM     38  C   UNL A   1      40.700  28.476  28.428  1.00  0.00     0.074 A 
ATOM     39  C   UNL A   1      39.932  28.639  27.212  1.00  0.00     0.031 C 
ATOM     40  C   UNL A   1      37.580  32.283  32.545  1.00  0.00     0.029 A 
ATOM     41  C   UNL A   1      38.859  31.613  32.731  1.00  0.00     0.049 A 
ATOM     42  H   UNL A   1      39.927  30.515  31.316  1.00  0.00     0.167 HD
ATOM     43  C   UNL A   1      41.839  27.749  28.526  1.00  0.00     0.037 A 
ATOM     44  C   UNL A   1      39.553  31.602  33.885  1.00  0.00     0.037 A 
ATOM     45  C   UNL A   1      42.637  27.656  29.723  1.00  0.00     0.049 A 
ATOM     46  C   UNL A   1      40.788  30.758  33.993  1.00  0.00     0.074 A 
ATOM     47  C   UNL A   1      43.809  26.948  29.929  1.00  0.00     0.029 A 
ATOM     48  N   UNL A   1      42.356  28.317  30.909  1.00  0.00    -0.354 N 
ATOM     49  N   UNL A   1      41.350  29.998  33.086  1.00  0.00    -0.248 NA
ATOM     50  C   UNL A   1      41.469  30.749  35.295  1.00  0.00     0.031 C 
ATOM     51  C   UNL A   1      44.223  27.161  31.248  1.00  0.00     0.029 A 
ATOM     52  C   UNL A   1      43.332  28.034  31.850  1.00  0.00     0.049 A 
ATOM     53  H   UNL A   1      41.579  28.902  31.060  1.00  0.00     0.167 HD
ATOM     54  C   UNL A   1      42.459  29.434  33.699  1.00  0.00     0.074 A 
ATOM     55  C   UNL A   1      42.496  29.946  35.054  1.00  0.00     0.031 C 
ATOM     56  C   UNL A   1      43.364  28.567  33.187  1.00  0.00     0.037 A 
BRANCH  43  57
ATOM     57  C   UNL A   1      42.276  26.959  27.327  1.00  0.00     0.057 A 
ATOM     58  C   UNL A   1      43.083  27.501  26.321  1.00  0.00     0.134 A 
ATOM     59  C   UNL A   1      41.920  25.607  27.207  1.00  0.00     0.134 A 
ATOM     60  F   UNL A   1      43.451  28.791  26.366  1.00  0.00    -0.206 F 
ATOM     61  C   UNL A   1      43.506  26.735  25.231  1.00  0.00     0.040 A 
ATOM     62  C   UNL A   1      42.356  24.825  26.137  1.00  0.00     0.040 A 
ATOM     63  F   UNL A   1      41.155  25.019  28.140  1.00  0.00    -0.206 F 
ATOM     64  C   UNL A   1      43.148  25.391  25.141  1.00  0.00     0.006 A 
ENDBRANCH  43  57
BRANCH  44  65
ATOM     65  C   UNL A   1      39.042  32.362  35.054  1.00  0.00     0.057 A 
ATOM     66  C   UNL A   1      38.279  31.735  36.044  1.00  0.00     0.134 A 
ATOM     67  C   UNL A   1      39.327  33.723  35.222  1.00  0.00     0.134 A 
ATOM     68  F   UNL A   1      37.953  30.440  35.926  1.00  0.00    -0.206 F 
ATOM     69  C   UNL A   1      37.819  32.433  37.161  1.00  0.00     0.040 A 
ATOM     70  C   UNL A   1      38.898  34.427  36.347  1.00  0.00     0.040 A 
ATOM     71  F   UNL A   1      40.056  34.381  34.307  1.00  0.00    -0.206 F 
ATOM     72  C   UNL A   1      38.138  33.781  37.320  1.00  0.00     0.006 A 
ENDBRANCH  44  65
BRANCH  56  73
ATOM     73  C   UNL A   1      44.504  28.168  34.073  1.00  0.00     0.057 A 
ATOM     74  C   UNL A   1      45.684  28.917  34.142  1.00  0.00     0.134 A 
ATOM     75  C   UNL A   1      44.402  27.036  34.891  1.00  0.00     0.134 A 
ATOM     76  F   UNL A   1      45.848  30.002  33.370  1.00  0.00    -0.206 F 
ATOM     77  C   UNL A   1      46.733  28.544  34.984  1.00  0.00     0.040 A 
ATOM     78  C   UNL A   1      45.435  26.665  35.752  1.00  0.00     0.040 A 
ATOM     79  F   UNL A   1      43.293  26.281  34.873  1.00  0.00    -0.206 F 
ATOM     80  C   UNL A   1      46.606  27.417  35.797  1.00  0.00     0.006 A 
ENDBRANCH  56  73
ENDBRANCH  30  31
ENDBRANCH  23  25
ENDBRANCH  22  23
ENDBRANCH  21  22
ENDBRANCH   1  21
TORSDOF 16
ENDMDL
MODEL 3
REMARK VINA RESULT:     -10.5      0.962      2.331
REMARK SMILES C#CC[C@]1(C(=O)OCCOC(=O)c2ccc(-c3c4nc(c(-c5c(F)cccc5F)c5ccc([nH]5)c(-c5c(F)cccc5F)c5nc(c(-c6c(F)cccc6F)c6ccc3[nH]6)C=C5)C=C4)cc2)CCCN(C(=O)OC(C)(C)C)C1
REMARK SMILES IDX 8 1 7 2 5 3 6 4 4 5 67 6 78 7 68 8 70 9 69 10 3 11 2 12 1 13
REMARK SMILES IDX 71 14 72 15 73 16 74 17 75 18 76 19 77 20 9 21 10 22 11 23
REMARK SMILES IDX 12 24 13 25 14 26 66 27 15 28 65 29 16 30 17 31 18 32 59 33
REMARK SMILES IDX 19 34 64 35 58 36 60 37 20 38 63 39 57 40 56 41 21 43 47 44
REMARK SMILES IDX 30 45 46 46 31 47 34 48 45 49 61 50 32 51 33 52 44 54 62 55
REMARK SMILES IDX 35 56 22 57 23 58 28 59 24 60 25 61 27 62 29 63 26 64 48 65
REMARK SMILES IDX 49 66 54 67 50 68 51 69 53 70 55 71 52 72 36 73 37 74 42 75
REMARK SMILES IDX 38 76 39 77 41 78 43 79 40 80
REMARK H PARENT 60 42 34 53
REMARK Flexibility Score: inf
ROOT
ATOM      1  C   UNL A   1      34.655  21.288  24.887  1.00  0.00     0.274 C 
ENDROOT
BRANCH   1   2
ATOM      2  O   UNL A   1      34.792  22.725  24.892  1.00  0.00    -0.462 OA
BRANCH   2   3
ATOM      3  C   UNL A   1      34.517  23.360  23.723  1.00  0.00     0.314 C 
ATOM      4  O   UNL A   1      35.248  23.329  22.739  1.00  0.00    -0.252 OA
BRANCH   3   5
ATOM      5  C   UNL A   1      33.231  24.184  23.770  1.00  0.00     0.097 C 
ATOM      6  C   UNL A   1      31.978  23.402  23.286  1.00  0.00     0.023 C 
ATOM      7  C   UNL A   1      33.034  24.485  25.278  1.00  0.00     0.142 C 
ATOM      8  C   UNL A   1      30.665  24.128  23.601  1.00  0.00     0.023 C 
ATOM      9  N   UNL A   1      31.769  25.176  25.516  1.00  0.00    -0.307 N 
ATOM     10  C   UNL A   1      30.569  24.470  25.086  1.00  0.00     0.123 C 
BRANCH   5  11
ATOM     11  C   UNL A   1      33.487  25.520  23.012  1.00  0.00     0.110 C 
BRANCH  11  12
ATOM     12  C   UNL A   1      32.946  25.579  21.593  1.00  0.00    -0.105 C 
ATOM     13  C   UNL A   1      32.481  25.630  20.377  1.00  0.00     0.004 C 
ENDBRANCH  11  12
ENDBRANCH   5  11
BRANCH   9  14
ATOM     14  C   UNL A   1      31.785  26.483  25.979  1.00  0.00     0.410 C 
ATOM     15  O   UNL A   1      31.223  26.833  27.003  1.00  0.00    -0.224 OA
BRANCH  14  16
ATOM     16  O   UNL A   1      32.529  27.302  25.191  1.00  0.00    -0.444 OA
BRANCH  16  17
ATOM     17  C   UNL A   1      31.925  28.460  24.559  1.00  0.00     0.106 C 
ATOM     18  C   UNL A   1      30.593  28.103  23.887  1.00  0.00     0.056 C 
ATOM     19  C   UNL A   1      31.776  29.620  25.551  1.00  0.00     0.056 C 
ATOM     20  C   UNL A   1      32.925  28.875  23.470  1.00  0.00     0.056 C 
ENDBRANCH  16  17
ENDBRANCH  14  16
ENDBRANCH   9  14
ENDBRANCH   3   5
ENDBRANCH   2   3
ENDBRANCH   1   2
BRANCH   1  21
ATOM     21  C   UNL A   1      36.026  20.631  24.996  1.00  0.00     0.275 C 
BRANCH  21  22
ATOM     22  O   UNL A   1      37.042  21.648  25.027  1.00  0.00    -0.458 OA
BRANCH  22  23
ATOM     23  C   UNL A   1      38.241  21.264  25.523  1.00  0.00     0.338 C 
ATOM     24  O   UNL A   1      38.783  20.180  25.387  1.00  0.00    -0.246 OA
BRANCH  23  25
ATOM     25  C   UNL A   1      38.863  22.375  26.269  1.00  0.00     0.060 A 
ATOM     26  C   UNL A   1      38.404  23.679  26.106  1.00  0.00     0.016 A 
ATOM     27  C   UNL A   1      40.021  22.135  27.005  1.00  0.00     0.016 A 
ATOM     28  C   UNL A   1      39.187  24.751  26.539  1.00  0.00     0.010 A 
ATOM     29  C   UNL A   1      40.721  23.209  27.564  1.00  0.00     0.010 A 
ATOM     30  C   UNL A   1      40.346  24.539  27.298  1.00  0.00    -0.014 A 
BRANCH  30  31
ATOM     31  C   UNL A   1      41.187  25.667  27.803  1.00  0.00     0.031 A 
ATOM     32  C   UNL A   1      40.573  26.731  28.681  1.00  0.00     0.074 A 
ATOM     33  C   UNL A   1      42.485  25.788  27.457  1.00  0.00     0.049 A 
ATOM     34  N   UNL A   1      40.975  27.956  28.911  1.00  0.00    -0.248 NA
ATOM     35  C   UNL A   1      39.326  26.374  29.375  1.00  0.00     0.031 C 
ATOM     36  C   UNL A   1      43.265  24.816  26.689  1.00  0.00     0.029 A 
ATOM     37  N   UNL A   1      43.378  26.808  27.695  1.00  0.00    -0.354 N 
ATOM     38  C   UNL A   1      39.989  28.539  29.699  1.00  0.00     0.074 A 
ATOM     39  C   UNL A   1      38.979  27.528  29.928  1.00  0.00     0.031 C 
ATOM     40  C   UNL A   1      44.517  25.270  26.540  1.00  0.00     0.029 A 
ATOM     41  C   UNL A   1      44.594  26.619  27.084  1.00  0.00     0.049 A 
ATOM     42  H   UNL A   1      43.166  27.595  28.248  1.00  0.00     0.167 HD
ATOM     43  C   UNL A   1      39.928  29.808  30.173  1.00  0.00     0.037 A 
ATOM     44  C   UNL A   1      45.632  27.457  26.898  1.00  0.00     0.037 A 
ATOM     45  C   UNL A   1      40.976  30.783  30.005  1.00  0.00     0.049 A 
ATOM     46  C   UNL A   1      45.533  28.870  27.388  1.00  0.00     0.074 A 
ATOM     47  C   UNL A   1      41.015  32.095  30.445  1.00  0.00     0.029 A 
ATOM     48  N   UNL A   1      42.182  30.541  29.366  1.00  0.00    -0.354 N 
ATOM     49  N   UNL A   1      44.549  29.456  28.025  1.00  0.00    -0.248 NA
ATOM     50  C   UNL A   1      46.677  29.748  27.107  1.00  0.00     0.031 C 
ATOM     51  C   UNL A   1      42.236  32.654  30.050  1.00  0.00     0.029 A 
ATOM     52  C   UNL A   1      42.972  31.678  29.401  1.00  0.00     0.049 A 
ATOM     53  H   UNL A   1      42.439  29.686  28.950  1.00  0.00     0.167 HD
ATOM     54  C   UNL A   1      44.961  30.763  28.238  1.00  0.00     0.074 A 
ATOM     55  C   UNL A   1      46.288  30.884  27.670  1.00  0.00     0.031 C 
ATOM     56  C   UNL A   1      44.297  31.774  28.848  1.00  0.00     0.037 A 
BRANCH  43  57
ATOM     57  C   UNL A   1      38.675  30.236  30.881  1.00  0.00     0.057 A 
ATOM     58  C   UNL A   1      38.505  30.097  32.262  1.00  0.00     0.134 A 
ATOM     59  C   UNL A   1      37.637  30.851  30.163  1.00  0.00     0.134 A 
ATOM     60  F   UNL A   1      39.453  29.507  33.007  1.00  0.00    -0.206 F 
ATOM     61  C   UNL A   1      37.344  30.535  32.903  1.00  0.00     0.040 A 
ATOM     62  C   UNL A   1      36.483  31.315  30.796  1.00  0.00     0.040 A 
ATOM     63  F   UNL A   1      37.736  31.024  28.837  1.00  0.00    -0.206 F 
ATOM     64  C   UNL A   1      36.332  31.153  32.170  1.00  0.00     0.006 A 
ENDBRANCH  43  57
BRANCH  44  65
ATOM     65  C   UNL A   1      46.823  26.991  26.144  1.00  0.00     0.057 A 
ATOM     66  C   UNL A   1      46.943  27.223  24.769  1.00  0.00     0.134 A 
ATOM     67  C   UNL A   1      47.881  26.330  26.783  1.00  0.00     0.134 A 
ATOM     68  F   UNL A   1      45.952  27.828  24.099  1.00  0.00    -0.206 F 
ATOM     69  C   UNL A   1      48.071  26.815  24.057  1.00  0.00     0.040 A 
ATOM     70  C   UNL A   1      49.027  25.943  26.089  1.00  0.00     0.040 A 
ATOM     71  F   UNL A   1      47.827  26.081  28.100  1.00  0.00    -0.206 F 
ATOM     72  C   UNL A   1      49.122  26.183  24.720  1.00  0.00     0.006 A 
ENDBRANCH  44  65
BRANCH  56  73
ATOM     73  C   UNL A   1      45.021  33.079  28.987  1.00  0.00     0.057 A 
ATOM     74  C   UNL A   1      45.860  33.347  30.074  1.00  0.00     0.134 A 
ATOM     75  C   UNL A   1      44.899  34.064  27.999  1.00  0.00     0.134 A 
ATOM     76  F   UNL A   1      46.004  32.448  31.060  1.00  0.00    -0.206 F 
ATOM     77  C   UNL A   1      46.541  34.560  30.184  1.00  0.00     0.040 A 
ATOM     78  C   UNL A   1      45.592  35.272  28.087  1.00  0.00     0.040 A 
ATOM     79  F   UNL A   1      44.113  33.863  26.930  1.00  0.00    -0.206 F 
ATOM     80  C   UNL A   1      46.412  35.524  29.184  1.00  0.00     0.006 A 
ENDBRANCH  56  73
ENDBRANCH  30  31
ENDBRANCH  23  25
ENDBRANCH  22  23
ENDBRANCH  21  22
ENDBRANCH   1  21
TORSDOF 16
ENDMDL
