MODEL 1
REMARK VINA RESULT:     -12.7      0.000      0.000
REMARK SMILES C[C@H]1[C@@H](C(=O)OCCOC(=O)c2ccc(-c3c4nc(c(-c5c(F)cccc5F)c5ccc([nH]5)c(-c5c(F)cccc5F)c5nc(c(-c6c(F)cccc6F)c6ccc3[nH]6)C=C5)C=C4)cc2)CCN1C(=O)c1cc2cc(F)ccc2s1
REMARK SMILES IDX 7 1 6 2 4 3 5 4 3 5 1 6 2 7 68 8 66 9 67 10 69 11 70 12
REMARK SMILES IDX 71 13 72 14 80 15 73 16 79 17 74 18 78 19 75 20 77 21 76 22
REMARK SMILES IDX 8 23 9 24 10 25 11 26 12 27 13 28 65 29 14 30 64 31 15 32
REMARK SMILES IDX 16 33 17 34 58 35 18 36 63 37 57 38 59 39 19 40 62 41 56 42
REMARK SMILES IDX 55 43 20 45 46 46 29 47 45 48 30 49 33 50 44 51 60 52 31 53
REMARK SMILES IDX 32 54 43 56 61 57 34 58 21 59 22 60 27 61 23 62 24 63 26 64
REMARK SMILES IDX 28 65 25 66 47 67 48 68 53 69 49 70 50 71 52 72 54 73 51 74
REMARK SMILES IDX 35 75 36 76 41 77 37 78 38 79 40 80 42 81 39 82
REMARK H PARENT 59 44 33 55
REMARK Flexibility Score: inf
ROOT
ATOM      1  C   UNL A   1      31.251  28.639  24.749  1.00  0.00     0.274 C 
ENDROOT
BRANCH   1   2
ATOM      2  O   UNL A   1      31.856  28.480  23.451  1.00  0.00    -0.462 OA
BRANCH   2   3
ATOM      3  C   UNL A   1      31.139  27.830  22.511  1.00  0.00     0.311 C 
ATOM      4  O   UNL A   1      30.046  28.209  22.098  1.00  0.00    -0.252 OA
BRANCH   3   5
ATOM      5  C   UNL A   1      31.770  26.550  22.001  1.00  0.00     0.123 C 
ATOM      6  C   UNL A   1      30.268  24.970  23.520  1.00  0.00     0.032 C 
ATOM      7  C   UNL A   1      31.485  25.170  22.633  1.00  0.00     0.096 C 
ATOM      8  N   UNL A   1      32.720  24.779  23.317  1.00  0.00    -0.334 N 
ATOM      9  C   UNL A   1      33.301  26.654  22.067  1.00  0.00     0.039 C 
ATOM     10  C   UNL A   1      33.629  25.907  23.345  1.00  0.00     0.121 C 
BRANCH   8  11
ATOM     11  C   UNL A   1      33.260  23.563  22.909  1.00  0.00     0.264 C 
ATOM     12  O   UNL A   1      34.265  23.531  22.199  1.00  0.00    -0.268 OA
BRANCH  11  13
ATOM     13  C   UNL A   1      32.610  22.362  23.372  1.00  0.00     0.093 A 
ATOM     14  C   UNL A   1      32.221  21.302  22.582  1.00  0.00     0.034 A 
ATOM     15  S   UNL A   1      32.471  21.972  25.026  1.00  0.00    -0.130 S 
ATOM     16  C   UNL A   1      32.384  20.068  23.289  1.00  0.00    -0.004 A 
ATOM     17  C   UNL A   1      32.588  20.291  24.656  1.00  0.00     0.035 A 
ATOM     18  C   UNL A   1      32.494  18.753  22.792  1.00  0.00     0.048 A 
ATOM     19  C   UNL A   1      32.903  19.244  25.539  1.00  0.00     0.022 A 
ATOM     20  C   UNL A   1      32.903  17.739  23.652  1.00  0.00     0.123 A 
ATOM     21  C   UNL A   1      33.110  17.971  25.002  1.00  0.00     0.041 A 
ATOM     22  F   UNL A   1      33.150  16.522  23.150  1.00  0.00    -0.207 F 
ENDBRANCH  11  13
ENDBRANCH   8  11
ENDBRANCH   3   5
ENDBRANCH   2   3
ENDBRANCH   1   2
BRANCH   1  23
ATOM     23  C   UNL A   1      31.524  30.028  25.313  1.00  0.00     0.275 C 
BRANCH  23  24
ATOM     24  O   UNL A   1      32.849  30.078  25.864  1.00  0.00    -0.458 OA
BRANCH  24  25
ATOM     25  C   UNL A   1      33.049  31.013  26.813  1.00  0.00     0.338 C 
ATOM     26  O   UNL A   1      32.287  31.903  27.166  1.00  0.00    -0.246 OA
BRANCH  25  27
ATOM     27  C   UNL A   1      34.363  30.806  27.427  1.00  0.00     0.060 A 
ATOM     28  C   UNL A   1      34.752  29.518  27.794  1.00  0.00     0.016 A 
ATOM     29  C   UNL A   1      35.162  31.904  27.735  1.00  0.00     0.016 A 
ATOM     30  C   UNL A   1      35.908  29.328  28.546  1.00  0.00     0.010 A 
ATOM     31  C   UNL A   1      36.368  31.700  28.408  1.00  0.00     0.010 A 
ATOM     32  C   UNL A   1      36.742  30.414  28.843  1.00  0.00    -0.014 A 
BRANCH  32  33
ATOM     33  C   UNL A   1      38.004  30.235  29.607  1.00  0.00     0.031 A 
ATOM     34  C   UNL A   1      39.103  29.378  29.042  1.00  0.00     0.074 A 
ATOM     35  C   UNL A   1      38.151  30.791  30.825  1.00  0.00     0.049 A 
ATOM     36  N   UNL A   1      40.131  28.844  29.648  1.00  0.00    -0.248 NA
ATOM     37  C   UNL A   1      39.020  29.067  27.606  1.00  0.00     0.031 C 
ATOM     38  C   UNL A   1      37.195  31.691  31.471  1.00  0.00     0.029 A 
ATOM     39  N   UNL A   1      39.159  30.660  31.748  1.00  0.00    -0.354 N 
ATOM     40  C   UNL A   1      40.782  28.082  28.686  1.00  0.00     0.074 A 
ATOM     41  C   UNL A   1      40.041  28.234  27.451  1.00  0.00     0.031 C 
ATOM     42  C   UNL A   1      37.663  32.038  32.679  1.00  0.00     0.029 A 
ATOM     43  C   UNL A   1      38.903  31.312  32.929  1.00  0.00     0.049 A 
ATOM     44  H   UNL A   1      39.983  30.149  31.580  1.00  0.00     0.167 HD
ATOM     45  C   UNL A   1      41.889  27.316  28.829  1.00  0.00     0.037 A 
ATOM     46  C   UNL A   1      39.554  31.282  34.107  1.00  0.00     0.037 A 
ATOM     47  C   UNL A   1      42.650  27.216  30.047  1.00  0.00     0.049 A 
ATOM     48  C   UNL A   1      40.761  30.404  34.255  1.00  0.00     0.074 A 
ATOM     49  C   UNL A   1      43.792  26.475  30.295  1.00  0.00     0.029 A 
ATOM     50  N   UNL A   1      42.352  27.898  31.217  1.00  0.00    -0.354 N 
ATOM     51  N   UNL A   1      41.324  29.622  33.366  1.00  0.00    -0.248 NA
ATOM     52  C   UNL A   1      41.407  30.381  35.575  1.00  0.00     0.031 C 
ATOM     53  C   UNL A   1      44.172  26.690  31.624  1.00  0.00     0.029 A 
ATOM     54  C   UNL A   1      43.286  27.590  32.193  1.00  0.00     0.049 A 
ATOM     55  H   UNL A   1      41.590  28.509  31.337  1.00  0.00     0.167 HD
ATOM     56  C   UNL A   1      42.398  29.025  34.012  1.00  0.00     0.074 A 
ATOM     57  C   UNL A   1      42.412  29.540  35.365  1.00  0.00     0.031 C 
ATOM     58  C   UNL A   1      43.288  28.127  33.528  1.00  0.00     0.037 A 
BRANCH  45  59
ATOM     59  C   UNL A   1      42.326  26.497  27.652  1.00  0.00     0.057 A 
ATOM     60  C   UNL A   1      41.893  25.180  27.456  1.00  0.00     0.134 A 
ATOM     61  C   UNL A   1      43.163  27.054  26.676  1.00  0.00     0.134 A 
ATOM     62  F   UNL A   1      41.101  24.585  28.361  1.00  0.00    -0.206 F 
ATOM     63  C   UNL A   1      42.288  24.442  26.340  1.00  0.00     0.040 A 
ATOM     64  C   UNL A   1      43.549  26.333  25.545  1.00  0.00     0.040 A 
ATOM     65  F   UNL A   1      43.611  28.313  26.801  1.00  0.00    -0.206 F 
ATOM     66  C   UNL A   1      43.114  25.021  25.376  1.00  0.00     0.006 A 
ENDBRANCH  45  59
BRANCH  46  67
ATOM     67  C   UNL A   1      39.034  32.070  35.251  1.00  0.00     0.057 A 
ATOM     68  C   UNL A   1      38.243  31.472  36.238  1.00  0.00     0.134 A 
ATOM     69  C   UNL A   1      39.343  33.428  35.402  1.00  0.00     0.134 A 
ATOM     70  F   UNL A   1      37.898  30.181  36.136  1.00  0.00    -0.206 F 
ATOM     71  C   UNL A   1      37.778  32.197  37.337  1.00  0.00     0.040 A 
ATOM     72  C   UNL A   1      38.904  34.158  36.508  1.00  0.00     0.040 A 
ATOM     73  F   UNL A   1      40.100  34.056  34.491  1.00  0.00    -0.206 F 
ATOM     74  C   UNL A   1      38.116  33.543  37.477  1.00  0.00     0.006 A 
ENDBRANCH  46  67
BRANCH  58  75
ATOM     75  C   UNL A   1      44.375  27.678  34.453  1.00  0.00     0.057 A 
ATOM     76  C   UNL A   1      45.574  28.388  34.577  1.00  0.00     0.134 A 
ATOM     77  C   UNL A   1      44.195  26.552  35.266  1.00  0.00     0.134 A 
ATOM     78  F   UNL A   1      45.807  29.467  33.815  1.00  0.00    -0.206 F 
ATOM     79  C   UNL A   1      46.564  27.988  35.474  1.00  0.00     0.040 A 
ATOM     80  C   UNL A   1      45.172  26.151  36.178  1.00  0.00     0.040 A 
ATOM     81  F   UNL A   1      43.064  25.834  35.194  1.00  0.00    -0.206 F 
ATOM     82  C   UNL A   1      46.361  26.870  36.282  1.00  0.00     0.006 A 
ENDBRANCH  58  75
ENDBRANCH  32  33
ENDBRANCH  25  27
ENDBRANCH  24  25
ENDBRANCH  23  24
ENDBRANCH   1  23
TORSDOF 13
ENDMDL
MODEL 2
REMARK VINA RESULT:     -12.5      4.279      9.170
REMARK SMILES C[C@H]1[C@@H](C(=O)OCCOC(=O)c2ccc(-c3c4nc(c(-c5c(F)cccc5F)c5ccc([nH]5)c(-c5c(F)cccc5F)c5nc(c(-c6c(F)cccc6F)c6ccc3[nH]6)C=C5)C=C4)cc2)CCN1C(=O)c1cc2cc(F)ccc2s1
REMARK SMILES IDX 7 1 6 2 4 3 5 4 3 5 1 6 2 7 68 8 66 9 67 10 69 11 70 12
REMARK SMILES IDX 71 13 72 14 80 15 73 16 79 17 74 18 78 19 75 20 77 21 76 22
REMARK SMILES IDX 8 23 9 24 10 25 11 26 12 27 13 28 65 29 14 30 64 31 15 32
REMARK SMILES IDX 16 33 17 34 58 35 18 36 63 37 57 38 59 39 19 40 62 41 56 42
REMARK SMILES IDX 55 43 20 45 46 46 29 47 45 48 30 49 33 50 44 51 60 52 31 53
REMARK SMILES IDX 32 54 43 56 61 57 34 58 21 59 22 60 27 61 23 62 24 63 26 64
REMARK SMILES IDX 28 65 25 66 47 67 48 68 53 69 49 70 50 71 52 72 54 73 51 74
REMARK SMILES IDX 35 75 36 76 41 77 37 78 38 79 40 80 42 81 39 82
REMARK H PARENT 59 44 33 55
REMARK Flexibility Score: inf
ROOT
ATOM      1  C   UNL A   1      34.743  20.649  25.004  1.00  0.00     0.274 C 
ENDROOT
BRANCH   1   2
ATOM      2  O   UNL A   1      33.616  21.535  24.853  1.00  0.00    -0.462 OA
BRANCH   2   3
ATOM      3  C   UNL A   1      32.408  21.066  25.230  1.00  0.00     0.311 C 
ATOM      4  O   UNL A   1      32.129  19.873  25.311  1.00  0.00    -0.252 OA
BRANCH   3   5
ATOM      5  C   UNL A   1      31.376  22.136  25.529  1.00  0.00     0.123 C 
ATOM      6  C   UNL A   1      31.385  23.116  23.059  1.00  0.00     0.032 C 
ATOM      7  C   UNL A   1      31.022  23.257  24.528  1.00  0.00     0.096 C 
ATOM      8  N   UNL A   1      31.565  24.492  25.100  1.00  0.00    -0.334 N 
ATOM      9  C   UNL A   1      31.772  22.911  26.795  1.00  0.00     0.039 C 
ATOM     10  C   UNL A   1      32.411  24.164  26.230  1.00  0.00     0.121 C 
BRANCH   8  11
ATOM     11  C   UNL A   1      30.635  25.507  25.301  1.00  0.00     0.264 C 
ATOM     12  O   UNL A   1      30.245  25.784  26.436  1.00  0.00    -0.268 OA
BRANCH  11  13
ATOM     13  C   UNL A   1      30.177  26.224  24.137  1.00  0.00     0.093 A 
ATOM     14  C   UNL A   1      28.876  26.605  23.886  1.00  0.00     0.034 A 
ATOM     15  S   UNL A   1      31.247  26.942  23.020  1.00  0.00    -0.130 S 
ATOM     16  C   UNL A   1      28.848  27.867  23.213  1.00  0.00    -0.004 A 
ATOM     17  C   UNL A   1      30.115  28.210  22.725  1.00  0.00     0.035 A 
ATOM     18  C   UNL A   1      27.803  28.808  23.106  1.00  0.00     0.048 A 
ATOM     19  C   UNL A   1      30.372  29.462  22.141  1.00  0.00     0.022 A 
ATOM     20  C   UNL A   1      28.087  30.079  22.618  1.00  0.00     0.123 A 
ATOM     21  C   UNL A   1      29.346  30.411  22.145  1.00  0.00     0.041 A 
ATOM     22  F   UNL A   1      27.131  31.017  22.654  1.00  0.00    -0.207 F 
ENDBRANCH  11  13
ENDBRANCH   8  11
ENDBRANCH   3   5
ENDBRANCH   2   3
ENDBRANCH   1   2
BRANCH   1  23
ATOM     23  C   UNL A   1      36.044  21.352  24.637  1.00  0.00     0.275 C 
BRANCH  23  24
ATOM     24  O   UNL A   1      36.787  21.653  25.830  1.00  0.00    -0.458 OA
BRANCH  24  25
ATOM     25  C   UNL A   1      38.109  21.399  25.770  1.00  0.00     0.338 C 
ATOM     26  O   UNL A   1      38.667  20.424  25.285  1.00  0.00    -0.246 OA
BRANCH  25  27
ATOM     27  C   UNL A   1      38.843  22.514  26.373  1.00  0.00     0.060 A 
ATOM     28  C   UNL A   1      38.415  23.820  26.141  1.00  0.00     0.016 A 
ATOM     29  C   UNL A   1      40.018  22.266  27.079  1.00  0.00     0.016 A 
ATOM     30  C   UNL A   1      39.205  24.893  26.545  1.00  0.00     0.010 A 
ATOM     31  C   UNL A   1      40.760  23.344  27.565  1.00  0.00     0.010 A 
ATOM     32  C   UNL A   1      40.376  24.668  27.282  1.00  0.00    -0.014 A 
BRANCH  32  33
ATOM     33  C   UNL A   1      41.215  25.796  27.763  1.00  0.00     0.031 A 
ATOM     34  C   UNL A   1      40.605  26.866  28.625  1.00  0.00     0.074 A 
ATOM     35  C   UNL A   1      42.506  25.895  27.390  1.00  0.00     0.049 A 
ATOM     36  N   UNL A   1      41.050  28.065  28.897  1.00  0.00    -0.248 NA
ATOM     37  C   UNL A   1      39.311  26.547  29.250  1.00  0.00     0.031 C 
ATOM     38  C   UNL A   1      43.244  24.904  26.607  1.00  0.00     0.029 A 
ATOM     39  N   UNL A   1      43.421  26.896  27.605  1.00  0.00    -0.354 N 
ATOM     40  C   UNL A   1      40.064  28.668  29.667  1.00  0.00     0.074 A 
ATOM     41  C   UNL A   1      39.003  27.697  29.834  1.00  0.00     0.031 C 
ATOM     42  C   UNL A   1      44.499  25.339  26.414  1.00  0.00     0.029 A 
ATOM     43  C   UNL A   1      44.623  26.679  26.978  1.00  0.00     0.049 A 
ATOM     44  H   UNL A   1      43.234  27.691  28.156  1.00  0.00     0.167 HD
ATOM     45  C   UNL A   1      40.046  29.923  30.176  1.00  0.00     0.037 A 
ATOM     46  C   UNL A   1      45.687  27.488  26.815  1.00  0.00     0.037 A 
ATOM     47  C   UNL A   1      41.131  30.860  30.051  1.00  0.00     0.049 A 
ATOM     48  C   UNL A   1      45.635  28.885  27.360  1.00  0.00     0.074 A 
ATOM     49  C   UNL A   1      41.217  32.154  30.536  1.00  0.00     0.029 A 
ATOM     50  N   UNL A   1      42.330  30.593  29.407  1.00  0.00    -0.354 N 
ATOM     51  N   UNL A   1      44.668  29.476  28.017  1.00  0.00    -0.248 NA
ATOM     52  C   UNL A   1      46.809  29.735  27.117  1.00  0.00     0.031 C 
ATOM     53  C   UNL A   1      42.460  32.678  30.166  1.00  0.00     0.029 A 
ATOM     54  C   UNL A   1      43.160  31.700  29.478  1.00  0.00     0.049 A 
ATOM     55  H   UNL A   1      42.557  29.744  28.965  1.00  0.00     0.167 HD
ATOM     56  C   UNL A   1      45.119  30.762  28.279  1.00  0.00     0.074 A 
ATOM     57  C   UNL A   1      46.450  30.862  27.716  1.00  0.00     0.031 C 
ATOM     58  C   UNL A   1      44.486  31.771  28.924  1.00  0.00     0.037 A 
BRANCH  45  59
ATOM     59  C   UNL A   1      38.802  30.369  30.884  1.00  0.00     0.057 A 
ATOM     60  C   UNL A   1      37.752  31.009  30.215  1.00  0.00     0.134 A 
ATOM     61  C   UNL A   1      38.638  30.114  32.252  1.00  0.00     0.134 A 
ATOM     62  F   UNL A   1      37.853  31.294  28.908  1.00  0.00    -0.206 F 
ATOM     63  C   UNL A   1      36.589  31.393  30.885  1.00  0.00     0.040 A 
ATOM     64  C   UNL A   1      37.472  30.475  32.929  1.00  0.00     0.040 A 
ATOM     65  F   UNL A   1      39.606  29.500  32.951  1.00  0.00    -0.206 F 
ATOM     66  C   UNL A   1      36.444  31.120  32.245  1.00  0.00     0.006 A 
ENDBRANCH  45  59
BRANCH  46  67
ATOM     67  C   UNL A   1      46.863  27.005  26.052  1.00  0.00     0.057 A 
ATOM     68  C   UNL A   1      46.997  27.274  24.686  1.00  0.00     0.134 A 
ATOM     69  C   UNL A   1      47.896  26.294  26.676  1.00  0.00     0.134 A 
ATOM     70  F   UNL A   1      46.031  27.933  24.030  1.00  0.00    -0.206 F 
ATOM     71  C   UNL A   1      48.117  26.854  23.967  1.00  0.00     0.040 A 
ATOM     72  C   UNL A   1      49.032  25.889  25.974  1.00  0.00     0.040 A 
ATOM     73  F   UNL A   1      47.827  26.008  27.985  1.00  0.00    -0.206 F 
ATOM     74  C   UNL A   1      49.143  26.166  24.614  1.00  0.00     0.006 A 
ENDBRANCH  46  67
BRANCH  58  75
ATOM     75  C   UNL A   1      45.240  33.052  29.092  1.00  0.00     0.057 A 
ATOM     76  C   UNL A   1      45.123  34.100  28.171  1.00  0.00     0.134 A 
ATOM     77  C   UNL A   1      46.050  33.257  30.216  1.00  0.00     0.134 A 
ATOM     78  F   UNL A   1      44.372  33.956  27.070  1.00  0.00    -0.206 F 
ATOM     79  C   UNL A   1      45.796  35.307  28.358  1.00  0.00     0.040 A 
ATOM     80  C   UNL A   1      46.714  34.466  30.421  1.00  0.00     0.040 A 
ATOM     81  F   UNL A   1      46.196  32.291  31.135  1.00  0.00    -0.206 F 
ATOM     82  C   UNL A   1      46.589  35.495  29.490  1.00  0.00     0.006 A 
ENDBRANCH  58  75
ENDBRANCH  32  33
ENDBRANCH  25  27
ENDBRANCH  24  25
ENDBRANCH  23  24
ENDBRANCH   1  23
TORSDOF 13
ENDMDL
MODEL 3
REMARK VINA RESULT:     -12.4      4.275      9.098
REMARK SMILES C[C@H]1[C@@H](C(=O)OCCOC(=O)c2ccc(-c3c4nc(c(-c5c(F)cccc5F)c5ccc([nH]5)c(-c5c(F)cccc5F)c5nc(c(-c6c(F)cccc6F)c6ccc3[nH]6)C=C5)C=C4)cc2)CCN1C(=O)c1cc2cc(F)ccc2s1
REMARK SMILES IDX 7 1 6 2 4 3 5 4 3 5 1 6 2 7 68 8 66 9 67 10 69 11 70 12
REMARK SMILES IDX 71 13 72 14 80 15 73 16 79 17 74 18 78 19 75 20 77 21 76 22
REMARK SMILES IDX 8 23 9 24 10 25 11 26 12 27 13 28 65 29 14 30 64 31 15 32
REMARK SMILES IDX 16 33 17 34 58 35 18 36 63 37 57 38 59 39 19 40 62 41 56 42
REMARK SMILES IDX 55 43 20 45 46 46 29 47 45 48 30 49 33 50 44 51 60 52 31 53
REMARK SMILES IDX 32 54 43 56 61 57 34 58 21 59 22 60 27 61 23 62 24 63 26 64
REMARK SMILES IDX 28 65 25 66 47 67 48 68 53 69 49 70 50 71 52 72 54 73 51 74
REMARK SMILES IDX 35 75 36 76 41 77 37 78 38 79 40 80 42 81 39 82
REMARK H PARENT 59 44 33 55
REMARK Flexibility Score: inf
ROOT
ATOM      1  C   UNL A   1      34.727  20.695  25.653  1.00  0.00     0.274 C 
ENDROOT
BRANCH   1   2
ATOM      2  O   UNL A   1      33.669  21.576  25.226  1.00  0.00    -0.462 OA
BRANCH   2   3
ATOM      3  C   UNL A   1      32.406  21.110  25.313  1.00  0.00     0.311 C 
ATOM      4  O   UNL A   1      32.097  19.932  25.163  1.00  0.00    -0.252 OA
BRANCH   3   5
ATOM      5  C   UNL A   1      31.356  22.168  25.589  1.00  0.00     0.123 C 
ATOM      6  C   UNL A   1      31.389  23.131  23.113  1.00  0.00     0.032 C 
ATOM      7  C   UNL A   1      31.003  23.277  24.575  1.00  0.00     0.096 C 
ATOM      8  N   UNL A   1      31.522  24.523  25.145  1.00  0.00    -0.334 N 
ATOM      9  C   UNL A   1      31.723  22.958  26.855  1.00  0.00     0.039 C 
ATOM     10  C   UNL A   1      32.355  24.215  26.291  1.00  0.00     0.121 C 
BRANCH   8  11
ATOM     11  C   UNL A   1      30.575  25.527  25.326  1.00  0.00     0.264 C 
ATOM     12  O   UNL A   1      30.158  25.801  26.451  1.00  0.00    -0.268 OA
BRANCH  11  13
ATOM     13  C   UNL A   1      30.134  26.238  24.151  1.00  0.00     0.093 A 
ATOM     14  C   UNL A   1      28.838  26.625  23.884  1.00  0.00     0.034 A 
ATOM     15  S   UNL A   1      31.219  26.940  23.040  1.00  0.00    -0.130 S 
ATOM     16  C   UNL A   1      28.825  27.882  23.200  1.00  0.00    -0.004 A 
ATOM     17  C   UNL A   1      30.098  28.212  22.722  1.00  0.00     0.035 A 
ATOM     18  C   UNL A   1      27.787  28.829  23.075  1.00  0.00     0.048 A 
ATOM     19  C   UNL A   1      30.369  29.458  22.131  1.00  0.00     0.022 A 
ATOM     20  C   UNL A   1      28.083  30.093  22.579  1.00  0.00     0.123 A 
ATOM     21  C   UNL A   1      29.350  30.414  22.116  1.00  0.00     0.041 A 
ATOM     22  F   UNL A   1      27.133  31.038  22.598  1.00  0.00    -0.207 F 
ENDBRANCH  11  13
ENDBRANCH   8  11
ENDBRANCH   3   5
ENDBRANCH   2   3
ENDBRANCH   1   2
BRANCH   1  23
ATOM     23  C   UNL A   1      36.006  20.954  24.865  1.00  0.00     0.275 C 
BRANCH  23  24
ATOM     24  O   UNL A   1      36.827  21.901  25.567  1.00  0.00    -0.458 OA
BRANCH  24  25
ATOM     25  C   UNL A   1      38.117  21.547  25.725  1.00  0.00     0.338 C 
ATOM     26  O   UNL A   1      38.655  20.497  25.400  1.00  0.00    -0.246 OA
BRANCH  25  27
ATOM     27  C   UNL A   1      38.848  22.652  26.350  1.00  0.00     0.060 A 
ATOM     28  C   UNL A   1      38.439  23.964  26.115  1.00  0.00     0.016 A 
ATOM     29  C   UNL A   1      40.004  22.389  27.082  1.00  0.00     0.016 A 
ATOM     30  C   UNL A   1      39.230  25.027  26.542  1.00  0.00     0.010 A 
ATOM     31  C   UNL A   1      40.745  23.458  27.590  1.00  0.00     0.010 A 
ATOM     32  C   UNL A   1      40.381  24.787  27.305  1.00  0.00    -0.014 A 
BRANCH  32  33
ATOM     33  C   UNL A   1      41.220  25.904  27.811  1.00  0.00     0.031 A 
ATOM     34  C   UNL A   1      40.607  26.962  28.686  1.00  0.00     0.074 A 
ATOM     35  C   UNL A   1      42.514  26.005  27.449  1.00  0.00     0.049 A 
ATOM     36  N   UNL A   1      41.054  28.154  28.980  1.00  0.00    -0.248 NA
ATOM     37  C   UNL A   1      39.307  26.637  29.295  1.00  0.00     0.031 C 
ATOM     38  C   UNL A   1      43.255  25.024  26.655  1.00  0.00     0.029 A 
ATOM     39  N   UNL A   1      43.431  26.999  27.688  1.00  0.00    -0.354 N 
ATOM     40  C   UNL A   1      40.064  28.748  29.753  1.00  0.00     0.074 A 
ATOM     41  C   UNL A   1      38.998  27.778  29.896  1.00  0.00     0.031 C 
ATOM     42  C   UNL A   1      44.512  25.459  26.480  1.00  0.00     0.029 A 
ATOM     43  C   UNL A   1      44.637  26.788  27.066  1.00  0.00     0.049 A 
ATOM     44  H   UNL A   1      43.242  27.785  28.250  1.00  0.00     0.167 HD
ATOM     45  C   UNL A   1      40.046  29.994  30.282  1.00  0.00     0.037 A 
ATOM     46  C   UNL A   1      45.704  27.597  26.925  1.00  0.00     0.037 A 
ATOM     47  C   UNL A   1      41.134  30.930  30.181  1.00  0.00     0.049 A 
ATOM     48  C   UNL A   1      45.653  28.984  27.492  1.00  0.00     0.074 A 
ATOM     49  C   UNL A   1      41.221  32.215  30.688  1.00  0.00     0.029 A 
ATOM     50  N   UNL A   1      42.337  30.670  29.541  1.00  0.00    -0.354 N 
ATOM     51  N   UNL A   1      44.682  29.568  28.151  1.00  0.00    -0.248 NA
ATOM     52  C   UNL A   1      46.831  29.835  27.272  1.00  0.00     0.031 C 
ATOM     53  C   UNL A   1      42.468  32.742  30.336  1.00  0.00     0.029 A 
ATOM     54  C   UNL A   1      43.170  31.772  29.637  1.00  0.00     0.049 A 
ATOM     55  H   UNL A   1      42.565  29.827  29.088  1.00  0.00     0.167 HD
ATOM     56  C   UNL A   1      45.136  30.848  28.438  1.00  0.00     0.074 A 
ATOM     57  C   UNL A   1      46.471  30.953  27.887  1.00  0.00     0.031 C 
ATOM     58  C   UNL A   1      44.500  31.848  29.094  1.00  0.00     0.037 A 
BRANCH  45  59
ATOM     59  C   UNL A   1      38.797  30.433  30.987  1.00  0.00     0.057 A 
ATOM     60  C   UNL A   1      38.612  30.247  32.362  1.00  0.00     0.134 A 
ATOM     61  C   UNL A   1      37.782  31.092  30.280  1.00  0.00     0.134 A 
ATOM     62  F   UNL A   1      39.540  29.612  33.093  1.00  0.00    -0.206 F 
ATOM     63  C   UNL A   1      37.454  30.688  33.007  1.00  0.00     0.040 A 
ATOM     64  C   UNL A   1      36.629  31.555  30.917  1.00  0.00     0.040 A 
ATOM     65  F   UNL A   1      37.900  31.305  28.961  1.00  0.00    -0.206 F 
ATOM     66  C   UNL A   1      36.461  31.349  32.284  1.00  0.00     0.006 A 
ENDBRANCH  45  59
BRANCH  46  67
ATOM     67  C   UNL A   1      46.885  27.123  26.163  1.00  0.00     0.057 A 
ATOM     68  C   UNL A   1      47.936  26.457  26.802  1.00  0.00     0.134 A 
ATOM     69  C   UNL A   1      46.975  27.294  24.775  1.00  0.00     0.134 A 
ATOM     70  F   UNL A   1      47.915  26.282  28.131  1.00  0.00    -0.206 F 
ATOM     71  C   UNL A   1      49.035  25.977  26.088  1.00  0.00     0.040 A 
ATOM     72  C   UNL A   1      48.057  26.798  24.047  1.00  0.00     0.040 A 
ATOM     73  F   UNL A   1      45.997  27.921  24.105  1.00  0.00    -0.206 F 
ATOM     74  C   UNL A   1      49.093  26.140  24.704  1.00  0.00     0.006 A 
ENDBRANCH  46  67
BRANCH  58  75
ATOM     75  C   UNL A   1      45.257  33.124  29.289  1.00  0.00     0.057 A 
ATOM     76  C   UNL A   1      45.157  34.184  28.380  1.00  0.00     0.134 A 
ATOM     77  C   UNL A   1      46.053  33.311  30.426  1.00  0.00     0.134 A 
ATOM     78  F   UNL A   1      44.420  34.058  27.268  1.00  0.00    -0.206 F 
ATOM     79  C   UNL A   1      45.832  35.386  28.592  1.00  0.00     0.040 A 
ATOM     80  C   UNL A   1      46.720  34.515  30.656  1.00  0.00     0.040 A 
ATOM     81  F   UNL A   1      46.183  32.332  31.334  1.00  0.00    -0.206 F 
ATOM     82  C   UNL A   1      46.610  35.556  29.737  1.00  0.00     0.006 A 
ENDBRANCH  58  75
ENDBRANCH  32  33
ENDBRANCH  25  27
ENDBRANCH  24  25
ENDBRANCH  23  24
ENDBRANCH   1  23
TORSDOF 13
ENDMDL
