MODEL 1
REMARK VINA RESULT:     -10.0      0.000      0.000
REMARK SMILES COCCCN(C)C(=O)N1CCC(CC(=O)OCCOC(=O)c2ccc(-c3c4nc(c(-c5c(F)cccc5F)c5ccc([nH]5)c(-c5c(F)cccc5F)c5nc(c(-c6c(F)cccc6F)c6ccc3[nH]6)C=C5)C=C4)cc2)CC1
REMARK SMILES IDX 15 1 16 2 14 3 13 4 8 5 9 6 10 7 11 8 78 9 12 10 77 11 6 12
REMARK SMILES IDX 7 13 5 14 4 15 3 16 2 17 1 18 17 19 18 20 19 21 20 22 21 23
REMARK SMILES IDX 22 24 23 25 24 26 76 27 25 28 75 29 26 30 27 31 28 32 69 33
REMARK SMILES IDX 29 34 74 35 68 36 70 37 30 38 73 39 67 40 66 41 31 43 57 44
REMARK SMILES IDX 40 45 56 46 41 47 44 48 55 49 71 50 42 51 43 52 54 54 72 55
REMARK SMILES IDX 45 56 32 57 33 58 38 59 34 60 35 61 37 62 39 63 36 64 58 65
REMARK SMILES IDX 59 66 64 67 60 68 61 69 63 70 65 71 62 72 46 73 47 74 52 75
REMARK SMILES IDX 48 76 49 77 51 78 53 79 50 80
REMARK H PARENT 70 42 44 53
REMARK Flexibility Score: inf
ROOT
ATOM      1  C   UNL A   1      30.361  28.255  22.694  1.00  0.00     0.306 C 
ATOM      2  O   UNL A   1      29.692  28.909  21.904  1.00  0.00    -0.252 OA
ENDROOT
BRANCH   1   3
ATOM      3  C   UNL A   1      31.254  27.110  22.262  1.00  0.00     0.126 C 
BRANCH   3   4
ATOM      4  C   UNL A   1      31.668  26.142  23.386  1.00  0.00     0.003 C 
ATOM      5  C   UNL A   1      34.153  23.289  23.264  1.00  0.00     0.319 C 
ATOM      6  O   UNL A   1      33.897  23.338  22.064  1.00  0.00    -0.248 OA
ATOM      7  N   UNL A   1      33.325  23.890  24.192  1.00  0.00    -0.325 N 
ATOM      8  C   UNL A   1      31.896  23.693  24.032  1.00  0.00     0.121 C 
ATOM      9  C   UNL A   1      33.690  25.219  24.651  1.00  0.00     0.121 C 
ATOM     10  C   UNL A   1      31.299  24.687  23.042  1.00  0.00     0.026 C 
ATOM     11  C   UNL A   1      33.182  26.278  23.666  1.00  0.00     0.026 C 
BRANCH   5  12
ATOM     12  N   UNL A   1      35.255  22.628  23.772  1.00  0.00    -0.328 N 
ATOM     13  C   UNL A   1      36.592  22.712  23.202  1.00  0.00     0.148 C 
BRANCH  12  14
ATOM     14  C   UNL A   1      35.080  21.765  24.941  1.00  0.00     0.123 C 
BRANCH  14  15
ATOM     15  C   UNL A   1      34.297  20.476  24.654  1.00  0.00     0.050 C 
BRANCH  15  16
ATOM     16  C   UNL A   1      32.970  20.291  25.396  1.00  0.00     0.161 C 
BRANCH  16  17
ATOM     17  O   UNL A   1      32.234  19.143  24.971  1.00  0.00    -0.385 OA
ATOM     18  C   UNL A   1      32.605  17.934  25.618  1.00  0.00     0.194 C 
ENDBRANCH  16  17
ENDBRANCH  15  16
ENDBRANCH  14  15
ENDBRANCH  12  14
ENDBRANCH   5  12
ENDBRANCH   3   4
ENDBRANCH   1   3
BRANCH   1  19
ATOM     19  O   UNL A   1      30.364  28.426  24.039  1.00  0.00    -0.462 OA
BRANCH  19  20
ATOM     20  C   UNL A   1      31.027  29.598  24.548  1.00  0.00     0.274 C 
BRANCH  20  21
ATOM     21  C   UNL A   1      31.774  29.295  25.849  1.00  0.00     0.275 C 
BRANCH  21  22
ATOM     22  O   UNL A   1      33.031  29.993  25.896  1.00  0.00    -0.458 OA
BRANCH  22  23
ATOM     23  C   UNL A   1      33.140  30.940  26.853  1.00  0.00     0.338 C 
ATOM     24  O   UNL A   1      32.289  31.738  27.215  1.00  0.00    -0.246 OA
BRANCH  23  25
ATOM     25  C   UNL A   1      34.451  30.815  27.504  1.00  0.00     0.060 A 
ATOM     26  C   UNL A   1      34.872  29.554  27.935  1.00  0.00     0.016 A 
ATOM     27  C   UNL A   1      35.232  31.947  27.741  1.00  0.00     0.016 A 
ATOM     28  C   UNL A   1      36.084  29.419  28.611  1.00  0.00     0.010 A 
ATOM     29  C   UNL A   1      36.447  31.810  28.416  1.00  0.00     0.010 A 
ATOM     30  C   UNL A   1      36.875  30.547  28.864  1.00  0.00    -0.014 A 
BRANCH  30  31
ATOM     31  C   UNL A   1      38.135  30.419  29.632  1.00  0.00     0.031 A 
ATOM     32  C   UNL A   1      39.299  29.678  29.039  1.00  0.00     0.074 A 
ATOM     33  C   UNL A   1      38.231  30.956  30.862  1.00  0.00     0.049 A 
ATOM     34  N   UNL A   1      40.449  29.372  29.583  1.00  0.00    -0.248 NA
ATOM     35  C   UNL A   1      39.145  29.220  27.651  1.00  0.00     0.031 C 
ATOM     36  C   UNL A   1      37.183  31.727  31.531  1.00  0.00     0.029 A 
ATOM     37  N   UNL A   1      39.258  30.925  31.771  1.00  0.00    -0.354 N 
ATOM     38  C   UNL A   1      41.149  28.668  28.613  1.00  0.00     0.074 A 
ATOM     39  C   UNL A   1      40.290  28.580  27.451  1.00  0.00     0.031 C 
ATOM     40  C   UNL A   1      37.619  32.090  32.749  1.00  0.00     0.029 A 
ATOM     41  C   UNL A   1      38.957  31.543  32.959  1.00  0.00     0.049 A 
ATOM     42  H   UNL A   1      40.127  30.499  31.589  1.00  0.00     0.167 HD
ATOM     43  C   UNL A   1      42.395  28.144  28.686  1.00  0.00     0.037 A 
ATOM     44  C   UNL A   1      39.670  31.635  34.097  1.00  0.00     0.037 A 
ATOM     45  C   UNL A   1      43.253  28.245  29.837  1.00  0.00     0.049 A 
ATOM     46  C   UNL A   1      41.030  30.996  34.171  1.00  0.00     0.074 A 
ATOM     47  C   UNL A   1      44.544  27.770  29.995  1.00  0.00     0.029 A 
ATOM     48  N   UNL A   1      42.904  28.860  31.029  1.00  0.00    -0.354 N 
ATOM     49  N   UNL A   1      41.687  30.342  33.244  1.00  0.00    -0.248 NA
ATOM     50  C   UNL A   1      41.743  31.103  35.452  1.00  0.00     0.031 C 
ATOM     51  C   UNL A   1      44.963  28.065  31.297  1.00  0.00     0.029 A 
ATOM     52  C   UNL A   1      43.947  28.757  31.937  1.00  0.00     0.049 A 
ATOM     53  H   UNL A   1      42.044  29.303  31.206  1.00  0.00     0.167 HD
ATOM     54  C   UNL A   1      42.896  29.979  33.822  1.00  0.00     0.074 A 
ATOM     55  C   UNL A   1      42.888  30.494  35.175  1.00  0.00     0.031 C 
ATOM     56  C   UNL A   1      43.923  29.282  33.278  1.00  0.00     0.037 A 
BRANCH  43  57
ATOM     57  C   UNL A   1      42.899  27.392  27.490  1.00  0.00     0.057 A 
ATOM     58  C   UNL A   1      43.611  28.024  26.464  1.00  0.00     0.134 A 
ATOM     59  C   UNL A   1      42.699  26.010  27.386  1.00  0.00     0.134 A 
ATOM     60  F   UNL A   1      43.824  29.347  26.499  1.00  0.00    -0.206 F 
ATOM     61  C   UNL A   1      44.091  27.310  25.365  1.00  0.00     0.040 A 
ATOM     62  C   UNL A   1      43.192  25.281  26.302  1.00  0.00     0.040 A 
ATOM     63  F   UNL A   1      42.027  25.344  28.337  1.00  0.00    -0.206 F 
ATOM     64  C   UNL A   1      43.887  25.933  25.286  1.00  0.00     0.006 A 
ENDBRANCH  43  57
BRANCH  44  65
ATOM     65  C   UNL A   1      39.105  32.346  35.270  1.00  0.00     0.057 A 
ATOM     66  C   UNL A   1      39.309  33.718  35.451  1.00  0.00     0.134 A 
ATOM     67  C   UNL A   1      38.358  31.669  36.241  1.00  0.00     0.134 A 
ATOM     68  F   UNL A   1      40.038  34.414  34.566  1.00  0.00    -0.206 F 
ATOM     69  C   UNL A   1      38.800  34.391  36.562  1.00  0.00     0.040 A 
ATOM     70  C   UNL A   1      37.823  32.333  37.345  1.00  0.00     0.040 A 
ATOM     71  F   UNL A   1      38.129  30.353  36.124  1.00  0.00    -0.206 F 
ATOM     72  C   UNL A   1      38.049  33.699  37.511  1.00  0.00     0.006 A 
ENDBRANCH  44  65
BRANCH  56  73
ATOM     73  C   UNL A   1      45.134  29.064  34.136  1.00  0.00     0.057 A 
ATOM     74  C   UNL A   1      46.199  29.973  34.151  1.00  0.00     0.134 A 
ATOM     75  C   UNL A   1      45.216  27.953  34.984  1.00  0.00     0.134 A 
ATOM     76  F   UNL A   1      46.185  31.050  33.352  1.00  0.00    -0.206 F 
ATOM     77  C   UNL A   1      47.312  29.775  34.969  1.00  0.00     0.040 A 
ATOM     78  C   UNL A   1      46.314  27.755  35.821  1.00  0.00     0.040 A 
ATOM     79  F   UNL A   1      44.225  27.049  35.020  1.00  0.00    -0.206 F 
ATOM     80  C   UNL A   1      47.368  28.666  35.813  1.00  0.00     0.006 A 
ENDBRANCH  56  73
ENDBRANCH  30  31
ENDBRANCH  23  25
ENDBRANCH  22  23
ENDBRANCH  21  22
ENDBRANCH  20  21
ENDBRANCH  19  20
ENDBRANCH   1  19
TORSDOF 17
ENDMDL
MODEL 2
REMARK VINA RESULT:      -9.8      4.137      9.418
REMARK SMILES COCCCN(C)C(=O)N1CCC(CC(=O)OCCOC(=O)c2ccc(-c3c4nc(c(-c5c(F)cccc5F)c5ccc([nH]5)c(-c5c(F)cccc5F)c5nc(c(-c6c(F)cccc6F)c6ccc3[nH]6)C=C5)C=C4)cc2)CC1
REMARK SMILES IDX 15 1 16 2 14 3 13 4 8 5 9 6 10 7 11 8 78 9 12 10 77 11 6 12
REMARK SMILES IDX 7 13 5 14 4 15 3 16 2 17 1 18 17 19 18 20 19 21 20 22 21 23
REMARK SMILES IDX 22 24 23 25 24 26 76 27 25 28 75 29 26 30 27 31 28 32 69 33
REMARK SMILES IDX 29 34 74 35 68 36 70 37 30 38 73 39 67 40 66 41 31 43 57 44
REMARK SMILES IDX 40 45 56 46 41 47 44 48 55 49 71 50 42 51 43 52 54 54 72 55
REMARK SMILES IDX 45 56 32 57 33 58 38 59 34 60 35 61 37 62 39 63 36 64 58 65
REMARK SMILES IDX 59 66 64 67 60 68 61 69 63 70 65 71 62 72 46 73 47 74 52 75
REMARK SMILES IDX 48 76 49 77 51 78 53 79 50 80
REMARK H PARENT 70 42 44 53
REMARK Flexibility Score: inf
ROOT
ATOM      1  C   UNL A   1      38.153  22.273  25.765  1.00  0.00     0.306 C 
ATOM      2  O   UNL A   1      39.198  22.490  26.366  1.00  0.00    -0.252 OA
ENDROOT
BRANCH   1   3
ATOM      3  C   UNL A   1      37.308  23.377  25.163  1.00  0.00     0.126 C 
BRANCH   3   4
ATOM      4  C   UNL A   1      35.826  23.021  24.944  1.00  0.00     0.003 C 
ATOM      5  C   UNL A   1      33.057  25.171  23.515  1.00  0.00     0.319 C 
ATOM      6  O   UNL A   1      33.798  26.078  23.884  1.00  0.00    -0.248 OA
ATOM      7  N   UNL A   1      33.214  23.885  23.995  1.00  0.00    -0.325 N 
ATOM      8  C   UNL A   1      33.431  23.732  25.422  1.00  0.00     0.121 C 
ATOM      9  C   UNL A   1      33.976  22.956  23.178  1.00  0.00     0.121 C 
ATOM     10  C   UNL A   1      34.900  23.915  25.790  1.00  0.00     0.026 C 
ATOM     11  C   UNL A   1      35.476  23.127  23.441  1.00  0.00     0.026 C 
BRANCH   5  12
ATOM     12  N   UNL A   1      32.018  25.363  22.623  1.00  0.00    -0.328 N 
ATOM     13  C   UNL A   1      32.187  25.867  21.268  1.00  0.00     0.148 C 
BRANCH  12  14
ATOM     14  C   UNL A   1      30.653  25.072  23.063  1.00  0.00     0.123 C 
BRANCH  14  15
ATOM     15  C   UNL A   1      30.162  25.965  24.211  1.00  0.00     0.050 C 
BRANCH  15  16
ATOM     16  C   UNL A   1      30.259  27.479  24.000  1.00  0.00     0.161 C 
BRANCH  16  17
ATOM     17  O   UNL A   1      29.688  27.921  22.767  1.00  0.00    -0.385 OA
ATOM     18  C   UNL A   1      30.187  29.166  22.300  1.00  0.00     0.194 C 
ENDBRANCH  16  17
ENDBRANCH  15  16
ENDBRANCH  14  15
ENDBRANCH  12  14
ENDBRANCH   5  12
ENDBRANCH   3   4
ENDBRANCH   1   3
BRANCH   1  19
ATOM     19  O   UNL A   1      37.594  21.050  25.594  1.00  0.00    -0.462 OA
BRANCH  19  20
ATOM     20  C   UNL A   1      38.416  20.031  24.995  1.00  0.00     0.274 C 
BRANCH  20  21
ATOM     21  C   UNL A   1      39.424  19.468  25.999  1.00  0.00     0.275 C 
BRANCH  21  22
ATOM     22  O   UNL A   1      40.680  19.175  25.360  1.00  0.00    -0.458 OA
BRANCH  22  23
ATOM     23  C   UNL A   1      41.760  19.151  26.171  1.00  0.00     0.338 C 
ATOM     24  O   UNL A   1      42.431  18.182  26.493  1.00  0.00    -0.246 OA
BRANCH  23  25
ATOM     25  C   UNL A   1      42.098  20.526  26.560  1.00  0.00     0.060 A 
ATOM     26  C   UNL A   1      42.394  21.456  25.559  1.00  0.00     0.016 A 
ATOM     27  C   UNL A   1      42.182  20.879  27.907  1.00  0.00     0.016 A 
ATOM     28  C   UNL A   1      42.779  22.751  25.904  1.00  0.00     0.010 A 
ATOM     29  C   UNL A   1      42.566  22.177  28.252  1.00  0.00     0.010 A 
ATOM     30  C   UNL A   1      42.876  23.117  27.252  1.00  0.00    -0.014 A 
BRANCH  30  31
ATOM     31  C   UNL A   1      43.341  24.473  27.627  1.00  0.00     0.031 A 
ATOM     32  C   UNL A   1      42.346  25.509  28.064  1.00  0.00     0.074 A 
ATOM     33  C   UNL A   1      44.650  24.777  27.564  1.00  0.00     0.049 A 
ATOM     34  N   UNL A   1      42.535  26.774  28.339  1.00  0.00    -0.248 NA
ATOM     35  C   UNL A   1      40.953  25.059  28.210  1.00  0.00     0.031 C 
ATOM     36  C   UNL A   1      45.716  23.849  27.187  1.00  0.00     0.029 A 
ATOM     37  N   UNL A   1      45.304  25.959  27.807  1.00  0.00    -0.354 N 
ATOM     38  C   UNL A   1      41.284  27.278  28.670  1.00  0.00     0.074 A 
ATOM     39  C   UNL A   1      40.342  26.186  28.548  1.00  0.00     0.031 C 
ATOM     40  C   UNL A   1      46.891  24.499  27.217  1.00  0.00     0.029 A 
ATOM     41  C   UNL A   1      46.655  25.896  27.574  1.00  0.00     0.049 A 
ATOM     42  H   UNL A   1      44.847  26.774  28.117  1.00  0.00     0.167 HD
ATOM     43  C   UNL A   1      40.954  28.538  29.041  1.00  0.00     0.037 A 
ATOM     44  C   UNL A   1      47.592  26.861  27.619  1.00  0.00     0.037 A 
ATOM     45  C   UNL A   1      41.895  29.619  29.175  1.00  0.00     0.049 A 
ATOM     46  C   UNL A   1      47.190  28.265  27.980  1.00  0.00     0.074 A 
ATOM     47  C   UNL A   1      41.659  30.923  29.573  1.00  0.00     0.029 A 
ATOM     48  N   UNL A   1      43.252  29.520  28.909  1.00  0.00    -0.354 N 
ATOM     49  N   UNL A   1      46.007  28.729  28.301  1.00  0.00    -0.248 NA
ATOM     50  C   UNL A   1      48.253  29.279  27.977  1.00  0.00     0.031 C 
ATOM     51  C   UNL A   1      42.868  31.625  29.512  1.00  0.00     0.029 A 
ATOM     52  C   UNL A   1      43.864  30.747  29.113  1.00  0.00     0.049 A 
ATOM     53  H   UNL A   1      43.713  28.702  28.618  1.00  0.00     0.167 HD
ATOM     54  C   UNL A   1      46.187  30.081  28.559  1.00  0.00     0.074 A 
ATOM     55  C   UNL A   1      47.594  30.362  28.368  1.00  0.00     0.031 C 
ATOM     56  C   UNL A   1      45.267  31.007  28.924  1.00  0.00     0.037 A 
BRANCH  43  57
ATOM     57  C   UNL A   1      39.506  28.821  29.308  1.00  0.00     0.057 A 
ATOM     58  C   UNL A   1      38.951  28.696  30.587  1.00  0.00     0.134 A 
ATOM     59  C   UNL A   1      38.667  29.262  28.277  1.00  0.00     0.134 A 
ATOM     60  F   UNL A   1      39.699  28.266  31.614  1.00  0.00    -0.206 F 
ATOM     61  C   UNL A   1      37.606  28.981  30.828  1.00  0.00     0.040 A 
ATOM     62  C   UNL A   1      37.326  29.570  28.509  1.00  0.00     0.040 A 
ATOM     63  F   UNL A   1      39.138  29.406  27.029  1.00  0.00    -0.206 F 
ATOM     64  C   UNL A   1      36.791  29.425  29.787  1.00  0.00     0.006 A 
ENDBRANCH  43  57
BRANCH  44  65
ATOM     65  C   UNL A   1      49.003  26.540  27.294  1.00  0.00     0.057 A 
ATOM     66  C   UNL A   1      49.880  26.066  28.276  1.00  0.00     0.134 A 
ATOM     67  C   UNL A   1      49.510  26.708  26.000  1.00  0.00     0.134 A 
ATOM     68  F   UNL A   1      49.458  25.909  29.539  1.00  0.00    -0.206 F 
ATOM     69  C   UNL A   1      51.215  25.781  27.985  1.00  0.00     0.040 A 
ATOM     70  C   UNL A   1      50.836  26.405  25.690  1.00  0.00     0.040 A 
ATOM     71  F   UNL A   1      48.718  27.160  25.016  1.00  0.00    -0.206 F 
ATOM     72  C   UNL A   1      51.694  25.946  26.687  1.00  0.00     0.006 A 
ENDBRANCH  44  65
BRANCH  56  73
ATOM     73  C   UNL A   1      45.760  32.402  29.171  1.00  0.00     0.057 A 
ATOM     74  C   UNL A   1      45.772  33.368  28.158  1.00  0.00     0.134 A 
ATOM     75  C   UNL A   1      46.190  32.791  30.445  1.00  0.00     0.134 A 
ATOM     76  F   UNL A   1      45.385  33.054  26.913  1.00  0.00    -0.206 F 
ATOM     77  C   UNL A   1      46.211  34.671  28.401  1.00  0.00     0.040 A 
ATOM     78  C   UNL A   1      46.611  34.095  30.705  1.00  0.00     0.040 A 
ATOM     79  F   UNL A   1      46.196  31.913  31.460  1.00  0.00    -0.206 F 
ATOM     80  C   UNL A   1      46.627  35.038  29.680  1.00  0.00     0.006 A 
ENDBRANCH  56  73
ENDBRANCH  30  31
ENDBRANCH  23  25
ENDBRANCH  22  23
ENDBRANCH  21  22
ENDBRANCH  20  21
ENDBRANCH  19  20
ENDBRANCH   1  19
TORSDOF 17
ENDMDL
MODEL 3
REMARK VINA RESULT:      -9.8      3.826      7.781
REMARK SMILES COCCCN(C)C(=O)N1CCC(CC(=O)OCCOC(=O)c2ccc(-c3c4nc(c(-c5c(F)cccc5F)c5ccc([nH]5)c(-c5c(F)cccc5F)c5nc(c(-c6c(F)cccc6F)c6ccc3[nH]6)C=C5)C=C4)cc2)CC1
REMARK SMILES IDX 15 1 16 2 14 3 13 4 8 5 9 6 10 7 11 8 78 9 12 10 77 11 6 12
REMARK SMILES IDX 7 13 5 14 4 15 3 16 2 17 1 18 17 19 18 20 19 21 20 22 21 23
REMARK SMILES IDX 22 24 23 25 24 26 76 27 25 28 75 29 26 30 27 31 28 32 69 33
REMARK SMILES IDX 29 34 74 35 68 36 70 37 30 38 73 39 67 40 66 41 31 43 57 44
REMARK SMILES IDX 40 45 56 46 41 47 44 48 55 49 71 50 42 51 43 52 54 54 72 55
REMARK SMILES IDX 45 56 32 57 33 58 38 59 34 60 35 61 37 62 39 63 36 64 58 65
REMARK SMILES IDX 59 66 64 67 60 68 61 69 63 70 65 71 62 72 46 73 47 74 52 75
REMARK SMILES IDX 48 76 49 77 51 78 53 79 50 80
REMARK H PARENT 70 42 44 53
REMARK Flexibility Score: inf
ROOT
ATOM      1  C   UNL A   1      34.015  31.999  27.910  1.00  0.00     0.306 C 
ATOM      2  O   UNL A   1      35.155  32.098  27.472  1.00  0.00    -0.252 OA
ENDROOT
BRANCH   1   3
ATOM      3  C   UNL A   1      32.979  31.076  27.301  1.00  0.00     0.126 C 
BRANCH   3   4
ATOM      4  C   UNL A   1      33.547  29.925  26.451  1.00  0.00     0.003 C 
ATOM      5  C   UNL A   1      31.824  26.762  25.284  1.00  0.00     0.319 C 
ATOM      6  O   UNL A   1      31.103  26.998  26.251  1.00  0.00    -0.248 OA
ATOM      7  N   UNL A   1      33.061  27.364  25.157  1.00  0.00    -0.325 N 
ATOM      8  C   UNL A   1      33.901  27.408  26.340  1.00  0.00     0.121 C 
ATOM      9  C   UNL A   1      33.143  28.554  24.329  1.00  0.00     0.121 C 
ATOM     10  C   UNL A   1      33.554  28.596  27.231  1.00  0.00     0.026 C 
ATOM     11  C   UNL A   1      32.740  29.792  25.139  1.00  0.00     0.026 C 
BRANCH   5  12
ATOM     12  N   UNL A   1      31.469  25.884  24.278  1.00  0.00    -0.328 N 
ATOM     13  C   UNL A   1      30.114  25.722  23.774  1.00  0.00     0.148 C 
BRANCH  12  14
ATOM     14  C   UNL A   1      32.507  25.035  23.689  1.00  0.00     0.123 C 
BRANCH  14  15
ATOM     15  C   UNL A   1      32.677  23.680  24.390  1.00  0.00     0.050 C 
BRANCH  15  16
ATOM     16  C   UNL A   1      33.941  23.491  25.236  1.00  0.00     0.161 C 
BRANCH  16  17
ATOM     17  O   UNL A   1      35.035  24.308  24.815  1.00  0.00    -0.385 OA
ATOM     18  C   UNL A   1      36.315  23.811  25.182  1.00  0.00     0.194 C 
ENDBRANCH  16  17
ENDBRANCH  15  16
ENDBRANCH  14  15
ENDBRANCH  12  14
ENDBRANCH   5  12
ENDBRANCH   3   4
ENDBRANCH   1   3
BRANCH   1  19
ATOM     19  O   UNL A   1      33.515  32.714  28.947  1.00  0.00    -0.462 OA
BRANCH  19  20
ATOM     20  C   UNL A   1      34.319  33.803  29.439  1.00  0.00     0.274 C 
BRANCH  20  21
ATOM     21  C   UNL A   1      34.566  33.676  30.944  1.00  0.00     0.275 C 
BRANCH  21  22
ATOM     22  O   UNL A   1      34.776  32.302  31.318  1.00  0.00    -0.458 OA
BRANCH  22  23
ATOM     23  C   UNL A   1      35.727  32.088  32.254  1.00  0.00     0.338 C 
ATOM     24  O   UNL A   1      35.646  32.279  33.458  1.00  0.00    -0.246 OA
BRANCH  23  25
ATOM     25  C   UNL A   1      36.898  31.474  31.616  1.00  0.00     0.060 A 
ATOM     26  C   UNL A   1      37.916  30.963  32.425  1.00  0.00     0.016 A 
ATOM     27  C   UNL A   1      37.017  31.457  30.225  1.00  0.00     0.016 A 
ATOM     28  C   UNL A   1      39.066  30.431  31.844  1.00  0.00     0.010 A 
ATOM     29  C   UNL A   1      38.169  30.921  29.644  1.00  0.00     0.010 A 
ATOM     30  C   UNL A   1      39.204  30.415  30.451  1.00  0.00    -0.014 A 
BRANCH  30  31
ATOM     31  C   UNL A   1      40.448  29.904  29.829  1.00  0.00     0.031 A 
ATOM     32  C   UNL A   1      41.614  30.828  29.624  1.00  0.00     0.074 A 
ATOM     33  C   UNL A   1      40.527  28.619  29.439  1.00  0.00     0.049 A 
ATOM     34  N   UNL A   1      42.750  30.604  29.014  1.00  0.00    -0.248 NA
ATOM     35  C   UNL A   1      41.481  32.183  30.179  1.00  0.00     0.031 C 
ATOM     36  C   UNL A   1      39.476  27.617  29.614  1.00  0.00     0.029 A 
ATOM     37  N   UNL A   1      41.537  27.940  28.804  1.00  0.00    -0.354 N 
ATOM     38  C   UNL A   1      43.460  31.795  29.093  1.00  0.00     0.074 A 
ATOM     39  C   UNL A   1      42.622  32.742  29.796  1.00  0.00     0.031 C 
ATOM     40  C   UNL A   1      39.893  26.452  29.092  1.00  0.00     0.029 A 
ATOM     41  C   UNL A   1      41.220  26.637  28.511  1.00  0.00     0.049 A 
ATOM     42  H   UNL A   1      42.404  28.349  28.579  1.00  0.00     0.167 HD
ATOM     43  C   UNL A   1      44.698  32.070  28.620  1.00  0.00     0.037 A 
ATOM     44  C   UNL A   1      41.913  25.706  27.828  1.00  0.00     0.037 A 
ATOM     45  C   UNL A   1      45.536  31.123  27.932  1.00  0.00     0.049 A 
ATOM     46  C   UNL A   1      43.263  26.055  27.265  1.00  0.00     0.074 A 
ATOM     47  C   UNL A   1      46.818  31.302  27.441  1.00  0.00     0.029 A 
ATOM     48  N   UNL A   1      45.171  29.819  27.635  1.00  0.00    -0.354 N 
ATOM     49  N   UNL A   1      43.930  27.180  27.354  1.00  0.00    -0.248 NA
ATOM     50  C   UNL A   1      43.952  25.006  26.501  1.00  0.00     0.031 C 
ATOM     51  C   UNL A   1      47.215  30.116  26.813  1.00  0.00     0.029 A 
ATOM     52  C   UNL A   1      46.195  29.187  26.947  1.00  0.00     0.049 A 
ATOM     53  H   UNL A   1      44.313  29.403  27.876  1.00  0.00     0.167 HD
ATOM     54  C   UNL A   1      45.124  26.968  26.677  1.00  0.00     0.074 A 
ATOM     55  C   UNL A   1      45.095  25.604  26.192  1.00  0.00     0.031 C 
ATOM     56  C   UNL A   1      46.152  27.827  26.477  1.00  0.00     0.037 A 
BRANCH  43  57
ATOM     57  C   UNL A   1      45.215  33.465  28.811  1.00  0.00     0.057 A 
ATOM     58  C   UNL A   1      44.974  34.479  27.877  1.00  0.00     0.134 A 
ATOM     59  C   UNL A   1      45.933  33.804  29.965  1.00  0.00     0.134 A 
ATOM     60  F   UNL A   1      44.304  34.215  26.746  1.00  0.00    -0.206 F 
ATOM     61  C   UNL A   1      45.443  35.778  28.075  1.00  0.00     0.040 A 
ATOM     62  C   UNL A   1      46.390  35.104  30.185  1.00  0.00     0.040 A 
ATOM     63  F   UNL A   1      46.195  32.879  30.901  1.00  0.00    -0.206 F 
ATOM     64  C   UNL A   1      46.149  36.095  29.235  1.00  0.00     0.006 A 
ENDBRANCH  43  57
BRANCH  44  65
ATOM     65  C   UNL A   1      41.334  24.356  27.621  1.00  0.00     0.057 A 
ATOM     66  C   UNL A   1      40.305  24.146  26.697  1.00  0.00     0.134 A 
ATOM     67  C   UNL A   1      41.788  23.249  28.347  1.00  0.00     0.134 A 
ATOM     68  F   UNL A   1      39.812  25.173  25.990  1.00  0.00    -0.206 F 
ATOM     69  C   UNL A   1      39.739  22.884  26.509  1.00  0.00     0.040 A 
ATOM     70  C   UNL A   1      41.248  21.977  28.154  1.00  0.00     0.040 A 
ATOM     71  F   UNL A   1      42.771  23.387  29.248  1.00  0.00    -0.206 F 
ATOM     72  C   UNL A   1      40.215  21.794  27.236  1.00  0.00     0.006 A 
ENDBRANCH  44  65
BRANCH  56  73
ATOM     73  C   UNL A   1      47.344  27.307  25.730  1.00  0.00     0.057 A 
ATOM     74  C   UNL A   1      47.481  27.485  24.348  1.00  0.00     0.134 A 
ATOM     75  C   UNL A   1      48.382  26.656  26.407  1.00  0.00     0.134 A 
ATOM     76  F   UNL A   1      46.515  28.089  23.641  1.00  0.00    -0.206 F 
ATOM     77  C   UNL A   1      48.603  27.018  23.662  1.00  0.00     0.040 A 
ATOM     78  C   UNL A   1      49.518  26.203  25.736  1.00  0.00     0.040 A 
ATOM     79  F   UNL A   1      48.314  26.460  27.733  1.00  0.00    -0.206 F 
ATOM     80  C   UNL A   1      49.630  26.380  24.359  1.00  0.00     0.006 A 
ENDBRANCH  56  73
ENDBRANCH  30  31
ENDBRANCH  23  25
ENDBRANCH  22  23
ENDBRANCH  21  22
ENDBRANCH  20  21
ENDBRANCH  19  20
ENDBRANCH   1  19
TORSDOF 17
ENDMDL
