MODEL 1
REMARK VINA RESULT:     -10.3      0.000      0.000
REMARK SMILES CC(C)[C@@H](CC(=O)OCCOC(=O)c1ccc(-c2c3nc(c(-c4c(F)cccc4F)c4ccc([nH]4)c(-c4c(F)cccc4F)c4nc(c(-c5c(F)cccc5F)c5ccc2[nH]5)C=C4)C=C3)cc1)NC(=O)OCc1ccccc1
REMARK SMILES IDX 8 1 6 2 7 3 5 4 4 5 2 6 1 7 3 8 68 9 69 10 70 12 71 13 72 14
REMARK SMILES IDX 73 15 74 16 78 17 75 18 77 19 76 20 9 21 10 22 11 23 12 24
REMARK SMILES IDX 13 25 14 26 15 27 67 28 16 29 66 30 17 31 18 32 19 33 60 34
REMARK SMILES IDX 20 35 65 36 59 37 61 38 21 39 64 40 58 41 57 42 22 44 48 45
REMARK SMILES IDX 31 46 47 47 32 48 35 49 46 50 62 51 33 52 34 53 45 55 63 56
REMARK SMILES IDX 36 57 23 58 24 59 29 60 25 61 26 62 28 63 30 64 27 65 49 66
REMARK SMILES IDX 50 67 55 68 51 69 52 70 54 71 56 72 53 73 37 74 38 75 43 76
REMARK SMILES IDX 39 77 40 78 42 79 44 80 41 81
REMARK H PARENT 68 11 61 43 35 54
REMARK Flexibility Score: inf
ROOT
ATOM      1  O   UNL A   1      36.854  21.338  24.170  1.00  0.00    -0.462 OA
ENDROOT
BRANCH   1   2
ATOM      2  C   UNL A   1      36.658  22.607  23.742  1.00  0.00     0.308 C 
ATOM      3  O   UNL A   1      36.811  22.977  22.582  1.00  0.00    -0.252 OA
BRANCH   2   4
ATOM      4  C   UNL A   1      36.281  23.581  24.836  1.00  0.00     0.148 C 
BRANCH   4   5
ATOM      5  C   UNL A   1      34.829  23.645  25.334  1.00  0.00     0.099 C 
BRANCH   5   6
ATOM      6  C   UNL A   1      34.230  25.071  25.493  1.00  0.00     0.006 C 
ATOM      7  C   UNL A   1      34.054  25.784  24.149  1.00  0.00     0.009 C 
ATOM      8  C   UNL A   1      32.876  25.023  26.217  1.00  0.00     0.009 C 
ENDBRANCH   5   6
BRANCH   5   9
ATOM      9  N   UNL A   1      34.638  22.880  26.565  1.00  0.00    -0.318 N 
ATOM     10  C   UNL A   1      34.077  21.646  26.704  1.00  0.00     0.407 C 
ATOM     11  H   UNL A   1      34.954  23.308  27.394  1.00  0.00     0.167 HD
ATOM     12  O   UNL A   1      33.678  21.252  27.796  1.00  0.00    -0.225 OA
BRANCH  10  13
ATOM     13  O   UNL A   1      33.992  20.951  25.544  1.00  0.00    -0.445 OA
BRANCH  13  14
ATOM     14  C   UNL A   1      32.799  20.168  25.394  1.00  0.00     0.270 C 
BRANCH  14  15
ATOM     15  C   UNL A   1      33.070  18.727  25.040  1.00  0.00    -0.011 A 
ATOM     16  C   UNL A   1      32.612  17.685  25.858  1.00  0.00     0.007 A 
ATOM     17  C   UNL A   1      33.789  18.409  23.878  1.00  0.00     0.007 A 
ATOM     18  C   UNL A   1      32.882  16.357  25.525  1.00  0.00     0.000 A 
ATOM     19  C   UNL A   1      34.057  17.082  23.546  1.00  0.00     0.000 A 
ATOM     20  C   UNL A   1      33.604  16.058  24.372  1.00  0.00     0.000 A 
ENDBRANCH  14  15
ENDBRANCH  13  14
ENDBRANCH  10  13
ENDBRANCH   5   9
ENDBRANCH   4   5
ENDBRANCH   2   4
ENDBRANCH   1   2
BRANCH   1  21
ATOM     21  C   UNL A   1      37.863  21.142  25.183  1.00  0.00     0.274 C 
BRANCH  21  22
ATOM     22  C   UNL A   1      38.759  19.943  24.864  1.00  0.00     0.275 C 
BRANCH  22  23
ATOM     23  O   UNL A   1      39.419  19.450  26.045  1.00  0.00    -0.458 OA
BRANCH  23  24
ATOM     24  C   UNL A   1      40.762  19.613  26.041  1.00  0.00     0.338 C 
ATOM     25  O   UNL A   1      41.586  18.858  25.552  1.00  0.00    -0.246 OA
BRANCH  24  26
ATOM     26  C   UNL A   1      41.106  20.930  26.595  1.00  0.00     0.060 A 
ATOM     27  C   UNL A   1      41.601  21.908  25.731  1.00  0.00     0.016 A 
ATOM     28  C   UNL A   1      41.024  21.173  27.966  1.00  0.00     0.016 A 
ATOM     29  C   UNL A   1      42.024  23.137  26.229  1.00  0.00     0.010 A 
ATOM     30  C   UNL A   1      41.426  22.418  28.463  1.00  0.00     0.010 A 
ATOM     31  C   UNL A   1      41.938  23.405  27.600  1.00  0.00    -0.014 A 
BRANCH  31  32
ATOM     32  C   UNL A   1      42.397  24.712  28.129  1.00  0.00     0.031 A 
ATOM     33  C   UNL A   1      41.415  25.826  28.351  1.00  0.00     0.074 A 
ATOM     34  C   UNL A   1      43.700  24.899  28.408  1.00  0.00     0.049 A 
ATOM     35  N   UNL A   1      41.634  27.056  28.744  1.00  0.00    -0.248 NA
ATOM     36  C   UNL A   1      40.000  25.521  28.093  1.00  0.00     0.031 C 
ATOM     37  C   UNL A   1      44.751  23.890  28.258  1.00  0.00     0.029 A 
ATOM     38  N   UNL A   1      44.368  26.010  28.862  1.00  0.00    -0.354 N 
ATOM     39  C   UNL A   1      40.387  27.667  28.790  1.00  0.00     0.074 A 
ATOM     40  C   UNL A   1      39.421  26.689  28.339  1.00  0.00     0.031 C 
ATOM     41  C   UNL A   1      45.931  24.433  28.597  1.00  0.00     0.029 A 
ATOM     42  C   UNL A   1      45.728  25.836  28.944  1.00  0.00     0.049 A 
ATOM     43  H   UNL A   1      43.916  26.850  29.103  1.00  0.00     0.167 HD
ATOM     44  C   UNL A   1      40.074  28.921  29.190  1.00  0.00     0.037 A 
ATOM     45  C   UNL A   1      46.704  26.717  29.231  1.00  0.00     0.037 A 
ATOM     46  C   UNL A   1      41.033  29.901  29.620  1.00  0.00     0.049 A 
ATOM     47  C   UNL A   1      46.341  28.139  29.558  1.00  0.00     0.074 A 
ATOM     48  C   UNL A   1      40.809  31.198  30.048  1.00  0.00     0.029 A 
ATOM     49  N   UNL A   1      42.404  29.697  29.657  1.00  0.00    -0.354 N 
ATOM     50  N   UNL A   1      45.154  28.691  29.639  1.00  0.00    -0.248 NA
ATOM     51  C   UNL A   1      47.452  29.061  29.829  1.00  0.00     0.031 C 
ATOM     52  C   UNL A   1      42.050  31.794  30.299  1.00  0.00     0.029 A 
ATOM     53  C   UNL A   1      43.043  30.855  30.068  1.00  0.00     0.049 A 
ATOM     54  H   UNL A   1      42.856  28.854  29.425  1.00  0.00     0.167 HD
ATOM     55  C   UNL A   1      45.374  30.015  29.994  1.00  0.00     0.074 A 
ATOM     56  C   UNL A   1      46.807  30.182  30.123  1.00  0.00     0.031 C 
ATOM     57  C   UNL A   1      44.470  31.004  30.197  1.00  0.00     0.037 A 
BRANCH  44  58
ATOM     58  C   UNL A   1      38.626  29.305  29.172  1.00  0.00     0.057 A 
ATOM     59  C   UNL A   1      37.848  29.277  30.335  1.00  0.00     0.134 A 
ATOM     60  C   UNL A   1      38.011  29.729  27.989  1.00  0.00     0.134 A 
ATOM     61  F   UNL A   1      38.386  28.899  31.503  1.00  0.00    -0.206 F 
ATOM     62  C   UNL A   1      36.496  29.625  30.317  1.00  0.00     0.040 A 
ATOM     63  C   UNL A   1      36.666  30.102  27.963  1.00  0.00     0.040 A 
ATOM     64  F   UNL A   1      38.707  29.793  26.845  1.00  0.00    -0.206 F 
ATOM     65  C   UNL A   1      35.902  30.042  29.127  1.00  0.00     0.006 A 
ENDBRANCH  44  58
BRANCH  45  66
ATOM     66  C   UNL A   1      48.124  26.287  29.186  1.00  0.00     0.057 A 
ATOM     67  C   UNL A   1      48.753  25.737  30.307  1.00  0.00     0.134 A 
ATOM     68  C   UNL A   1      48.887  26.423  28.019  1.00  0.00     0.134 A 
ATOM     69  F   UNL A   1      48.083  25.603  31.461  1.00  0.00    -0.206 F 
ATOM     70  C   UNL A   1      50.094  25.348  30.274  1.00  0.00     0.040 A 
ATOM     71  C   UNL A   1      50.220  26.016  27.964  1.00  0.00     0.040 A 
ATOM     72  F   UNL A   1      48.342  26.944  26.909  1.00  0.00    -0.206 F 
ATOM     73  C   UNL A   1      50.830  25.482  29.098  1.00  0.00     0.006 A 
ENDBRANCH  45  66
BRANCH  57  74
ATOM     74  C   UNL A   1      44.999  32.345  30.609  1.00  0.00     0.057 A 
ATOM     75  C   UNL A   1      45.289  33.344  29.671  1.00  0.00     0.134 A 
ATOM     76  C   UNL A   1      45.184  32.653  31.963  1.00  0.00     0.134 A 
ATOM     77  F   UNL A   1      45.146  33.106  28.358  1.00  0.00    -0.206 F 
ATOM     78  C   UNL A   1      45.760  34.597  30.064  1.00  0.00     0.040 A 
ATOM     79  C   UNL A   1      45.631  33.910  32.370  1.00  0.00     0.040 A 
ATOM     80  F   UNL A   1      44.917  31.743  32.912  1.00  0.00    -0.206 F 
ATOM     81  C   UNL A   1      45.926  34.885  31.418  1.00  0.00     0.006 A 
ENDBRANCH  57  74
ENDBRANCH  31  32
ENDBRANCH  24  26
ENDBRANCH  23  24
ENDBRANCH  22  23
ENDBRANCH  21  22
ENDBRANCH   1  21
TORSDOF 17
ENDMDL
MODEL 2
REMARK VINA RESULT:     -10.2      4.408      8.766
REMARK SMILES CC(C)[C@@H](CC(=O)OCCOC(=O)c1ccc(-c2c3nc(c(-c4c(F)cccc4F)c4ccc([nH]4)c(-c4c(F)cccc4F)c4nc(c(-c5c(F)cccc5F)c5ccc2[nH]5)C=C4)C=C3)cc1)NC(=O)OCc1ccccc1
REMARK SMILES IDX 8 1 6 2 7 3 5 4 4 5 2 6 1 7 3 8 68 9 69 10 70 12 71 13 72 14
REMARK SMILES IDX 73 15 74 16 78 17 75 18 77 19 76 20 9 21 10 22 11 23 12 24
REMARK SMILES IDX 13 25 14 26 15 27 67 28 16 29 66 30 17 31 18 32 19 33 60 34
REMARK SMILES IDX 20 35 65 36 59 37 61 38 21 39 64 40 58 41 57 42 22 44 48 45
REMARK SMILES IDX 31 46 47 47 32 48 35 49 46 50 62 51 33 52 34 53 45 55 63 56
REMARK SMILES IDX 36 57 23 58 24 59 29 60 25 61 26 62 28 63 30 64 27 65 49 66
REMARK SMILES IDX 50 67 55 68 51 69 52 70 54 71 56 72 53 73 37 74 38 75 43 76
REMARK SMILES IDX 39 77 40 78 42 79 44 80 41 81
REMARK H PARENT 68 11 61 43 35 54
REMARK Flexibility Score: inf
ROOT
ATOM      1  O   UNL A   1      32.094  28.504  25.654  1.00  0.00    -0.462 OA
ENDROOT
BRANCH   1   2
ATOM      2  C   UNL A   1      31.280  27.508  26.072  1.00  0.00     0.308 C 
ATOM      3  O   UNL A   1      31.087  27.221  27.250  1.00  0.00    -0.252 OA
BRANCH   2   4
ATOM      4  C   UNL A   1      30.650  26.708  24.953  1.00  0.00     0.148 C 
BRANCH   4   5
ATOM      5  C   UNL A   1      30.886  25.192  24.871  1.00  0.00     0.099 C 
BRANCH   5   6
ATOM      6  C   UNL A   1      30.802  24.570  23.449  1.00  0.00     0.006 C 
ATOM      7  C   UNL A   1      31.765  25.235  22.461  1.00  0.00     0.009 C 
ATOM      8  C   UNL A   1      31.086  23.061  23.489  1.00  0.00     0.009 C 
ENDBRANCH   5   6
BRANCH   5   9
ATOM      9  N   UNL A   1      30.029  24.453  25.794  1.00  0.00    -0.318 N 
ATOM     10  C   UNL A   1      30.401  23.748  26.900  1.00  0.00     0.407 C 
ATOM     11  H   UNL A   1      29.064  24.467  25.595  1.00  0.00     0.167 HD
ATOM     12  O   UNL A   1      29.652  22.914  27.400  1.00  0.00    -0.225 OA
BRANCH  10  13
ATOM     13  O   UNL A   1      31.647  24.043  27.341  1.00  0.00    -0.445 OA
BRANCH  13  14
ATOM     14  C   UNL A   1      32.589  22.963  27.264  1.00  0.00     0.270 C 
BRANCH  14  15
ATOM     15  C   UNL A   1      33.576  23.111  26.132  1.00  0.00    -0.011 A 
ATOM     16  C   UNL A   1      34.121  24.362  25.811  1.00  0.00     0.007 A 
ATOM     17  C   UNL A   1      33.965  21.991  25.383  1.00  0.00     0.007 A 
ATOM     18  C   UNL A   1      35.024  24.488  24.754  1.00  0.00     0.000 A 
ATOM     19  C   UNL A   1      34.867  22.118  24.328  1.00  0.00     0.000 A 
ATOM     20  C   UNL A   1      35.393  23.367  24.014  1.00  0.00     0.000 A 
ENDBRANCH  14  15
ENDBRANCH  13  14
ENDBRANCH  10  13
ENDBRANCH   5   9
ENDBRANCH   4   5
ENDBRANCH   2   4
ENDBRANCH   1   2
BRANCH   1  21
ATOM     21  C   UNL A   1      31.485  29.563  24.887  1.00  0.00     0.274 C 
BRANCH  21  22
ATOM     22  C   UNL A   1      31.332  30.843  25.711  1.00  0.00     0.275 C 
BRANCH  22  23
ATOM     23  O   UNL A   1      32.117  30.791  26.917  1.00  0.00    -0.458 OA
BRANCH  23  24
ATOM     24  C   UNL A   1      32.722  31.957  27.239  1.00  0.00     0.338 C 
ATOM     25  O   UNL A   1      32.244  33.075  27.147  1.00  0.00    -0.246 OA
BRANCH  24  26
ATOM     26  C   UNL A   1      34.020  31.686  27.871  1.00  0.00     0.060 A 
ATOM     27  C   UNL A   1      34.461  30.364  27.948  1.00  0.00     0.016 A 
ATOM     28  C   UNL A   1      34.758  32.713  28.460  1.00  0.00     0.016 A 
ATOM     29  C   UNL A   1      35.641  30.054  28.619  1.00  0.00     0.010 A 
ATOM     30  C   UNL A   1      35.956  32.404  29.112  1.00  0.00     0.010 A 
ATOM     31  C   UNL A   1      36.402  31.073  29.205  1.00  0.00    -0.014 A 
BRANCH  31  32
ATOM     32  C   UNL A   1      37.654  30.739  29.927  1.00  0.00     0.031 A 
ATOM     33  C   UNL A   1      38.688  29.861  29.282  1.00  0.00     0.074 A 
ATOM     34  C   UNL A   1      37.862  31.225  31.164  1.00  0.00     0.049 A 
ATOM     35  N   UNL A   1      39.813  29.408  29.776  1.00  0.00    -0.248 NA
ATOM     36  C   UNL A   1      38.422  29.432  27.901  1.00  0.00     0.031 C 
ATOM     37  C   UNL A   1      36.946  32.106  31.892  1.00  0.00     0.029 A 
ATOM     38  N   UNL A   1      38.903  31.032  32.038  1.00  0.00    -0.354 N 
ATOM     39  C   UNL A   1      40.392  28.650  28.766  1.00  0.00     0.074 A 
ATOM     40  C   UNL A   1      39.474  28.664  27.648  1.00  0.00     0.031 C 
ATOM     41  C   UNL A   1      37.458  32.363  33.106  1.00  0.00     0.029 A 
ATOM     42  C   UNL A   1      38.712  31.632  33.259  1.00  0.00     0.049 A 
ATOM     43  H   UNL A   1      39.708  30.512  31.812  1.00  0.00     0.167 HD
ATOM     44  C   UNL A   1      41.588  28.017  28.763  1.00  0.00     0.037 A 
ATOM     45  C   UNL A   1      39.446  31.569  34.386  1.00  0.00     0.037 A 
ATOM     46  C   UNL A   1      42.493  27.984  29.879  1.00  0.00     0.049 A 
ATOM     47  C   UNL A   1      40.714  30.762  34.396  1.00  0.00     0.074 A 
ATOM     48  C   UNL A   1      43.731  27.371  29.968  1.00  0.00     0.029 A 
ATOM     49  N   UNL A   1      42.248  28.576  31.109  1.00  0.00    -0.354 N 
ATOM     50  N   UNL A   1      41.271  30.085  33.420  1.00  0.00    -0.248 NA
ATOM     51  C   UNL A   1      41.453  30.705  35.664  1.00  0.00     0.031 C 
ATOM     52  C   UNL A   1      44.213  27.552  31.269  1.00  0.00     0.029 A 
ATOM     53  C   UNL A   1      43.296  28.314  31.976  1.00  0.00     0.049 A 
ATOM     54  H   UNL A   1      41.448  29.104  31.333  1.00  0.00     0.167 HD
ATOM     55  C   UNL A   1      42.435  29.544  33.949  1.00  0.00     0.074 A 
ATOM     56  C   UNL A   1      42.510  29.980  35.328  1.00  0.00     0.031 C 
ATOM     57  C   UNL A   1      43.360  28.759  33.344  1.00  0.00     0.037 A 
BRANCH  44  58
ATOM     58  C   UNL A   1      41.980  27.298  27.509  1.00  0.00     0.057 A 
ATOM     59  C   UNL A   1      42.673  27.947  26.481  1.00  0.00     0.134 A 
ATOM     60  C   UNL A   1      41.685  25.941  27.338  1.00  0.00     0.134 A 
ATOM     61  F   UNL A   1      43.002  29.241  26.595  1.00  0.00    -0.206 F 
ATOM     62  C   UNL A   1      43.031  27.280  25.307  1.00  0.00     0.040 A 
ATOM     63  C   UNL A   1      42.057  25.257  26.179  1.00  0.00     0.040 A 
ATOM     64  F   UNL A   1      41.037  25.259  28.294  1.00  0.00    -0.206 F 
ATOM     65  C   UNL A   1      42.725  25.929  25.156  1.00  0.00     0.006 A 
ENDBRANCH  44  58
BRANCH  45  66
ATOM     66  C   UNL A   1      38.979  32.266  35.611  1.00  0.00     0.057 A 
ATOM     67  C   UNL A   1      39.288  33.609  35.846  1.00  0.00     0.134 A 
ATOM     68  C   UNL A   1      38.216  31.599  36.578  1.00  0.00     0.134 A 
ATOM     69  F   UNL A   1      40.036  34.295  34.969  1.00  0.00    -0.206 F 
ATOM     70  C   UNL A   1      38.867  34.263  37.006  1.00  0.00     0.040 A 
ATOM     71  C   UNL A   1      37.767  32.247  37.729  1.00  0.00     0.040 A 
ATOM     72  F   UNL A   1      37.886  30.310  36.411  1.00  0.00    -0.206 F 
ATOM     73  C   UNL A   1      38.098  33.583  37.948  1.00  0.00     0.006 A 
ENDBRANCH  45  66
BRANCH  57  74
ATOM     74  C   UNL A   1      44.548  28.344  34.160  1.00  0.00     0.057 A 
ATOM     75  C   UNL A   1      45.697  29.139  34.247  1.00  0.00     0.134 A 
ATOM     76  C   UNL A   1      44.525  27.154  34.898  1.00  0.00     0.134 A 
ATOM     77  F   UNL A   1      45.787  30.284  33.552  1.00  0.00    -0.206 F 
ATOM     78  C   UNL A   1      46.790  28.756  35.026  1.00  0.00     0.040 A 
ATOM     79  C   UNL A   1      45.601  26.773  35.700  1.00  0.00     0.040 A 
ATOM     80  F   UNL A   1      43.450  26.352  34.865  1.00  0.00    -0.206 F 
ATOM     81  C   UNL A   1      46.740  27.573  35.761  1.00  0.00     0.006 A 
ENDBRANCH  57  74
ENDBRANCH  31  32
ENDBRANCH  24  26
ENDBRANCH  23  24
ENDBRANCH  22  23
ENDBRANCH  21  22
ENDBRANCH   1  21
TORSDOF 17
ENDMDL
MODEL 3
REMARK VINA RESULT:     -10.1      3.573      9.254
REMARK SMILES CC(C)[C@@H](CC(=O)OCCOC(=O)c1ccc(-c2c3nc(c(-c4c(F)cccc4F)c4ccc([nH]4)c(-c4c(F)cccc4F)c4nc(c(-c5c(F)cccc5F)c5ccc2[nH]5)C=C4)C=C3)cc1)NC(=O)OCc1ccccc1
REMARK SMILES IDX 8 1 6 2 7 3 5 4 4 5 2 6 1 7 3 8 68 9 69 10 70 12 71 13 72 14
REMARK SMILES IDX 73 15 74 16 78 17 75 18 77 19 76 20 9 21 10 22 11 23 12 24
REMARK SMILES IDX 13 25 14 26 15 27 67 28 16 29 66 30 17 31 18 32 19 33 60 34
REMARK SMILES IDX 20 35 65 36 59 37 61 38 21 39 64 40 58 41 57 42 22 44 48 45
REMARK SMILES IDX 31 46 47 47 32 48 35 49 46 50 62 51 33 52 34 53 45 55 63 56
REMARK SMILES IDX 36 57 23 58 24 59 29 60 25 61 26 62 28 63 30 64 27 65 49 66
REMARK SMILES IDX 50 67 55 68 51 69 52 70 54 71 56 72 53 73 37 74 38 75 43 76
REMARK SMILES IDX 39 77 40 78 42 79 44 80 41 81
REMARK H PARENT 68 11 61 43 35 54
REMARK Flexibility Score: inf
ROOT
ATOM      1  O   UNL A   1      41.535  18.706  25.762  1.00  0.00    -0.462 OA
ENDROOT
BRANCH   1   2
ATOM      2  C   UNL A   1      42.845  18.437  25.962  1.00  0.00     0.308 C 
ATOM      3  O   UNL A   1      43.277  17.745  26.879  1.00  0.00    -0.252 OA
BRANCH   2   4
ATOM      4  C   UNL A   1      43.777  19.115  24.982  1.00  0.00     0.148 C 
BRANCH   4   5
ATOM      5  C   UNL A   1      44.297  20.530  25.276  1.00  0.00     0.099 C 
BRANCH   5   6
ATOM      6  C   UNL A   1      45.836  20.665  25.444  1.00  0.00     0.006 C 
ATOM      7  C   UNL A   1      46.555  19.317  25.351  1.00  0.00     0.009 C 
ATOM      8  C   UNL A   1      46.424  21.622  24.396  1.00  0.00     0.009 C 
ENDBRANCH   5   6
BRANCH   5   9
ATOM      9  N   UNL A   1      43.612  21.139  26.415  1.00  0.00    -0.318 N 
ATOM     10  C   UNL A   1      43.444  22.466  26.678  1.00  0.00     0.407 C 
ATOM     11  H   UNL A   1      43.224  20.515  27.071  1.00  0.00     0.167 HD
ATOM     12  O   UNL A   1      43.148  22.854  27.804  1.00  0.00    -0.225 OA
BRANCH  10  13
ATOM     13  O   UNL A   1      43.658  23.267  25.607  1.00  0.00    -0.445 OA
BRANCH  13  14
ATOM     14  C   UNL A   1      44.001  24.623  25.924  1.00  0.00     0.270 C 
BRANCH  14  15
ATOM     15  C   UNL A   1      45.485  24.841  26.092  1.00  0.00    -0.011 A 
ATOM     16  C   UNL A   1      46.274  25.282  25.020  1.00  0.00     0.007 A 
ATOM     17  C   UNL A   1      46.098  24.604  27.331  1.00  0.00     0.007 A 
ATOM     18  C   UNL A   1      47.647  25.466  25.185  1.00  0.00     0.000 A 
ATOM     19  C   UNL A   1      47.470  24.789  27.495  1.00  0.00     0.000 A 
ATOM     20  C   UNL A   1      48.242  25.219  26.420  1.00  0.00     0.000 A 
ENDBRANCH  14  15
ENDBRANCH  13  14
ENDBRANCH  10  13
ENDBRANCH   5   9
ENDBRANCH   4   5
ENDBRANCH   2   4
ENDBRANCH   1   2
BRANCH   1  21
ATOM     21  C   UNL A   1      40.898  19.582  26.716  1.00  0.00     0.274 C 
BRANCH  21  22
ATOM     22  C   UNL A   1      40.064  20.662  26.024  1.00  0.00     0.275 C 
BRANCH  22  23
ATOM     23  O   UNL A   1      40.027  21.876  26.798  1.00  0.00    -0.458 OA
BRANCH  23  24
ATOM     24  C   UNL A   1      39.102  22.772  26.385  1.00  0.00     0.338 C 
ATOM     25  O   UNL A   1      38.067  22.528  25.788  1.00  0.00    -0.246 OA
BRANCH  24  26
ATOM     26  C   UNL A   1      39.443  24.109  26.891  1.00  0.00     0.060 A 
ATOM     27  C   UNL A   1      40.083  25.003  26.031  1.00  0.00     0.016 A 
ATOM     28  C   UNL A   1      39.215  24.450  28.223  1.00  0.00     0.016 A 
ATOM     29  C   UNL A   1      40.506  26.246  26.496  1.00  0.00     0.010 A 
ATOM     30  C   UNL A   1      39.617  25.709  28.684  1.00  0.00     0.010 A 
ATOM     31  C   UNL A   1      40.274  26.611  27.827  1.00  0.00    -0.014 A 
BRANCH  31  32
ATOM     32  C   UNL A   1      40.733  27.932  28.322  1.00  0.00     0.031 A 
ATOM     33  C   UNL A   1      42.200  28.220  28.460  1.00  0.00     0.074 A 
ATOM     34  C   UNL A   1      39.829  28.874  28.650  1.00  0.00     0.049 A 
ATOM     35  N   UNL A   1      42.792  29.289  28.933  1.00  0.00    -0.248 NA
ATOM     36  C   UNL A   1      43.125  27.169  28.011  1.00  0.00     0.031 C 
ATOM     37  C   UNL A   1      38.376  28.725  28.540  1.00  0.00     0.029 A 
ATOM     38  N   UNL A   1      39.997  30.137  29.159  1.00  0.00    -0.354 N 
ATOM     39  C   UNL A   1      44.155  29.042  28.830  1.00  0.00     0.074 A 
ATOM     40  C   UNL A   1      44.305  27.706  28.295  1.00  0.00     0.031 C 
ATOM     41  C   UNL A   1      37.787  29.848  28.984  1.00  0.00     0.029 A 
ATOM     42  C   UNL A   1      38.815  30.773  29.450  1.00  0.00     0.049 A 
ATOM     43  H   UNL A   1      40.880  30.547  29.303  1.00  0.00     0.167 HD
ATOM     44  C   UNL A   1      45.188  29.862  29.135  1.00  0.00     0.037 A 
ATOM     45  C   UNL A   1      38.585  31.952  30.058  1.00  0.00     0.037 A 
ATOM     46  C   UNL A   1      45.044  31.182  29.685  1.00  0.00     0.049 A 
ATOM     47  C   UNL A   1      39.750  32.795  30.496  1.00  0.00     0.074 A 
ATOM     48  C   UNL A   1      46.034  32.089  30.023  1.00  0.00     0.029 A 
ATOM     49  N   UNL A   1      43.830  31.776  29.997  1.00  0.00    -0.354 N 
ATOM     50  N   UNL A   1      41.034  32.568  30.354  1.00  0.00    -0.248 NA
ATOM     51  C   UNL A   1      39.435  34.054  31.183  1.00  0.00     0.031 C 
ATOM     52  C   UNL A   1      45.419  33.214  30.584  1.00  0.00     0.029 A 
ATOM     53  C   UNL A   1      44.047  33.025  30.555  1.00  0.00     0.049 A 
ATOM     54  H   UNL A   1      42.947  31.371  29.844  1.00  0.00     0.167 HD
ATOM     55  C   UNL A   1      41.678  33.666  30.909  1.00  0.00     0.074 A 
ATOM     56  C   UNL A   1      40.644  34.563  31.382  1.00  0.00     0.031 C 
ATOM     57  C   UNL A   1      43.007  33.909  31.016  1.00  0.00     0.037 A 
BRANCH  44  58
ATOM     58  C   UNL A   1      46.571  29.344  28.886  1.00  0.00     0.057 A 
ATOM     59  C   UNL A   1      47.273  28.633  29.866  1.00  0.00     0.134 A 
ATOM     60  C   UNL A   1      47.198  29.535  27.650  1.00  0.00     0.134 A 
ATOM     61  F   UNL A   1      46.717  28.400  31.064  1.00  0.00    -0.206 F 
ATOM     62  C   UNL A   1      48.566  28.158  29.640  1.00  0.00     0.040 A 
ATOM     63  C   UNL A   1      48.481  29.045  27.402  1.00  0.00     0.040 A 
ATOM     64  F   UNL A   1      46.572  30.193  26.663  1.00  0.00    -0.206 F 
ATOM     65  C   UNL A   1      49.172  28.361  28.401  1.00  0.00     0.006 A 
ENDBRANCH  44  58
BRANCH  45  66
ATOM     66  C   UNL A   1      37.191  32.389  30.319  1.00  0.00     0.057 A 
ATOM     67  C   UNL A   1      36.488  33.170  29.396  1.00  0.00     0.134 A 
ATOM     68  C   UNL A   1      36.531  32.038  31.504  1.00  0.00     0.134 A 
ATOM     69  F   UNL A   1      37.074  33.558  28.254  1.00  0.00    -0.206 F 
ATOM     70  C   UNL A   1      35.183  33.598  29.647  1.00  0.00     0.040 A 
ATOM     71  C   UNL A   1      35.219  32.438  31.757  1.00  0.00     0.040 A 
ATOM     72  F   UNL A   1      37.151  31.291  32.430  1.00  0.00    -0.206 F 
ATOM     73  C   UNL A   1      34.542  33.226  30.828  1.00  0.00     0.006 A 
ENDBRANCH  45  66
BRANCH  57  74
ATOM     74  C   UNL A   1      43.419  35.208  31.642  1.00  0.00     0.057 A 
ATOM     75  C   UNL A   1      43.713  36.339  30.869  1.00  0.00     0.134 A 
ATOM     76  C   UNL A   1      43.486  35.339  33.034  1.00  0.00     0.134 A 
ATOM     77  F   UNL A   1      43.682  36.274  29.529  1.00  0.00    -0.206 F 
ATOM     78  C   UNL A   1      44.075  37.550  31.460  1.00  0.00     0.040 A 
ATOM     79  C   UNL A   1      43.822  36.552  33.637  1.00  0.00     0.040 A 
ATOM     80  F   UNL A   1      43.208  34.296  33.832  1.00  0.00    -0.206 F 
ATOM     81  C   UNL A   1      44.123  37.661  32.849  1.00  0.00     0.006 A 
ENDBRANCH  57  74
ENDBRANCH  31  32
ENDBRANCH  24  26
ENDBRANCH  23  24
ENDBRANCH  22  23
ENDBRANCH  21  22
ENDBRANCH   1  21
TORSDOF 17
ENDMDL
