MODEL 1
REMARK VINA RESULT:     -11.3      0.000      0.000
REMARK SMILES O=C(OCCOC(=O)c1cc(=O)[nH]c2ccc(C(F)(F)F)cc12)c1ccc(-c2c3nc(c(-c4c(F)cccc4F)c4ccc([nH]4)c(-c4c(F)cccc4F)c4nc(c(-c5c(F)cccc5F)c5ccc2[nH]5)C=C4)C=C3)cc1
REMARK SMILES IDX 4 1 3 2 2 3 1 4 24 5 25 6 77 7 26 8 76 9 27 10 28 11 29 12
REMARK SMILES IDX 70 13 30 14 75 15 69 16 71 17 31 18 74 19 68 20 67 21 32 23
REMARK SMILES IDX 58 24 41 25 57 26 42 27 45 28 56 29 72 30 43 31 44 32 55 34
REMARK SMILES IDX 73 35 46 36 33 37 34 38 39 39 35 40 36 41 38 42 40 43 37 44
REMARK SMILES IDX 59 45 60 46 65 47 61 48 62 49 64 50 66 51 63 52 47 53 48 54
REMARK SMILES IDX 53 55 49 56 50 57 52 58 54 59 51 60 5 61 6 62 7 63 8 64 9 65
REMARK SMILES IDX 10 66 23 67 11 68 14 69 22 70 12 71 13 72 15 73 17 74 16 76
REMARK SMILES IDX 18 77 19 78 20 79 21 80
REMARK H PARENT 71 22 45 33 13 75
REMARK Flexibility Score: inf
ROOT
ATOM      1  C   UNL A   1      46.328  24.715  25.297  1.00  0.00     0.275 C 
ENDROOT
BRANCH   1   2
ATOM      2  O   UNL A   1      45.117  25.258  24.744  1.00  0.00    -0.458 OA
BRANCH   2   3
ATOM      3  C   UNL A   1      43.853  25.189  25.223  1.00  0.00     0.338 C 
ATOM      4  O   UNL A   1      43.027  24.495  24.636  1.00  0.00    -0.246 OA
BRANCH   3   5
ATOM      5  C   UNL A   1      43.357  26.075  26.318  1.00  0.00     0.060 A 
ATOM      6  C   UNL A   1      43.701  27.413  26.509  1.00  0.00     0.016 A 
ATOM      7  C   UNL A   1      42.490  25.478  27.251  1.00  0.00     0.016 A 
ATOM      8  C   UNL A   1      43.131  28.158  27.545  1.00  0.00     0.010 A 
ATOM      9  C   UNL A   1      41.895  26.220  28.271  1.00  0.00     0.010 A 
ATOM     10  C   UNL A   1      42.225  27.567  28.430  1.00  0.00    -0.014 A 
BRANCH  10  11
ATOM     11  C   UNL A   1      41.776  28.318  29.620  1.00  0.00     0.031 A 
ATOM     12  C   UNL A   1      40.568  29.198  29.495  1.00  0.00     0.074 A 
ATOM     13  C   UNL A   1      42.401  28.177  30.802  1.00  0.00     0.049 A 
ATOM     14  N   UNL A   1      39.950  29.887  30.417  1.00  0.00    -0.248 NA
ATOM     15  C   UNL A   1      39.966  29.301  28.154  1.00  0.00     0.031 C 
ATOM     16  C   UNL A   1      43.560  27.323  31.043  1.00  0.00     0.029 A 
ATOM     17  N   UNL A   1      42.157  28.760  32.019  1.00  0.00    -0.354 N 
ATOM     18  C   UNL A   1      38.865  30.469  29.778  1.00  0.00     0.074 A 
ATOM     19  C   UNL A   1      38.954  30.124  28.376  1.00  0.00     0.031 C 
ATOM     20  C   UNL A   1      43.961  27.474  32.317  1.00  0.00     0.029 A 
ATOM     21  C   UNL A   1      43.076  28.422  32.983  1.00  0.00     0.049 A 
ATOM     22  H   UNL A   1      41.397  29.362  32.186  1.00  0.00     0.167 HD
ATOM     23  C   UNL A   1      37.857  31.190  30.319  1.00  0.00     0.037 A 
ATOM     24  C   UNL A   1      43.186  28.837  34.258  1.00  0.00     0.037 A 
ATOM     25  C   UNL A   1      37.790  31.549  31.707  1.00  0.00     0.049 A 
ATOM     26  C   UNL A   1      42.122  29.742  34.815  1.00  0.00     0.074 A 
ATOM     27  C   UNL A   1      36.815  32.272  32.369  1.00  0.00     0.029 A 
ATOM     28  N   UNL A   1      38.757  31.222  32.648  1.00  0.00    -0.354 N 
ATOM     29  N   UNL A   1      41.060  30.229  34.219  1.00  0.00    -0.248 NA
ATOM     30  C   UNL A   1      42.252  30.131  36.226  1.00  0.00     0.031 C 
ATOM     31  C   UNL A   1      37.216  32.421  33.701  1.00  0.00     0.029 A 
ATOM     32  C   UNL A   1      38.418  31.753  33.879  1.00  0.00     0.049 A 
ATOM     33  H   UNL A   1      39.566  30.690  32.466  1.00  0.00     0.167 HD
ATOM     34  C   UNL A   1      40.370  30.942  35.190  1.00  0.00     0.074 A 
ATOM     35  C   UNL A   1      41.140  30.829  36.413  1.00  0.00     0.031 C 
ATOM     36  C   UNL A   1      39.200  31.618  35.083  1.00  0.00     0.037 A 
BRANCH  23  37
ATOM     37  C   UNL A   1      36.771  31.629  29.386  1.00  0.00     0.057 A 
ATOM     38  C   UNL A   1      36.742  32.928  28.856  1.00  0.00     0.134 A 
ATOM     39  C   UNL A   1      35.720  30.769  29.051  1.00  0.00     0.134 A 
ATOM     40  F   UNL A   1      37.706  33.809  29.162  1.00  0.00    -0.206 F 
ATOM     41  C   UNL A   1      35.685  33.366  28.055  1.00  0.00     0.040 A 
ATOM     42  C   UNL A   1      34.671  31.187  28.231  1.00  0.00     0.040 A 
ATOM     43  F   UNL A   1      35.687  29.516  29.529  1.00  0.00    -0.206 F 
ATOM     44  C   UNL A   1      34.646  32.492  27.740  1.00  0.00     0.006 A 
ENDBRANCH  23  37
BRANCH  24  45
ATOM     45  C   UNL A   1      44.332  28.392  35.092  1.00  0.00     0.057 A 
ATOM     46  C   UNL A   1      45.533  29.109  35.132  1.00  0.00     0.134 A 
ATOM     47  C   UNL A   1      44.251  27.226  35.862  1.00  0.00     0.134 A 
ATOM     48  F   UNL A   1      45.678  30.224  34.402  1.00  0.00    -0.206 F 
ATOM     49  C   UNL A   1      46.619  28.673  35.895  1.00  0.00     0.040 A 
ATOM     50  C   UNL A   1      45.321  26.790  36.645  1.00  0.00     0.040 A 
ATOM     51  F   UNL A   1      43.130  26.489  35.858  1.00  0.00    -0.206 F 
ATOM     52  C   UNL A   1      46.513  27.512  36.658  1.00  0.00     0.006 A 
ENDBRANCH  24  45
BRANCH  36  53
ATOM     53  C   UNL A   1      38.662  32.250  36.331  1.00  0.00     0.057 A 
ATOM     54  C   UNL A   1      37.888  31.530  37.249  1.00  0.00     0.134 A 
ATOM     55  C   UNL A   1      38.969  33.581  36.640  1.00  0.00     0.134 A 
ATOM     56  F   UNL A   1      37.549  30.256  37.003  1.00  0.00    -0.206 F 
ATOM     57  C   UNL A   1      37.423  32.119  38.425  1.00  0.00     0.040 A 
ATOM     58  C   UNL A   1      38.532  34.173  37.825  1.00  0.00     0.040 A 
ATOM     59  F   UNL A   1      39.713  34.320  35.804  1.00  0.00    -0.206 F 
ATOM     60  C   UNL A   1      37.753  33.442  38.720  1.00  0.00     0.006 A 
ENDBRANCH  36  53
ENDBRANCH  10  11
ENDBRANCH   3   5
ENDBRANCH   2   3
ENDBRANCH   1   2
BRANCH   1  61
ATOM     61  C   UNL A   1      46.291  23.209  25.552  1.00  0.00     0.275 C 
BRANCH  61  62
ATOM     62  O   UNL A   1      46.331  22.420  24.354  1.00  0.00    -0.458 OA
BRANCH  62  63
ATOM     63  C   UNL A   1      45.153  21.831  24.007  1.00  0.00     0.339 C 
ATOM     64  O   UNL A   1      44.389  22.208  23.133  1.00  0.00    -0.246 OA
BRANCH  63  65
ATOM     65  C   UNL A   1      44.945  20.602  24.805  1.00  0.00     0.074 A 
ATOM     66  C   UNL A   1      45.884  19.648  24.699  1.00  0.00     0.088 A 
ATOM     67  C   UNL A   1      43.779  20.396  25.685  1.00  0.00     0.013 A 
ATOM     68  C   UNL A   1      45.766  18.370  25.430  1.00  0.00     0.249 A 
ATOM     69  C   UNL A   1      43.614  19.135  26.279  1.00  0.00     0.049 A 
ATOM     70  C   UNL A   1      42.783  21.365  25.882  1.00  0.00     0.024 A 
ATOM     71  O   UNL A   1      46.669  17.544  25.379  1.00  0.00    -0.270 OA
ATOM     72  N   UNL A   1      44.610  18.163  26.127  1.00  0.00    -0.322 N 
ATOM     73  C   UNL A   1      42.470  18.829  27.017  1.00  0.00     0.027 A 
ATOM     74  C   UNL A   1      41.622  21.072  26.621  1.00  0.00     0.056 A 
ATOM     75  H   UNL A   1      44.470  17.283  26.544  1.00  0.00     0.170 HD
ATOM     76  C   UNL A   1      41.471  19.792  27.175  1.00  0.00     0.015 A 
BRANCH  74  77
ATOM     77  C   UNL A   1      40.513  22.094  26.744  1.00  0.00     0.416 C 
ATOM     78  F   UNL A   1      40.438  22.664  27.976  1.00  0.00    -0.166 F 
ATOM     79  F   UNL A   1      40.658  23.114  25.855  1.00  0.00    -0.166 F 
ATOM     80  F   UNL A   1      39.281  21.566  26.502  1.00  0.00    -0.166 F 
ENDBRANCH  74  77
ENDBRANCH  63  65
ENDBRANCH  62  63
ENDBRANCH  61  62
ENDBRANCH   1  61
TORSDOF 12
ENDMDL
MODEL 2
REMARK VINA RESULT:     -11.3      5.139     12.150
REMARK SMILES O=C(OCCOC(=O)c1cc(=O)[nH]c2ccc(C(F)(F)F)cc12)c1ccc(-c2c3nc(c(-c4c(F)cccc4F)c4ccc([nH]4)c(-c4c(F)cccc4F)c4nc(c(-c5c(F)cccc5F)c5ccc2[nH]5)C=C4)C=C3)cc1
REMARK SMILES IDX 4 1 3 2 2 3 1 4 24 5 25 6 77 7 26 8 76 9 27 10 28 11 29 12
REMARK SMILES IDX 70 13 30 14 75 15 69 16 71 17 31 18 74 19 68 20 67 21 32 23
REMARK SMILES IDX 58 24 41 25 57 26 42 27 45 28 56 29 72 30 43 31 44 32 55 34
REMARK SMILES IDX 73 35 46 36 33 37 34 38 39 39 35 40 36 41 38 42 40 43 37 44
REMARK SMILES IDX 59 45 60 46 65 47 61 48 62 49 64 50 66 51 63 52 47 53 48 54
REMARK SMILES IDX 53 55 49 56 50 57 52 58 54 59 51 60 5 61 6 62 7 63 8 64 9 65
REMARK SMILES IDX 10 66 23 67 11 68 14 69 22 70 12 71 13 72 15 73 17 74 16 76
REMARK SMILES IDX 18 77 19 78 20 79 21 80
REMARK H PARENT 71 22 45 33 13 75
REMARK Flexibility Score: inf
ROOT
ATOM      1  C   UNL A   1      34.458  32.804  27.991  1.00  0.00     0.275 C 
ENDROOT
BRANCH   1   2
ATOM      2  O   UNL A   1      34.335  31.496  28.575  1.00  0.00    -0.458 OA
BRANCH   2   3
ATOM      3  C   UNL A   1      34.862  30.321  28.159  1.00  0.00     0.338 C 
ATOM      4  O   UNL A   1      34.132  29.498  27.611  1.00  0.00    -0.246 OA
BRANCH   3   5
ATOM      5  C   UNL A   1      36.246  29.888  28.514  1.00  0.00     0.060 A 
ATOM      6  C   UNL A   1      36.646  29.338  29.731  1.00  0.00     0.016 A 
ATOM      7  C   UNL A   1      37.228  30.094  27.529  1.00  0.00     0.016 A 
ATOM      8  C   UNL A   1      37.966  28.923  29.929  1.00  0.00     0.010 A 
ATOM      9  C   UNL A   1      38.541  29.658  27.707  1.00  0.00     0.010 A 
ATOM     10  C   UNL A   1      38.920  29.079  28.920  1.00  0.00    -0.014 A 
BRANCH  10  11
ATOM     11  C   UNL A   1      40.341  28.802  29.213  1.00  0.00     0.031 A 
ATOM     12  C   UNL A   1      40.900  27.462  28.838  1.00  0.00     0.074 A 
ATOM     13  C   UNL A   1      41.131  29.747  29.755  1.00  0.00     0.049 A 
ATOM     14  N   UNL A   1      42.127  27.025  28.928  1.00  0.00    -0.248 NA
ATOM     15  C   UNL A   1      39.950  26.490  28.270  1.00  0.00     0.031 C 
ATOM     16  C   UNL A   1      40.700  31.091  30.124  1.00  0.00     0.029 A 
ATOM     17  N   UNL A   1      42.457  29.714  30.100  1.00  0.00    -0.354 N 
ATOM     18  C   UNL A   1      42.105  25.748  28.389  1.00  0.00     0.074 A 
ATOM     19  C   UNL A   1      40.731  25.445  28.053  1.00  0.00     0.031 C 
ATOM     20  C   UNL A   1      41.729  31.743  30.693  1.00  0.00     0.029 A 
ATOM     21  C   UNL A   1      42.893  30.865  30.711  1.00  0.00     0.049 A 
ATOM     22  H   UNL A   1      43.040  28.941  29.927  1.00  0.00     0.167 HD
ATOM     23  C   UNL A   1      43.145  24.916  28.153  1.00  0.00     0.037 A 
ATOM     24  C   UNL A   1      44.099  31.169  31.226  1.00  0.00     0.037 A 
ATOM     25  C   UNL A   1      44.502  25.215  28.513  1.00  0.00     0.049 A 
ATOM     26  C   UNL A   1      45.220  30.180  31.067  1.00  0.00     0.074 A 
ATOM     27  C   UNL A   1      45.638  24.450  28.318  1.00  0.00     0.029 A 
ATOM     28  N   UNL A   1      44.903  26.373  29.164  1.00  0.00    -0.354 N 
ATOM     29  N   UNL A   1      45.203  29.002  30.490  1.00  0.00    -0.248 NA
ATOM     30  C   UNL A   1      46.532  30.571  31.598  1.00  0.00     0.031 C 
ATOM     31  C   UNL A   1      46.719  25.128  28.894  1.00  0.00     0.029 A 
ATOM     32  C   UNL A   1      46.264  26.333  29.407  1.00  0.00     0.049 A 
ATOM     33  H   UNL A   1      44.305  27.114  29.417  1.00  0.00     0.167 HD
ATOM     34  C   UNL A   1      46.508  28.530  30.547  1.00  0.00     0.074 A 
ATOM     35  C   UNL A   1      47.288  29.549  31.222  1.00  0.00     0.031 C 
ATOM     36  C   UNL A   1      47.017  27.366  30.074  1.00  0.00     0.037 A 
BRANCH  23  37
ATOM     37  C   UNL A   1      42.824  23.615  27.484  1.00  0.00     0.057 A 
ATOM     38  C   UNL A   1      42.865  23.479  26.088  1.00  0.00     0.134 A 
ATOM     39  C   UNL A   1      42.424  22.503  28.232  1.00  0.00     0.134 A 
ATOM     40  F   UNL A   1      43.214  24.517  25.314  1.00  0.00    -0.206 F 
ATOM     41  C   UNL A   1      42.483  22.292  25.459  1.00  0.00     0.040 A 
ATOM     42  C   UNL A   1      42.064  21.303  27.616  1.00  0.00     0.040 A 
ATOM     43  F   UNL A   1      42.359  22.569  29.570  1.00  0.00    -0.206 F 
ATOM     44  C   UNL A   1      42.083  21.199  26.225  1.00  0.00     0.006 A 
ENDBRANCH  23  37
BRANCH  24  45
ATOM     45  C   UNL A   1      44.307  32.463  31.924  1.00  0.00     0.057 A 
ATOM     46  C   UNL A   1      44.744  33.604  31.241  1.00  0.00     0.134 A 
ATOM     47  C   UNL A   1      44.084  32.583  33.301  1.00  0.00     0.134 A 
ATOM     48  F   UNL A   1      44.995  33.548  29.925  1.00  0.00    -0.206 F 
ATOM     49  C   UNL A   1      44.968  34.812  31.904  1.00  0.00     0.040 A 
ATOM     50  C   UNL A   1      44.282  33.790  33.973  1.00  0.00     0.040 A 
ATOM     51  F   UNL A   1      43.674  31.523  34.014  1.00  0.00    -0.206 F 
ATOM     52  C   UNL A   1      44.732  34.909  33.274  1.00  0.00     0.006 A 
ENDBRANCH  24  45
BRANCH  36  53
ATOM     53  C   UNL A   1      48.492  27.154  30.231  1.00  0.00     0.057 A 
ATOM     54  C   UNL A   1      49.026  26.443  31.312  1.00  0.00     0.134 A 
ATOM     55  C   UNL A   1      49.383  27.623  29.256  1.00  0.00     0.134 A 
ATOM     56  F   UNL A   1      48.225  25.981  32.284  1.00  0.00    -0.206 F 
ATOM     57  C   UNL A   1      50.398  26.221  31.428  1.00  0.00     0.040 A 
ATOM     58  C   UNL A   1      50.754  27.385  29.348  1.00  0.00     0.040 A 
ATOM     59  F   UNL A   1      48.931  28.304  28.193  1.00  0.00    -0.206 F 
ATOM     60  C   UNL A   1      51.265  26.685  30.440  1.00  0.00     0.006 A 
ENDBRANCH  36  53
ENDBRANCH  10  11
ENDBRANCH   3   5
ENDBRANCH   2   3
ENDBRANCH   1   2
BRANCH   1  61
ATOM     61  C   UNL A   1      33.128  33.483  27.667  1.00  0.00     0.275 C 
BRANCH  61  62
ATOM     62  O   UNL A   1      32.618  34.290  28.738  1.00  0.00    -0.458 OA
BRANCH  62  63
ATOM     63  C   UNL A   1      33.433  35.306  29.138  1.00  0.00     0.339 C 
ATOM     64  O   UNL A   1      34.053  36.062  28.405  1.00  0.00    -0.246 OA
BRANCH  63  65
ATOM     65  C   UNL A   1      33.420  35.421  30.613  1.00  0.00     0.074 A 
ATOM     66  C   UNL A   1      32.409  36.119  31.153  1.00  0.00     0.088 A 
ATOM     67  C   UNL A   1      34.446  34.813  31.481  1.00  0.00     0.013 A 
ATOM     68  C   UNL A   1      32.308  36.318  32.614  1.00  0.00     0.249 A 
ATOM     69  C   UNL A   1      34.410  35.109  32.853  1.00  0.00     0.049 A 
ATOM     70  C   UNL A   1      35.504  34.031  30.991  1.00  0.00     0.024 A 
ATOM     71  O   UNL A   1      31.339  36.894  33.093  1.00  0.00    -0.270 OA
ATOM     72  N   UNL A   1      33.346  35.856  33.372  1.00  0.00    -0.322 N 
ATOM     73  C   UNL A   1      35.421  34.675  33.711  1.00  0.00     0.027 A 
ATOM     74  C   UNL A   1      36.533  33.588  31.843  1.00  0.00     0.056 A 
ATOM     75  H   UNL A   1      33.345  36.060  34.334  1.00  0.00     0.170 HD
ATOM     76  C   UNL A   1      36.486  33.929  33.204  1.00  0.00     0.015 A 
BRANCH  74  77
ATOM     77  C   UNL A   1      37.717  32.830  31.284  1.00  0.00     0.416 C 
ATOM     78  F   UNL A   1      37.598  32.545  29.960  1.00  0.00    -0.166 F 
ATOM     79  F   UNL A   1      38.880  33.519  31.430  1.00  0.00    -0.166 F 
ATOM     80  F   UNL A   1      37.916  31.633  31.906  1.00  0.00    -0.166 F 
ENDBRANCH  74  77
ENDBRANCH  63  65
ENDBRANCH  62  63
ENDBRANCH  61  62
ENDBRANCH   1  61
TORSDOF 12
ENDMDL
MODEL 3
REMARK VINA RESULT:     -11.3      5.102     12.244
REMARK SMILES O=C(OCCOC(=O)c1cc(=O)[nH]c2ccc(C(F)(F)F)cc12)c1ccc(-c2c3nc(c(-c4c(F)cccc4F)c4ccc([nH]4)c(-c4c(F)cccc4F)c4nc(c(-c5c(F)cccc5F)c5ccc2[nH]5)C=C4)C=C3)cc1
REMARK SMILES IDX 4 1 3 2 2 3 1 4 24 5 25 6 77 7 26 8 76 9 27 10 28 11 29 12
REMARK SMILES IDX 70 13 30 14 75 15 69 16 71 17 31 18 74 19 68 20 67 21 32 23
REMARK SMILES IDX 58 24 41 25 57 26 42 27 45 28 56 29 72 30 43 31 44 32 55 34
REMARK SMILES IDX 73 35 46 36 33 37 34 38 39 39 35 40 36 41 38 42 40 43 37 44
REMARK SMILES IDX 59 45 60 46 65 47 61 48 62 49 64 50 66 51 63 52 47 53 48 54
REMARK SMILES IDX 53 55 49 56 50 57 52 58 54 59 51 60 5 61 6 62 7 63 8 64 9 65
REMARK SMILES IDX 10 66 23 67 11 68 14 69 22 70 12 71 13 72 15 73 17 74 16 76
REMARK SMILES IDX 18 77 19 78 20 79 21 80
REMARK H PARENT 71 22 45 33 13 75
REMARK Flexibility Score: inf
ROOT
ATOM      1  C   UNL A   1      34.512  32.981  28.004  1.00  0.00     0.275 C 
ENDROOT
BRANCH   1   2
ATOM      2  O   UNL A   1      34.286  31.676  28.565  1.00  0.00    -0.458 OA
BRANCH   2   3
ATOM      3  C   UNL A   1      34.710  30.470  28.123  1.00  0.00     0.338 C 
ATOM      4  O   UNL A   1      33.896  29.694  27.626  1.00  0.00    -0.246 OA
BRANCH   3   5
ATOM      5  C   UNL A   1      36.084  29.951  28.390  1.00  0.00     0.060 A 
ATOM      6  C   UNL A   1      36.530  29.391  29.587  1.00  0.00     0.016 A 
ATOM      7  C   UNL A   1      37.007  30.078  27.337  1.00  0.00     0.016 A 
ATOM      8  C   UNL A   1      37.830  28.892  29.702  1.00  0.00     0.010 A 
ATOM      9  C   UNL A   1      38.298  29.559  27.434  1.00  0.00     0.010 A 
ATOM     10  C   UNL A   1      38.721  28.971  28.628  1.00  0.00    -0.014 A 
BRANCH  10  11
ATOM     11  C   UNL A   1      40.138  28.605  28.828  1.00  0.00     0.031 A 
ATOM     12  C   UNL A   1      41.045  29.598  29.491  1.00  0.00     0.074 A 
ATOM     13  C   UNL A   1      40.593  27.390  28.474  1.00  0.00     0.049 A 
ATOM     14  N   UNL A   1      42.298  29.468  29.837  1.00  0.00    -0.248 NA
ATOM     15  C   UNL A   1      40.456  30.907  29.823  1.00  0.00     0.031 C 
ATOM     16  C   UNL A   1      39.791  26.339  27.857  1.00  0.00     0.029 A 
ATOM     17  N   UNL A   1      41.846  26.841  28.571  1.00  0.00    -0.354 N 
ATOM     18  C   UNL A   1      42.632  30.659  30.465  1.00  0.00     0.074 A 
ATOM     19  C   UNL A   1      41.482  31.531  30.377  1.00  0.00     0.031 C 
ATOM     20  C   UNL A   1      40.581  25.287  27.581  1.00  0.00     0.029 A 
ATOM     21  C   UNL A   1      41.938  25.586  28.019  1.00  0.00     0.049 A 
ATOM     22  H   UNL A   1      42.605  27.302  28.995  1.00  0.00     0.167 HD
ATOM     23  C   UNL A   1      43.782  30.982  31.099  1.00  0.00     0.037 A 
ATOM     24  C   UNL A   1      43.005  24.776  27.884  1.00  0.00     0.037 A 
ATOM     25  C   UNL A   1      44.928  30.120  31.159  1.00  0.00     0.049 A 
ATOM     26  C   UNL A   1      44.315  25.203  28.486  1.00  0.00     0.074 A 
ATOM     27  C   UNL A   1      46.146  30.339  31.777  1.00  0.00     0.029 A 
ATOM     28  N   UNL A   1      45.001  28.871  30.557  1.00  0.00    -0.354 N 
ATOM     29  N   UNL A   1      44.600  26.303  29.141  1.00  0.00    -0.248 NA
ATOM     30  C   UNL A   1      45.440  24.268  28.361  1.00  0.00     0.031 C 
ATOM     31  C   UNL A   1      46.971  29.240  31.509  1.00  0.00     0.029 A 
ATOM     32  C   UNL A   1      46.252  28.319  30.762  1.00  0.00     0.049 A 
ATOM     33  H   UNL A   1      44.269  28.442  30.056  1.00  0.00     0.167 HD
ATOM     34  C   UNL A   1      45.922  26.174  29.546  1.00  0.00     0.074 A 
ATOM     35  C   UNL A   1      46.383  24.890  29.056  1.00  0.00     0.031 C 
ATOM     36  C   UNL A   1      46.682  27.034  30.269  1.00  0.00     0.037 A 
BRANCH  23  37
ATOM     37  C   UNL A   1      43.830  32.326  31.757  1.00  0.00     0.057 A 
ATOM     38  C   UNL A   1      44.299  33.459  31.075  1.00  0.00     0.134 A 
ATOM     39  C   UNL A   1      43.454  32.485  33.095  1.00  0.00     0.134 A 
ATOM     40  F   UNL A   1      44.701  33.367  29.799  1.00  0.00    -0.206 F 
ATOM     41  C   UNL A   1      44.425  34.695  31.713  1.00  0.00     0.040 A 
ATOM     42  C   UNL A   1      43.552  33.721  33.736  1.00  0.00     0.040 A 
ATOM     43  F   UNL A   1      43.003  31.440  33.804  1.00  0.00    -0.206 F 
ATOM     44  C   UNL A   1      44.049  34.827  33.048  1.00  0.00     0.006 A 
ENDBRANCH  23  37
BRANCH  24  45
ATOM     45  C   UNL A   1      42.874  23.484  27.164  1.00  0.00     0.057 A 
ATOM     46  C   UNL A   1      43.181  23.367  25.803  1.00  0.00     0.134 A 
ATOM     47  C   UNL A   1      42.424  22.335  27.824  1.00  0.00     0.134 A 
ATOM     48  F   UNL A   1      43.598  24.436  25.111  1.00  0.00    -0.206 F 
ATOM     49  C   UNL A   1      43.029  22.157  25.121  1.00  0.00     0.040 A 
ATOM     50  C   UNL A   1      42.289  21.114  27.161  1.00  0.00     0.040 A 
ATOM     51  F   UNL A   1      42.104  22.384  29.126  1.00  0.00    -0.206 F 
ATOM     52  C   UNL A   1      42.586  21.025  25.802  1.00  0.00     0.006 A 
ENDBRANCH  24  45
BRANCH  36  53
ATOM     53  C   UNL A   1      48.073  26.593  30.609  1.00  0.00     0.057 A 
ATOM     54  C   UNL A   1      48.354  25.855  31.764  1.00  0.00     0.134 A 
ATOM     55  C   UNL A   1      49.135  26.867  29.737  1.00  0.00     0.134 A 
ATOM     56  F   UNL A   1      47.382  25.573  32.644  1.00  0.00    -0.206 F 
ATOM     57  C   UNL A   1      49.648  25.419  32.051  1.00  0.00     0.040 A 
ATOM     58  C   UNL A   1      50.428  26.415  30.000  1.00  0.00     0.040 A 
ATOM     59  F   UNL A   1      48.928  27.563  28.609  1.00  0.00    -0.206 F 
ATOM     60  C   UNL A   1      50.687  25.691  31.163  1.00  0.00     0.006 A 
ENDBRANCH  36  53
ENDBRANCH  10  11
ENDBRANCH   3   5
ENDBRANCH   2   3
ENDBRANCH   1   2
BRANCH   1  61
ATOM     61  C   UNL A   1      33.239  33.760  27.676  1.00  0.00     0.275 C 
BRANCH  61  62
ATOM     62  O   UNL A   1      32.706  34.489  28.791  1.00  0.00    -0.458 OA
BRANCH  62  63
ATOM     63  C   UNL A   1      33.468  35.535  29.217  1.00  0.00     0.339 C 
ATOM     64  O   UNL A   1      34.029  36.354  28.506  1.00  0.00    -0.246 OA
BRANCH  63  65
ATOM     65  C   UNL A   1      33.474  35.591  30.696  1.00  0.00     0.074 A 
ATOM     66  C   UNL A   1      32.498  36.308  31.275  1.00  0.00     0.088 A 
ATOM     67  C   UNL A   1      34.483  34.908  31.528  1.00  0.00     0.013 A 
ATOM     68  C   UNL A   1      32.421  36.453  32.743  1.00  0.00     0.249 A 
ATOM     69  C   UNL A   1      34.473  35.151  32.910  1.00  0.00     0.049 A 
ATOM     70  C   UNL A   1      35.503  34.104  30.995  1.00  0.00     0.024 A 
ATOM     71  O   UNL A   1      31.481  37.049  33.257  1.00  0.00    -0.270 OA
ATOM     72  N   UNL A   1      33.447  35.920  33.470  1.00  0.00    -0.322 N 
ATOM     73  C   UNL A   1      35.474  34.643  33.739  1.00  0.00     0.027 A 
ATOM     74  C   UNL A   1      36.521  33.586  31.817  1.00  0.00     0.056 A 
ATOM     75  H   UNL A   1      33.464  36.085  34.440  1.00  0.00     0.170 HD
ATOM     76  C   UNL A   1      36.502  33.874  33.190  1.00  0.00     0.015 A 
BRANCH  74  77
ATOM     77  C   UNL A   1      37.667  32.803  31.214  1.00  0.00     0.416 C 
ATOM     78  F   UNL A   1      37.841  31.579  31.781  1.00  0.00    -0.166 F 
ATOM     79  F   UNL A   1      37.497  32.592  29.881  1.00  0.00    -0.166 F 
ATOM     80  F   UNL A   1      38.864  33.444  31.336  1.00  0.00    -0.166 F 
ENDBRANCH  74  77
ENDBRANCH  63  65
ENDBRANCH  62  63
ENDBRANCH  61  62
ENDBRANCH   1  61
TORSDOF 12
ENDMDL
