MODEL 1
REMARK VINA RESULT:     -11.1      0.000      0.000
REMARK SMILES O=C(CC1(CC(=O)OCCOC(=O)c2ccc(-c3c4nc(c(-c5c(F)cccc5F)c5ccc([nH]5)c(-c5c(F)cccc5F)c5nc(c(-c6c(F)cccc6F)c6ccc3[nH]6)C=C5)C=C4)cc2)CCCC1)NNc1ccc([N+](=O)[O-])cc1
REMARK SMILES IDX 6 1 7 2 5 3 4 4 68 5 71 6 69 7 70 8 3 9 2 10 1 11 72 12
REMARK SMILES IDX 73 14 74 16 75 17 82 18 76 19 81 20 77 21 78 22 79 23 80 24
REMARK SMILES IDX 8 25 9 26 10 27 11 28 12 29 13 30 14 31 15 32 67 33 16 34
REMARK SMILES IDX 66 35 17 36 18 37 19 38 60 39 20 40 65 41 59 42 61 43 21 44
REMARK SMILES IDX 64 45 58 46 57 47 22 49 48 50 31 51 47 52 32 53 35 54 46 55
REMARK SMILES IDX 62 56 33 57 34 58 45 60 63 61 36 62 23 63 24 64 29 65 25 66
REMARK SMILES IDX 26 67 28 68 30 69 27 70 49 71 50 72 55 73 51 74 52 75 54 76
REMARK SMILES IDX 56 77 53 78 37 79 38 80 43 81 39 82 40 83 42 84 44 85 41 86
REMARK H PARENT 72 13 73 15 61 48 35 59
REMARK Flexibility Score: inf
ROOT
ATOM      1  C   UNL A   1      31.794  25.707  26.195  1.00  0.00     0.306 C 
ATOM      2  O   UNL A   1      31.135  24.926  26.874  1.00  0.00    -0.252 OA
ENDROOT
BRANCH   1   3
ATOM      3  C   UNL A   1      33.252  25.427  25.885  1.00  0.00     0.130 C 
BRANCH   3   4
ATOM      4  C   UNL A   1      33.656  24.258  24.941  1.00  0.00    -0.010 C 
ATOM      5  C   UNL A   1      33.578  22.933  25.746  1.00  0.00     0.008 C 
ATOM      6  C   UNL A   1      35.164  24.268  24.621  1.00  0.00     0.008 C 
ATOM      7  C   UNL A   1      34.834  22.898  26.611  1.00  0.00     0.001 C 
ATOM      8  C   UNL A   1      35.859  23.767  25.887  1.00  0.00     0.001 C 
BRANCH   4   9
ATOM      9  C   UNL A   1      32.682  24.168  23.738  1.00  0.00     0.109 C 
BRANCH   9  10
ATOM     10  C   UNL A   1      32.695  25.347  22.782  1.00  0.00     0.238 C 
ATOM     11  O   UNL A   1      33.646  25.588  22.044  1.00  0.00    -0.273 OA
ATOM     12  N   UNL A   1      31.541  26.100  22.851  1.00  0.00    -0.270 N 
ATOM     13  H   UNL A   1      30.845  25.884  23.514  1.00  0.00     0.191 HD
BRANCH  12  14
ATOM     14  N   UNL A   1      31.369  27.156  21.983  1.00  0.00    -0.299 N 
ATOM     15  H   UNL A   1      31.882  27.199  21.144  1.00  0.00     0.188 HD
BRANCH  14  16
ATOM     16  C   UNL A   1      30.462  28.162  22.307  1.00  0.00     0.055 A 
ATOM     17  C   UNL A   1      30.738  29.480  21.911  1.00  0.00     0.034 A 
ATOM     18  C   UNL A   1      29.238  27.907  22.943  1.00  0.00     0.034 A 
ATOM     19  C   UNL A   1      29.830  30.518  22.153  1.00  0.00     0.088 A 
ATOM     20  C   UNL A   1      28.324  28.933  23.206  1.00  0.00     0.088 A 
ATOM     21  C   UNL A   1      28.625  30.239  22.805  1.00  0.00     0.269 A 
BRANCH  21  22
ATOM     22  N   UNL A   1      27.665  31.318  23.062  1.00  0.00     0.062 N 
ATOM     23  O   UNL A   1      27.655  32.280  22.280  1.00  0.00    -0.258 OA
ATOM     24  O   UNL A   1      26.912  31.200  24.039  1.00  0.00    -0.258 OA
ENDBRANCH  21  22
ENDBRANCH  14  16
ENDBRANCH  12  14
ENDBRANCH   9  10
ENDBRANCH   4   9
ENDBRANCH   3   4
ENDBRANCH   1   3
BRANCH   1  25
ATOM     25  O   UNL A   1      31.311  26.865  25.676  1.00  0.00    -0.462 OA
BRANCH  25  26
ATOM     26  C   UNL A   1      31.642  28.055  26.427  1.00  0.00     0.274 C 
BRANCH  26  27
ATOM     27  C   UNL A   1      31.720  29.292  25.534  1.00  0.00     0.275 C 
BRANCH  27  28
ATOM     28  O   UNL A   1      32.966  29.983  25.723  1.00  0.00    -0.458 OA
BRANCH  28  29
ATOM     29  C   UNL A   1      32.954  30.942  26.676  1.00  0.00     0.338 C 
ATOM     30  O   UNL A   1      32.085  31.770  26.880  1.00  0.00    -0.246 OA
BRANCH  29  31
ATOM     31  C   UNL A   1      34.151  30.822  27.519  1.00  0.00     0.060 A 
ATOM     32  C   UNL A   1      34.912  31.959  27.796  1.00  0.00     0.016 A 
ATOM     33  C   UNL A   1      34.580  29.560  27.927  1.00  0.00     0.016 A 
ATOM     34  C   UNL A   1      36.129  31.833  28.464  1.00  0.00     0.010 A 
ATOM     35  C   UNL A   1      35.775  29.441  28.639  1.00  0.00     0.010 A 
ATOM     36  C   UNL A   1      36.566  30.573  28.898  1.00  0.00    -0.014 A 
BRANCH  36  37
ATOM     37  C   UNL A   1      37.856  30.432  29.616  1.00  0.00     0.031 A 
ATOM     38  C   UNL A   1      38.993  29.678  28.989  1.00  0.00     0.074 A 
ATOM     39  C   UNL A   1      37.998  30.964  30.844  1.00  0.00     0.049 A 
ATOM     40  N   UNL A   1      40.135  29.317  29.516  1.00  0.00    -0.248 NA
ATOM     41  C   UNL A   1      38.820  29.271  27.586  1.00  0.00     0.031 C 
ATOM     42  C   UNL A   1      36.982  31.745  31.551  1.00  0.00     0.029 A 
ATOM     43  N   UNL A   1      39.054  30.918  31.719  1.00  0.00    -0.354 N 
ATOM     44  C   UNL A   1      40.804  28.614  28.524  1.00  0.00     0.074 A 
ATOM     45  C   UNL A   1      39.940  28.597  27.361  1.00  0.00     0.031 C 
ATOM     46  C   UNL A   1      37.464  32.109  32.749  1.00  0.00     0.029 A 
ATOM     47  C   UNL A   1      38.799  31.543  32.914  1.00  0.00     0.049 A 
ATOM     48  H   UNL A   1      39.910  30.480  31.509  1.00  0.00     0.167 HD
ATOM     49  C   UNL A   1      42.027  28.034  28.578  1.00  0.00     0.037 A 
ATOM     50  C   UNL A   1      39.544  31.621  34.032  1.00  0.00     0.037 A 
ATOM     51  C   UNL A   1      42.899  28.074  29.722  1.00  0.00     0.049 A 
ATOM     52  C   UNL A   1      40.882  30.944  34.078  1.00  0.00     0.074 A 
ATOM     53  C   UNL A   1      44.161  27.525  29.867  1.00  0.00     0.029 A 
ATOM     54  N   UNL A   1      42.598  28.707  30.919  1.00  0.00    -0.354 N 
ATOM     55  N   UNL A   1      41.490  30.253  33.145  1.00  0.00    -0.248 NA
ATOM     56  C   UNL A   1      41.631  31.045  35.339  1.00  0.00     0.031 C 
ATOM     57  C   UNL A   1      44.617  27.809  31.160  1.00  0.00     0.029 A 
ATOM     58  C   UNL A   1      43.648  28.555  31.810  1.00  0.00     0.049 A 
ATOM     59  H   UNL A   1      41.763  29.193  31.107  1.00  0.00     0.167 HD
ATOM     60  C   UNL A   1      42.693  29.842  33.701  1.00  0.00     0.074 A 
ATOM     61  C   UNL A   1      42.737  30.373  35.048  1.00  0.00     0.031 C 
ATOM     62  C   UNL A   1      43.672  29.089  33.146  1.00  0.00     0.037 A 
BRANCH  49  63
ATOM     63  C   UNL A   1      42.486  27.282  27.366  1.00  0.00     0.057 A 
ATOM     64  C   UNL A   1      43.187  27.911  26.331  1.00  0.00     0.134 A 
ATOM     65  C   UNL A   1      42.251  25.907  27.252  1.00  0.00     0.134 A 
ATOM     66  F   UNL A   1      43.430  29.230  26.377  1.00  0.00    -0.206 F 
ATOM     67  C   UNL A   1      43.630  27.197  25.216  1.00  0.00     0.040 A 
ATOM     68  C   UNL A   1      42.702  25.180  26.150  1.00  0.00     0.040 A 
ATOM     69  F   UNL A   1      41.585  25.248  28.213  1.00  0.00    -0.206 F 
ATOM     70  C   UNL A   1      43.392  25.827  25.126  1.00  0.00     0.006 A 
ENDBRANCH  49  63
BRANCH  50  71
ATOM     71  C   UNL A   1      39.022  32.349  35.212  1.00  0.00     0.057 A 
ATOM     72  C   UNL A   1      39.212  33.727  35.350  1.00  0.00     0.134 A 
ATOM     73  C   UNL A   1      38.311  31.685  36.219  1.00  0.00     0.134 A 
ATOM     74  F   UNL A   1      39.903  34.409  34.426  1.00  0.00    -0.206 F 
ATOM     75  C   UNL A   1      38.717  34.422  36.455  1.00  0.00     0.040 A 
ATOM     76  C   UNL A   1      37.795  32.371  37.318  1.00  0.00     0.040 A 
ATOM     77  F   UNL A   1      38.096  30.364  36.138  1.00  0.00    -0.206 F 
ATOM     78  C   UNL A   1      38.002  33.744  37.440  1.00  0.00     0.006 A 
ENDBRANCH  50  71
BRANCH  62  79
ATOM     79  C   UNL A   1      44.875  28.811  33.992  1.00  0.00     0.057 A 
ATOM     80  C   UNL A   1      45.968  29.685  34.017  1.00  0.00     0.134 A 
ATOM     81  C   UNL A   1      44.931  27.672  34.803  1.00  0.00     0.134 A 
ATOM     82  F   UNL A   1      45.976  30.785  33.250  1.00  0.00    -0.206 F 
ATOM     83  C   UNL A   1      47.084  29.427  34.813  1.00  0.00     0.040 A 
ATOM     84  C   UNL A   1      46.035  27.411  35.614  1.00  0.00     0.040 A 
ATOM     85  F   UNL A   1      43.913  26.798  34.822  1.00  0.00    -0.206 F 
ATOM     86  C   UNL A   1      47.118  28.289  35.618  1.00  0.00     0.006 A 
ENDBRANCH  62  79
ENDBRANCH  36  37
ENDBRANCH  29  31
ENDBRANCH  28  29
ENDBRANCH  27  28
ENDBRANCH  26  27
ENDBRANCH  25  26
ENDBRANCH   1  25
TORSDOF 17
ENDMDL
MODEL 2
REMARK VINA RESULT:     -11.0      2.795      5.332
REMARK SMILES O=C(CC1(CC(=O)OCCOC(=O)c2ccc(-c3c4nc(c(-c5c(F)cccc5F)c5ccc([nH]5)c(-c5c(F)cccc5F)c5nc(c(-c6c(F)cccc6F)c6ccc3[nH]6)C=C5)C=C4)cc2)CCCC1)NNc1ccc([N+](=O)[O-])cc1
REMARK SMILES IDX 6 1 7 2 5 3 4 4 68 5 71 6 69 7 70 8 3 9 2 10 1 11 72 12
REMARK SMILES IDX 73 14 74 16 75 17 82 18 76 19 81 20 77 21 78 22 79 23 80 24
REMARK SMILES IDX 8 25 9 26 10 27 11 28 12 29 13 30 14 31 15 32 67 33 16 34
REMARK SMILES IDX 66 35 17 36 18 37 19 38 60 39 20 40 65 41 59 42 61 43 21 44
REMARK SMILES IDX 64 45 58 46 57 47 22 49 48 50 31 51 47 52 32 53 35 54 46 55
REMARK SMILES IDX 62 56 33 57 34 58 45 60 63 61 36 62 23 63 24 64 29 65 25 66
REMARK SMILES IDX 26 67 28 68 30 69 27 70 49 71 50 72 55 73 51 74 52 75 54 76
REMARK SMILES IDX 56 77 53 78 37 79 38 80 43 81 39 82 40 83 42 84 44 85 41 86
REMARK H PARENT 72 13 73 15 61 48 35 59
REMARK Flexibility Score: inf
ROOT
ATOM      1  C   UNL A   1      31.659  25.970  26.095  1.00  0.00     0.306 C 
ATOM      2  O   UNL A   1      31.329  25.093  26.887  1.00  0.00    -0.252 OA
ENDROOT
BRANCH   1   3
ATOM      3  C   UNL A   1      32.912  25.824  25.252  1.00  0.00     0.130 C 
BRANCH   3   4
ATOM      4  C   UNL A   1      32.979  24.782  24.100  1.00  0.00    -0.010 C 
ATOM      5  C   UNL A   1      33.932  25.330  23.003  1.00  0.00     0.008 C 
ATOM      6  C   UNL A   1      31.669  24.729  23.289  1.00  0.00     0.008 C 
ATOM      7  C   UNL A   1      33.128  26.378  22.240  1.00  0.00     0.001 C 
ATOM      8  C   UNL A   1      31.663  25.994  22.431  1.00  0.00     0.001 C 
BRANCH   4   9
ATOM      9  C   UNL A   1      33.540  23.432  24.617  1.00  0.00     0.109 C 
BRANCH   9  10
ATOM     10  C   UNL A   1      32.594  22.247  24.544  1.00  0.00     0.238 C 
ATOM     11  O   UNL A   1      31.602  22.149  25.261  1.00  0.00    -0.273 OA
ATOM     12  N   UNL A   1      32.982  21.314  23.604  1.00  0.00    -0.270 N 
ATOM     13  H   UNL A   1      33.827  21.428  23.110  1.00  0.00     0.191 HD
BRANCH  12  14
ATOM     14  N   UNL A   1      32.178  20.221  23.364  1.00  0.00    -0.299 N 
ATOM     15  H   UNL A   1      31.337  20.323  22.861  1.00  0.00     0.188 HD
BRANCH  14  16
ATOM     16  C   UNL A   1      32.568  18.972  23.841  1.00  0.00     0.055 A 
ATOM     17  C   UNL A   1      33.076  18.028  22.935  1.00  0.00     0.034 A 
ATOM     18  C   UNL A   1      32.556  18.639  25.203  1.00  0.00     0.034 A 
ATOM     19  C   UNL A   1      33.544  16.782  23.370  1.00  0.00     0.088 A 
ATOM     20  C   UNL A   1      33.006  17.394  25.655  1.00  0.00     0.088 A 
ATOM     21  C   UNL A   1      33.503  16.468  24.732  1.00  0.00     0.269 A 
BRANCH  21  22
ATOM     22  N   UNL A   1      33.992  15.167  25.198  1.00  0.00     0.062 N 
ATOM     23  O   UNL A   1      35.217  14.980  25.207  1.00  0.00    -0.258 OA
ATOM     24  O   UNL A   1      33.152  14.333  25.568  1.00  0.00    -0.258 OA
ENDBRANCH  21  22
ENDBRANCH  14  16
ENDBRANCH  12  14
ENDBRANCH   9  10
ENDBRANCH   4   9
ENDBRANCH   3   4
ENDBRANCH   1   3
BRANCH   1  25
ATOM     25  O   UNL A   1      30.971  27.124  25.901  1.00  0.00    -0.462 OA
BRANCH  25  26
ATOM     26  C   UNL A   1      31.587  28.304  26.468  1.00  0.00     0.274 C 
BRANCH  26  27
ATOM     27  C   UNL A   1      31.869  29.367  25.409  1.00  0.00     0.275 C 
BRANCH  27  28
ATOM     28  O   UNL A   1      33.113  30.037  25.673  1.00  0.00    -0.458 OA
BRANCH  28  29
ATOM     29  C   UNL A   1      33.070  30.963  26.656  1.00  0.00     0.338 C 
ATOM     30  O   UNL A   1      32.183  31.767  26.876  1.00  0.00    -0.246 OA
BRANCH  29  31
ATOM     31  C   UNL A   1      34.259  30.840  27.510  1.00  0.00     0.060 A 
ATOM     32  C   UNL A   1      35.007  31.978  27.815  1.00  0.00     0.016 A 
ATOM     33  C   UNL A   1      34.696  29.574  27.901  1.00  0.00     0.016 A 
ATOM     34  C   UNL A   1      36.218  31.851  28.494  1.00  0.00     0.010 A 
ATOM     35  C   UNL A   1      35.884  29.454  28.624  1.00  0.00     0.010 A 
ATOM     36  C   UNL A   1      36.662  30.589  28.911  1.00  0.00    -0.014 A 
BRANCH  36  37
ATOM     37  C   UNL A   1      37.945  30.446  29.641  1.00  0.00     0.031 A 
ATOM     38  C   UNL A   1      39.084  29.683  29.028  1.00  0.00     0.074 A 
ATOM     39  C   UNL A   1      38.079  30.985  30.866  1.00  0.00     0.049 A 
ATOM     40  N   UNL A   1      40.220  29.321  29.566  1.00  0.00    -0.248 NA
ATOM     41  C   UNL A   1      38.921  29.268  27.625  1.00  0.00     0.031 C 
ATOM     42  C   UNL A   1      37.061  31.776  31.559  1.00  0.00     0.029 A 
ATOM     43  N   UNL A   1      39.127  30.941  31.749  1.00  0.00    -0.354 N 
ATOM     44  C   UNL A   1      40.894  28.609  28.584  1.00  0.00     0.074 A 
ATOM     45  C   UNL A   1      40.040  28.588  27.414  1.00  0.00     0.031 C 
ATOM     46  C   UNL A   1      37.534  32.145  32.759  1.00  0.00     0.029 A 
ATOM     47  C   UNL A   1      38.866  31.575  32.939  1.00  0.00     0.049 A 
ATOM     48  H   UNL A   1      39.983  30.497  31.550  1.00  0.00     0.167 HD
ATOM     49  C   UNL A   1      42.114  28.023  28.652  1.00  0.00     0.037 A 
ATOM     50  C   UNL A   1      39.602  31.657  34.062  1.00  0.00     0.037 A 
ATOM     51  C   UNL A   1      42.976  28.067  29.803  1.00  0.00     0.049 A 
ATOM     52  C   UNL A   1      40.937  30.974  34.124  1.00  0.00     0.074 A 
ATOM     53  C   UNL A   1      44.235  27.513  29.962  1.00  0.00     0.029 A 
ATOM     54  N   UNL A   1      42.669  28.709  30.993  1.00  0.00    -0.354 N 
ATOM     55  N   UNL A   1      41.549  30.275  33.200  1.00  0.00    -0.248 NA
ATOM     56  C   UNL A   1      41.676  31.080  35.390  1.00  0.00     0.031 C 
ATOM     57  C   UNL A   1      44.681  27.804  31.257  1.00  0.00     0.029 A 
ATOM     58  C   UNL A   1      43.710  28.558  31.894  1.00  0.00     0.049 A 
ATOM     59  H   UNL A   1      41.834  29.200  31.171  1.00  0.00     0.167 HD
ATOM     60  C   UNL A   1      42.746  29.862  33.768  1.00  0.00     0.074 A 
ATOM     61  C   UNL A   1      42.781  30.402  35.112  1.00  0.00     0.031 C 
ATOM     62  C   UNL A   1      43.726  29.101  33.227  1.00  0.00     0.037 A 
BRANCH  49  63
ATOM     63  C   UNL A   1      42.580  27.262  27.449  1.00  0.00     0.057 A 
ATOM     64  C   UNL A   1      42.322  25.896  27.296  1.00  0.00     0.134 A 
ATOM     65  C   UNL A   1      43.266  27.915  26.417  1.00  0.00     0.134 A 
ATOM     66  F   UNL A   1      41.682  25.212  28.258  1.00  0.00    -0.206 F 
ATOM     67  C   UNL A   1      42.742  25.200  26.161  1.00  0.00     0.040 A 
ATOM     68  C   UNL A   1      43.676  27.233  25.271  1.00  0.00     0.040 A 
ATOM     69  F   UNL A   1      43.541  29.225  26.505  1.00  0.00    -0.206 F 
ATOM     70  C   UNL A   1      43.416  25.870  25.142  1.00  0.00     0.006 A 
ENDBRANCH  49  63
BRANCH  50  71
ATOM     71  C   UNL A   1      39.073  32.394  35.233  1.00  0.00     0.057 A 
ATOM     72  C   UNL A   1      38.359  31.735  36.237  1.00  0.00     0.134 A 
ATOM     73  C   UNL A   1      39.282  33.771  35.378  1.00  0.00     0.134 A 
ATOM     74  F   UNL A   1      38.112  30.422  36.138  1.00  0.00    -0.206 F 
ATOM     75  C   UNL A   1      37.863  32.421  37.347  1.00  0.00     0.040 A 
ATOM     76  C   UNL A   1      38.808  34.465  36.492  1.00  0.00     0.040 A 
ATOM     77  F   UNL A   1      39.963  34.455  34.448  1.00  0.00    -0.206 F 
ATOM     78  C   UNL A   1      38.092  33.790  37.479  1.00  0.00     0.006 A 
ENDBRANCH  50  71
BRANCH  62  79
ATOM     79  C   UNL A   1      44.921  28.823  34.084  1.00  0.00     0.057 A 
ATOM     80  C   UNL A   1      44.987  27.686  34.898  1.00  0.00     0.134 A 
ATOM     81  C   UNL A   1      46.021  29.689  34.080  1.00  0.00     0.134 A 
ATOM     82  F   UNL A   1      43.957  26.829  34.954  1.00  0.00    -0.206 F 
ATOM     83  C   UNL A   1      46.106  27.426  35.690  1.00  0.00     0.040 A 
ATOM     84  C   UNL A   1      47.150  29.431  34.856  1.00  0.00     0.040 A 
ATOM     85  F   UNL A   1      46.015  30.793  33.318  1.00  0.00    -0.206 F 
ATOM     86  C   UNL A   1      47.194  28.298  35.667  1.00  0.00     0.006 A 
ENDBRANCH  62  79
ENDBRANCH  36  37
ENDBRANCH  29  31
ENDBRANCH  28  29
ENDBRANCH  27  28
ENDBRANCH  26  27
ENDBRANCH  25  26
ENDBRANCH   1  25
TORSDOF 17
ENDMDL
MODEL 3
REMARK VINA RESULT:     -10.9      4.450      9.376
REMARK SMILES O=C(CC1(CC(=O)OCCOC(=O)c2ccc(-c3c4nc(c(-c5c(F)cccc5F)c5ccc([nH]5)c(-c5c(F)cccc5F)c5nc(c(-c6c(F)cccc6F)c6ccc3[nH]6)C=C5)C=C4)cc2)CCCC1)NNc1ccc([N+](=O)[O-])cc1
REMARK SMILES IDX 6 1 7 2 5 3 4 4 68 5 71 6 69 7 70 8 3 9 2 10 1 11 72 12
REMARK SMILES IDX 73 14 74 16 75 17 82 18 76 19 81 20 77 21 78 22 79 23 80 24
REMARK SMILES IDX 8 25 9 26 10 27 11 28 12 29 13 30 14 31 15 32 67 33 16 34
REMARK SMILES IDX 66 35 17 36 18 37 19 38 60 39 20 40 65 41 59 42 61 43 21 44
REMARK SMILES IDX 64 45 58 46 57 47 22 49 48 50 31 51 47 52 32 53 35 54 46 55
REMARK SMILES IDX 62 56 33 57 34 58 45 60 63 61 36 62 23 63 24 64 29 65 25 66
REMARK SMILES IDX 26 67 28 68 30 69 27 70 49 71 50 72 55 73 51 74 52 75 54 76
REMARK SMILES IDX 56 77 53 78 37 79 38 80 43 81 39 82 40 83 42 84 44 85 41 86
REMARK H PARENT 72 13 73 15 61 48 35 59
REMARK Flexibility Score: inf
ROOT
ATOM      1  C   UNL A   1      34.457  22.902  26.083  1.00  0.00     0.306 C 
ATOM      2  O   UNL A   1      34.710  23.263  27.228  1.00  0.00    -0.252 OA
ENDROOT
BRANCH   1   3
ATOM      3  C   UNL A   1      34.167  23.918  24.994  1.00  0.00     0.130 C 
BRANCH   3   4
ATOM      4  C   UNL A   1      32.794  24.645  24.929  1.00  0.00    -0.010 C 
ATOM      5  C   UNL A   1      32.852  25.695  23.786  1.00  0.00     0.008 C 
ATOM      6  C   UNL A   1      32.582  25.591  26.128  1.00  0.00     0.008 C 
ATOM      7  C   UNL A   1      33.645  26.873  24.345  1.00  0.00     0.001 C 
ATOM      8  C   UNL A   1      33.476  26.803  25.860  1.00  0.00     0.001 C 
BRANCH   4   9
ATOM      9  C   UNL A   1      31.657  23.637  24.621  1.00  0.00     0.109 C 
BRANCH   9  10
ATOM     10  C   UNL A   1      31.946  22.619  23.533  1.00  0.00     0.238 C 
ATOM     11  O   UNL A   1      32.218  22.945  22.381  1.00  0.00    -0.273 OA
ATOM     12  N   UNL A   1      31.858  21.318  23.984  1.00  0.00    -0.270 N 
ATOM     13  H   UNL A   1      31.571  21.130  24.908  1.00  0.00     0.191 HD
BRANCH  12  14
ATOM     14  N   UNL A   1      32.175  20.284  23.131  1.00  0.00    -0.299 N 
ATOM     15  H   UNL A   1      32.159  20.419  22.156  1.00  0.00     0.188 HD
BRANCH  14  16
ATOM     16  C   UNL A   1      32.519  19.044  23.665  1.00  0.00     0.055 A 
ATOM     17  C   UNL A   1      32.973  18.034  22.802  1.00  0.00     0.034 A 
ATOM     18  C   UNL A   1      32.513  18.780  25.043  1.00  0.00     0.034 A 
ATOM     19  C   UNL A   1      33.393  16.792  23.293  1.00  0.00     0.088 A 
ATOM     20  C   UNL A   1      32.917  17.541  25.551  1.00  0.00     0.088 A 
ATOM     21  C   UNL A   1      33.360  16.550  24.670  1.00  0.00     0.269 A 
BRANCH  21  22
ATOM     22  N   UNL A   1      33.801  15.253  25.195  1.00  0.00     0.062 N 
ATOM     23  O   UNL A   1      35.016  15.080  25.360  1.00  0.00    -0.258 OA
ATOM     24  O   UNL A   1      32.930  14.409  25.453  1.00  0.00    -0.258 OA
ENDBRANCH  21  22
ENDBRANCH  14  16
ENDBRANCH  12  14
ENDBRANCH   9  10
ENDBRANCH   4   9
ENDBRANCH   3   4
ENDBRANCH   1   3
BRANCH   1  25
ATOM     25  O   UNL A   1      34.405  21.606  25.683  1.00  0.00    -0.462 OA
BRANCH  25  26
ATOM     26  C   UNL A   1      35.300  21.265  24.598  1.00  0.00     0.274 C 
BRANCH  26  27
ATOM     27  C   UNL A   1      36.546  20.534  25.093  1.00  0.00     0.275 C 
BRANCH  27  28
ATOM     28  O   UNL A   1      37.712  21.364  24.965  1.00  0.00    -0.458 OA
BRANCH  28  29
ATOM     29  C   UNL A   1      38.743  21.037  25.776  1.00  0.00     0.338 C 
ATOM     30  O   UNL A   1      39.170  19.922  26.015  1.00  0.00    -0.246 OA
BRANCH  29  31
ATOM     31  C   UNL A   1      39.358  22.256  26.317  1.00  0.00     0.060 A 
ATOM     32  C   UNL A   1      38.869  23.503  25.927  1.00  0.00     0.016 A 
ATOM     33  C   UNL A   1      40.497  22.155  27.115  1.00  0.00     0.016 A 
ATOM     34  C   UNL A   1      39.539  24.663  26.312  1.00  0.00     0.010 A 
ATOM     35  C   UNL A   1      41.138  23.320  27.542  1.00  0.00     0.010 A 
ATOM     36  C   UNL A   1      40.675  24.581  27.130  1.00  0.00    -0.014 A 
BRANCH  36  37
ATOM     37  C   UNL A   1      41.389  25.811  27.551  1.00  0.00     0.031 A 
ATOM     38  C   UNL A   1      40.685  26.849  28.377  1.00  0.00     0.074 A 
ATOM     39  C   UNL A   1      42.665  26.004  27.172  1.00  0.00     0.049 A 
ATOM     40  N   UNL A   1      41.086  28.048  28.712  1.00  0.00    -0.248 NA
ATOM     41  C   UNL A   1      39.353  26.492  28.890  1.00  0.00     0.031 C 
ATOM     42  C   UNL A   1      43.470  25.060  26.396  1.00  0.00     0.029 A 
ATOM     43  N   UNL A   1      43.506  27.068  27.382  1.00  0.00    -0.354 N 
ATOM     44  C   UNL A   1      40.046  28.604  29.445  1.00  0.00     0.074 A 
ATOM     45  C   UNL A   1      38.994  27.610  29.507  1.00  0.00     0.031 C 
ATOM     46  C   UNL A   1      44.690  25.584  26.198  1.00  0.00     0.029 A 
ATOM     47  C   UNL A   1      44.734  26.919  26.786  1.00  0.00     0.049 A 
ATOM     48  H   UNL A   1      43.253  27.860  27.909  1.00  0.00     0.167 HD
ATOM     49  C   UNL A   1      39.975  29.831  30.013  1.00  0.00     0.037 A 
ATOM     50  C   UNL A   1      45.767  27.776  26.694  1.00  0.00     0.037 A 
ATOM     51  C   UNL A   1      41.030  30.809  29.977  1.00  0.00     0.049 A 
ATOM     52  C   UNL A   1      45.652  29.141  27.305  1.00  0.00     0.074 A 
ATOM     53  C   UNL A   1      41.054  32.076  30.534  1.00  0.00     0.029 A 
ATOM     54  N   UNL A   1      42.254  30.624  29.352  1.00  0.00    -0.354 N 
ATOM     55  N   UNL A   1      44.651  29.668  27.967  1.00  0.00    -0.248 NA
ATOM     56  C   UNL A   1      46.805  30.037  27.143  1.00  0.00     0.031 C 
ATOM     57  C   UNL A   1      42.287  32.666  30.229  1.00  0.00     0.029 A 
ATOM     58  C   UNL A   1      43.037  31.756  29.503  1.00  0.00     0.049 A 
ATOM     59  H   UNL A   1      42.526  29.808  28.873  1.00  0.00     0.167 HD
ATOM     60  C   UNL A   1      45.053  30.951  28.306  1.00  0.00     0.074 A 
ATOM     61  C   UNL A   1      46.396  31.120  27.789  1.00  0.00     0.031 C 
ATOM     62  C   UNL A   1      44.370  31.906  28.980  1.00  0.00     0.037 A 
BRANCH  49  63
ATOM     63  C   UNL A   1      38.698  30.195  30.706  1.00  0.00     0.057 A 
ATOM     64  C   UNL A   1      37.649  30.831  30.032  1.00  0.00     0.134 A 
ATOM     65  C   UNL A   1      38.506  29.875  32.056  1.00  0.00     0.134 A 
ATOM     66  F   UNL A   1      37.780  31.177  28.742  1.00  0.00    -0.206 F 
ATOM     67  C   UNL A   1      36.455  31.147  30.682  1.00  0.00     0.040 A 
ATOM     68  C   UNL A   1      37.310  30.171  32.711  1.00  0.00     0.040 A 
ATOM     69  F   UNL A   1      39.474  29.264  32.755  1.00  0.00    -0.206 F 
ATOM     70  C   UNL A   1      36.281  30.812  32.023  1.00  0.00     0.006 A 
ENDBRANCH  49  63
BRANCH  50  71
ATOM     71  C   UNL A   1      46.991  27.372  25.966  1.00  0.00     0.057 A 
ATOM     72  C   UNL A   1      47.098  27.547  24.583  1.00  0.00     0.134 A 
ATOM     73  C   UNL A   1      48.085  26.814  26.638  1.00  0.00     0.134 A 
ATOM     74  F   UNL A   1      46.073  28.057  23.887  1.00  0.00    -0.206 F 
ATOM     75  C   UNL A   1      48.251  27.176  23.889  1.00  0.00     0.040 A 
ATOM     76  C   UNL A   1      49.251  26.456  25.960  1.00  0.00     0.040 A 
ATOM     77  F   UNL A   1      48.041  26.625  27.965  1.00  0.00    -0.206 F 
ATOM     78  C   UNL A   1      49.334  26.634  24.580  1.00  0.00     0.006 A 
ENDBRANCH  50  71
BRANCH  62  79
ATOM     79  C   UNL A   1      45.072  33.208  29.209  1.00  0.00     0.057 A 
ATOM     80  C   UNL A   1      45.886  33.411  30.330  1.00  0.00     0.134 A 
ATOM     81  C   UNL A   1      44.950  34.257  28.291  1.00  0.00     0.134 A 
ATOM     82  F   UNL A   1      46.029  32.447  31.250  1.00  0.00    -0.206 F 
ATOM     83  C   UNL A   1      46.546  34.624  30.536  1.00  0.00     0.040 A 
ATOM     84  C   UNL A   1      45.616  35.468  28.479  1.00  0.00     0.040 A 
ATOM     85  F   UNL A   1      44.185  34.120  27.198  1.00  0.00    -0.206 F 
ATOM     86  C   UNL A   1      46.415  35.655  29.607  1.00  0.00     0.006 A 
ENDBRANCH  62  79
ENDBRANCH  36  37
ENDBRANCH  29  31
ENDBRANCH  28  29
ENDBRANCH  27  28
ENDBRANCH  26  27
ENDBRANCH  25  26
ENDBRANCH   1  25
TORSDOF 17
ENDMDL
