MODEL 1
REMARK VINA RESULT:     -11.9      0.000      0.000
REMARK SMILES COc1cc2c(cc1OC)[C@H](C(=O)OCCOC(=O)c1ccc(-c3c4nc(c(-c5c(F)cccc5F)c5ccc([nH]5)c(-c5c(F)cccc5F)c5nc(c(-c6c(F)cccc6F)c6ccc3[nH]6)C=C5)C=C4)cc1)[C@H](c1cccs1)N(C)C2=O
REMARK SMILES IDX 16 1 15 2 14 3 12 4 13 5 11 6 3 7 4 8 8 9 5 10 7 11 6 12
REMARK SMILES IDX 82 13 80 14 83 15 74 16 81 17 2 18 1 19 9 20 10 21 75 22
REMARK SMILES IDX 76 23 79 24 77 25 78 26 17 27 18 28 19 29 20 30 21 31 73 32
REMARK SMILES IDX 22 33 72 34 23 35 24 36 25 37 66 38 26 39 71 40 65 41 67 42
REMARK SMILES IDX 27 43 70 44 64 45 63 46 28 48 54 49 37 50 53 51 38 52 41 53
REMARK SMILES IDX 52 54 68 55 39 56 40 57 51 59 69 60 42 61 29 62 30 63 35 64
REMARK SMILES IDX 31 65 32 66 34 67 36 68 33 69 55 70 56 71 61 72 57 73 58 74
REMARK SMILES IDX 60 75 62 76 59 77 43 78 44 79 49 80 45 81 46 82 48 83 50 84
REMARK SMILES IDX 47 85
REMARK H PARENT 67 47 41 58
REMARK Flexibility Score: inf
ROOT
ATOM      1  C   UNL A   1      38.894  21.405  25.778  1.00  0.00     0.275 C 
ENDROOT
BRANCH   1   2
ATOM      2  C   UNL A   1      37.628  21.548  24.934  1.00  0.00     0.274 C 
BRANCH   2   3
ATOM      3  O   UNL A   1      37.334  22.929  24.626  1.00  0.00    -0.462 OA
BRANCH   3   4
ATOM      4  C   UNL A   1      36.130  23.143  24.018  1.00  0.00     0.316 C 
ATOM      5  O   UNL A   1      35.947  22.969  22.819  1.00  0.00    -0.251 OA
BRANCH   4   6
ATOM      6  C   UNL A   1      35.073  23.620  25.007  1.00  0.00     0.158 C 
ATOM      7  C   UNL A   1      31.755  25.739  23.217  1.00  0.00     0.161 A 
ATOM      8  C   UNL A   1      31.655  25.209  24.512  1.00  0.00     0.064 A 
ATOM      9  C   UNL A   1      33.005  25.750  22.577  1.00  0.00     0.161 A 
ATOM     10  C   UNL A   1      32.764  24.608  25.120  1.00  0.00     0.048 A 
ATOM     11  C   UNL A   1      34.110  25.172  23.210  1.00  0.00     0.056 A 
ATOM     12  C   UNL A   1      33.982  24.509  24.431  1.00  0.00    -0.015 A 
ATOM     13  C   UNL A   1      32.610  23.976  26.466  1.00  0.00     0.254 C 
ATOM     14  N   UNL A   1      33.490  22.933  26.754  1.00  0.00    -0.333 N 
ATOM     15  O   UNL A   1      31.736  24.369  27.231  1.00  0.00    -0.269 OA
ATOM     16  C   UNL A   1      34.381  22.417  25.697  1.00  0.00     0.144 C 
ATOM     17  C   UNL A   1      33.328  22.181  27.989  1.00  0.00     0.147 C 
BRANCH   7  18
ATOM     18  O   UNL A   1      30.662  26.170  22.517  1.00  0.00    -0.493 OA
ATOM     19  C   UNL A   1      30.353  27.553  22.593  1.00  0.00     0.278 C 
ENDBRANCH   7  18
BRANCH   9  20
ATOM     20  O   UNL A   1      33.342  26.241  21.343  1.00  0.00    -0.493 OA
ATOM     21  C   UNL A   1      32.827  25.606  20.187  1.00  0.00     0.278 C 
ENDBRANCH   9  20
BRANCH  16  22
ATOM     22  C   UNL A   1      33.623  21.475  24.736  1.00  0.00     0.028 A 
ATOM     23  C   UNL A   1      32.839  21.820  23.644  1.00  0.00     0.017 A 
ATOM     24  S   UNL A   1      33.660  19.751  24.883  1.00  0.00    -0.147 S 
ATOM     25  C   UNL A   1      32.145  20.715  23.075  1.00  0.00     0.012 A 
ATOM     26  C   UNL A   1      32.514  19.525  23.650  1.00  0.00     0.065 A 
ENDBRANCH  16  22
ENDBRANCH   4   6
ENDBRANCH   3   4
ENDBRANCH   2   3
ENDBRANCH   1   2
BRANCH   1  27
ATOM     27  O   UNL A   1      39.395  20.055  25.744  1.00  0.00    -0.458 OA
BRANCH  27  28
ATOM     28  C   UNL A   1      40.700  19.931  26.082  1.00  0.00     0.338 C 
ATOM     29  O   UNL A   1      41.408  18.944  25.916  1.00  0.00    -0.246 OA
BRANCH  28  30
ATOM     30  C   UNL A   1      41.245  21.233  26.509  1.00  0.00     0.060 A 
ATOM     31  C   UNL A   1      41.087  21.561  27.857  1.00  0.00     0.016 A 
ATOM     32  C   UNL A   1      41.899  22.119  25.648  1.00  0.00     0.016 A 
ATOM     33  C   UNL A   1      41.671  22.706  28.378  1.00  0.00     0.010 A 
ATOM     34  C   UNL A   1      42.401  23.327  26.154  1.00  0.00     0.010 A 
ATOM     35  C   UNL A   1      42.302  23.618  27.524  1.00  0.00    -0.014 A 
BRANCH  35  36
ATOM     36  C   UNL A   1      42.721  24.917  28.099  1.00  0.00     0.031 A 
ATOM     37  C   UNL A   1      41.672  25.959  28.358  1.00  0.00     0.074 A 
ATOM     38  C   UNL A   1      43.986  25.118  28.507  1.00  0.00     0.049 A 
ATOM     39  N   UNL A   1      41.796  27.140  28.905  1.00  0.00    -0.248 NA
ATOM     40  C   UNL A   1      40.295  25.616  27.964  1.00  0.00     0.031 C 
ATOM     41  C   UNL A   1      45.063  24.141  28.394  1.00  0.00     0.029 A 
ATOM     42  N   UNL A   1      44.572  26.190  29.131  1.00  0.00    -0.354 N 
ATOM     43  C   UNL A   1      40.519  27.681  28.918  1.00  0.00     0.074 A 
ATOM     44  C   UNL A   1      39.629  26.693  28.348  1.00  0.00     0.031 C 
ATOM     45  C   UNL A   1      46.169  24.636  28.973  1.00  0.00     0.029 A 
ATOM     46  C   UNL A   1      45.898  25.993  29.436  1.00  0.00     0.049 A 
ATOM     47  H   UNL A   1      44.088  27.021  29.341  1.00  0.00     0.167 HD
ATOM     48  C   UNL A   1      40.128  28.907  29.336  1.00  0.00     0.037 A 
ATOM     49  C   UNL A   1      46.793  26.831  29.997  1.00  0.00     0.037 A 
ATOM     50  C   UNL A   1      41.025  29.907  29.845  1.00  0.00     0.049 A 
ATOM     51  C   UNL A   1      46.352  28.227  30.357  1.00  0.00     0.074 A 
ATOM     52  C   UNL A   1      40.746  31.212  30.208  1.00  0.00     0.029 A 
ATOM     53  N   UNL A   1      42.383  29.715  30.047  1.00  0.00    -0.354 N 
ATOM     54  N   UNL A   1      45.152  28.753  30.309  1.00  0.00    -0.248 NA
ATOM     55  C   UNL A   1      47.396  29.156  30.813  1.00  0.00     0.031 C 
ATOM     56  C   UNL A   1      41.947  31.825  30.582  1.00  0.00     0.029 A 
ATOM     57  C   UNL A   1      42.962  30.885  30.506  1.00  0.00     0.049 A 
ATOM     58  H   UNL A   1      42.865  28.871  29.887  1.00  0.00     0.167 HD
ATOM     59  C   UNL A   1      45.295  30.069  30.734  1.00  0.00     0.074 A 
ATOM     60  C   UNL A   1      46.693  30.251  31.063  1.00  0.00     0.031 C 
ATOM     61  C   UNL A   1      44.357  31.044  30.829  1.00  0.00     0.037 A 
BRANCH  48  62
ATOM     62  C   UNL A   1      38.682  29.251  29.153  1.00  0.00     0.057 A 
ATOM     63  C   UNL A   1      37.764  29.198  30.209  1.00  0.00     0.134 A 
ATOM     64  C   UNL A   1      38.199  29.612  27.889  1.00  0.00     0.134 A 
ATOM     65  F   UNL A   1      38.158  28.828  31.436  1.00  0.00    -0.206 F 
ATOM     66  C   UNL A   1      36.410  29.475  30.008  1.00  0.00     0.040 A 
ATOM     67  C   UNL A   1      36.853  29.912  27.681  1.00  0.00     0.040 A 
ATOM     68  F   UNL A   1      39.028  29.669  26.835  1.00  0.00    -0.206 F 
ATOM     69  C   UNL A   1      35.953  29.836  28.741  1.00  0.00     0.006 A 
ENDBRANCH  48  62
BRANCH  49  70
ATOM     70  C   UNL A   1      48.208  26.414  30.196  1.00  0.00     0.057 A 
ATOM     71  C   UNL A   1      49.169  26.587  29.192  1.00  0.00     0.134 A 
ATOM     72  C   UNL A   1      48.623  25.778  31.374  1.00  0.00     0.134 A 
ATOM     73  F   UNL A   1      48.833  27.160  28.026  1.00  0.00    -0.206 F 
ATOM     74  C   UNL A   1      50.480  26.130  29.343  1.00  0.00     0.040 A 
ATOM     75  C   UNL A   1      49.938  25.344  31.551  1.00  0.00     0.040 A 
ATOM     76  F   UNL A   1      47.754  25.571  32.374  1.00  0.00    -0.206 F 
ATOM     77  C   UNL A   1      50.868  25.510  30.529  1.00  0.00     0.006 A 
ENDBRANCH  49  70
BRANCH  61  78
ATOM     78  C   UNL A   1      44.809  32.386  31.323  1.00  0.00     0.057 A 
ATOM     79  C   UNL A   1      45.234  33.391  30.446  1.00  0.00     0.134 A 
ATOM     80  C   UNL A   1      44.766  32.694  32.689  1.00  0.00     0.134 A 
ATOM     81  F   UNL A   1      45.308  33.156  29.126  1.00  0.00    -0.206 F 
ATOM     82  C   UNL A   1      45.618  34.650  30.910  1.00  0.00     0.040 A 
ATOM     83  C   UNL A   1      45.121  33.957  33.162  1.00  0.00     0.040 A 
ATOM     84  F   UNL A   1      44.358  31.779  33.581  1.00  0.00    -0.206 F 
ATOM     85  C   UNL A   1      45.554  34.937  32.272  1.00  0.00     0.006 A 
ENDBRANCH  61  78
ENDBRANCH  35  36
ENDBRANCH  28  30
ENDBRANCH  27  28
ENDBRANCH   1  27
TORSDOF 14
ENDMDL
MODEL 2
REMARK VINA RESULT:     -11.9      4.071      5.502
REMARK SMILES COc1cc2c(cc1OC)[C@H](C(=O)OCCOC(=O)c1ccc(-c3c4nc(c(-c5c(F)cccc5F)c5ccc([nH]5)c(-c5c(F)cccc5F)c5nc(c(-c6c(F)cccc6F)c6ccc3[nH]6)C=C5)C=C4)cc1)[C@H](c1cccs1)N(C)C2=O
REMARK SMILES IDX 16 1 15 2 14 3 12 4 13 5 11 6 3 7 4 8 8 9 5 10 7 11 6 12
REMARK SMILES IDX 82 13 80 14 83 15 74 16 81 17 2 18 1 19 9 20 10 21 75 22
REMARK SMILES IDX 76 23 79 24 77 25 78 26 17 27 18 28 19 29 20 30 21 31 73 32
REMARK SMILES IDX 22 33 72 34 23 35 24 36 25 37 66 38 26 39 71 40 65 41 67 42
REMARK SMILES IDX 27 43 70 44 64 45 63 46 28 48 54 49 37 50 53 51 38 52 41 53
REMARK SMILES IDX 52 54 68 55 39 56 40 57 51 59 69 60 42 61 29 62 30 63 35 64
REMARK SMILES IDX 31 65 32 66 34 67 36 68 33 69 55 70 56 71 61 72 57 73 58 74
REMARK SMILES IDX 60 75 62 76 59 77 43 78 44 79 49 80 45 81 46 82 48 83 50 84
REMARK SMILES IDX 47 85
REMARK H PARENT 67 47 41 58
REMARK Flexibility Score: inf
ROOT
ATOM      1  C   UNL A   1      39.138  22.985  26.305  1.00  0.00     0.275 C 
ENDROOT
BRANCH   1   2
ATOM      2  C   UNL A   1      37.806  22.613  25.654  1.00  0.00     0.274 C 
BRANCH   2   3
ATOM      3  O   UNL A   1      37.252  23.707  24.888  1.00  0.00    -0.462 OA
BRANCH   3   4
ATOM      4  C   UNL A   1      36.029  23.462  24.333  1.00  0.00     0.316 C 
ATOM      5  O   UNL A   1      35.887  23.011  23.202  1.00  0.00    -0.251 OA
BRANCH   4   6
ATOM      6  C   UNL A   1      34.893  23.822  25.283  1.00  0.00     0.158 C 
ATOM      7  C   UNL A   1      31.738  26.186  23.507  1.00  0.00     0.161 A 
ATOM      8  C   UNL A   1      31.529  25.498  24.712  1.00  0.00     0.064 A 
ATOM      9  C   UNL A   1      33.036  26.265  22.979  1.00  0.00     0.161 A 
ATOM     10  C   UNL A   1      32.583  24.813  25.328  1.00  0.00     0.048 A 
ATOM     11  C   UNL A   1      34.084  25.599  23.624  1.00  0.00     0.056 A 
ATOM     12  C   UNL A   1      33.854  24.788  24.736  1.00  0.00    -0.015 A 
ATOM     13  C   UNL A   1      32.316  24.017  26.565  1.00  0.00     0.254 C 
ATOM     14  N   UNL A   1      33.168  22.936  26.790  1.00  0.00    -0.333 N 
ATOM     15  O   UNL A   1      31.381  24.320  27.299  1.00  0.00    -0.269 OA
ATOM     16  C   UNL A   1      34.145  22.549  25.754  1.00  0.00     0.144 C 
ATOM     17  C   UNL A   1      32.904  22.036  27.902  1.00  0.00     0.147 C 
BRANCH   7  18
ATOM     18  O   UNL A   1      30.707  26.715  22.779  1.00  0.00    -0.493 OA
ATOM     19  C   UNL A   1      29.707  27.421  23.497  1.00  0.00     0.278 C 
ENDBRANCH   7  18
BRANCH   9  20
ATOM     20  O   UNL A   1      33.476  26.904  21.851  1.00  0.00    -0.493 OA
ATOM     21  C   UNL A   1      34.028  28.203  21.966  1.00  0.00     0.278 C 
ENDBRANCH   9  20
BRANCH  16  22
ATOM     22  C   UNL A   1      33.470  21.744  24.622  1.00  0.00     0.028 A 
ATOM     23  C   UNL A   1      32.807  22.234  23.505  1.00  0.00     0.017 A 
ATOM     24  S   UNL A   1      33.459  20.014  24.572  1.00  0.00    -0.147 S 
ATOM     25  C   UNL A   1      32.153  21.222  22.747  1.00  0.00     0.012 A 
ATOM     26  C   UNL A   1      32.439  19.964  23.215  1.00  0.00     0.065 A 
ENDBRANCH  16  22
ENDBRANCH   4   6
ENDBRANCH   3   4
ENDBRANCH   2   3
ENDBRANCH   1   2
BRANCH   1  27
ATOM     27  O   UNL A   1      39.293  24.414  26.399  1.00  0.00    -0.458 OA
BRANCH  27  28
ATOM     28  C   UNL A   1      40.570  24.832  26.554  1.00  0.00     0.338 C 
ATOM     29  O   UNL A   1      41.523  24.559  25.832  1.00  0.00    -0.246 OA
BRANCH  28  30
ATOM     30  C   UNL A   1      40.651  25.851  27.618  1.00  0.00     0.060 A 
ATOM     31  C   UNL A   1      39.617  25.853  28.556  1.00  0.00     0.016 A 
ATOM     32  C   UNL A   1      41.690  26.779  27.724  1.00  0.00     0.016 A 
ATOM     33  C   UNL A   1      39.667  26.691  29.660  1.00  0.00     0.010 A 
ATOM     34  C   UNL A   1      41.689  27.698  28.785  1.00  0.00     0.010 A 
ATOM     35  C   UNL A   1      40.684  27.647  29.765  1.00  0.00    -0.014 A 
BRANCH  35  36
ATOM     36  C   UNL A   1      40.571  28.650  30.849  1.00  0.00     0.031 A 
ATOM     37  C   UNL A   1      39.514  29.709  30.740  1.00  0.00     0.074 A 
ATOM     38  C   UNL A   1      41.305  28.542  31.971  1.00  0.00     0.049 A 
ATOM     39  N   UNL A   1      39.195  30.650  31.589  1.00  0.00    -0.248 NA
ATOM     40  C   UNL A   1      38.694  29.694  29.517  1.00  0.00     0.031 C 
ATOM     41  C   UNL A   1      42.291  27.498  32.225  1.00  0.00     0.029 A 
ATOM     42  N   UNL A   1      41.310  29.293  33.119  1.00  0.00    -0.354 N 
ATOM     43  C   UNL A   1      38.142  31.339  31.004  1.00  0.00     0.074 A 
ATOM     44  C   UNL A   1      37.858  30.696  29.740  1.00  0.00     0.031 C 
ATOM     45  C   UNL A   1      42.773  27.642  33.470  1.00  0.00     0.029 A 
ATOM     46  C   UNL A   1      42.182  28.831  34.076  1.00  0.00     0.049 A 
ATOM     47  H   UNL A   1      40.742  30.087  33.245  1.00  0.00     0.167 HD
ATOM     48  C   UNL A   1      37.492  32.433  31.464  1.00  0.00     0.037 A 
ATOM     49  C   UNL A   1      42.486  29.334  35.289  1.00  0.00     0.037 A 
ATOM     50  C   UNL A   1      37.818  33.105  32.691  1.00  0.00     0.049 A 
ATOM     51  C   UNL A   1      41.821  30.612  35.730  1.00  0.00     0.074 A 
ATOM     52  C   UNL A   1      37.285  34.275  33.203  1.00  0.00     0.029 A 
ATOM     53  N   UNL A   1      38.779  32.672  33.593  1.00  0.00    -0.354 N 
ATOM     54  N   UNL A   1      40.867  31.294  35.143  1.00  0.00    -0.248 NA
ATOM     55  C   UNL A   1      42.299  31.211  36.985  1.00  0.00     0.031 C 
ATOM     56  C   UNL A   1      37.960  34.576  34.391  1.00  0.00     0.029 A 
ATOM     57  C   UNL A   1      38.872  33.564  34.647  1.00  0.00     0.049 A 
ATOM     58  H   UNL A   1      39.314  31.852  33.498  1.00  0.00     0.167 HD
ATOM     59  C   UNL A   1      40.628  32.396  35.955  1.00  0.00     0.074 A 
ATOM     60  C   UNL A   1      41.515  32.275  37.093  1.00  0.00     0.031 C 
ATOM     61  C   UNL A   1      39.763  33.424  35.771  1.00  0.00     0.037 A 
BRANCH  48  62
ATOM     62  C   UNL A   1      36.441  33.017  30.571  1.00  0.00     0.057 A 
ATOM     63  C   UNL A   1      35.078  32.754  30.754  1.00  0.00     0.134 A 
ATOM     64  C   UNL A   1      36.807  33.831  29.492  1.00  0.00     0.134 A 
ATOM     65  F   UNL A   1      34.667  31.954  31.749  1.00  0.00    -0.206 F 
ATOM     66  C   UNL A   1      34.117  33.267  29.882  1.00  0.00     0.040 A 
ATOM     67  C   UNL A   1      35.854  34.368  28.628  1.00  0.00     0.040 A 
ATOM     68  F   UNL A   1      38.098  34.111  29.258  1.00  0.00    -0.206 F 
ATOM     69  C   UNL A   1      34.504  34.079  28.817  1.00  0.00     0.006 A 
ENDBRANCH  48  62
BRANCH  49  70
ATOM     70  C   UNL A   1      43.508  28.681  36.152  1.00  0.00     0.057 A 
ATOM     71  C   UNL A   1      44.841  29.112  36.160  1.00  0.00     0.134 A 
ATOM     72  C   UNL A   1      43.191  27.571  36.948  1.00  0.00     0.134 A 
ATOM     73  F   UNL A   1      45.219  30.149  35.398  1.00  0.00    -0.206 F 
ATOM     74  C   UNL A   1      45.820  28.457  36.910  1.00  0.00     0.040 A 
ATOM     75  C   UNL A   1      44.153  26.926  37.726  1.00  0.00     0.040 A 
ATOM     76  F   UNL A   1      41.937  27.098  36.981  1.00  0.00    -0.206 F 
ATOM     77  C   UNL A   1      45.476  27.362  37.700  1.00  0.00     0.006 A 
ENDBRANCH  49  70
BRANCH  61  78
ATOM     78  C   UNL A   1      39.723  34.487  36.828  1.00  0.00     0.057 A 
ATOM     79  C   UNL A   1      38.908  34.372  37.961  1.00  0.00     0.134 A 
ATOM     80  C   UNL A   1      40.551  35.613  36.737  1.00  0.00     0.134 A 
ATOM     81  F   UNL A   1      38.084  33.322  38.102  1.00  0.00    -0.206 F 
ATOM     82  C   UNL A   1      38.903  35.348  38.958  1.00  0.00     0.040 A 
ATOM     83  C   UNL A   1      40.575  36.583  37.740  1.00  0.00     0.040 A 
ATOM     84  F   UNL A   1      41.363  35.778  35.682  1.00  0.00    -0.206 F 
ATOM     85  C   UNL A   1      39.745  36.454  38.851  1.00  0.00     0.006 A 
ENDBRANCH  61  78
ENDBRANCH  35  36
ENDBRANCH  28  30
ENDBRANCH  27  28
ENDBRANCH   1  27
TORSDOF 14
ENDMDL
MODEL 3
REMARK VINA RESULT:     -11.8      4.118      8.079
REMARK SMILES COc1cc2c(cc1OC)[C@H](C(=O)OCCOC(=O)c1ccc(-c3c4nc(c(-c5c(F)cccc5F)c5ccc([nH]5)c(-c5c(F)cccc5F)c5nc(c(-c6c(F)cccc6F)c6ccc3[nH]6)C=C5)C=C4)cc1)[C@H](c1cccs1)N(C)C2=O
REMARK SMILES IDX 16 1 15 2 14 3 12 4 13 5 11 6 3 7 4 8 8 9 5 10 7 11 6 12
REMARK SMILES IDX 82 13 80 14 83 15 74 16 81 17 2 18 1 19 9 20 10 21 75 22
REMARK SMILES IDX 76 23 79 24 77 25 78 26 17 27 18 28 19 29 20 30 21 31 73 32
REMARK SMILES IDX 22 33 72 34 23 35 24 36 25 37 66 38 26 39 71 40 65 41 67 42
REMARK SMILES IDX 27 43 70 44 64 45 63 46 28 48 54 49 37 50 53 51 38 52 41 53
REMARK SMILES IDX 52 54 68 55 39 56 40 57 51 59 69 60 42 61 29 62 30 63 35 64
REMARK SMILES IDX 31 65 32 66 34 67 36 68 33 69 55 70 56 71 61 72 57 73 58 74
REMARK SMILES IDX 60 75 62 76 59 77 43 78 44 79 49 80 45 81 46 82 48 83 50 84
REMARK SMILES IDX 47 85
REMARK H PARENT 67 47 41 58
REMARK Flexibility Score: inf
ROOT
ATOM      1  C   UNL A   1      31.839  32.004  27.030  1.00  0.00     0.275 C 
ENDROOT
BRANCH   1   2
ATOM      2  C   UNL A   1      32.432  30.607  26.852  1.00  0.00     0.274 C 
BRANCH   2   3
ATOM      3  O   UNL A   1      31.414  29.614  26.593  1.00  0.00    -0.462 OA
BRANCH   3   4
ATOM      4  C   UNL A   1      31.768  28.331  26.894  1.00  0.00     0.316 C 
ATOM      5  O   UNL A   1      31.443  27.774  27.936  1.00  0.00    -0.251 OA
BRANCH   4   6
ATOM      6  C   UNL A   1      32.608  27.700  25.789  1.00  0.00     0.158 C 
ATOM      7  C   UNL A   1      31.785  23.517  25.063  1.00  0.00     0.161 A 
ATOM      8  C   UNL A   1      32.465  24.292  24.111  1.00  0.00     0.064 A 
ATOM      9  C   UNL A   1      31.545  24.054  26.337  1.00  0.00     0.161 A 
ATOM     10  C   UNL A   1      32.811  25.619  24.393  1.00  0.00     0.048 A 
ATOM     11  C   UNL A   1      31.923  25.373  26.613  1.00  0.00     0.056 A 
ATOM     12  C   UNL A   1      32.461  26.196  25.623  1.00  0.00    -0.015 A 
ATOM     13  C   UNL A   1      33.459  26.450  23.332  1.00  0.00     0.254 C 
ATOM     14  N   UNL A   1      33.247  27.826  23.421  1.00  0.00    -0.333 N 
ATOM     15  O   UNL A   1      34.111  25.911  22.445  1.00  0.00    -0.269 OA
ATOM     16  C   UNL A   1      32.297  28.355  24.419  1.00  0.00     0.144 C 
ATOM     17  C   UNL A   1      33.735  28.694  22.362  1.00  0.00     0.147 C 
BRANCH   7  18
ATOM     18  O   UNL A   1      31.271  22.284  24.769  1.00  0.00    -0.493 OA
ATOM     19  C   UNL A   1      32.125  21.167  24.963  1.00  0.00     0.278 C 
ENDBRANCH   7  18
BRANCH   9  20
ATOM     20  O   UNL A   1      30.939  23.476  27.421  1.00  0.00    -0.493 OA
ATOM     21  C   UNL A   1      29.617  22.987  27.290  1.00  0.00     0.278 C 
ENDBRANCH   9  20
BRANCH  16  22
ATOM     22  C   UNL A   1      30.837  28.189  23.945  1.00  0.00     0.028 A 
ATOM     23  C   UNL A   1      29.961  27.150  24.225  1.00  0.00     0.017 A 
ATOM     24  S   UNL A   1      30.030  29.355  22.952  1.00  0.00    -0.147 S 
ATOM     25  C   UNL A   1      28.744  27.223  23.491  1.00  0.00     0.012 A 
ATOM     26  C   UNL A   1      28.648  28.384  22.767  1.00  0.00     0.065 A 
ENDBRANCH  16  22
ENDBRANCH   4   6
ENDBRANCH   3   4
ENDBRANCH   2   3
ENDBRANCH   1   2
BRANCH   1  27
ATOM     27  O   UNL A   1      32.834  33.025  26.823  1.00  0.00    -0.458 OA
BRANCH  27  28
ATOM     28  C   UNL A   1      33.212  33.677  27.947  1.00  0.00     0.338 C 
ATOM     29  O   UNL A   1      32.549  34.491  28.580  1.00  0.00    -0.246 OA
BRANCH  28  30
ATOM     30  C   UNL A   1      34.486  33.130  28.453  1.00  0.00     0.060 A 
ATOM     31  C   UNL A   1      34.397  31.994  29.260  1.00  0.00     0.016 A 
ATOM     32  C   UNL A   1      35.736  33.681  28.159  1.00  0.00     0.016 A 
ATOM     33  C   UNL A   1      35.543  31.337  29.682  1.00  0.00     0.010 A 
ATOM     34  C   UNL A   1      36.893  33.076  28.672  1.00  0.00     0.010 A 
ATOM     35  C   UNL A   1      36.801  31.893  29.423  1.00  0.00    -0.014 A 
BRANCH  35  36
ATOM     36  C   UNL A   1      37.974  31.265  30.075  1.00  0.00     0.031 A 
ATOM     37  C   UNL A   1      38.229  31.552  31.525  1.00  0.00     0.074 A 
ATOM     38  C   UNL A   1      38.720  30.354  29.426  1.00  0.00     0.049 A 
ATOM     39  N   UNL A   1      39.155  31.072  32.313  1.00  0.00    -0.248 NA
ATOM     40  C   UNL A   1      37.303  32.491  32.180  1.00  0.00     0.031 C 
ATOM     41  C   UNL A   1      38.504  29.926  28.049  1.00  0.00     0.029 A 
ATOM     42  N   UNL A   1      39.783  29.595  29.847  1.00  0.00    -0.354 N 
ATOM     43  C   UNL A   1      38.926  31.653  33.553  1.00  0.00     0.074 A 
ATOM     44  C   UNL A   1      37.762  32.500  33.422  1.00  0.00     0.031 C 
ATOM     45  C   UNL A   1      39.374  28.948  27.749  1.00  0.00     0.029 A 
ATOM     46  C   UNL A   1      40.256  28.728  28.891  1.00  0.00     0.049 A 
ATOM     47  H   UNL A   1      40.171  29.667  30.750  1.00  0.00     0.167 HD
ATOM     48  C   UNL A   1      39.645  31.518  34.691  1.00  0.00     0.037 A 
ATOM     49  C   UNL A   1      41.301  27.877  28.931  1.00  0.00     0.037 A 
ATOM     50  C   UNL A   1      40.837  30.723  34.800  1.00  0.00     0.049 A 
ATOM     51  C   UNL A   1      42.146  27.826  30.178  1.00  0.00     0.074 A 
ATOM     52  C   UNL A   1      41.692  30.592  35.880  1.00  0.00     0.029 A 
ATOM     53  N   UNL A   1      41.351  29.933  33.782  1.00  0.00    -0.354 N 
ATOM     54  N   UNL A   1      41.959  28.426  31.329  1.00  0.00    -0.248 NA
ATOM     55  C   UNL A   1      43.366  27.009  30.120  1.00  0.00     0.031 C 
ATOM     56  C   UNL A   1      42.751  29.762  35.497  1.00  0.00     0.029 A 
ATOM     57  C   UNL A   1      42.525  29.331  34.199  1.00  0.00     0.049 A 
ATOM     58  H   UNL A   1      40.941  29.817  32.895  1.00  0.00     0.167 HD
ATOM     59  C   UNL A   1      43.031  28.055  32.131  1.00  0.00     0.074 A 
ATOM     60  C   UNL A   1      43.848  27.155  31.345  1.00  0.00     0.031 C 
ATOM     61  C   UNL A   1      43.323  28.437  33.399  1.00  0.00     0.037 A 
BRANCH  48  62
ATOM     62  C   UNL A   1      39.207  32.337  35.866  1.00  0.00     0.057 A 
ATOM     63  C   UNL A   1      39.667  33.642  36.077  1.00  0.00     0.134 A 
ATOM     64  C   UNL A   1      38.333  31.793  36.816  1.00  0.00     0.134 A 
ATOM     65  F   UNL A   1      40.531  34.206  35.221  1.00  0.00    -0.206 F 
ATOM     66  C   UNL A   1      39.286  34.372  37.205  1.00  0.00     0.040 A 
ATOM     67  C   UNL A   1      37.928  32.521  37.934  1.00  0.00     0.040 A 
ATOM     68  F   UNL A   1      37.868  30.543  36.675  1.00  0.00    -0.206 F 
ATOM     69  C   UNL A   1      38.411  33.812  38.134  1.00  0.00     0.006 A 
ENDBRANCH  48  62
BRANCH  49  70
ATOM     70  C   UNL A   1      41.659  27.053  27.744  1.00  0.00     0.057 A 
ATOM     71  C   UNL A   1      42.419  27.579  26.691  1.00  0.00     0.134 A 
ATOM     72  C   UNL A   1      41.203  25.735  27.605  1.00  0.00     0.134 A 
ATOM     73  F   UNL A   1      42.861  28.844  26.744  1.00  0.00    -0.206 F 
ATOM     74  C   UNL A   1      42.694  26.836  25.542  1.00  0.00     0.040 A 
ATOM     75  C   UNL A   1      41.497  24.970  26.476  1.00  0.00     0.040 A 
ATOM     76  F   UNL A   1      40.462  25.170  28.570  1.00  0.00    -0.206 F 
ATOM     77  C   UNL A   1      42.237  25.525  25.434  1.00  0.00     0.006 A 
ENDBRANCH  49  70
BRANCH  61  78
ATOM     78  C   UNL A   1      44.565  27.870  34.020  1.00  0.00     0.057 A 
ATOM     79  C   UNL A   1      45.791  28.544  33.967  1.00  0.00     0.134 A 
ATOM     80  C   UNL A   1      44.521  26.659  34.724  1.00  0.00     0.134 A 
ATOM     81  F   UNL A   1      45.902  29.703  33.299  1.00  0.00    -0.206 F 
ATOM     82  C   UNL A   1      46.934  28.028  34.578  1.00  0.00     0.040 A 
ATOM     83  C   UNL A   1      45.651  26.146  35.361  1.00  0.00     0.040 A 
ATOM     84  F   UNL A   1      43.376  25.968  34.820  1.00  0.00    -0.206 F 
ATOM     85  C   UNL A   1      46.863  26.828  35.284  1.00  0.00     0.006 A 
ENDBRANCH  61  78
ENDBRANCH  35  36
ENDBRANCH  28  30
ENDBRANCH  27  28
ENDBRANCH   1  27
TORSDOF 14
ENDMDL
