MODEL 1
REMARK VINA RESULT:     -12.9      0.000      0.000
REMARK SMILES COc1ccc(N2C(=O)/C(=C/c3c(C(=O)OCCOC(=O)c4ccc(-c5c6nc(c(-c7c(F)cccc7F)c7ccc([nH]7)c(-c7c(F)cccc7F)c7nc(c(-c8c(F)cccc8F)c8ccc5[nH]8)C=C7)C=C6)cc4)[nH]c4cc(OC)ccc34)SC2=S)cc1
REMARK SMILES IDX 17 1 16 2 14 3 15 4 13 5 12 6 84 7 76 8 77 9 83 10 78 12
REMARK SMILES IDX 82 13 79 14 11 15 7 16 8 17 86 18 9 19 10 20 85 21 87 22
REMARK SMILES IDX 6 23 3 24 4 25 89 26 5 27 88 28 2 29 1 30 80 31 81 32 18 33
REMARK SMILES IDX 19 34 20 35 21 36 22 37 23 38 75 39 24 40 74 41 25 42 26 43
REMARK SMILES IDX 27 44 68 45 28 46 73 47 67 48 69 49 29 50 72 51 66 52 65 53
REMARK SMILES IDX 30 55 56 56 39 57 55 58 40 59 43 60 54 61 70 62 41 63 42 64
REMARK SMILES IDX 53 66 71 67 44 68 31 69 32 70 37 71 33 72 34 73 36 74 38 75
REMARK SMILES IDX 35 76 57 77 58 78 63 79 59 80 60 81 62 82 64 83 61 84 45 85
REMARK SMILES IDX 46 86 51 87 47 88 48 89 50 90 52 91 49 92
REMARK H PARENT 76 11 69 54 43 65
REMARK Flexibility Score: inf
ROOT
ATOM      1  C   UNL A   1      32.279  27.920  26.548  1.00  0.00     0.275 C 
ENDROOT
BRANCH   1   2
ATOM      2  O   UNL A   1      33.327  27.900  25.557  1.00  0.00    -0.457 OA
BRANCH   2   3
ATOM      3  C   UNL A   1      32.982  27.302  24.386  1.00  0.00     0.355 C 
ATOM      4  O   UNL A   1      33.632  26.419  23.838  1.00  0.00    -0.244 OA
BRANCH   3   5
ATOM      5  C   UNL A   1      31.713  27.775  23.898  1.00  0.00     0.133 A 
ATOM      6  C   UNL A   1      30.523  27.139  23.559  1.00  0.00     0.016 A 
ATOM      7  C   UNL A   1      29.520  28.159  23.380  1.00  0.00     0.008 A 
ATOM      8  N   UNL A   1      31.500  29.109  23.683  1.00  0.00    -0.348 N 
ATOM      9  C   UNL A   1      30.182  29.380  23.474  1.00  0.00     0.050 A 
ATOM     10  C   UNL A   1      28.129  28.215  23.139  1.00  0.00     0.015 A 
ATOM     11  H   UNL A   1      32.211  29.789  23.679  1.00  0.00     0.167 HD
ATOM     12  C   UNL A   1      29.570  30.626  23.332  1.00  0.00     0.073 A 
ATOM     13  C   UNL A   1      27.480  29.471  23.028  1.00  0.00     0.047 A 
ATOM     14  C   UNL A   1      28.197  30.664  23.114  1.00  0.00     0.120 A 
BRANCH   6  15
ATOM     15  C   UNL A   1      30.446  25.725  23.324  1.00  0.00     0.032 C 
ATOM     16  N   UNL A   1      31.793  22.905  25.015  1.00  0.00    -0.261 N 
ATOM     17  C   UNL A   1      31.149  23.440  23.889  1.00  0.00     0.270 C 
ATOM     18  C   UNL A   1      31.552  23.587  26.209  1.00  0.00     0.152 C 
ATOM     19  O   UNL A   1      31.098  22.989  22.752  1.00  0.00    -0.268 OA
ATOM     20  C   UNL A   1      30.526  24.749  24.244  1.00  0.00     0.081 C 
ATOM     21  S   UNL A   1      30.354  24.856  25.941  1.00  0.00    -0.054 SA
ATOM     22  S   UNL A   1      32.286  23.481  27.712  1.00  0.00    -0.051 S 
BRANCH  16  23
ATOM     23  C   UNL A   1      32.667  21.762  24.879  1.00  0.00     0.051 A 
ATOM     24  C   UNL A   1      34.376  19.499  24.613  1.00  0.00     0.119 A 
ATOM     25  C   UNL A   1      33.000  19.338  24.754  1.00  0.00     0.048 A 
ATOM     26  C   UNL A   1      34.898  20.786  24.577  1.00  0.00     0.048 A 
ATOM     27  C   UNL A   1      32.158  20.453  24.890  1.00  0.00     0.030 A 
ATOM     28  C   UNL A   1      34.054  21.897  24.726  1.00  0.00     0.030 A 
BRANCH  24  29
ATOM     29  O   UNL A   1      35.101  18.346  24.511  1.00  0.00    -0.497 OA
ATOM     30  C   UNL A   1      34.438  17.251  23.884  1.00  0.00     0.278 C 
ENDBRANCH  24  29
ENDBRANCH  16  23
ENDBRANCH   6  15
BRANCH  14  31
ATOM     31  O   UNL A   1      27.715  31.937  22.992  1.00  0.00    -0.497 OA
ATOM     32  C   UNL A   1      28.634  32.970  22.682  1.00  0.00     0.278 C 
ENDBRANCH  14  31
ENDBRANCH   3   5
ENDBRANCH   2   3
ENDBRANCH   1   2
BRANCH   1  33
ATOM     33  C   UNL A   1      32.066  29.326  27.119  1.00  0.00     0.275 C 
BRANCH  33  34
ATOM     34  O   UNL A   1      32.827  30.315  26.396  1.00  0.00    -0.458 OA
BRANCH  34  35
ATOM     35  C   UNL A   1      33.284  31.341  27.142  1.00  0.00     0.338 C 
ATOM     36  O   UNL A   1      32.656  32.306  27.547  1.00  0.00    -0.246 OA
BRANCH  35  37
ATOM     37  C   UNL A   1      34.670  31.108  27.567  1.00  0.00     0.060 A 
ATOM     38  C   UNL A   1      35.038  29.809  27.901  1.00  0.00     0.016 A 
ATOM     39  C   UNL A   1      35.507  32.176  27.876  1.00  0.00     0.016 A 
ATOM     40  C   UNL A   1      36.161  29.575  28.674  1.00  0.00     0.010 A 
ATOM     41  C   UNL A   1      36.719  31.921  28.526  1.00  0.00     0.010 A 
ATOM     42  C   UNL A   1      37.039  30.621  28.963  1.00  0.00    -0.014 A 
BRANCH  42  43
ATOM     43  C   UNL A   1      38.282  30.345  29.723  1.00  0.00     0.031 A 
ATOM     44  C   UNL A   1      39.359  29.497  29.112  1.00  0.00     0.074 A 
ATOM     45  C   UNL A   1      38.446  30.862  30.956  1.00  0.00     0.049 A 
ATOM     46  N   UNL A   1      40.371  28.907  29.691  1.00  0.00    -0.248 NA
ATOM     47  C   UNL A   1      39.275  29.264  27.661  1.00  0.00     0.031 C 
ATOM     48  C   UNL A   1      37.508  31.763  31.634  1.00  0.00     0.029 A 
ATOM     49  N   UNL A   1      39.464  30.708  31.862  1.00  0.00    -0.354 N 
ATOM     50  C   UNL A   1      40.993  28.165  28.695  1.00  0.00     0.074 A 
ATOM     51  C   UNL A   1      40.264  28.402  27.468  1.00  0.00     0.031 C 
ATOM     52  C   UNL A   1      38.009  32.109  32.826  1.00  0.00     0.029 A 
ATOM     53  C   UNL A   1      39.240  31.365  33.048  1.00  0.00     0.049 A 
ATOM     54  H   UNL A   1      40.274  30.180  31.680  1.00  0.00     0.167 HD
ATOM     55  C   UNL A   1      42.065  27.346  28.813  1.00  0.00     0.037 A 
ATOM     56  C   UNL A   1      39.909  31.317  34.214  1.00  0.00     0.037 A 
ATOM     57  C   UNL A   1      42.816  27.186  30.031  1.00  0.00     0.049 A 
ATOM     58  C   UNL A   1      41.087  30.399  34.325  1.00  0.00     0.074 A 
ATOM     59  C   UNL A   1      43.924  26.391  30.267  1.00  0.00     0.029 A 
ATOM     60  N   UNL A   1      42.544  27.858  31.214  1.00  0.00    -0.354 N 
ATOM     61  N   UNL A   1      41.608  29.616  33.412  1.00  0.00    -0.248 NA
ATOM     62  C   UNL A   1      41.748  30.327  35.633  1.00  0.00     0.031 C 
ATOM     63  C   UNL A   1      44.310  26.569  31.601  1.00  0.00     0.029 A 
ATOM     64  C   UNL A   1      43.459  27.494  32.186  1.00  0.00     0.049 A 
ATOM     65  H   UNL A   1      41.809  28.500  31.343  1.00  0.00     0.167 HD
ATOM     66  C   UNL A   1      42.651  28.949  34.035  1.00  0.00     0.074 A 
ATOM     67  C   UNL A   1      42.707  29.443  35.398  1.00  0.00     0.031 C 
ATOM     68  C   UNL A   1      43.480  28.003  33.533  1.00  0.00     0.037 A 
BRANCH  55  69
ATOM     69  C   UNL A   1      42.448  26.528  27.618  1.00  0.00     0.057 A 
ATOM     70  C   UNL A   1      41.913  25.259  27.372  1.00  0.00     0.134 A 
ATOM     71  C   UNL A   1      43.363  27.035  26.684  1.00  0.00     0.134 A 
ATOM     72  F   UNL A   1      41.047  24.708  28.235  1.00  0.00    -0.206 F 
ATOM     73  C   UNL A   1      42.287  24.515  26.251  1.00  0.00     0.040 A 
ATOM     74  C   UNL A   1      43.729  26.310  25.549  1.00  0.00     0.040 A 
ATOM     75  F   UNL A   1      43.915  28.246  26.860  1.00  0.00    -0.206 F 
ATOM     76  C   UNL A   1      43.194  25.043  25.332  1.00  0.00     0.006 A 
ENDBRANCH  55  69
BRANCH  56  77
ATOM     77  C   UNL A   1      39.420  32.100  35.375  1.00  0.00     0.057 A 
ATOM     78  C   UNL A   1      38.520  31.549  36.292  1.00  0.00     0.134 A 
ATOM     79  C   UNL A   1      39.876  33.403  35.620  1.00  0.00     0.134 A 
ATOM     80  F   UNL A   1      38.034  30.314  36.102  1.00  0.00    -0.206 F 
ATOM     81  C   UNL A   1      38.093  32.263  37.413  1.00  0.00     0.040 A 
ATOM     82  C   UNL A   1      39.477  34.118  36.748  1.00  0.00     0.040 A 
ATOM     83  F   UNL A   1      40.745  33.985  34.780  1.00  0.00    -0.206 F 
ATOM     84  C   UNL A   1      38.580  33.548  37.648  1.00  0.00     0.006 A 
ENDBRANCH  56  77
BRANCH  68  85
ATOM     85  C   UNL A   1      44.514  27.456  34.466  1.00  0.00     0.057 A 
ATOM     86  C   UNL A   1      44.278  26.297  35.215  1.00  0.00     0.134 A 
ATOM     87  C   UNL A   1      45.760  28.078  34.595  1.00  0.00     0.134 A 
ATOM     88  F   UNL A   1      43.096  25.669  35.143  1.00  0.00    -0.206 F 
ATOM     89  C   UNL A   1      45.249  25.781  36.073  1.00  0.00     0.040 A 
ATOM     90  C   UNL A   1      46.743  27.562  35.437  1.00  0.00     0.040 A 
ATOM     91  F   UNL A   1      46.040  29.191  33.900  1.00  0.00    -0.206 F 
ATOM     92  C   UNL A   1      46.487  26.412  36.181  1.00  0.00     0.006 A 
ENDBRANCH  68  85
ENDBRANCH  42  43
ENDBRANCH  35  37
ENDBRANCH  34  35
ENDBRANCH  33  34
ENDBRANCH   1  33
TORSDOF 15
ENDMDL
MODEL 2
REMARK VINA RESULT:     -12.8      2.548      8.296
REMARK SMILES COc1ccc(N2C(=O)/C(=C/c3c(C(=O)OCCOC(=O)c4ccc(-c5c6nc(c(-c7c(F)cccc7F)c7ccc([nH]7)c(-c7c(F)cccc7F)c7nc(c(-c8c(F)cccc8F)c8ccc5[nH]8)C=C7)C=C6)cc4)[nH]c4cc(OC)ccc34)SC2=S)cc1
REMARK SMILES IDX 17 1 16 2 14 3 15 4 13 5 12 6 84 7 76 8 77 9 83 10 78 12
REMARK SMILES IDX 82 13 79 14 11 15 7 16 8 17 86 18 9 19 10 20 85 21 87 22
REMARK SMILES IDX 6 23 3 24 4 25 89 26 5 27 88 28 2 29 1 30 80 31 81 32 18 33
REMARK SMILES IDX 19 34 20 35 21 36 22 37 23 38 75 39 24 40 74 41 25 42 26 43
REMARK SMILES IDX 27 44 68 45 28 46 73 47 67 48 69 49 29 50 72 51 66 52 65 53
REMARK SMILES IDX 30 55 56 56 39 57 55 58 40 59 43 60 54 61 70 62 41 63 42 64
REMARK SMILES IDX 53 66 71 67 44 68 31 69 32 70 37 71 33 72 34 73 36 74 38 75
REMARK SMILES IDX 35 76 57 77 58 78 63 79 59 80 60 81 62 82 64 83 61 84 45 85
REMARK SMILES IDX 46 86 51 87 47 88 48 89 50 90 52 91 49 92
REMARK H PARENT 76 11 69 54 43 65
REMARK Flexibility Score: inf
ROOT
ATOM      1  C   UNL A   1      37.601  23.433  25.800  1.00  0.00     0.275 C 
ENDROOT
BRANCH   1   2
ATOM      2  O   UNL A   1      36.311  22.812  25.976  1.00  0.00    -0.457 OA
BRANCH   2   3
ATOM      3  C   UNL A   1      35.720  22.406  24.820  1.00  0.00     0.355 C 
ATOM      4  O   UNL A   1      35.901  22.927  23.726  1.00  0.00    -0.244 OA
BRANCH   3   5
ATOM      5  C   UNL A   1      34.911  21.232  25.018  1.00  0.00     0.133 A 
ATOM      6  C   UNL A   1      33.562  21.039  25.302  1.00  0.00     0.016 A 
ATOM      7  C   UNL A   1      33.279  19.636  25.131  1.00  0.00     0.008 A 
ATOM      8  N   UNL A   1      35.460  19.982  24.935  1.00  0.00    -0.348 N 
ATOM      9  C   UNL A   1      34.503  19.014  24.896  1.00  0.00     0.050 A 
ATOM     10  C   UNL A   1      32.142  18.797  25.155  1.00  0.00     0.015 A 
ATOM     11  H   UNL A   1      36.427  19.804  24.907  1.00  0.00     0.167 HD
ATOM     12  C   UNL A   1      34.670  17.643  24.702  1.00  0.00     0.073 A 
ATOM     13  C   UNL A   1      32.285  17.405  24.924  1.00  0.00     0.047 A 
ATOM     14  C   UNL A   1      33.539  16.834  24.709  1.00  0.00     0.120 A 
BRANCH   6  15
ATOM     15  C   UNL A   1      32.721  22.091  25.795  1.00  0.00     0.032 C 
ATOM     16  N   UNL A   1      32.468  25.555  25.042  1.00  0.00    -0.261 N 
ATOM     17  C   UNL A   1      32.128  24.474  25.870  1.00  0.00     0.270 C 
ATOM     18  C   UNL A   1      32.723  25.218  23.711  1.00  0.00     0.152 C 
ATOM     19  O   UNL A   1      31.756  24.494  27.036  1.00  0.00    -0.268 OA
ATOM     20  C   UNL A   1      32.334  23.194  25.131  1.00  0.00     0.081 C 
ATOM     21  S   UNL A   1      32.377  23.507  23.451  1.00  0.00    -0.054 SA
ATOM     22  S   UNL A   1      33.398  26.100  22.456  1.00  0.00    -0.051 S 
BRANCH  16  23
ATOM     23  C   UNL A   1      32.579  26.886  25.592  1.00  0.00     0.051 A 
ATOM     24  C   UNL A   1      32.812  29.506  26.684  1.00  0.00     0.119 A 
ATOM     25  C   UNL A   1      33.840  28.579  26.836  1.00  0.00     0.048 A 
ATOM     26  C   UNL A   1      31.681  29.140  25.967  1.00  0.00     0.048 A 
ATOM     27  C   UNL A   1      33.723  27.286  26.303  1.00  0.00     0.030 A 
ATOM     28  C   UNL A   1      31.563  27.842  25.446  1.00  0.00     0.030 A 
BRANCH  24  29
ATOM     29  O   UNL A   1      33.023  30.726  27.263  1.00  0.00    -0.497 OA
ATOM     30  C   UNL A   1      34.387  31.098  27.445  1.00  0.00     0.278 C 
ENDBRANCH  24  29
ENDBRANCH  16  23
ENDBRANCH   6  15
BRANCH  14  31
ATOM     31  O   UNL A   1      33.831  15.514  24.509  1.00  0.00    -0.497 OA
ATOM     32  C   UNL A   1      33.135  14.553  25.285  1.00  0.00     0.278 C 
ENDBRANCH  14  31
ENDBRANCH   3   5
ENDBRANCH   2   3
ENDBRANCH   1   2
BRANCH   1  33
ATOM     33  C   UNL A   1      38.743  22.463  26.115  1.00  0.00     0.275 C 
BRANCH  33  34
ATOM     34  O   UNL A   1      39.565  22.939  27.200  1.00  0.00    -0.458 OA
BRANCH  34  35
ATOM     35  C   UNL A   1      40.499  23.847  26.852  1.00  0.00     0.338 C 
ATOM     36  O   UNL A   1      41.364  23.737  25.999  1.00  0.00    -0.246 OA
BRANCH  35  37
ATOM     37  C   UNL A   1      40.282  25.121  27.549  1.00  0.00     0.060 A 
ATOM     38  C   UNL A   1      41.219  26.133  27.362  1.00  0.00     0.016 A 
ATOM     39  C   UNL A   1      39.328  25.226  28.557  1.00  0.00     0.016 A 
ATOM     40  C   UNL A   1      41.311  27.177  28.264  1.00  0.00     0.010 A 
ATOM     41  C   UNL A   1      39.329  26.360  29.375  1.00  0.00     0.010 A 
ATOM     42  C   UNL A   1      40.344  27.329  29.258  1.00  0.00    -0.014 A 
BRANCH  42  43
ATOM     43  C   UNL A   1      40.407  28.498  30.169  1.00  0.00     0.031 A 
ATOM     44  C   UNL A   1      41.471  28.566  31.225  1.00  0.00     0.074 A 
ATOM     45  C   UNL A   1      39.515  29.499  30.041  1.00  0.00     0.049 A 
ATOM     46  N   UNL A   1      41.535  29.331  32.282  1.00  0.00    -0.248 NA
ATOM     47  C   UNL A   1      42.604  27.636  31.084  1.00  0.00     0.031 C 
ATOM     48  C   UNL A   1      38.477  29.590  29.009  1.00  0.00     0.029 A 
ATOM     49  N   UNL A   1      39.338  30.638  30.784  1.00  0.00    -0.354 N 
ATOM     50  C   UNL A   1      42.664  28.918  32.977  1.00  0.00     0.074 A 
ATOM     51  C   UNL A   1      43.273  27.854  32.208  1.00  0.00     0.031 C 
ATOM     52  C   UNL A   1      37.801  30.736  29.160  1.00  0.00     0.029 A 
ATOM     53  C   UNL A   1      38.274  31.400  30.365  1.00  0.00     0.049 A 
ATOM     54  H   UNL A   1      39.917  30.886  31.541  1.00  0.00     0.167 HD
ATOM     55  C   UNL A   1      43.128  29.380  34.163  1.00  0.00     0.037 A 
ATOM     56  C   UNL A   1      37.692  32.474  30.930  1.00  0.00     0.037 A 
ATOM     57  C   UNL A   1      42.544  30.488  34.870  1.00  0.00     0.049 A 
ATOM     58  C   UNL A   1      38.216  32.963  32.244  1.00  0.00     0.074 A 
ATOM     59  C   UNL A   1      42.932  31.049  36.074  1.00  0.00     0.029 A 
ATOM     60  N   UNL A   1      41.455  31.220  34.419  1.00  0.00    -0.354 N 
ATOM     61  N   UNL A   1      39.217  32.502  32.954  1.00  0.00    -0.248 NA
ATOM     62  C   UNL A   1      37.510  34.095  32.857  1.00  0.00     0.031 C 
ATOM     63  C   UNL A   1      42.064  32.110  36.360  1.00  0.00     0.029 A 
ATOM     64  C   UNL A   1      41.154  32.225  35.321  1.00  0.00     0.049 A 
ATOM     65  H   UNL A   1      40.969  31.051  33.579  1.00  0.00     0.167 HD
ATOM     66  C   UNL A   1      39.257  33.278  34.101  1.00  0.00     0.074 A 
ATOM     67  C   UNL A   1      38.196  34.260  33.979  1.00  0.00     0.031 C 
ATOM     68  C   UNL A   1      40.086  33.181  35.168  1.00  0.00     0.037 A 
BRANCH  55  69
ATOM     69  C   UNL A   1      44.282  28.654  34.786  1.00  0.00     0.057 A 
ATOM     70  C   UNL A   1      45.612  29.030  34.569  1.00  0.00     0.134 A 
ATOM     71  C   UNL A   1      44.049  27.564  35.636  1.00  0.00     0.134 A 
ATOM     72  F   UNL A   1      45.905  30.052  33.752  1.00  0.00    -0.206 F 
ATOM     73  C   UNL A   1      46.671  28.337  35.161  1.00  0.00     0.040 A 
ATOM     74  C   UNL A   1      45.097  26.877  36.250  1.00  0.00     0.040 A 
ATOM     75  F   UNL A   1      42.796  27.151  35.886  1.00  0.00    -0.206 F 
ATOM     76  C   UNL A   1      46.414  27.260  36.008  1.00  0.00     0.006 A 
ENDBRANCH  55  69
BRANCH  56  77
ATOM     77  C   UNL A   1      36.504  33.088  30.287  1.00  0.00     0.057 A 
ATOM     78  C   UNL A   1      35.215  32.857  30.776  1.00  0.00     0.134 A 
ATOM     79  C   UNL A   1      36.635  33.959  29.196  1.00  0.00     0.134 A 
ATOM     80  F   UNL A   1      35.025  32.019  31.805  1.00  0.00    -0.206 F 
ATOM     81  C   UNL A   1      34.098  33.470  30.206  1.00  0.00     0.040 A 
ATOM     82  C   UNL A   1      35.531  34.598  28.632  1.00  0.00     0.040 A 
ATOM     83  F   UNL A   1      37.846  34.226  28.684  1.00  0.00    -0.206 F 
ATOM     84  C   UNL A   1      34.256  34.351  29.137  1.00  0.00     0.006 A 
ENDBRANCH  56  77
BRANCH  68  85
ATOM     85  C   UNL A   1      39.874  34.167  36.272  1.00  0.00     0.057 A 
ATOM     86  C   UNL A   1      39.128  33.837  37.410  1.00  0.00     0.134 A 
ATOM     87  C   UNL A   1      40.441  35.445  36.207  1.00  0.00     0.134 A 
ATOM     88  F   UNL A   1      38.549  32.633  37.518  1.00  0.00    -0.206 F 
ATOM     89  C   UNL A   1      38.944  34.754  38.444  1.00  0.00     0.040 A 
ATOM     90  C   UNL A   1      40.277  36.363  37.242  1.00  0.00     0.040 A 
ATOM     91  F   UNL A   1      41.167  35.814  35.140  1.00  0.00    -0.206 F 
ATOM     92  C   UNL A   1      39.524  36.019  38.364  1.00  0.00     0.006 A 
ENDBRANCH  68  85
ENDBRANCH  42  43
ENDBRANCH  35  37
ENDBRANCH  34  35
ENDBRANCH  33  34
ENDBRANCH   1  33
TORSDOF 15
ENDMDL
MODEL 3
REMARK VINA RESULT:     -12.7      2.749      8.549
REMARK SMILES COc1ccc(N2C(=O)/C(=C/c3c(C(=O)OCCOC(=O)c4ccc(-c5c6nc(c(-c7c(F)cccc7F)c7ccc([nH]7)c(-c7c(F)cccc7F)c7nc(c(-c8c(F)cccc8F)c8ccc5[nH]8)C=C7)C=C6)cc4)[nH]c4cc(OC)ccc34)SC2=S)cc1
REMARK SMILES IDX 17 1 16 2 14 3 15 4 13 5 12 6 84 7 76 8 77 9 83 10 78 12
REMARK SMILES IDX 82 13 79 14 11 15 7 16 8 17 86 18 9 19 10 20 85 21 87 22
REMARK SMILES IDX 6 23 3 24 4 25 89 26 5 27 88 28 2 29 1 30 80 31 81 32 18 33
REMARK SMILES IDX 19 34 20 35 21 36 22 37 23 38 75 39 24 40 74 41 25 42 26 43
REMARK SMILES IDX 27 44 68 45 28 46 73 47 67 48 69 49 29 50 72 51 66 52 65 53
REMARK SMILES IDX 30 55 56 56 39 57 55 58 40 59 43 60 54 61 70 62 41 63 42 64
REMARK SMILES IDX 53 66 71 67 44 68 31 69 32 70 37 71 33 72 34 73 36 74 38 75
REMARK SMILES IDX 35 76 57 77 58 78 63 79 59 80 60 81 62 82 64 83 61 84 45 85
REMARK SMILES IDX 46 86 51 87 47 88 48 89 50 90 52 91 49 92
REMARK H PARENT 76 11 69 54 43 65
REMARK Flexibility Score: inf
ROOT
ATOM      1  C   UNL A   1      37.745  22.917  25.664  1.00  0.00     0.275 C 
ENDROOT
BRANCH   1   2
ATOM      2  O   UNL A   1      36.306  22.860  25.751  1.00  0.00    -0.457 OA
BRANCH   2   3
ATOM      3  C   UNL A   1      35.693  22.390  24.631  1.00  0.00     0.355 C 
ATOM      4  O   UNL A   1      35.844  22.857  23.509  1.00  0.00    -0.244 OA
BRANCH   3   5
ATOM      5  C   UNL A   1      34.901  21.221  24.907  1.00  0.00     0.133 A 
ATOM      6  C   UNL A   1      33.570  21.032  25.268  1.00  0.00     0.016 A 
ATOM      7  C   UNL A   1      33.284  19.624  25.155  1.00  0.00     0.008 A 
ATOM      8  N   UNL A   1      35.450  19.970  24.830  1.00  0.00    -0.348 N 
ATOM      9  C   UNL A   1      34.496  18.999  24.872  1.00  0.00     0.050 A 
ATOM     10  C   UNL A   1      32.154  18.783  25.264  1.00  0.00     0.015 A 
ATOM     11  H   UNL A   1      36.415  19.793  24.756  1.00  0.00     0.167 HD
ATOM     12  C   UNL A   1      34.658  17.623  24.709  1.00  0.00     0.073 A 
ATOM     13  C   UNL A   1      32.290  17.385  25.066  1.00  0.00     0.047 A 
ATOM     14  C   UNL A   1      33.533  16.811  24.801  1.00  0.00     0.120 A 
BRANCH   6  15
ATOM     15  C   UNL A   1      32.752  22.096  25.776  1.00  0.00     0.032 C 
ATOM     16  N   UNL A   1      32.466  25.542  24.957  1.00  0.00    -0.261 N 
ATOM     17  C   UNL A   1      32.164  24.481  25.824  1.00  0.00     0.270 C 
ATOM     18  C   UNL A   1      32.660  25.175  23.624  1.00  0.00     0.152 C 
ATOM     19  O   UNL A   1      31.845  24.527  27.005  1.00  0.00    -0.268 OA
ATOM     20  C   UNL A   1      32.336  23.184  25.106  1.00  0.00     0.081 C 
ATOM     21  S   UNL A   1      32.302  23.459  23.419  1.00  0.00    -0.054 SA
ATOM     22  S   UNL A   1      33.277  26.028  22.320  1.00  0.00    -0.051 S 
BRANCH  16  23
ATOM     23  C   UNL A   1      32.602  26.886  25.471  1.00  0.00     0.051 A 
ATOM     24  C   UNL A   1      32.885  29.529  26.493  1.00  0.00     0.119 A 
ATOM     25  C   UNL A   1      33.917  28.604  26.621  1.00  0.00     0.048 A 
ATOM     26  C   UNL A   1      31.723  29.149  25.833  1.00  0.00     0.048 A 
ATOM     27  C   UNL A   1      33.776  27.299  26.123  1.00  0.00     0.030 A 
ATOM     28  C   UNL A   1      31.582  27.840  25.347  1.00  0.00     0.030 A 
BRANCH  24  29
ATOM     29  O   UNL A   1      33.122  30.761  27.034  1.00  0.00    -0.497 OA
ATOM     30  C   UNL A   1      34.406  30.942  27.625  1.00  0.00     0.278 C 
ENDBRANCH  24  29
ENDBRANCH  16  23
ENDBRANCH   6  15
BRANCH  14  31
ATOM     31  O   UNL A   1      33.819  15.487  24.624  1.00  0.00    -0.497 OA
ATOM     32  C   UNL A   1      33.080  14.540  25.376  1.00  0.00     0.278 C 
ENDBRANCH  14  31
ENDBRANCH   3   5
ENDBRANCH   2   3
ENDBRANCH   1   2
BRANCH   1  33
ATOM     33  C   UNL A   1      38.293  24.229  26.235  1.00  0.00     0.275 C 
BRANCH  33  34
ATOM     34  O   UNL A   1      39.708  24.143  26.503  1.00  0.00    -0.458 OA
BRANCH  34  35
ATOM     35  C   UNL A   1      40.394  25.289  26.319  1.00  0.00     0.338 C 
ATOM     36  O   UNL A   1      40.788  25.761  25.265  1.00  0.00    -0.246 OA
BRANCH  35  37
ATOM     37  C   UNL A   1      40.515  26.039  27.576  1.00  0.00     0.060 A 
ATOM     38  C   UNL A   1      39.697  25.665  28.638  1.00  0.00     0.016 A 
ATOM     39  C   UNL A   1      41.224  27.236  27.624  1.00  0.00     0.016 A 
ATOM     40  C   UNL A   1      39.459  26.542  29.681  1.00  0.00     0.010 A 
ATOM     41  C   UNL A   1      41.099  28.052  28.752  1.00  0.00     0.010 A 
ATOM     42  C   UNL A   1      40.187  27.729  29.775  1.00  0.00    -0.014 A 
BRANCH  42  43
ATOM     43  C   UNL A   1      39.982  28.623  30.941  1.00  0.00     0.031 A 
ATOM     44  C   UNL A   1      38.925  29.687  30.890  1.00  0.00     0.074 A 
ATOM     45  C   UNL A   1      40.737  28.471  32.045  1.00  0.00     0.049 A 
ATOM     46  N   UNL A   1      38.772  30.733  31.658  1.00  0.00    -0.248 NA
ATOM     47  C   UNL A   1      37.919  29.571  29.821  1.00  0.00     0.031 C 
ATOM     48  C   UNL A   1      41.748  27.428  32.251  1.00  0.00     0.029 A 
ATOM     49  N   UNL A   1      40.773  29.195  33.210  1.00  0.00    -0.354 N 
ATOM     50  C   UNL A   1      37.710  31.444  31.115  1.00  0.00     0.074 A 
ATOM     51  C   UNL A   1      37.236  30.697  29.971  1.00  0.00     0.031 C 
ATOM     52  C   UNL A   1      42.274  27.556  33.476  1.00  0.00     0.029 A 
ATOM     53  C   UNL A   1      41.729  28.756  34.094  1.00  0.00     0.049 A 
ATOM     54  H   UNL A   1      40.174  29.953  33.394  1.00  0.00     0.167 HD
ATOM     55  C   UNL A   1      37.199  32.627  31.533  1.00  0.00     0.037 A 
ATOM     56  C   UNL A   1      42.174  29.298  35.241  1.00  0.00     0.037 A 
ATOM     57  C   UNL A   1      37.643  33.313  32.718  1.00  0.00     0.049 A 
ATOM     58  C   UNL A   1      41.601  30.610  35.681  1.00  0.00     0.074 A 
ATOM     59  C   UNL A   1      37.195  34.512  33.245  1.00  0.00     0.029 A 
ATOM     60  N   UNL A   1      38.626  32.841  33.576  1.00  0.00    -0.354 N 
ATOM     61  N   UNL A   1      40.672  31.336  35.108  1.00  0.00    -0.248 NA
ATOM     62  C   UNL A   1      42.161  31.199  36.903  1.00  0.00     0.031 C 
ATOM     63  C   UNL A   1      37.923  34.774  34.411  1.00  0.00     0.029 A 
ATOM     64  C   UNL A   1      38.804  33.724  34.626  1.00  0.00     0.049 A 
ATOM     65  H   UNL A   1      39.124  31.999  33.456  1.00  0.00     0.167 HD
ATOM     66  C   UNL A   1      40.542  32.472  35.891  1.00  0.00     0.074 A 
ATOM     67  C   UNL A   1      41.468  32.325  36.998  1.00  0.00     0.031 C 
ATOM     68  C   UNL A   1      39.739  33.548  35.706  1.00  0.00     0.037 A 
BRANCH  55  69
ATOM     69  C   UNL A   1      36.152  33.272  30.677  1.00  0.00     0.057 A 
ATOM     70  C   UNL A   1      34.796  33.278  31.024  1.00  0.00     0.134 A 
ATOM     71  C   UNL A   1      36.517  33.915  29.486  1.00  0.00     0.134 A 
ATOM     72  F   UNL A   1      34.378  32.664  32.140  1.00  0.00    -0.206 F 
ATOM     73  C   UNL A   1      33.838  33.885  30.208  1.00  0.00     0.040 A 
ATOM     74  C   UNL A   1      35.572  34.543  28.674  1.00  0.00     0.040 A 
ATOM     75  F   UNL A   1      37.801  33.946  29.095  1.00  0.00    -0.206 F 
ATOM     76  C   UNL A   1      34.226  34.524  29.032  1.00  0.00     0.006 A 
ENDBRANCH  55  69
BRANCH  56  77
ATOM     77  C   UNL A   1      43.269  28.635  35.992  1.00  0.00     0.057 A 
ATOM     78  C   UNL A   1      43.017  27.537  36.820  1.00  0.00     0.134 A 
ATOM     79  C   UNL A   1      44.600  29.056  35.863  1.00  0.00     0.134 A 
ATOM     80  F   UNL A   1      41.762  27.100  36.998  1.00  0.00    -0.206 F 
ATOM     81  C   UNL A   1      44.049  26.879  37.491  1.00  0.00     0.040 A 
ATOM     82  C   UNL A   1      45.643  28.392  36.507  1.00  0.00     0.040 A 
ATOM     83  F   UNL A   1      44.907  30.100  35.078  1.00  0.00    -0.206 F 
ATOM     84  C   UNL A   1      45.368  27.300  37.327  1.00  0.00     0.006 A 
ENDBRANCH  56  77
BRANCH  68  85
ATOM     85  C   UNL A   1      39.832  34.634  36.730  1.00  0.00     0.057 A 
ATOM     86  C   UNL A   1      40.712  35.711  36.569  1.00  0.00     0.134 A 
ATOM     87  C   UNL A   1      39.018  34.616  37.867  1.00  0.00     0.134 A 
ATOM     88  F   UNL A   1      41.527  35.772  35.506  1.00  0.00    -0.206 F 
ATOM     89  C   UNL A   1      40.787  36.731  37.517  1.00  0.00     0.040 A 
ATOM     90  C   UNL A   1      39.073  35.638  38.813  1.00  0.00     0.040 A 
ATOM     91  F   UNL A   1      38.156  33.608  38.070  1.00  0.00    -0.206 F 
ATOM     92  C   UNL A   1      39.961  36.698  38.640  1.00  0.00     0.006 A 
ENDBRANCH  68  85
ENDBRANCH  42  43
ENDBRANCH  35  37
ENDBRANCH  34  35
ENDBRANCH  33  34
ENDBRANCH   1  33
TORSDOF 15
ENDMDL
