MODEL 1
REMARK VINA RESULT:     -11.5      0.000      0.000
REMARK SMILES O=C(/C=C/c1ccccc1Oc1cccc(Cl)c1)OCCOC(=O)c1ccc(-c2c3nc(c(-c4c(F)cccc4F)c4ccc([nH]4)c(-c4c(F)cccc4F)c4nc(c(-c5c(F)cccc5F)c5ccc2[nH]5)C=C4)C=C3)cc1
REMARK SMILES IDX 20 1 19 2 2 3 1 4 3 5 4 6 5 7 6 8 10 9 7 10 9 11 8 12 11 13
REMARK SMILES IDX 12 14 13 15 18 16 14 17 16 18 15 19 17 20 21 21 22 22 23 23
REMARK SMILES IDX 24 24 25 25 26 26 78 27 27 28 77 29 28 30 29 31 30 32 71 33
REMARK SMILES IDX 31 34 76 35 70 36 72 37 32 38 75 39 69 40 68 41 33 43 59 44
REMARK SMILES IDX 42 45 58 46 43 47 46 48 57 49 73 50 44 51 45 52 56 54 74 55
REMARK SMILES IDX 47 56 34 57 35 58 40 59 36 60 37 61 39 62 41 63 38 64 60 65
REMARK SMILES IDX 61 66 66 67 62 68 63 69 65 70 67 71 64 72 48 73 49 74 54 75
REMARK SMILES IDX 50 76 51 77 53 78 55 79 52 80
REMARK H PARENT 72 42 46 53
REMARK Flexibility Score: inf
ROOT
ATOM      1  C   UNL A   1      44.742  21.138  25.111  1.00  0.00     0.275 C 
ENDROOT
BRANCH   1   2
ATOM      2  O   UNL A   1      43.615  20.236  25.067  1.00  0.00    -0.459 OA
BRANCH   2   3
ATOM      3  C   UNL A   1      42.627  20.151  25.983  1.00  0.00     0.330 C 
ATOM      4  O   UNL A   1      42.546  19.189  26.739  1.00  0.00    -0.247 OA
BRANCH   3   5
ATOM      5  C   UNL A   1      41.572  21.173  26.010  1.00  0.00     0.094 C 
ATOM      6  C   UNL A   1      40.248  20.994  26.090  1.00  0.00     0.019 C 
BRANCH   6   7
ATOM      7  C   UNL A   1      39.349  22.147  26.258  1.00  0.00     0.017 A 
ATOM      8  C   UNL A   1      39.750  23.021  27.294  1.00  0.00     0.012 A 
ATOM      9  C   UNL A   1      38.200  22.472  25.510  1.00  0.00     0.134 A 
ATOM     10  C   UNL A   1      39.049  24.191  27.583  1.00  0.00     0.001 A 
ATOM     11  C   UNL A   1      37.507  23.661  25.817  1.00  0.00     0.048 A 
ATOM     12  C   UNL A   1      37.926  24.514  26.838  1.00  0.00     0.004 A 
BRANCH   9  13
ATOM     13  O   UNL A   1      37.572  21.784  24.489  1.00  0.00    -0.457 OA
BRANCH  13  14
ATOM     14  C   UNL A   1      36.213  21.803  24.357  1.00  0.00     0.128 A 
ATOM     15  C   UNL A   1      35.631  22.779  23.542  1.00  0.00     0.047 A 
ATOM     16  C   UNL A   1      35.418  20.922  25.087  1.00  0.00     0.067 A 
ATOM     17  C   UNL A   1      34.248  22.808  23.379  1.00  0.00     0.005 A 
ATOM     18  C   UNL A   1      34.039  20.939  24.895  1.00  0.00     0.044 A 
ATOM     19  C   UNL A   1      33.451  21.873  24.043  1.00  0.00     0.021 A 
ATOM     20  Cl  UNL A   1      33.062  19.758  25.676  1.00  0.00    -0.084 Cl
ENDBRANCH  13  14
ENDBRANCH   9  13
ENDBRANCH   6   7
ENDBRANCH   3   5
ENDBRANCH   2   3
ENDBRANCH   1   2
BRANCH   1  21
ATOM     21  C   UNL A   1      44.667  22.276  24.087  1.00  0.00     0.275 C 
BRANCH  21  22
ATOM     22  O   UNL A   1      43.906  23.391  24.589  1.00  0.00    -0.458 OA
BRANCH  22  23
ATOM     23  C   UNL A   1      44.632  24.461  25.011  1.00  0.00     0.338 C 
ATOM     24  O   UNL A   1      45.727  24.797  24.613  1.00  0.00    -0.246 OA
BRANCH  23  25
ATOM     25  C   UNL A   1      43.823  25.284  25.950  1.00  0.00     0.060 A 
ATOM     26  C   UNL A   1      44.039  26.669  25.955  1.00  0.00     0.016 A 
ATOM     27  C   UNL A   1      42.860  24.727  26.795  1.00  0.00     0.016 A 
ATOM     28  C   UNL A   1      43.319  27.492  26.827  1.00  0.00     0.010 A 
ATOM     29  C   UNL A   1      42.151  25.549  27.680  1.00  0.00     0.010 A 
ATOM     30  C   UNL A   1      42.400  26.931  27.724  1.00  0.00    -0.014 A 
BRANCH  30  31
ATOM     31  C   UNL A   1      41.876  27.749  28.849  1.00  0.00     0.031 A 
ATOM     32  C   UNL A   1      42.604  27.696  30.165  1.00  0.00     0.074 A 
ATOM     33  C   UNL A   1      40.788  28.531  28.725  1.00  0.00     0.049 A 
ATOM     34  N   UNL A   1      42.338  28.313  31.288  1.00  0.00    -0.248 NA
ATOM     35  C   UNL A   1      43.788  26.824  30.219  1.00  0.00     0.031 C 
ATOM     36  C   UNL A   1      39.994  28.694  27.513  1.00  0.00     0.029 A 
ATOM     37  N   UNL A   1      40.166  29.338  29.647  1.00  0.00    -0.354 N 
ATOM     38  C   UNL A   1      43.326  27.913  32.178  1.00  0.00     0.074 A 
ATOM     39  C   UNL A   1      44.178  26.978  31.475  1.00  0.00     0.031 C 
ATOM     40  C   UNL A   1      38.990  29.555  27.761  1.00  0.00     0.029 A 
ATOM     41  C   UNL A   1      39.051  29.977  29.161  1.00  0.00     0.049 A 
ATOM     42  H   UNL A   1      40.489  29.448  30.571  1.00  0.00     0.167 HD
ATOM     43  C   UNL A   1      43.516  28.289  33.464  1.00  0.00     0.037 A 
ATOM     44  C   UNL A   1      38.173  30.791  29.780  1.00  0.00     0.037 A 
ATOM     45  C   UNL A   1      42.665  29.193  34.187  1.00  0.00     0.049 A 
ATOM     46  C   UNL A   1      38.357  31.127  31.240  1.00  0.00     0.074 A 
ATOM     47  C   UNL A   1      42.787  29.631  35.494  1.00  0.00     0.029 A 
ATOM     48  N   UNL A   1      41.525  29.787  33.670  1.00  0.00    -0.354 N 
ATOM     49  N   UNL A   1      39.318  30.776  32.059  1.00  0.00    -0.248 NA
ATOM     50  C   UNL A   1      37.323  31.971  31.863  1.00  0.00     0.031 C 
ATOM     51  C   UNL A   1      41.694  30.456  35.783  1.00  0.00     0.029 A 
ATOM     52  C   UNL A   1      40.918  30.565  34.642  1.00  0.00     0.049 A 
ATOM     53  H   UNL A   1      41.197  29.673  32.749  1.00  0.00     0.167 HD
ATOM     54  C   UNL A   1      39.021  31.378  33.278  1.00  0.00     0.074 A 
ATOM     55  C   UNL A   1      37.795  32.123  33.092  1.00  0.00     0.031 C 
ATOM     56  C   UNL A   1      39.706  31.317  34.446  1.00  0.00     0.037 A 
BRANCH  43  57
ATOM     57  C   UNL A   1      44.685  27.688  34.179  1.00  0.00     0.057 A 
ATOM     58  C   UNL A   1      44.574  26.480  34.881  1.00  0.00     0.134 A 
ATOM     59  C   UNL A   1      45.936  28.317  34.160  1.00  0.00     0.134 A 
ATOM     60  F   UNL A   1      43.397  25.841  34.951  1.00  0.00    -0.206 F 
ATOM     61  C   UNL A   1      45.663  25.930  35.557  1.00  0.00     0.040 A 
ATOM     62  C   UNL A   1      47.037  27.765  34.813  1.00  0.00     0.040 A 
ATOM     63  F   UNL A   1      46.104  29.476  33.506  1.00  0.00    -0.206 F 
ATOM     64  C   UNL A   1      46.901  26.571  35.519  1.00  0.00     0.006 A 
ENDBRANCH  43  57
BRANCH  44  65
ATOM     65  C   UNL A   1      37.012  31.346  29.039  1.00  0.00     0.057 A 
ATOM     66  C   UNL A   1      37.004  32.675  28.597  1.00  0.00     0.134 A 
ATOM     67  C   UNL A   1      35.860  30.584  28.815  1.00  0.00     0.134 A 
ATOM     68  F   UNL A   1      38.066  33.464  28.813  1.00  0.00    -0.206 F 
ATOM     69  C   UNL A   1      35.884  33.232  27.978  1.00  0.00     0.040 A 
ATOM     70  C   UNL A   1      34.741  31.122  28.176  1.00  0.00     0.040 A 
ATOM     71  F   UNL A   1      35.802  29.307  29.221  1.00  0.00    -0.206 F 
ATOM     72  C   UNL A   1      34.749  32.453  27.764  1.00  0.00     0.006 A 
ENDBRANCH  44  65
BRANCH  56  73
ATOM     73  C   UNL A   1      39.175  32.104  35.610  1.00  0.00     0.057 A 
ATOM     74  C   UNL A   1      38.338  31.527  36.573  1.00  0.00     0.134 A 
ATOM     75  C   UNL A   1      39.553  33.439  35.799  1.00  0.00     0.134 A 
ATOM     76  F   UNL A   1      37.929  30.256  36.446  1.00  0.00    -0.206 F 
ATOM     77  C   UNL A   1      37.884  32.256  37.675  1.00  0.00     0.040 A 
ATOM     78  C   UNL A   1      39.125  34.170  36.908  1.00  0.00     0.040 A 
ATOM     79  F   UNL A   1      40.361  34.050  34.918  1.00  0.00    -0.206 F 
ATOM     80  C   UNL A   1      38.285  33.580  37.849  1.00  0.00     0.006 A 
ENDBRANCH  56  73
ENDBRANCH  30  31
ENDBRANCH  23  25
ENDBRANCH  22  23
ENDBRANCH  21  22
ENDBRANCH   1  21
TORSDOF 14
ENDMDL
MODEL 2
REMARK VINA RESULT:     -11.3      4.581      9.310
REMARK SMILES O=C(/C=C/c1ccccc1Oc1cccc(Cl)c1)OCCOC(=O)c1ccc(-c2c3nc(c(-c4c(F)cccc4F)c4ccc([nH]4)c(-c4c(F)cccc4F)c4nc(c(-c5c(F)cccc5F)c5ccc2[nH]5)C=C4)C=C3)cc1
REMARK SMILES IDX 20 1 19 2 2 3 1 4 3 5 4 6 5 7 6 8 10 9 7 10 9 11 8 12 11 13
REMARK SMILES IDX 12 14 13 15 18 16 14 17 16 18 15 19 17 20 21 21 22 22 23 23
REMARK SMILES IDX 24 24 25 25 26 26 78 27 27 28 77 29 28 30 29 31 30 32 71 33
REMARK SMILES IDX 31 34 76 35 70 36 72 37 32 38 75 39 69 40 68 41 33 43 59 44
REMARK SMILES IDX 42 45 58 46 43 47 46 48 57 49 73 50 44 51 45 52 56 54 74 55
REMARK SMILES IDX 47 56 34 57 35 58 40 59 36 60 37 61 39 62 41 63 38 64 60 65
REMARK SMILES IDX 61 66 66 67 62 68 63 69 65 70 67 71 64 72 48 73 49 74 54 75
REMARK SMILES IDX 50 76 51 77 53 78 55 79 52 80
REMARK H PARENT 72 42 46 53
REMARK Flexibility Score: inf
ROOT
ATOM      1  C   UNL A   1      31.490  31.988  26.730  1.00  0.00     0.275 C 
ENDROOT
BRANCH   1   2
ATOM      2  O   UNL A   1      32.053  30.843  27.408  1.00  0.00    -0.459 OA
BRANCH   2   3
ATOM      3  C   UNL A   1      32.949  29.975  26.892  1.00  0.00     0.330 C 
ATOM      4  O   UNL A   1      34.126  30.291  26.749  1.00  0.00    -0.247 OA
BRANCH   3   5
ATOM      5  C   UNL A   1      32.494  28.669  26.396  1.00  0.00     0.094 C 
ATOM      6  C   UNL A   1      31.493  28.410  25.546  1.00  0.00     0.019 C 
BRANCH   6   7
ATOM      7  C   UNL A   1      31.279  27.044  25.042  1.00  0.00     0.017 A 
ATOM      8  C   UNL A   1      31.595  26.044  25.990  1.00  0.00     0.012 A 
ATOM      9  C   UNL A   1      30.785  26.647  23.784  1.00  0.00     0.134 A 
ATOM     10  C   UNL A   1      31.421  24.688  25.714  1.00  0.00     0.001 A 
ATOM     11  C   UNL A   1      30.616  25.272  23.527  1.00  0.00     0.048 A 
ATOM     12  C   UNL A   1      30.925  24.301  24.480  1.00  0.00     0.004 A 
BRANCH   9  13
ATOM     13  O   UNL A   1      30.445  27.402  22.676  1.00  0.00    -0.457 OA
BRANCH  13  14
ATOM     14  C   UNL A   1      29.459  28.344  22.739  1.00  0.00     0.128 A 
ATOM     15  C   UNL A   1      28.179  27.951  23.140  1.00  0.00     0.047 A 
ATOM     16  C   UNL A   1      29.703  29.653  22.330  1.00  0.00     0.067 A 
ATOM     17  C   UNL A   1      27.160  28.898  23.229  1.00  0.00     0.005 A 
ATOM     18  C   UNL A   1      28.688  30.600  22.449  1.00  0.00     0.044 A 
ATOM     19  C   UNL A   1      27.421  30.230  22.900  1.00  0.00     0.021 A 
ATOM     20  Cl  UNL A   1      29.022  32.248  22.088  1.00  0.00    -0.084 Cl
ENDBRANCH  13  14
ENDBRANCH   9  13
ENDBRANCH   6   7
ENDBRANCH   3   5
ENDBRANCH   2   3
ENDBRANCH   1   2
BRANCH   1  21
ATOM     21  C   UNL A   1      32.345  33.255  26.836  1.00  0.00     0.275 C 
BRANCH  21  22
ATOM     22  O   UNL A   1      32.212  33.878  28.128  1.00  0.00    -0.458 OA
BRANCH  22  23
ATOM     23  C   UNL A   1      33.266  34.638  28.530  1.00  0.00     0.338 C 
ATOM     24  O   UNL A   1      33.258  35.831  28.747  1.00  0.00    -0.246 OA
BRANCH  23  25
ATOM     25  C   UNL A   1      34.435  33.768  28.824  1.00  0.00     0.060 A 
ATOM     26  C   UNL A   1      34.194  32.552  29.480  1.00  0.00     0.016 A 
ATOM     27  C   UNL A   1      35.738  34.114  28.455  1.00  0.00     0.016 A 
ATOM     28  C   UNL A   1      35.257  31.699  29.796  1.00  0.00     0.010 A 
ATOM     29  C   UNL A   1      36.803  33.268  28.788  1.00  0.00     0.010 A 
ATOM     30  C   UNL A   1      36.573  32.073  29.489  1.00  0.00    -0.014 A 
BRANCH  30  31
ATOM     31  C   UNL A   1      37.709  31.332  30.096  1.00  0.00     0.031 A 
ATOM     32  C   UNL A   1      38.050  31.609  31.535  1.00  0.00     0.074 A 
ATOM     33  C   UNL A   1      38.428  30.426  29.408  1.00  0.00     0.049 A 
ATOM     34  N   UNL A   1      38.995  31.095  32.281  1.00  0.00    -0.248 NA
ATOM     35  C   UNL A   1      37.213  32.607  32.221  1.00  0.00     0.031 C 
ATOM     36  C   UNL A   1      38.205  30.043  28.019  1.00  0.00     0.029 A 
ATOM     37  N   UNL A   1      39.502  29.662  29.801  1.00  0.00    -0.354 N 
ATOM     38  C   UNL A   1      38.859  31.698  33.525  1.00  0.00     0.074 A 
ATOM     39  C   UNL A   1      37.763  32.637  33.425  1.00  0.00     0.031 C 
ATOM     40  C   UNL A   1      39.110  29.109  27.673  1.00  0.00     0.029 A 
ATOM     41  C   UNL A   1      39.999  28.855  28.807  1.00  0.00     0.049 A 
ATOM     42  H   UNL A   1      39.879  29.691  30.709  1.00  0.00     0.167 HD
ATOM     43  C   UNL A   1      39.577  31.490  34.653  1.00  0.00     0.037 A 
ATOM     44  C   UNL A   1      41.059  28.022  28.809  1.00  0.00     0.037 A 
ATOM     45  C   UNL A   1      40.687  30.583  34.763  1.00  0.00     0.049 A 
ATOM     46  C   UNL A   1      41.898  27.872  30.055  1.00  0.00     0.074 A 
ATOM     47  C   UNL A   1      41.468  30.309  35.872  1.00  0.00     0.029 A 
ATOM     48  N   UNL A   1      41.182  29.814  33.723  1.00  0.00    -0.354 N 
ATOM     49  N   UNL A   1      41.735  28.416  31.236  1.00  0.00    -0.248 NA
ATOM     50  C   UNL A   1      43.076  26.994  29.961  1.00  0.00     0.031 C 
ATOM     51  C   UNL A   1      42.466  29.406  35.491  1.00  0.00     0.029 A 
ATOM     52  C   UNL A   1      42.278  29.086  34.157  1.00  0.00     0.049 A 
ATOM     53  H   UNL A   1      40.810  29.789  32.812  1.00  0.00     0.167 HD
ATOM     54  C   UNL A   1      42.767  27.923  32.029  1.00  0.00     0.074 A 
ATOM     55  C   UNL A   1      43.547  27.032  31.199  1.00  0.00     0.031 C 
ATOM     56  C   UNL A   1      43.041  28.188  33.330  1.00  0.00     0.037 A 
BRANCH  43  57
ATOM     57  C   UNL A   1      39.193  32.292  35.857  1.00  0.00     0.057 A 
ATOM     58  C   UNL A   1      38.319  31.783  36.829  1.00  0.00     0.134 A 
ATOM     59  C   UNL A   1      39.705  33.579  36.053  1.00  0.00     0.134 A 
ATOM     60  F   UNL A   1      37.781  30.563  36.686  1.00  0.00    -0.206 F 
ATOM     61  C   UNL A   1      37.954  32.538  37.943  1.00  0.00     0.040 A 
ATOM     62  C   UNL A   1      39.365  34.335  37.175  1.00  0.00     0.040 A 
ATOM     63  F   UNL A   1      40.545  34.121  35.158  1.00  0.00    -0.206 F 
ATOM     64  C   UNL A   1      38.482  33.816  38.120  1.00  0.00     0.006 A 
ENDBRANCH  43  57
BRANCH  44  65
ATOM     65  C   UNL A   1      41.421  27.265  27.585  1.00  0.00     0.057 A 
ATOM     66  C   UNL A   1      40.995  25.943  27.399  1.00  0.00     0.134 A 
ATOM     67  C   UNL A   1      42.253  27.818  26.605  1.00  0.00     0.134 A 
ATOM     68  F   UNL A   1      40.224  25.348  28.320  1.00  0.00    -0.206 F 
ATOM     69  C   UNL A   1      41.402  25.192  26.295  1.00  0.00     0.040 A 
ATOM     70  C   UNL A   1      42.648  27.086  25.483  1.00  0.00     0.040 A 
ATOM     71  F   UNL A   1      42.701  29.076  26.727  1.00  0.00    -0.206 F 
ATOM     72  C   UNL A   1      42.230  25.765  25.332  1.00  0.00     0.006 A 
ENDBRANCH  44  65
BRANCH  56  73
ATOM     73  C   UNL A   1      44.209  27.482  33.956  1.00  0.00     0.057 A 
ATOM     74  C   UNL A   1      45.487  28.054  33.996  1.00  0.00     0.134 A 
ATOM     75  C   UNL A   1      44.039  26.239  34.580  1.00  0.00     0.134 A 
ATOM     76  F   UNL A   1      45.720  29.237  33.408  1.00  0.00    -0.206 F 
ATOM     77  C   UNL A   1      46.557  27.407  34.619  1.00  0.00     0.040 A 
ATOM     78  C   UNL A   1      45.095  25.594  35.225  1.00  0.00     0.040 A 
ATOM     79  F   UNL A   1      42.838  25.639  34.587  1.00  0.00    -0.206 F 
ATOM     80  C   UNL A   1      46.359  26.177  35.243  1.00  0.00     0.006 A 
ENDBRANCH  56  73
ENDBRANCH  30  31
ENDBRANCH  23  25
ENDBRANCH  22  23
ENDBRANCH  21  22
ENDBRANCH   1  21
TORSDOF 14
ENDMDL
MODEL 3
REMARK VINA RESULT:     -11.2      5.463     10.739
REMARK SMILES O=C(/C=C/c1ccccc1Oc1cccc(Cl)c1)OCCOC(=O)c1ccc(-c2c3nc(c(-c4c(F)cccc4F)c4ccc([nH]4)c(-c4c(F)cccc4F)c4nc(c(-c5c(F)cccc5F)c5ccc2[nH]5)C=C4)C=C3)cc1
REMARK SMILES IDX 20 1 19 2 2 3 1 4 3 5 4 6 5 7 6 8 10 9 7 10 9 11 8 12 11 13
REMARK SMILES IDX 12 14 13 15 18 16 14 17 16 18 15 19 17 20 21 21 22 22 23 23
REMARK SMILES IDX 24 24 25 25 26 26 78 27 27 28 77 29 28 30 29 31 30 32 71 33
REMARK SMILES IDX 31 34 76 35 70 36 72 37 32 38 75 39 69 40 68 41 33 43 59 44
REMARK SMILES IDX 42 45 58 46 43 47 46 48 57 49 73 50 44 51 45 52 56 54 74 55
REMARK SMILES IDX 47 56 34 57 35 58 40 59 36 60 37 61 39 62 41 63 38 64 60 65
REMARK SMILES IDX 61 66 66 67 62 68 63 69 65 70 67 71 64 72 48 73 49 74 54 75
REMARK SMILES IDX 50 76 51 77 53 78 55 79 52 80
REMARK H PARENT 72 42 46 53
REMARK Flexibility Score: inf
ROOT
ATOM      1  C   UNL A   1      33.766  35.077  32.343  1.00  0.00     0.275 C 
ENDROOT
BRANCH   1   2
ATOM      2  O   UNL A   1      33.094  34.937  31.072  1.00  0.00    -0.459 OA
BRANCH   2   3
ATOM      3  C   UNL A   1      33.689  34.831  29.865  1.00  0.00     0.330 C 
ATOM      4  O   UNL A   1      33.872  35.819  29.161  1.00  0.00    -0.247 OA
BRANCH   3   5
ATOM      5  C   UNL A   1      34.030  33.503  29.338  1.00  0.00     0.094 C 
ATOM      6  C   UNL A   1      33.664  32.957  28.172  1.00  0.00     0.019 C 
BRANCH   6   7
ATOM      7  C   UNL A   1      34.229  31.667  27.743  1.00  0.00     0.017 A 
ATOM      8  C   UNL A   1      35.623  31.571  27.957  1.00  0.00     0.012 A 
ATOM      9  C   UNL A   1      33.553  30.558  27.197  1.00  0.00     0.134 A 
ATOM     10  C   UNL A   1      36.336  30.411  27.652  1.00  0.00     0.001 A 
ATOM     11  C   UNL A   1      34.293  29.396  26.897  1.00  0.00     0.048 A 
ATOM     12  C   UNL A   1      35.667  29.318  27.124  1.00  0.00     0.004 A 
BRANCH   9  13
ATOM     13  O   UNL A   1      32.224  30.401  26.850  1.00  0.00    -0.457 OA
BRANCH  13  14
ATOM     14  C   UNL A   1      31.777  29.248  26.273  1.00  0.00     0.128 A 
ATOM     15  C   UNL A   1      31.661  28.101  27.064  1.00  0.00     0.047 A 
ATOM     16  C   UNL A   1      31.524  29.194  24.903  1.00  0.00     0.067 A 
ATOM     17  C   UNL A   1      31.191  26.917  26.500  1.00  0.00     0.005 A 
ATOM     18  C   UNL A   1      31.027  28.014  24.354  1.00  0.00     0.044 A 
ATOM     19  C   UNL A   1      30.855  26.879  25.145  1.00  0.00     0.021 A 
ATOM     20  Cl  UNL A   1      30.570  27.981  22.696  1.00  0.00    -0.084 Cl
ENDBRANCH  13  14
ENDBRANCH   9  13
ENDBRANCH   6   7
ENDBRANCH   3   5
ENDBRANCH   2   3
ENDBRANCH   1   2
BRANCH   1  21
ATOM     21  C   UNL A   1      34.355  33.769  32.881  1.00  0.00     0.275 C 
BRANCH  21  22
ATOM     22  O   UNL A   1      35.706  33.568  32.422  1.00  0.00    -0.458 OA
BRANCH  22  23
ATOM     23  C   UNL A   1      36.479  32.756  33.193  1.00  0.00     0.338 C 
ATOM     24  O   UNL A   1      36.374  32.575  34.387  1.00  0.00    -0.246 OA
BRANCH  23  25
ATOM     25  C   UNL A   1      37.406  31.974  32.333  1.00  0.00     0.060 A 
ATOM     26  C   UNL A   1      38.263  31.059  32.962  1.00  0.00     0.016 A 
ATOM     27  C   UNL A   1      37.432  32.109  30.942  1.00  0.00     0.016 A 
ATOM     28  C   UNL A   1      39.168  30.307  32.206  1.00  0.00     0.010 A 
ATOM     29  C   UNL A   1      38.350  31.368  30.188  1.00  0.00     0.010 A 
ATOM     30  C   UNL A   1      39.246  30.488  30.818  1.00  0.00    -0.014 A 
BRANCH  30  31
ATOM     31  C   UNL A   1      40.402  29.933  30.067  1.00  0.00     0.031 A 
ATOM     32  C   UNL A   1      41.577  30.835  29.806  1.00  0.00     0.074 A 
ATOM     33  C   UNL A   1      40.431  28.662  29.626  1.00  0.00     0.049 A 
ATOM     34  N   UNL A   1      42.695  30.583  29.172  1.00  0.00    -0.248 NA
ATOM     35  C   UNL A   1      41.473  32.207  30.327  1.00  0.00     0.031 C 
ATOM     36  C   UNL A   1      39.377  27.673  29.817  1.00  0.00     0.029 A 
ATOM     37  N   UNL A   1      41.400  27.992  28.917  1.00  0.00    -0.354 N 
ATOM     38  C   UNL A   1      43.429  31.761  29.227  1.00  0.00     0.074 A 
ATOM     39  C   UNL A   1      42.621  32.734  29.928  1.00  0.00     0.031 C 
ATOM     40  C   UNL A   1      39.757  26.515  29.245  1.00  0.00     0.029 A 
ATOM     41  C   UNL A   1      41.067  26.693  28.618  1.00  0.00     0.049 A 
ATOM     42  H   UNL A   1      42.253  28.403  28.650  1.00  0.00     0.167 HD
ATOM     43  C   UNL A   1      44.667  32.014  28.744  1.00  0.00     0.037 A 
ATOM     44  C   UNL A   1      41.734  25.764  27.905  1.00  0.00     0.037 A 
ATOM     45  C   UNL A   1      45.474  31.069  28.021  1.00  0.00     0.049 A 
ATOM     46  C   UNL A   1      43.076  26.098  27.301  1.00  0.00     0.074 A 
ATOM     47  C   UNL A   1      46.744  31.243  27.498  1.00  0.00     0.029 A 
ATOM     48  N   UNL A   1      45.083  29.778  27.706  1.00  0.00    -0.354 N 
ATOM     49  N   UNL A   1      43.779  27.200  27.395  1.00  0.00    -0.248 NA
ATOM     50  C   UNL A   1      43.715  25.053  26.482  1.00  0.00     0.031 C 
ATOM     51  C   UNL A   1      47.104  30.070  26.826  1.00  0.00     0.029 A 
ATOM     52  C   UNL A   1      46.077  29.153  26.970  1.00  0.00     0.049 A 
ATOM     53  H   UNL A   1      44.228  29.367  27.966  1.00  0.00     0.167 HD
ATOM     54  C   UNL A   1      44.948  26.971  26.678  1.00  0.00     0.074 A 
ATOM     55  C   UNL A   1      44.867  25.623  26.159  1.00  0.00     0.031 C 
ATOM     56  C   UNL A   1      45.996  27.805  26.469  1.00  0.00     0.037 A 
BRANCH  43  57
ATOM     57  C   UNL A   1      45.211  33.391  28.962  1.00  0.00     0.057 A 
ATOM     58  C   UNL A   1      44.973  34.427  28.048  1.00  0.00     0.134 A 
ATOM     59  C   UNL A   1      45.971  33.689  30.099  1.00  0.00     0.134 A 
ATOM     60  F   UNL A   1      44.268  34.198  26.930  1.00  0.00    -0.206 F 
ATOM     61  C   UNL A   1      45.492  35.706  28.249  1.00  0.00     0.040 A 
ATOM     62  C   UNL A   1      46.476  34.970  30.322  1.00  0.00     0.040 A 
ATOM     63  F   UNL A   1      46.233  32.739  31.010  1.00  0.00    -0.206 F 
ATOM     64  C   UNL A   1      46.241  35.981  29.392  1.00  0.00     0.006 A 
ENDBRANCH  43  57
BRANCH  44  65
ATOM     65  C   UNL A   1      41.147  24.417  27.691  1.00  0.00     0.057 A 
ATOM     66  C   UNL A   1      41.638  23.297  28.375  1.00  0.00     0.134 A 
ATOM     67  C   UNL A   1      40.131  24.206  26.753  1.00  0.00     0.134 A 
ATOM     68  F   UNL A   1      42.634  23.432  29.262  1.00  0.00    -0.206 F 
ATOM     69  C   UNL A   1      41.153  22.013  28.118  1.00  0.00     0.040 A 
ATOM     70  C   UNL A   1      39.621  22.930  26.503  1.00  0.00     0.040 A 
ATOM     71  F   UNL A   1      39.623  25.235  26.060  1.00  0.00    -0.206 F 
ATOM     72  C   UNL A   1      40.140  21.828  27.180  1.00  0.00     0.006 A 
ENDBRANCH  44  65
BRANCH  56  73
ATOM     73  C   UNL A   1      47.161  27.282  25.678  1.00  0.00     0.057 A 
ATOM     74  C   UNL A   1      47.298  27.533  24.308  1.00  0.00     0.134 A 
ATOM     75  C   UNL A   1      48.186  26.567  26.310  1.00  0.00     0.134 A 
ATOM     76  F   UNL A   1      46.346  28.202  23.640  1.00  0.00    -0.206 F 
ATOM     77  C   UNL A   1      48.407  27.077  23.590  1.00  0.00     0.040 A 
ATOM     78  C   UNL A   1      49.310  26.127  25.609  1.00  0.00     0.040 A 
ATOM     79  F   UNL A   1      48.122  26.300  27.624  1.00  0.00    -0.206 F 
ATOM     80  C   UNL A   1      49.421  26.379  24.244  1.00  0.00     0.006 A 
ENDBRANCH  56  73
ENDBRANCH  30  31
ENDBRANCH  23  25
ENDBRANCH  22  23
ENDBRANCH  21  22
ENDBRANCH   1  21
TORSDOF 14
ENDMDL
