MODEL 1
REMARK VINA RESULT:     -13.4      0.000      0.000
REMARK SMILES Cc1c(C(=O)OCCOC(=O)c2ccc(-c3c4nc(c(-c5c(F)cccc5F)c5ccc([nH]5)c(-c5c(F)cccc5F)c5nc(c(-c6c(F)cccc6F)c6ccc3[nH]6)C=C5)C=C4)cc2)oc2c1/C(=N/NC(=O)C(c1ccccc1)c1ccccc1)CCC2
REMARK SMILES IDX 7 1 6 2 4 3 5 4 3 5 1 6 2 7 68 8 66 9 67 10 69 11 89 12
REMARK SMILES IDX 70 13 87 14 88 15 71 16 72 17 73 19 74 20 75 21 76 22 80 23
REMARK SMILES IDX 77 24 79 25 78 26 81 27 82 28 86 29 83 30 85 31 84 32 8 33
REMARK SMILES IDX 9 34 10 35 11 36 12 37 13 38 65 39 14 40 64 41 15 42 16 43
REMARK SMILES IDX 17 44 58 45 18 46 63 47 57 48 59 49 19 50 62 51 56 52 55 53
REMARK SMILES IDX 20 55 46 56 29 57 45 58 30 59 33 60 44 61 60 62 31 63 32 64
REMARK SMILES IDX 43 66 61 67 34 68 21 69 22 70 27 71 23 72 24 73 26 74 28 75
REMARK SMILES IDX 25 76 47 77 48 78 53 79 49 80 50 81 52 82 54 83 51 84 35 85
REMARK SMILES IDX 36 86 41 87 37 88 38 89 40 90 42 91 39 92
REMARK H PARENT 71 18 59 54 33 65
REMARK Flexibility Score: inf
ROOT
ATOM      1  C   UNL A   1      37.165  21.901  25.522  1.00  0.00     0.275 C 
ENDROOT
BRANCH   1   2
ATOM      2  O   UNL A   1      36.774  23.151  24.952  1.00  0.00    -0.456 OA
BRANCH   2   3
ATOM      3  C   UNL A   1      36.082  23.194  23.774  1.00  0.00     0.374 C 
ATOM      4  O   UNL A   1      36.556  22.983  22.660  1.00  0.00    -0.242 OA
BRANCH   3   5
ATOM      5  C   UNL A   1      34.703  23.453  24.099  1.00  0.00     0.215 A 
ATOM      6  C   UNL A   1      33.683  25.183  22.447  1.00  0.00     0.049 C 
ATOM      7  C   UNL A   1      33.668  24.256  23.606  1.00  0.00     0.012 A 
ATOM      8  C   UNL A   1      32.587  24.071  24.525  1.00  0.00     0.043 A 
ATOM      9  O   UNL A   1      34.260  22.728  25.163  1.00  0.00    -0.453 OA
ATOM     10  C   UNL A   1      33.021  23.110  25.417  1.00  0.00     0.114 A 
ATOM     11  C   UNL A   1      31.305  24.732  24.778  1.00  0.00     0.072 C 
ATOM     12  C   UNL A   1      32.432  22.580  26.655  1.00  0.00     0.076 C 
ATOM     13  N   UNL A   1      30.791  25.434  23.810  1.00  0.00    -0.177 NA
ATOM     14  C   UNL A   1      30.938  24.520  26.230  1.00  0.00     0.059 C 
ATOM     15  C   UNL A   1      31.011  23.077  26.725  1.00  0.00     0.014 C 
BRANCH  13  16
ATOM     16  N   UNL A   1      29.672  26.222  23.636  1.00  0.00    -0.246 N 
ATOM     17  C   UNL A   1      29.315  27.543  23.407  1.00  0.00     0.252 C 
ATOM     18  H   UNL A   1      28.861  25.665  23.695  1.00  0.00     0.193 HD
ATOM     19  O   UNL A   1      28.105  27.813  23.401  1.00  0.00    -0.272 OA
BRANCH  17  20
ATOM     20  C   UNL A   1      30.339  28.661  23.140  1.00  0.00     0.140 C 
BRANCH  20  21
ATOM     21  C   UNL A   1      29.498  29.948  22.742  1.00  0.00    -0.031 A 
ATOM     22  C   UNL A   1      29.007  30.212  21.454  1.00  0.00     0.005 A 
ATOM     23  C   UNL A   1      29.241  30.967  23.708  1.00  0.00     0.005 A 
ATOM     24  C   UNL A   1      28.443  31.472  21.138  1.00  0.00     0.000 A 
ATOM     25  C   UNL A   1      28.731  32.226  23.390  1.00  0.00     0.000 A 
ATOM     26  C   UNL A   1      28.344  32.488  22.091  1.00  0.00     0.000 A 
ENDBRANCH  20  21
BRANCH  20  27
ATOM     27  C   UNL A   1      31.408  28.556  24.315  1.00  0.00    -0.031 A 
ATOM     28  C   UNL A   1      31.105  28.448  25.682  1.00  0.00     0.005 A 
ATOM     29  C   UNL A   1      32.788  28.419  23.983  1.00  0.00     0.005 A 
ATOM     30  C   UNL A   1      32.077  27.973  26.595  1.00  0.00     0.000 A 
ATOM     31  C   UNL A   1      33.737  27.910  24.872  1.00  0.00     0.000 A 
ATOM     32  C   UNL A   1      33.368  27.646  26.176  1.00  0.00     0.000 A 
ENDBRANCH  20  27
ENDBRANCH  17  20
ENDBRANCH  13  16
ENDBRANCH   3   5
ENDBRANCH   2   3
ENDBRANCH   1   2
BRANCH   1  33
ATOM     33  C   UNL A   1      38.668  21.863  25.751  1.00  0.00     0.275 C 
BRANCH  33  34
ATOM     34  O   UNL A   1      39.032  22.938  26.606  1.00  0.00    -0.458 OA
BRANCH  34  35
ATOM     35  C   UNL A   1      40.239  22.855  27.205  1.00  0.00     0.338 C 
ATOM     36  O   UNL A   1      40.755  21.875  27.710  1.00  0.00    -0.246 OA
BRANCH  35  37
ATOM     37  C   UNL A   1      40.812  24.202  27.239  1.00  0.00     0.060 A 
ATOM     38  C   UNL A   1      41.869  24.435  28.121  1.00  0.00     0.016 A 
ATOM     39  C   UNL A   1      40.112  25.245  26.614  1.00  0.00     0.016 A 
ATOM     40  C   UNL A   1      42.035  25.717  28.591  1.00  0.00     0.010 A 
ATOM     41  C   UNL A   1      40.289  26.520  27.069  1.00  0.00     0.010 A 
ATOM     42  C   UNL A   1      41.150  26.705  28.142  1.00  0.00    -0.014 A 
BRANCH  42  43
ATOM     43  C   UNL A   1      41.117  27.971  28.829  1.00  0.00     0.031 A 
ATOM     44  C   UNL A   1      42.220  28.867  28.435  1.00  0.00     0.074 A 
ATOM     45  C   UNL A   1      40.100  28.285  29.657  1.00  0.00     0.049 A 
ATOM     46  N   UNL A   1      43.201  29.271  29.169  1.00  0.00    -0.248 NA
ATOM     47  C   UNL A   1      42.356  29.196  27.006  1.00  0.00     0.031 C 
ATOM     48  C   UNL A   1      38.855  27.552  29.916  1.00  0.00     0.029 A 
ATOM     49  N   UNL A   1      39.938  29.418  30.388  1.00  0.00    -0.354 N 
ATOM     50  C   UNL A   1      43.972  30.078  28.344  1.00  0.00     0.074 A 
ATOM     51  C   UNL A   1      43.515  29.852  26.999  1.00  0.00     0.031 C 
ATOM     52  C   UNL A   1      37.976  28.367  30.544  1.00  0.00     0.029 A 
ATOM     53  C   UNL A   1      38.645  29.612  30.862  1.00  0.00     0.049 A 
ATOM     54  H   UNL A   1      40.675  30.047  30.567  1.00  0.00     0.167 HD
ATOM     55  C   UNL A   1      44.760  31.055  28.865  1.00  0.00     0.037 A 
ATOM     56  C   UNL A   1      38.181  30.777  31.383  1.00  0.00     0.037 A 
ATOM     57  C   UNL A   1      44.999  30.845  30.269  1.00  0.00     0.049 A 
ATOM     58  C   UNL A   1      39.372  31.561  31.816  1.00  0.00     0.074 A 
ATOM     59  C   UNL A   1      45.628  29.860  31.004  1.00  0.00     0.029 A 
ATOM     60  N   UNL A   1      44.205  31.529  31.160  1.00  0.00    -0.354 N 
ATOM     61  N   UNL A   1      40.153  31.187  32.793  1.00  0.00    -0.248 NA
ATOM     62  C   UNL A   1      39.980  32.453  30.836  1.00  0.00     0.031 C 
ATOM     63  C   UNL A   1      44.820  29.695  32.168  1.00  0.00     0.029 A 
ATOM     64  C   UNL A   1      43.788  30.634  32.113  1.00  0.00     0.049 A 
ATOM     65  H   UNL A   1      43.978  32.486  31.121  1.00  0.00     0.167 HD
ATOM     66  C   UNL A   1      41.442  31.440  32.337  1.00  0.00     0.074 A 
ATOM     67  C   UNL A   1      41.268  32.266  31.144  1.00  0.00     0.031 C 
ATOM     68  C   UNL A   1      42.511  30.714  32.783  1.00  0.00     0.037 A 
BRANCH  55  69
ATOM     69  C   UNL A   1      44.973  32.382  28.196  1.00  0.00     0.057 A 
ATOM     70  C   UNL A   1      43.917  33.306  28.157  1.00  0.00     0.134 A 
ATOM     71  C   UNL A   1      46.057  32.664  27.339  1.00  0.00     0.134 A 
ATOM     72  F   UNL A   1      42.826  33.136  28.920  1.00  0.00    -0.206 F 
ATOM     73  C   UNL A   1      43.908  34.389  27.272  1.00  0.00     0.040 A 
ATOM     74  C   UNL A   1      46.080  33.770  26.489  1.00  0.00     0.040 A 
ATOM     75  F   UNL A   1      47.098  31.834  27.198  1.00  0.00    -0.206 F 
ATOM     76  C   UNL A   1      44.988  34.618  26.427  1.00  0.00     0.006 A 
ENDBRANCH  55  69
BRANCH  56  77
ATOM     77  C   UNL A   1      36.862  31.397  31.118  1.00  0.00     0.057 A 
ATOM     78  C   UNL A   1      36.065  31.900  32.155  1.00  0.00     0.134 A 
ATOM     79  C   UNL A   1      36.471  31.753  29.813  1.00  0.00     0.134 A 
ATOM     80  F   UNL A   1      36.386  31.659  33.434  1.00  0.00    -0.206 F 
ATOM     81  C   UNL A   1      34.949  32.715  31.909  1.00  0.00     0.040 A 
ATOM     82  C   UNL A   1      35.360  32.562  29.554  1.00  0.00     0.040 A 
ATOM     83  F   UNL A   1      37.207  31.400  28.749  1.00  0.00    -0.206 F 
ATOM     84  C   UNL A   1      34.600  33.055  30.605  1.00  0.00     0.006 A 
ENDBRANCH  56  77
BRANCH  68  85
ATOM     85  C   UNL A   1      42.280  29.753  33.919  1.00  0.00     0.057 A 
ATOM     86  C   UNL A   1      41.928  28.404  33.747  1.00  0.00     0.134 A 
ATOM     87  C   UNL A   1      42.582  30.161  35.220  1.00  0.00     0.134 A 
ATOM     88  F   UNL A   1      41.723  27.893  32.528  1.00  0.00    -0.206 F 
ATOM     89  C   UNL A   1      41.835  27.517  34.826  1.00  0.00     0.040 A 
ATOM     90  C   UNL A   1      42.524  29.280  36.303  1.00  0.00     0.040 A 
ATOM     91  F   UNL A   1      42.990  31.418  35.455  1.00  0.00    -0.206 F 
ATOM     92  C   UNL A   1      42.139  27.955  36.111  1.00  0.00     0.006 A 
ENDBRANCH  68  85
ENDBRANCH  42  43
ENDBRANCH  35  37
ENDBRANCH  34  35
ENDBRANCH  33  34
ENDBRANCH   1  33
TORSDOF 15
ENDMDL
MODEL 2
REMARK VINA RESULT:     -13.4      3.595      8.137
REMARK SMILES Cc1c(C(=O)OCCOC(=O)c2ccc(-c3c4nc(c(-c5c(F)cccc5F)c5ccc([nH]5)c(-c5c(F)cccc5F)c5nc(c(-c6c(F)cccc6F)c6ccc3[nH]6)C=C5)C=C4)cc2)oc2c1/C(=N/NC(=O)C(c1ccccc1)c1ccccc1)CCC2
REMARK SMILES IDX 7 1 6 2 4 3 5 4 3 5 1 6 2 7 68 8 66 9 67 10 69 11 89 12
REMARK SMILES IDX 70 13 87 14 88 15 71 16 72 17 73 19 74 20 75 21 76 22 80 23
REMARK SMILES IDX 77 24 79 25 78 26 81 27 82 28 86 29 83 30 85 31 84 32 8 33
REMARK SMILES IDX 9 34 10 35 11 36 12 37 13 38 65 39 14 40 64 41 15 42 16 43
REMARK SMILES IDX 17 44 58 45 18 46 63 47 57 48 59 49 19 50 62 51 56 52 55 53
REMARK SMILES IDX 20 55 46 56 29 57 45 58 30 59 33 60 44 61 60 62 31 63 32 64
REMARK SMILES IDX 43 66 61 67 34 68 21 69 22 70 27 71 23 72 24 73 26 74 28 75
REMARK SMILES IDX 25 76 47 77 48 78 53 79 49 80 50 81 52 82 54 83 51 84 35 85
REMARK SMILES IDX 36 86 41 87 37 88 38 89 40 90 42 91 39 92
REMARK H PARENT 71 18 59 54 33 65
REMARK Flexibility Score: inf
ROOT
ATOM      1  C   UNL A   1      34.331  29.094  27.052  1.00  0.00     0.275 C 
ENDROOT
BRANCH   1   2
ATOM      2  O   UNL A   1      32.961  29.080  26.653  1.00  0.00    -0.456 OA
BRANCH   2   3
ATOM      3  C   UNL A   1      32.151  28.026  26.974  1.00  0.00     0.374 C 
ATOM      4  O   UNL A   1      31.498  27.919  28.011  1.00  0.00    -0.242 OA
BRANCH   3   5
ATOM      5  C   UNL A   1      32.155  27.127  25.850  1.00  0.00     0.215 A 
ATOM      6  C   UNL A   1      31.560  24.711  26.609  1.00  0.00     0.049 C 
ATOM      7  C   UNL A   1      31.930  25.763  25.629  1.00  0.00     0.012 A 
ATOM      8  C   UNL A   1      32.228  25.559  24.244  1.00  0.00     0.043 A 
ATOM      9  O   UNL A   1      32.443  27.746  24.672  1.00  0.00    -0.453 OA
ATOM     10  C   UNL A   1      32.500  26.814  23.737  1.00  0.00     0.114 A 
ATOM     11  C   UNL A   1      32.430  24.395  23.379  1.00  0.00     0.072 C 
ATOM     12  C   UNL A   1      32.991  27.259  22.424  1.00  0.00     0.076 C 
ATOM     13  N   UNL A   1      31.929  23.260  23.773  1.00  0.00    -0.177 NA
ATOM     14  C   UNL A   1      33.329  24.804  22.234  1.00  0.00     0.059 C 
ATOM     15  C   UNL A   1      32.920  26.076  21.494  1.00  0.00     0.014 C 
BRANCH  13  16
ATOM     16  N   UNL A   1      31.919  21.961  23.309  1.00  0.00    -0.246 N 
ATOM     17  C   UNL A   1      32.414  20.705  23.627  1.00  0.00     0.252 C 
ATOM     18  H   UNL A   1      31.389  21.909  22.481  1.00  0.00     0.193 HD
ATOM     19  O   UNL A   1      32.198  19.787  22.822  1.00  0.00    -0.272 OA
BRANCH  17  20
ATOM     20  C   UNL A   1      33.184  20.403  24.926  1.00  0.00     0.140 C 
BRANCH  20  21
ATOM     21  C   UNL A   1      33.383  18.828  24.970  1.00  0.00    -0.031 A 
ATOM     22  C   UNL A   1      32.540  17.937  25.652  1.00  0.00     0.005 A 
ATOM     23  C   UNL A   1      34.511  18.228  24.334  1.00  0.00     0.005 A 
ATOM     24  C   UNL A   1      32.899  16.576  25.808  1.00  0.00     0.000 A 
ATOM     25  C   UNL A   1      34.893  16.900  24.526  1.00  0.00     0.000 A 
ATOM     26  C   UNL A   1      34.091  16.070  25.283  1.00  0.00     0.000 A 
ENDBRANCH  20  21
BRANCH  20  27
ATOM     27  C   UNL A   1      34.330  21.504  25.013  1.00  0.00    -0.031 A 
ATOM     28  C   UNL A   1      35.248  21.804  23.993  1.00  0.00     0.005 A 
ATOM     29  C   UNL A   1      34.374  22.368  26.147  1.00  0.00     0.005 A 
ATOM     30  C   UNL A   1      35.954  23.030  24.004  1.00  0.00     0.000 A 
ATOM     31  C   UNL A   1      35.036  23.597  26.141  1.00  0.00     0.000 A 
ATOM     32  C   UNL A   1      35.799  23.949  25.044  1.00  0.00     0.000 A 
ENDBRANCH  20  27
ENDBRANCH  17  20
ENDBRANCH  13  16
ENDBRANCH   3   5
ENDBRANCH   2   3
ENDBRANCH   1   2
BRANCH   1  33
ATOM     33  C   UNL A   1      34.671  30.400  27.755  1.00  0.00     0.275 C 
BRANCH  33  34
ATOM     34  O   UNL A   1      36.083  30.543  27.806  1.00  0.00    -0.458 OA
BRANCH  34  35
ATOM     35  C   UNL A   1      36.696  30.127  28.935  1.00  0.00     0.338 C 
ATOM     36  O   UNL A   1      36.507  30.518  30.072  1.00  0.00    -0.246 OA
BRANCH  35  37
ATOM     37  C   UNL A   1      37.729  29.163  28.551  1.00  0.00     0.060 A 
ATOM     38  C   UNL A   1      38.161  28.256  29.521  1.00  0.00     0.016 A 
ATOM     39  C   UNL A   1      38.428  29.369  27.353  1.00  0.00     0.016 A 
ATOM     40  C   UNL A   1      39.441  27.767  29.409  1.00  0.00     0.010 A 
ATOM     41  C   UNL A   1      39.693  28.870  27.235  1.00  0.00     0.010 A 
ATOM     42  C   UNL A   1      40.220  28.192  28.326  1.00  0.00    -0.014 A 
BRANCH  42  43
ATOM     43  C   UNL A   1      41.636  27.930  28.343  1.00  0.00     0.031 A 
ATOM     44  C   UNL A   1      41.998  26.681  27.650  1.00  0.00     0.074 A 
ATOM     45  C   UNL A   1      42.501  28.824  28.865  1.00  0.00     0.049 A 
ATOM     46  N   UNL A   1      42.487  25.608  28.172  1.00  0.00    -0.248 NA
ATOM     47  C   UNL A   1      41.586  26.537  26.243  1.00  0.00     0.031 C 
ATOM     48  C   UNL A   1      42.246  30.184  29.356  1.00  0.00     0.029 A 
ATOM     49  N   UNL A   1      43.850  28.714  28.976  1.00  0.00    -0.354 N 
ATOM     50  C   UNL A   1      42.639  24.718  27.118  1.00  0.00     0.074 A 
ATOM     51  C   UNL A   1      41.910  25.267  26.005  1.00  0.00     0.031 C 
ATOM     52  C   UNL A   1      43.420  30.846  29.477  1.00  0.00     0.029 A 
ATOM     53  C   UNL A   1      44.503  29.917  29.222  1.00  0.00     0.049 A 
ATOM     54  H   UNL A   1      44.324  27.855  28.889  1.00  0.00     0.167 HD
ATOM     55  C   UNL A   1      43.561  23.722  27.175  1.00  0.00     0.037 A 
ATOM     56  C   UNL A   1      45.843  30.104  29.113  1.00  0.00     0.037 A 
ATOM     57  C   UNL A   1      43.987  23.476  28.528  1.00  0.00     0.049 A 
ATOM     58  C   UNL A   1      46.476  28.758  29.207  1.00  0.00     0.074 A 
ATOM     59  C   UNL A   1      43.353  23.038  29.674  1.00  0.00     0.029 A 
ATOM     60  N   UNL A   1      45.153  24.070  28.947  1.00  0.00    -0.354 N 
ATOM     61  N   UNL A   1      46.450  28.034  30.294  1.00  0.00    -0.248 NA
ATOM     62  C   UNL A   1      46.662  28.017  27.966  1.00  0.00     0.031 C 
ATOM     63  C   UNL A   1      43.919  23.815  30.728  1.00  0.00     0.029 A 
ATOM     64  C   UNL A   1      44.912  24.627  30.178  1.00  0.00     0.049 A 
ATOM     65  H   UNL A   1      46.005  24.093  28.454  1.00  0.00     0.167 HD
ATOM     66  C   UNL A   1      46.191  26.741  29.854  1.00  0.00     0.074 A 
ATOM     67  C   UNL A   1      46.381  26.785  28.406  1.00  0.00     0.031 C 
ATOM     68  C   UNL A   1      45.555  25.831  30.653  1.00  0.00     0.037 A 
BRANCH  55  69
ATOM     69  C   UNL A   1      44.348  23.261  25.981  1.00  0.00     0.057 A 
ATOM     70  C   UNL A   1      44.333  21.901  25.636  1.00  0.00     0.134 A 
ATOM     71  C   UNL A   1      45.344  24.036  25.352  1.00  0.00     0.134 A 
ATOM     72  F   UNL A   1      43.438  21.063  26.181  1.00  0.00    -0.206 F 
ATOM     73  C   UNL A   1      45.289  21.339  24.784  1.00  0.00     0.040 A 
ATOM     74  C   UNL A   1      46.272  23.494  24.461  1.00  0.00     0.040 A 
ATOM     75  F   UNL A   1      45.543  25.327  25.643  1.00  0.00    -0.206 F 
ATOM     76  C   UNL A   1      46.269  22.135  24.202  1.00  0.00     0.006 A 
ENDBRANCH  55  69
BRANCH  56  77
ATOM     77  C   UNL A   1      46.523  31.273  28.508  1.00  0.00     0.057 A 
ATOM     78  C   UNL A   1      46.336  31.616  27.162  1.00  0.00     0.134 A 
ATOM     79  C   UNL A   1      47.164  32.239  29.306  1.00  0.00     0.134 A 
ATOM     80  F   UNL A   1      45.689  30.783  26.334  1.00  0.00    -0.206 F 
ATOM     81  C   UNL A   1      46.754  32.851  26.643  1.00  0.00     0.040 A 
ATOM     82  C   UNL A   1      47.588  33.472  28.801  1.00  0.00     0.040 A 
ATOM     83  F   UNL A   1      47.320  32.056  30.626  1.00  0.00    -0.206 F 
ATOM     84  C   UNL A   1      47.375  33.786  27.466  1.00  0.00     0.006 A 
ENDBRANCH  56  77
BRANCH  68  85
ATOM     85  C   UNL A   1      45.305  26.212  32.088  1.00  0.00     0.057 A 
ATOM     86  C   UNL A   1      44.120  26.810  32.546  1.00  0.00     0.134 A 
ATOM     87  C   UNL A   1      46.225  25.815  33.061  1.00  0.00     0.134 A 
ATOM     88  F   UNL A   1      43.134  27.129  31.700  1.00  0.00    -0.206 F 
ATOM     89  C   UNL A   1      43.884  27.043  33.906  1.00  0.00     0.040 A 
ATOM     90  C   UNL A   1      45.989  26.013  34.424  1.00  0.00     0.040 A 
ATOM     91  F   UNL A   1      47.352  25.179  32.706  1.00  0.00    -0.206 F 
ATOM     92  C   UNL A   1      44.820  26.639  34.851  1.00  0.00     0.006 A 
ENDBRANCH  68  85
ENDBRANCH  42  43
ENDBRANCH  35  37
ENDBRANCH  34  35
ENDBRANCH  33  34
ENDBRANCH   1  33
TORSDOF 15
ENDMDL
MODEL 3
REMARK VINA RESULT:     -13.2      2.816      8.351
REMARK SMILES Cc1c(C(=O)OCCOC(=O)c2ccc(-c3c4nc(c(-c5c(F)cccc5F)c5ccc([nH]5)c(-c5c(F)cccc5F)c5nc(c(-c6c(F)cccc6F)c6ccc3[nH]6)C=C5)C=C4)cc2)oc2c1/C(=N/NC(=O)C(c1ccccc1)c1ccccc1)CCC2
REMARK SMILES IDX 7 1 6 2 4 3 5 4 3 5 1 6 2 7 68 8 66 9 67 10 69 11 89 12
REMARK SMILES IDX 70 13 87 14 88 15 71 16 72 17 73 19 74 20 75 21 76 22 80 23
REMARK SMILES IDX 77 24 79 25 78 26 81 27 82 28 86 29 83 30 85 31 84 32 8 33
REMARK SMILES IDX 9 34 10 35 11 36 12 37 13 38 65 39 14 40 64 41 15 42 16 43
REMARK SMILES IDX 17 44 58 45 18 46 63 47 57 48 59 49 19 50 62 51 56 52 55 53
REMARK SMILES IDX 20 55 46 56 29 57 45 58 30 59 33 60 44 61 60 62 31 63 32 64
REMARK SMILES IDX 43 66 61 67 34 68 21 69 22 70 27 71 23 72 24 73 26 74 28 75
REMARK SMILES IDX 25 76 47 77 48 78 53 79 49 80 50 81 52 82 54 83 51 84 35 85
REMARK SMILES IDX 36 86 41 87 37 88 38 89 40 90 42 91 39 92
REMARK H PARENT 71 18 59 54 33 65
REMARK Flexibility Score: inf
ROOT
ATOM      1  C   UNL A   1      32.972  30.128  25.806  1.00  0.00     0.275 C 
ENDROOT
BRANCH   1   2
ATOM      2  O   UNL A   1      31.573  29.851  25.749  1.00  0.00    -0.456 OA
BRANCH   2   3
ATOM      3  C   UNL A   1      31.003  29.368  24.604  1.00  0.00     0.374 C 
ATOM      4  O   UNL A   1      30.348  30.028  23.800  1.00  0.00    -0.242 OA
BRANCH   3   5
ATOM      5  C   UNL A   1      31.379  27.982  24.493  1.00  0.00     0.215 A 
ATOM      6  C   UNL A   1      31.401  26.850  26.835  1.00  0.00     0.049 C 
ATOM      7  C   UNL A   1      31.569  26.900  25.361  1.00  0.00     0.012 A 
ATOM      8  C   UNL A   1      32.060  25.843  24.531  1.00  0.00     0.043 A 
ATOM      9  O   UNL A   1      31.610  27.593  23.209  1.00  0.00    -0.453 OA
ATOM     10  C   UNL A   1      32.026  26.339  23.243  1.00  0.00     0.114 A 
ATOM     11  C   UNL A   1      32.672  24.532  24.760  1.00  0.00     0.072 C 
ATOM     12  C   UNL A   1      32.514  25.796  21.966  1.00  0.00     0.076 C 
ATOM     13  N   UNL A   1      32.466  23.968  25.915  1.00  0.00    -0.177 NA
ATOM     14  C   UNL A   1      33.540  24.198  23.568  1.00  0.00     0.059 C 
ATOM     15  C   UNL A   1      32.876  24.353  22.202  1.00  0.00     0.014 C 
BRANCH  13  16
ATOM     16  N   UNL A   1      32.869  22.808  26.542  1.00  0.00    -0.246 N 
ATOM     17  C   UNL A   1      33.548  21.627  26.278  1.00  0.00     0.252 C 
ATOM     18  H   UNL A   1      32.580  22.821  27.483  1.00  0.00     0.193 HD
ATOM     19  O   UNL A   1      33.605  20.787  27.190  1.00  0.00    -0.272 OA
BRANCH  17  20
ATOM     20  C   UNL A   1      34.244  21.332  24.937  1.00  0.00     0.140 C 
BRANCH  20  21
ATOM     21  C   UNL A   1      35.769  21.736  25.128  1.00  0.00    -0.031 A 
ATOM     22  C   UNL A   1      36.854  20.872  24.915  1.00  0.00     0.005 A 
ATOM     23  C   UNL A   1      36.115  23.037  25.600  1.00  0.00     0.005 A 
ATOM     24  C   UNL A   1      38.164  21.246  25.300  1.00  0.00     0.000 A 
ATOM     25  C   UNL A   1      37.395  23.392  26.026  1.00  0.00     0.000 A 
ATOM     26  C   UNL A   1      38.427  22.484  25.890  1.00  0.00     0.000 A 
ENDBRANCH  20  21
BRANCH  20  27
ATOM     27  C   UNL A   1      33.693  19.914  24.469  1.00  0.00    -0.031 A 
ATOM     28  C   UNL A   1      32.506  19.701  23.749  1.00  0.00     0.005 A 
ATOM     29  C   UNL A   1      34.509  18.760  24.659  1.00  0.00     0.005 A 
ATOM     30  C   UNL A   1      32.302  18.487  23.051  1.00  0.00     0.000 A 
ATOM     31  C   UNL A   1      34.331  17.578  23.937  1.00  0.00     0.000 A 
ATOM     32  C   UNL A   1      33.243  17.455  23.095  1.00  0.00     0.000 A 
ENDBRANCH  20  27
ENDBRANCH  17  20
ENDBRANCH  13  16
ENDBRANCH   3   5
ENDBRANCH   2   3
ENDBRANCH   1   2
BRANCH   1  33
ATOM     33  C   UNL A   1      33.383  30.528  27.215  1.00  0.00     0.275 C 
BRANCH  33  34
ATOM     34  O   UNL A   1      34.798  30.458  27.321  1.00  0.00    -0.458 OA
BRANCH  34  35
ATOM     35  C   UNL A   1      35.418  31.518  27.882  1.00  0.00     0.338 C 
ATOM     36  O   UNL A   1      35.255  32.697  27.629  1.00  0.00    -0.246 OA
BRANCH  35  37
ATOM     37  C   UNL A   1      36.425  31.002  28.812  1.00  0.00     0.060 A 
ATOM     38  C   UNL A   1      37.547  31.796  29.058  1.00  0.00     0.016 A 
ATOM     39  C   UNL A   1      36.366  29.650  29.183  1.00  0.00     0.016 A 
ATOM     40  C   UNL A   1      38.711  31.159  29.421  1.00  0.00     0.010 A 
ATOM     41  C   UNL A   1      37.518  29.022  29.559  1.00  0.00     0.010 A 
ATOM     42  C   UNL A   1      38.691  29.764  29.538  1.00  0.00    -0.014 A 
BRANCH  42  43
ATOM     43  C   UNL A   1      39.944  29.057  29.629  1.00  0.00     0.031 A 
ATOM     44  C   UNL A   1      40.443  28.949  31.011  1.00  0.00     0.074 A 
ATOM     45  C   UNL A   1      40.500  28.488  28.540  1.00  0.00     0.049 A 
ATOM     46  N   UNL A   1      41.501  29.496  31.507  1.00  0.00    -0.248 NA
ATOM     47  C   UNL A   1      39.561  28.320  32.009  1.00  0.00     0.031 C 
ATOM     48  C   UNL A   1      39.952  28.348  27.185  1.00  0.00     0.029 A 
ATOM     49  N   UNL A   1      41.676  27.815  28.459  1.00  0.00    -0.354 N 
ATOM     50  C   UNL A   1      41.529  29.107  32.840  1.00  0.00     0.074 A 
ATOM     51  C   UNL A   1      40.236  28.547  33.135  1.00  0.00     0.031 C 
ATOM     52  C   UNL A   1      40.678  27.434  26.499  1.00  0.00     0.029 A 
ATOM     53  C   UNL A   1      41.816  27.047  27.308  1.00  0.00     0.049 A 
ATOM     54  H   UNL A   1      42.370  27.867  29.156  1.00  0.00     0.167 HD
ATOM     55  C   UNL A   1      42.701  29.053  33.524  1.00  0.00     0.037 A 
ATOM     56  C   UNL A   1      42.769  26.097  27.125  1.00  0.00     0.037 A 
ATOM     57  C   UNL A   1      43.730  29.815  32.868  1.00  0.00     0.049 A 
ATOM     58  C   UNL A   1      43.868  26.397  28.086  1.00  0.00     0.074 A 
ATOM     59  C   UNL A   1      43.897  31.153  32.566  1.00  0.00     0.029 A 
ATOM     60  N   UNL A   1      44.606  29.136  32.054  1.00  0.00    -0.354 N 
ATOM     61  N   UNL A   1      44.614  27.466  28.003  1.00  0.00    -0.248 NA
ATOM     62  C   UNL A   1      43.781  25.797  29.412  1.00  0.00     0.031 C 
ATOM     63  C   UNL A   1      44.492  31.168  31.270  1.00  0.00     0.029 A 
ATOM     64  C   UNL A   1      44.719  29.845  30.885  1.00  0.00     0.049 A 
ATOM     65  H   UNL A   1      45.068  28.294  32.272  1.00  0.00     0.167 HD
ATOM     66  C   UNL A   1      44.743  27.914  29.312  1.00  0.00     0.074 A 
ATOM     67  C   UNL A   1      44.249  26.815  30.141  1.00  0.00     0.031 C 
ATOM     68  C   UNL A   1      44.950  29.235  29.596  1.00  0.00     0.037 A 
BRANCH  55  69
ATOM     69  C   UNL A   1      43.003  28.002  34.554  1.00  0.00     0.057 A 
ATOM     70  C   UNL A   1      43.191  28.387  35.890  1.00  0.00     0.134 A 
ATOM     71  C   UNL A   1      43.412  26.690  34.238  1.00  0.00     0.134 A 
ATOM     72  F   UNL A   1      42.851  29.618  36.305  1.00  0.00    -0.206 F 
ATOM     73  C   UNL A   1      43.810  27.552  36.826  1.00  0.00     0.040 A 
ATOM     74  C   UNL A   1      43.985  25.830  35.177  1.00  0.00     0.040 A 
ATOM     75  F   UNL A   1      43.380  26.206  32.990  1.00  0.00    -0.206 F 
ATOM     76  C   UNL A   1      44.218  26.273  36.467  1.00  0.00     0.006 A 
ENDBRANCH  55  69
BRANCH  56  77
ATOM     77  C   UNL A   1      42.575  24.760  26.515  1.00  0.00     0.057 A 
ATOM     78  C   UNL A   1      43.317  24.348  25.401  1.00  0.00     0.134 A 
ATOM     79  C   UNL A   1      41.847  23.754  27.178  1.00  0.00     0.134 A 
ATOM     80  F   UNL A   1      44.084  25.223  24.735  1.00  0.00    -0.206 F 
ATOM     81  C   UNL A   1      43.340  23.011  24.974  1.00  0.00     0.040 A 
ATOM     82  C   UNL A   1      41.859  22.419  26.762  1.00  0.00     0.040 A 
ATOM     83  F   UNL A   1      41.171  24.016  28.305  1.00  0.00    -0.206 F 
ATOM     84  C   UNL A   1      42.615  22.040  25.661  1.00  0.00     0.006 A 
ENDBRANCH  56  77
BRANCH  68  85
ATOM     85  C   UNL A   1      45.216  30.166  28.444  1.00  0.00     0.057 A 
ATOM     86  C   UNL A   1      44.213  30.858  27.745  1.00  0.00     0.134 A 
ATOM     87  C   UNL A   1      46.538  30.498  28.135  1.00  0.00     0.134 A 
ATOM     88  F   UNL A   1      42.920  30.687  28.043  1.00  0.00    -0.206 F 
ATOM     89  C   UNL A   1      44.512  31.800  26.755  1.00  0.00     0.040 A 
ATOM     90  C   UNL A   1      46.852  31.459  27.171  1.00  0.00     0.040 A 
ATOM     91  F   UNL A   1      47.551  29.927  28.805  1.00  0.00    -0.206 F 
ATOM     92  C   UNL A   1      45.839  32.107  26.469  1.00  0.00     0.006 A 
ENDBRANCH  68  85
ENDBRANCH  42  43
ENDBRANCH  35  37
ENDBRANCH  34  35
ENDBRANCH  33  34
ENDBRANCH   1  33
TORSDOF 15
ENDMDL
