MODEL 1
REMARK VINA RESULT:     -12.3      0.000      0.000
REMARK SMILES Cc1cccc(-c2cccc(O)c2)c1C(=O)OCCOC(=O)c1ccc(-c2c3nc(c(-c4c(F)cccc4F)c4ccc([nH]4)c(-c4c(F)cccc4F)c4nc(c(-c5c(F)cccc5F)c5ccc2[nH]5)C=C4)C=C3)cc1
REMARK SMILES IDX 18 1 17 2 15 3 16 4 14 5 1 6 2 7 3 8 4 9 6 10 5 11 7 12 8 13
REMARK SMILES IDX 13 14 9 15 11 16 10 17 12 18 19 20 20 21 21 22 22 23 23 24
REMARK SMILES IDX 24 25 76 26 25 27 75 28 26 29 27 30 28 31 69 32 29 33 74 34
REMARK SMILES IDX 68 35 70 36 30 37 73 38 67 39 66 40 31 42 57 43 40 44 56 45
REMARK SMILES IDX 41 46 44 47 55 48 71 49 42 50 43 51 54 53 72 54 45 55 32 56
REMARK SMILES IDX 33 57 38 58 34 59 35 60 37 61 39 62 36 63 58 64 59 65 64 66
REMARK SMILES IDX 60 67 61 68 63 69 65 70 62 71 46 72 47 73 52 74 48 75 49 76
REMARK SMILES IDX 51 77 53 78 50 79
REMARK H PARENT 12 19 70 41 44 52
REMARK Flexibility Score: inf
ROOT
ATOM      1  C   UNL A   1      31.884  29.676  26.841  1.00  0.00     0.275 C 
ENDROOT
BRANCH   1   2
ATOM      2  O   UNL A   1      32.345  28.299  26.815  1.00  0.00    -0.458 OA
BRANCH   2   3
ATOM      3  C   UNL A   1      31.495  27.479  26.122  1.00  0.00     0.339 C 
ATOM      4  O   UNL A   1      30.722  26.685  26.647  1.00  0.00    -0.246 OA
BRANCH   3   5
ATOM      5  C   UNL A   1      31.763  27.297  24.676  1.00  0.00     0.070 A 
ATOM      6  C   UNL A   1      33.551  25.594  25.504  1.00  0.00     0.045 C 
ATOM      7  C   UNL A   1      32.729  26.269  24.427  1.00  0.00    -0.036 A 
ATOM      8  C   UNL A   1      32.893  25.753  23.134  1.00  0.00     0.004 A 
ATOM      9  C   UNL A   1      32.150  26.246  22.081  1.00  0.00     0.001 A 
ATOM     10  C   UNL A   1      30.969  27.795  23.604  1.00  0.00    -0.003 A 
ATOM     11  C   UNL A   1      31.233  27.262  22.313  1.00  0.00     0.009 A 
BRANCH  10  12
ATOM     12  C   UNL A   1      29.821  28.741  23.613  1.00  0.00    -0.014 A 
ATOM     13  C   UNL A   1      29.961  30.135  23.633  1.00  0.00     0.009 A 
ATOM     14  C   UNL A   1      28.515  28.234  23.385  1.00  0.00     0.055 A 
ATOM     15  C   UNL A   1      28.844  30.977  23.443  1.00  0.00     0.004 A 
ATOM     16  C   UNL A   1      27.424  29.073  23.157  1.00  0.00     0.116 A 
ATOM     17  C   UNL A   1      27.576  30.450  23.190  1.00  0.00     0.046 A 
BRANCH  16  18
ATOM     18  O   UNL A   1      26.201  28.491  22.988  1.00  0.00    -0.508 OA
ATOM     19  H   UNL A   1      26.078  27.588  23.204  1.00  0.00     0.293 HD
ENDBRANCH  16  18
ENDBRANCH  10  12
ENDBRANCH   3   5
ENDBRANCH   2   3
ENDBRANCH   1   2
BRANCH   1  20
ATOM     20  C   UNL A   1      32.910  30.754  27.242  1.00  0.00     0.275 C 
BRANCH  20  21
ATOM     21  O   UNL A   1      34.307  30.413  27.428  1.00  0.00    -0.458 OA
BRANCH  21  22
ATOM     22  C   UNL A   1      35.122  30.876  28.393  1.00  0.00     0.338 C 
ATOM     23  O   UNL A   1      34.807  31.801  29.140  1.00  0.00    -0.246 OA
BRANCH  22  24
ATOM     24  C   UNL A   1      36.423  30.220  28.520  1.00  0.00     0.060 A 
ATOM     25  C   UNL A   1      36.677  29.505  29.697  1.00  0.00     0.016 A 
ATOM     26  C   UNL A   1      37.325  30.223  27.461  1.00  0.00     0.016 A 
ATOM     27  C   UNL A   1      37.795  28.706  29.812  1.00  0.00     0.010 A 
ATOM     28  C   UNL A   1      38.402  29.379  27.530  1.00  0.00     0.010 A 
ATOM     29  C   UNL A   1      38.644  28.664  28.718  1.00  0.00    -0.014 A 
BRANCH  29  30
ATOM     30  C   UNL A   1      40.004  28.210  28.847  1.00  0.00     0.031 A 
ATOM     31  C   UNL A   1      40.361  26.825  28.483  1.00  0.00     0.074 A 
ATOM     32  C   UNL A   1      40.801  29.269  29.133  1.00  0.00     0.049 A 
ATOM     33  N   UNL A   1      41.411  26.216  28.907  1.00  0.00    -0.248 NA
ATOM     34  C   UNL A   1      39.520  25.949  27.658  1.00  0.00     0.031 C 
ATOM     35  C   UNL A   1      42.226  29.448  28.976  1.00  0.00     0.029 A 
ATOM     36  N   UNL A   1      40.407  30.489  29.721  1.00  0.00    -0.354 N 
ATOM     37  C   UNL A   1      41.597  25.119  28.083  1.00  0.00     0.074 A 
ATOM     38  C   UNL A   1      40.305  24.874  27.503  1.00  0.00     0.031 C 
ATOM     39  C   UNL A   1      42.611  30.494  29.738  1.00  0.00     0.029 A 
ATOM     40  C   UNL A   1      41.460  30.912  30.526  1.00  0.00     0.049 A 
ATOM     41  H   UNL A   1      39.550  30.954  29.587  1.00  0.00     0.167 HD
ATOM     42  C   UNL A   1      42.881  24.737  27.809  1.00  0.00     0.037 A 
ATOM     43  C   UNL A   1      41.383  30.868  31.894  1.00  0.00     0.037 A 
ATOM     44  C   UNL A   1      43.789  25.596  28.576  1.00  0.00     0.049 A 
ATOM     45  C   UNL A   1      42.302  29.783  32.425  1.00  0.00     0.074 A 
ATOM     46  C   UNL A   1      44.446  26.764  28.224  1.00  0.00     0.029 A 
ATOM     47  N   UNL A   1      43.761  25.555  29.964  1.00  0.00    -0.354 N 
ATOM     48  N   UNL A   1      42.652  28.724  31.742  1.00  0.00    -0.248 NA
ATOM     49  C   UNL A   1      42.938  29.844  33.735  1.00  0.00     0.031 C 
ATOM     50  C   UNL A   1      44.723  27.476  29.422  1.00  0.00     0.029 A 
ATOM     51  C   UNL A   1      44.232  26.746  30.491  1.00  0.00     0.049 A 
ATOM     52  H   UNL A   1      43.451  24.788  30.498  1.00  0.00     0.167 HD
ATOM     53  C   UNL A   1      43.610  28.037  32.433  1.00  0.00     0.074 A 
ATOM     54  C   UNL A   1      43.739  28.767  33.684  1.00  0.00     0.031 C 
ATOM     55  C   UNL A   1      44.266  26.948  31.932  1.00  0.00     0.037 A 
BRANCH  42  56
ATOM     56  C   UNL A   1      43.368  23.882  26.647  1.00  0.00     0.057 A 
ATOM     57  C   UNL A   1      43.353  22.472  26.762  1.00  0.00     0.134 A 
ATOM     58  C   UNL A   1      43.896  24.342  25.429  1.00  0.00     0.134 A 
ATOM     59  F   UNL A   1      42.822  21.856  27.827  1.00  0.00    -0.206 F 
ATOM     60  C   UNL A   1      43.879  21.608  25.790  1.00  0.00     0.040 A 
ATOM     61  C   UNL A   1      44.434  23.487  24.448  1.00  0.00     0.040 A 
ATOM     62  F   UNL A   1      43.898  25.635  25.094  1.00  0.00    -0.206 F 
ATOM     63  C   UNL A   1      44.437  22.113  24.630  1.00  0.00     0.006 A 
ENDBRANCH  42  56
BRANCH  43  64
ATOM     64  C   UNL A   1      40.026  31.162  32.438  1.00  0.00     0.057 A 
ATOM     65  C   UNL A   1      39.251  30.100  32.952  1.00  0.00     0.134 A 
ATOM     66  C   UNL A   1      39.695  32.444  32.859  1.00  0.00     0.134 A 
ATOM     67  F   UNL A   1      39.484  28.843  32.548  1.00  0.00    -0.206 F 
ATOM     68  C   UNL A   1      38.323  30.287  33.984  1.00  0.00     0.040 A 
ATOM     69  C   UNL A   1      38.785  32.627  33.896  1.00  0.00     0.040 A 
ATOM     70  F   UNL A   1      40.352  33.520  32.408  1.00  0.00    -0.206 F 
ATOM     71  C   UNL A   1      38.127  31.557  34.498  1.00  0.00     0.006 A 
ENDBRANCH  43  64
BRANCH  55  72
ATOM     72  C   UNL A   1      45.114  26.019  32.753  1.00  0.00     0.057 A 
ATOM     73  C   UNL A   1      46.513  26.000  32.697  1.00  0.00     0.134 A 
ATOM     74  C   UNL A   1      44.535  25.207  33.754  1.00  0.00     0.134 A 
ATOM     75  F   UNL A   1      47.197  26.835  31.902  1.00  0.00    -0.206 F 
ATOM     76  C   UNL A   1      47.278  25.151  33.501  1.00  0.00     0.040 A 
ATOM     77  C   UNL A   1      45.294  24.419  34.616  1.00  0.00     0.040 A 
ATOM     78  F   UNL A   1      43.210  25.164  33.959  1.00  0.00    -0.206 F 
ATOM     79  C   UNL A   1      46.671  24.364  34.469  1.00  0.00     0.006 A 
ENDBRANCH  55  72
ENDBRANCH  29  30
ENDBRANCH  22  24
ENDBRANCH  21  22
ENDBRANCH  20  21
ENDBRANCH   1  20
TORSDOF 13
ENDMDL
MODEL 2
REMARK VINA RESULT:     -12.3      4.095      8.983
REMARK SMILES Cc1cccc(-c2cccc(O)c2)c1C(=O)OCCOC(=O)c1ccc(-c2c3nc(c(-c4c(F)cccc4F)c4ccc([nH]4)c(-c4c(F)cccc4F)c4nc(c(-c5c(F)cccc5F)c5ccc2[nH]5)C=C4)C=C3)cc1
REMARK SMILES IDX 18 1 17 2 15 3 16 4 14 5 1 6 2 7 3 8 4 9 6 10 5 11 7 12 8 13
REMARK SMILES IDX 13 14 9 15 11 16 10 17 12 18 19 20 20 21 21 22 22 23 23 24
REMARK SMILES IDX 24 25 76 26 25 27 75 28 26 29 27 30 28 31 69 32 29 33 74 34
REMARK SMILES IDX 68 35 70 36 30 37 73 38 67 39 66 40 31 42 57 43 40 44 56 45
REMARK SMILES IDX 41 46 44 47 55 48 71 49 42 50 43 51 54 53 72 54 45 55 32 56
REMARK SMILES IDX 33 57 38 58 34 59 35 60 37 61 39 62 36 63 58 64 59 65 64 66
REMARK SMILES IDX 60 67 61 68 63 69 65 70 62 71 46 72 47 73 52 74 48 75 49 76
REMARK SMILES IDX 51 77 53 78 50 79
REMARK H PARENT 12 19 70 41 44 52
REMARK Flexibility Score: inf
ROOT
ATOM      1  C   UNL A   1      37.066  22.061  24.143  1.00  0.00     0.275 C 
ENDROOT
BRANCH   1   2
ATOM      2  O   UNL A   1      36.124  23.130  24.424  1.00  0.00    -0.458 OA
BRANCH   2   3
ATOM      3  C   UNL A   1      34.926  22.948  23.787  1.00  0.00     0.339 C 
ATOM      4  O   UNL A   1      34.714  23.253  22.618  1.00  0.00    -0.246 OA
BRANCH   3   5
ATOM      5  C   UNL A   1      33.741  22.689  24.637  1.00  0.00     0.070 A 
ATOM      6  C   UNL A   1      33.748  25.275  24.952  1.00  0.00     0.045 C 
ATOM      7  C   UNL A   1      33.136  23.899  25.109  1.00  0.00    -0.036 A 
ATOM      8  C   UNL A   1      31.853  23.874  25.673  1.00  0.00     0.004 A 
ATOM      9  C   UNL A   1      31.169  22.682  25.809  1.00  0.00     0.001 A 
ATOM     10  C   UNL A   1      33.035  21.458  24.746  1.00  0.00    -0.003 A 
ATOM     11  C   UNL A   1      31.764  21.505  25.380  1.00  0.00     0.009 A 
BRANCH  10  12
ATOM     12  C   UNL A   1      33.367  20.107  24.219  1.00  0.00    -0.014 A 
ATOM     13  C   UNL A   1      34.398  19.305  24.728  1.00  0.00     0.009 A 
ATOM     14  C   UNL A   1      32.482  19.496  23.294  1.00  0.00     0.055 A 
ATOM     15  C   UNL A   1      34.538  17.960  24.320  1.00  0.00     0.004 A 
ATOM     16  C   UNL A   1      32.601  18.155  22.928  1.00  0.00     0.116 A 
ATOM     17  C   UNL A   1      33.632  17.378  23.431  1.00  0.00     0.046 A 
BRANCH  16  18
ATOM     18  O   UNL A   1      31.726  17.670  22.000  1.00  0.00    -0.508 OA
ATOM     19  H   UNL A   1      30.972  17.186  22.276  1.00  0.00     0.293 HD
ENDBRANCH  16  18
ENDBRANCH  10  12
ENDBRANCH   3   5
ENDBRANCH   2   3
ENDBRANCH   1   2
BRANCH   1  20
ATOM     20  C   UNL A   1      38.075  21.702  25.252  1.00  0.00     0.275 C 
BRANCH  20  21
ATOM     21  O   UNL A   1      38.458  22.682  26.249  1.00  0.00    -0.458 OA
BRANCH  21  22
ATOM     22  C   UNL A   1      39.698  23.153  26.475  1.00  0.00     0.338 C 
ATOM     23  O   UNL A   1      40.711  22.534  26.151  1.00  0.00    -0.246 OA
BRANCH  22  24
ATOM     24  C   UNL A   1      39.794  24.455  27.133  1.00  0.00     0.060 A 
ATOM     25  C   UNL A   1      40.382  25.503  26.414  1.00  0.00     0.016 A 
ATOM     26  C   UNL A   1      39.223  24.660  28.385  1.00  0.00     0.016 A 
ATOM     27  C   UNL A   1      40.336  26.798  26.887  1.00  0.00     0.010 A 
ATOM     28  C   UNL A   1      39.105  25.949  28.835  1.00  0.00     0.010 A 
ATOM     29  C   UNL A   1      39.698  26.993  28.101  1.00  0.00    -0.014 A 
BRANCH  29  30
ATOM     30  C   UNL A   1      39.926  28.184  28.880  1.00  0.00     0.031 A 
ATOM     31  C   UNL A   1      38.939  29.281  28.859  1.00  0.00     0.074 A 
ATOM     32  C   UNL A   1      40.998  27.990  29.686  1.00  0.00     0.049 A 
ATOM     33  N   UNL A   1      39.206  30.496  29.185  1.00  0.00    -0.248 NA
ATOM     34  C   UNL A   1      37.556  29.136  28.390  1.00  0.00     0.031 C 
ATOM     35  C   UNL A   1      41.401  28.663  30.899  1.00  0.00     0.029 A 
ATOM     36  N   UNL A   1      42.044  27.064  29.493  1.00  0.00    -0.354 N 
ATOM     37  C   UNL A   1      37.993  31.129  29.400  1.00  0.00     0.074 A 
ATOM     38  C   UNL A   1      37.035  30.336  28.680  1.00  0.00     0.031 C 
ATOM     39  C   UNL A   1      42.703  28.391  31.125  1.00  0.00     0.029 A 
ATOM     40  C   UNL A   1      43.208  27.659  29.971  1.00  0.00     0.049 A 
ATOM     41  H   UNL A   1      41.966  26.166  29.096  1.00  0.00     0.167 HD
ATOM     42  C   UNL A   1      37.938  32.085  30.375  1.00  0.00     0.037 A 
ATOM     43  C   UNL A   1      44.189  28.103  29.124  1.00  0.00     0.037 A 
ATOM     44  C   UNL A   1      39.286  32.265  30.921  1.00  0.00     0.049 A 
ATOM     45  C   UNL A   1      44.218  29.621  29.122  1.00  0.00     0.074 A 
ATOM     46  C   UNL A   1      39.902  31.693  32.024  1.00  0.00     0.029 A 
ATOM     47  N   UNL A   1      40.300  32.742  30.100  1.00  0.00    -0.354 N 
ATOM     48  N   UNL A   1      43.183  30.371  29.393  1.00  0.00    -0.248 NA
ATOM     49  C   UNL A   1      45.427  30.396  28.875  1.00  0.00     0.031 C 
ATOM     50  C   UNL A   1      41.305  31.744  31.805  1.00  0.00     0.029 A 
ATOM     51  C   UNL A   1      41.536  32.337  30.575  1.00  0.00     0.049 A 
ATOM     52  H   UNL A   1      40.160  33.291  29.296  1.00  0.00     0.167 HD
ATOM     53  C   UNL A   1      43.578  31.677  29.471  1.00  0.00     0.074 A 
ATOM     54  C   UNL A   1      44.988  31.643  29.117  1.00  0.00     0.031 C 
ATOM     55  C   UNL A   1      42.750  32.693  29.856  1.00  0.00     0.037 A 
BRANCH  42  56
ATOM     56  C   UNL A   1      36.701  32.609  31.092  1.00  0.00     0.057 A 
ATOM     57  C   UNL A   1      35.940  33.648  30.505  1.00  0.00     0.134 A 
ATOM     58  C   UNL A   1      36.220  32.199  32.348  1.00  0.00     0.134 A 
ATOM     59  F   UNL A   1      36.212  34.118  29.280  1.00  0.00    -0.206 F 
ATOM     60  C   UNL A   1      34.851  34.266  31.138  1.00  0.00     0.040 A 
ATOM     61  C   UNL A   1      35.133  32.815  32.997  1.00  0.00     0.040 A 
ATOM     62  F   UNL A   1      36.742  31.163  33.008  1.00  0.00    -0.206 F 
ATOM     63  C   UNL A   1      34.449  33.861  32.398  1.00  0.00     0.006 A 
ENDBRANCH  42  56
BRANCH  43  64
ATOM     64  C   UNL A   1      44.376  27.256  27.910  1.00  0.00     0.057 A 
ATOM     65  C   UNL A   1      43.925  27.740  26.663  1.00  0.00     0.134 A 
ATOM     66  C   UNL A   1      45.342  26.258  27.885  1.00  0.00     0.134 A 
ATOM     67  F   UNL A   1      42.957  28.667  26.614  1.00  0.00    -0.206 F 
ATOM     68  C   UNL A   1      44.546  27.388  25.459  1.00  0.00     0.040 A 
ATOM     69  C   UNL A   1      45.970  25.921  26.690  1.00  0.00     0.040 A 
ATOM     70  F   UNL A   1      45.816  25.714  29.014  1.00  0.00    -0.206 F 
ATOM     71  C   UNL A   1      45.616  26.509  25.478  1.00  0.00     0.006 A 
ENDBRANCH  43  64
BRANCH  55  72
ATOM     72  C   UNL A   1      43.070  34.152  29.693  1.00  0.00     0.057 A 
ATOM     73  C   UNL A   1      43.320  35.012  30.770  1.00  0.00     0.134 A 
ATOM     74  C   UNL A   1      43.285  34.705  28.411  1.00  0.00     0.134 A 
ATOM     75  F   UNL A   1      43.306  34.576  32.037  1.00  0.00    -0.206 F 
ATOM     76  C   UNL A   1      43.653  36.356  30.586  1.00  0.00     0.040 A 
ATOM     77  C   UNL A   1      43.696  36.022  28.219  1.00  0.00     0.040 A 
ATOM     78  F   UNL A   1      43.134  33.985  27.289  1.00  0.00    -0.206 F 
ATOM     79  C   UNL A   1      43.850  36.864  29.308  1.00  0.00     0.006 A 
ENDBRANCH  55  72
ENDBRANCH  29  30
ENDBRANCH  22  24
ENDBRANCH  21  22
ENDBRANCH  20  21
ENDBRANCH   1  20
TORSDOF 13
ENDMDL
MODEL 3
REMARK VINA RESULT:     -12.1      1.830      3.128
REMARK SMILES Cc1cccc(-c2cccc(O)c2)c1C(=O)OCCOC(=O)c1ccc(-c2c3nc(c(-c4c(F)cccc4F)c4ccc([nH]4)c(-c4c(F)cccc4F)c4nc(c(-c5c(F)cccc5F)c5ccc2[nH]5)C=C4)C=C3)cc1
REMARK SMILES IDX 18 1 17 2 15 3 16 4 14 5 1 6 2 7 3 8 4 9 6 10 5 11 7 12 8 13
REMARK SMILES IDX 13 14 9 15 11 16 10 17 12 18 19 20 20 21 21 22 22 23 23 24
REMARK SMILES IDX 24 25 76 26 25 27 75 28 26 29 27 30 28 31 69 32 29 33 74 34
REMARK SMILES IDX 68 35 70 36 30 37 73 38 67 39 66 40 31 42 57 43 40 44 56 45
REMARK SMILES IDX 41 46 44 47 55 48 71 49 42 50 43 51 54 53 72 54 45 55 32 56
REMARK SMILES IDX 33 57 38 58 34 59 35 60 37 61 39 62 36 63 58 64 59 65 64 66
REMARK SMILES IDX 60 67 61 68 63 69 65 70 62 71 46 72 47 73 52 74 48 75 49 76
REMARK SMILES IDX 51 77 53 78 50 79
REMARK H PARENT 12 19 70 41 44 52
REMARK Flexibility Score: inf
ROOT
ATOM      1  C   UNL A   1      31.784  28.799  27.436  1.00  0.00     0.275 C 
ENDROOT
BRANCH   1   2
ATOM      2  O   UNL A   1      32.356  27.699  26.680  1.00  0.00    -0.458 OA
BRANCH   2   3
ATOM      3  C   UNL A   1      31.414  27.027  25.947  1.00  0.00     0.339 C 
ATOM      4  O   UNL A   1      30.547  26.307  26.433  1.00  0.00    -0.246 OA
BRANCH   3   5
ATOM      5  C   UNL A   1      31.662  26.890  24.493  1.00  0.00     0.070 A 
ATOM      6  C   UNL A   1      33.342  25.043  25.234  1.00  0.00     0.045 C 
ATOM      7  C   UNL A   1      32.559  25.814  24.193  1.00  0.00    -0.036 A 
ATOM      8  C   UNL A   1      32.683  25.343  22.878  1.00  0.00     0.004 A 
ATOM      9  C   UNL A   1      31.967  25.928  21.853  1.00  0.00     0.001 A 
ATOM     10  C   UNL A   1      30.897  27.483  23.449  1.00  0.00    -0.003 A 
ATOM     11  C   UNL A   1      31.119  26.990  22.135  1.00  0.00     0.009 A 
BRANCH  10  12
ATOM     12  C   UNL A   1      29.812  28.499  23.507  1.00  0.00    -0.014 A 
ATOM     13  C   UNL A   1      30.041  29.880  23.589  1.00  0.00     0.009 A 
ATOM     14  C   UNL A   1      28.476  28.089  23.263  1.00  0.00     0.055 A 
ATOM     15  C   UNL A   1      28.980  30.799  23.444  1.00  0.00     0.004 A 
ATOM     16  C   UNL A   1      27.440  29.005  23.079  1.00  0.00     0.116 A 
ATOM     17  C   UNL A   1      27.681  30.366  23.174  1.00  0.00     0.046 A 
BRANCH  16  18
ATOM     18  O   UNL A   1      26.182  28.511  22.890  1.00  0.00    -0.508 OA
ATOM     19  H   UNL A   1      25.829  28.448  22.024  1.00  0.00     0.293 HD
ENDBRANCH  16  18
ENDBRANCH  10  12
ENDBRANCH   3   5
ENDBRANCH   2   3
ENDBRANCH   1   2
BRANCH   1  20
ATOM     20  C   UNL A   1      32.064  30.226  26.924  1.00  0.00     0.275 C 
BRANCH  20  21
ATOM     21  O   UNL A   1      33.421  30.728  26.838  1.00  0.00    -0.458 OA
BRANCH  21  22
ATOM     22  C   UNL A   1      33.980  31.665  27.626  1.00  0.00     0.338 C 
ATOM     23  O   UNL A   1      33.426  32.732  27.882  1.00  0.00    -0.246 OA
BRANCH  22  24
ATOM     24  C   UNL A   1      35.298  31.354  28.176  1.00  0.00     0.060 A 
ATOM     25  C   UNL A   1      36.306  32.314  28.027  1.00  0.00     0.016 A 
ATOM     26  C   UNL A   1      35.504  30.190  28.910  1.00  0.00     0.016 A 
ATOM     27  C   UNL A   1      37.514  32.179  28.681  1.00  0.00     0.010 A 
ATOM     28  C   UNL A   1      36.668  30.075  29.623  1.00  0.00     0.010 A 
ATOM     29  C   UNL A   1      37.672  31.049  29.467  1.00  0.00    -0.014 A 
BRANCH  29  30
ATOM     30  C   UNL A   1      38.979  30.594  29.863  1.00  0.00     0.031 A 
ATOM     31  C   UNL A   1      39.534  29.350  29.295  1.00  0.00     0.074 A 
ATOM     32  C   UNL A   1      39.578  31.555  30.608  1.00  0.00     0.049 A 
ATOM     33  N   UNL A   1      40.477  28.667  29.840  1.00  0.00    -0.248 NA
ATOM     34  C   UNL A   1      39.025  28.702  28.081  1.00  0.00     0.031 C 
ATOM     35  C   UNL A   1      40.972  31.786  30.909  1.00  0.00     0.029 A 
ATOM     36  N   UNL A   1      38.939  32.582  31.334  1.00  0.00    -0.354 N 
ATOM     37  C   UNL A   1      40.970  27.816  28.864  1.00  0.00     0.074 A 
ATOM     38  C   UNL A   1      39.909  27.710  27.901  1.00  0.00     0.031 C 
ATOM     39  C   UNL A   1      41.049  32.609  31.975  1.00  0.00     0.029 A 
ATOM     40  C   UNL A   1      39.696  32.800  32.482  1.00  0.00     0.049 A 
ATOM     41  H   UNL A   1      38.115  33.055  31.078  1.00  0.00     0.167 HD
ATOM     42  C   UNL A   1      42.307  27.532  28.882  1.00  0.00     0.037 A 
ATOM     43  C   UNL A   1      39.255  32.410  33.719  1.00  0.00     0.037 A 
ATOM     44  C   UNL A   1      42.899  28.180  30.057  1.00  0.00     0.049 A 
ATOM     45  C   UNL A   1      40.083  31.237  34.213  1.00  0.00     0.074 A 
ATOM     46  C   UNL A   1      43.527  29.407  30.196  1.00  0.00     0.029 A 
ATOM     47  N   UNL A   1      42.500  27.789  31.329  1.00  0.00    -0.354 N 
ATOM     48  N   UNL A   1      40.691  30.390  33.425  1.00  0.00    -0.248 NA
ATOM     49  C   UNL A   1      40.332  30.973  35.625  1.00  0.00     0.031 C 
ATOM     50  C   UNL A   1      43.410  29.796  31.558  1.00  0.00     0.029 A 
ATOM     51  C   UNL A   1      42.709  28.812  32.236  1.00  0.00     0.049 A 
ATOM     52  H   UNL A   1      42.122  26.908  31.553  1.00  0.00     0.167 HD
ATOM     53  C   UNL A   1      41.480  29.562  34.173  1.00  0.00     0.074 A 
ATOM     54  C   UNL A   1      41.204  29.953  35.546  1.00  0.00     0.031 C 
ATOM     55  C   UNL A   1      42.335  28.644  33.632  1.00  0.00     0.037 A 
BRANCH  42  56
ATOM     56  C   UNL A   1      43.160  27.005  27.736  1.00  0.00     0.057 A 
ATOM     57  C   UNL A   1      43.526  27.873  26.681  1.00  0.00     0.134 A 
ATOM     58  C   UNL A   1      43.617  25.687  27.565  1.00  0.00     0.134 A 
ATOM     59  F   UNL A   1      43.234  29.181  26.708  1.00  0.00    -0.206 F 
ATOM     60  C   UNL A   1      44.216  27.454  25.533  1.00  0.00     0.040 A 
ATOM     61  C   UNL A   1      44.304  25.250  26.416  1.00  0.00     0.040 A 
ATOM     62  F   UNL A   1      43.460  24.750  28.503  1.00  0.00    -0.206 F 
ATOM     63  C   UNL A   1      44.598  26.132  25.388  1.00  0.00     0.006 A 
ENDBRANCH  42  56
BRANCH  43  64
ATOM     64  C   UNL A   1      37.782  32.541  33.911  1.00  0.00     0.057 A 
ATOM     65  C   UNL A   1      37.251  33.789  34.301  1.00  0.00     0.134 A 
ATOM     66  C   UNL A   1      36.908  31.648  33.302  1.00  0.00     0.134 A 
ATOM     67  F   UNL A   1      38.027  34.677  34.939  1.00  0.00    -0.206 F 
ATOM     68  C   UNL A   1      35.967  34.202  33.928  1.00  0.00     0.040 A 
ATOM     69  C   UNL A   1      35.637  32.065  32.917  1.00  0.00     0.040 A 
ATOM     70  F   UNL A   1      37.307  30.429  32.919  1.00  0.00    -0.206 F 
ATOM     71  C   UNL A   1      35.170  33.351  33.181  1.00  0.00     0.006 A 
ENDBRANCH  43  64
BRANCH  55  72
ATOM     72  C   UNL A   1      43.003  27.548  34.413  1.00  0.00     0.057 A 
ATOM     73  C   UNL A   1      42.322  26.427  34.906  1.00  0.00     0.134 A 
ATOM     74  C   UNL A   1      44.408  27.520  34.563  1.00  0.00     0.134 A 
ATOM     75  F   UNL A   1      41.011  26.251  34.694  1.00  0.00    -0.206 F 
ATOM     76  C   UNL A   1      42.977  25.404  35.596  1.00  0.00     0.040 A 
ATOM     77  C   UNL A   1      45.078  26.466  35.178  1.00  0.00     0.040 A 
ATOM     78  F   UNL A   1      45.194  28.501  34.094  1.00  0.00    -0.206 F 
ATOM     79  C   UNL A   1      44.359  25.417  35.727  1.00  0.00     0.006 A 
ENDBRANCH  55  72
ENDBRANCH  29  30
ENDBRANCH  22  24
ENDBRANCH  21  22
ENDBRANCH  20  21
ENDBRANCH   1  20
TORSDOF 13
ENDMDL
