MODEL 1
REMARK VINA RESULT:     -12.2      0.000      0.000
REMARK SMILES CC(C)c1cc(N2CCC(C(=O)OCCOC(=O)c3ccc(-c4c5nc(c(-c6c(F)cccc6F)c6ccc([nH]6)c(-c6c(F)cccc6F)c6nc(c(-c7c(F)cccc7F)c7ccc4[nH]7)C=C6)C=C5)cc3)CC2)nc(-c2ccc(F)cc2)n1
REMARK SMILES IDX 14 1 13 2 11 3 12 4 10 5 7 6 8 7 74 8 9 9 73 10 6 11 4 12
REMARK SMILES IDX 5 13 84 14 76 15 75 16 2 17 1 18 3 19 77 20 78 21 83 22
REMARK SMILES IDX 79 23 82 24 80 25 81 26 15 27 16 28 17 29 18 30 19 31 20 32
REMARK SMILES IDX 72 33 21 34 71 35 22 36 23 37 24 38 65 39 25 40 70 41 64 42
REMARK SMILES IDX 66 43 26 44 69 45 63 46 62 47 27 49 53 50 36 51 52 52 37 53
REMARK SMILES IDX 40 54 51 55 67 56 38 57 39 58 50 60 68 61 41 62 28 63 29 64
REMARK SMILES IDX 34 65 30 66 31 67 33 68 35 69 32 70 54 71 55 72 60 73 56 74
REMARK SMILES IDX 57 75 59 76 61 77 58 78 42 79 43 80 48 81 44 82 45 83 47 84
REMARK SMILES IDX 49 85 46 86
REMARK H PARENT 66 48 40 59
REMARK Flexibility Score: inf
ROOT
ATOM      1  C   UNL A   1      32.150  29.488  25.907  1.00  0.00     0.274 C 
ENDROOT
BRANCH   1   2
ATOM      2  O   UNL A   1      31.611  28.295  25.310  1.00  0.00    -0.462 OA
BRANCH   2   3
ATOM      3  C   UNL A   1      31.361  27.254  26.141  1.00  0.00     0.309 C 
ATOM      4  O   UNL A   1      31.047  27.355  27.322  1.00  0.00    -0.252 OA
BRANCH   3   5
ATOM      5  C   UNL A   1      31.466  25.913  25.448  1.00  0.00     0.103 C 
ATOM      6  N   UNL A   1      32.440  23.394  24.620  1.00  0.00    -0.356 N 
ATOM      7  C   UNL A   1      32.498  24.493  23.668  1.00  0.00     0.119 C 
ATOM      8  C   UNL A   1      31.497  23.426  25.725  1.00  0.00     0.119 C 
ATOM      9  C   UNL A   1      32.576  25.825  24.397  1.00  0.00     0.037 C 
ATOM     10  C   UNL A   1      31.595  24.769  26.453  1.00  0.00     0.037 C 
BRANCH   6  11
ATOM     11  C   UNL A   1      33.460  22.470  24.608  1.00  0.00     0.132 A 
ATOM     12  C   UNL A   1      35.766  21.956  24.677  1.00  0.00     0.049 A 
ATOM     13  C   UNL A   1      34.771  22.906  24.557  1.00  0.00     0.071 A 
ATOM     14  N   UNL A   1      35.483  20.646  24.807  1.00  0.00    -0.233 NA
ATOM     15  C   UNL A   1      34.180  20.308  24.786  1.00  0.00     0.161 A 
ATOM     16  N   UNL A   1      33.154  21.169  24.709  1.00  0.00    -0.211 NA
BRANCH  12  17
ATOM     17  C   UNL A   1      37.216  22.386  24.755  1.00  0.00     0.032 C 
ATOM     18  C   UNL A   1      37.329  23.695  25.535  1.00  0.00     0.014 C 
ATOM     19  C   UNL A   1      38.100  21.303  25.376  1.00  0.00     0.014 C 
ENDBRANCH  12  17
BRANCH  15  20
ATOM     20  C   UNL A   1      33.863  18.878  24.815  1.00  0.00     0.019 A 
ATOM     21  C   UNL A   1      32.676  18.410  25.408  1.00  0.00     0.015 A 
ATOM     22  C   UNL A   1      34.754  17.931  24.272  1.00  0.00     0.015 A 
ATOM     23  C   UNL A   1      32.387  17.044  25.456  1.00  0.00     0.040 A 
ATOM     24  C   UNL A   1      34.475  16.564  24.335  1.00  0.00     0.040 A 
ATOM     25  C   UNL A   1      33.293  16.134  24.924  1.00  0.00     0.123 A 
ATOM     26  F   UNL A   1      33.024  14.823  24.983  1.00  0.00    -0.207 F 
ENDBRANCH  15  20
ENDBRANCH   6  11
ENDBRANCH   3   5
ENDBRANCH   2   3
ENDBRANCH   1   2
BRANCH   1  27
ATOM     27  C   UNL A   1      33.646  29.315  26.164  1.00  0.00     0.275 C 
BRANCH  27  28
ATOM     28  O   UNL A   1      33.926  29.342  27.578  1.00  0.00    -0.458 OA
BRANCH  28  29
ATOM     29  C   UNL A   1      34.658  30.394  28.014  1.00  0.00     0.338 C 
ATOM     30  O   UNL A   1      34.278  31.520  28.271  1.00  0.00    -0.246 OA
BRANCH  29  31
ATOM     31  C   UNL A   1      36.041  29.946  28.236  1.00  0.00     0.060 A 
ATOM     32  C   UNL A   1      36.376  29.415  29.481  1.00  0.00     0.016 A 
ATOM     33  C   UNL A   1      37.013  30.112  27.250  1.00  0.00     0.016 A 
ATOM     34  C   UNL A   1      37.687  29.031  29.749  1.00  0.00     0.010 A 
ATOM     35  C   UNL A   1      38.327  29.710  27.512  1.00  0.00     0.010 A 
ATOM     36  C   UNL A   1      38.672  29.166  28.763  1.00  0.00    -0.014 A 
BRANCH  36  37
ATOM     37  C   UNL A   1      40.061  28.727  29.038  1.00  0.00     0.031 A 
ATOM     38  C   UNL A   1      41.031  29.653  29.712  1.00  0.00     0.074 A 
ATOM     39  C   UNL A   1      40.447  27.488  28.678  1.00  0.00     0.049 A 
ATOM     40  N   UNL A   1      42.310  29.489  29.931  1.00  0.00    -0.248 NA
ATOM     41  C   UNL A   1      40.493  30.931  30.201  1.00  0.00     0.031 C 
ATOM     42  C   UNL A   1      39.586  26.483  28.053  1.00  0.00     0.029 A 
ATOM     43  N   UNL A   1      41.667  26.869  28.777  1.00  0.00    -0.354 N 
ATOM     44  C   UNL A   1      42.737  30.649  30.563  1.00  0.00     0.074 A 
ATOM     45  C   UNL A   1      41.582  31.513  30.687  1.00  0.00     0.031 C 
ATOM     46  C   UNL A   1      40.306  25.373  27.823  1.00  0.00     0.029 A 
ATOM     47  C   UNL A   1      41.685  25.606  28.235  1.00  0.00     0.049 A 
ATOM     48  H   UNL A   1      42.454  27.288  29.196  1.00  0.00     0.167 HD
ATOM     49  C   UNL A   1      43.981  30.962  30.998  1.00  0.00     0.037 A 
ATOM     50  C   UNL A   1      42.708  24.750  28.056  1.00  0.00     0.037 A 
ATOM     51  C   UNL A   1      45.124  30.093  30.893  1.00  0.00     0.049 A 
ATOM     52  C   UNL A   1      44.089  25.150  28.490  1.00  0.00     0.074 A 
ATOM     53  C   UNL A   1      46.417  30.312  31.337  1.00  0.00     0.029 A 
ATOM     54  N   UNL A   1      45.111  28.839  30.301  1.00  0.00    -0.354 N 
ATOM     55  N   UNL A   1      44.482  26.251  29.083  1.00  0.00    -0.248 NA
ATOM     56  C   UNL A   1      45.173  24.197  28.212  1.00  0.00     0.031 C 
ATOM     57  C   UNL A   1      47.195  29.204  30.981  1.00  0.00     0.029 A 
ATOM     58  C   UNL A   1      46.379  28.284  30.346  1.00  0.00     0.049 A 
ATOM     59  H   UNL A   1      44.318  28.409  29.909  1.00  0.00     0.167 HD
ATOM     60  C   UNL A   1      45.853  26.119  29.258  1.00  0.00     0.074 A 
ATOM     61  C   UNL A   1      46.222  24.824  28.726  1.00  0.00     0.031 C 
ATOM     62  C   UNL A   1      46.729  26.996  29.806  1.00  0.00     0.037 A 
BRANCH  49  63
ATOM     63  C   UNL A   1      44.183  32.315  31.608  1.00  0.00     0.057 A 
ATOM     64  C   UNL A   1      44.532  33.429  30.836  1.00  0.00     0.134 A 
ATOM     65  C   UNL A   1      43.967  32.516  32.976  1.00  0.00     0.134 A 
ATOM     66  F   UNL A   1      44.764  33.299  29.521  1.00  0.00    -0.206 F 
ATOM     67  C   UNL A   1      44.670  34.696  31.406  1.00  0.00     0.040 A 
ATOM     68  C   UNL A   1      44.084  33.780  33.556  1.00  0.00     0.040 A 
ATOM     69  F   UNL A   1      43.627  31.489  33.770  1.00  0.00    -0.206 F 
ATOM     70  C   UNL A   1      44.437  34.875  32.769  1.00  0.00     0.006 A 
ENDBRANCH  49  63
BRANCH  50  71
ATOM     71  C   UNL A   1      42.475  23.443  27.396  1.00  0.00     0.057 A 
ATOM     72  C   UNL A   1      42.191  22.294  28.142  1.00  0.00     0.134 A 
ATOM     73  C   UNL A   1      42.548  23.308  26.004  1.00  0.00     0.134 A 
ATOM     74  F   UNL A   1      42.133  22.357  29.480  1.00  0.00    -0.206 F 
ATOM     75  C   UNL A   1      42.000  21.055  27.530  1.00  0.00     0.040 A 
ATOM     76  C   UNL A   1      42.337  22.080  25.377  1.00  0.00     0.040 A 
ATOM     77  F   UNL A   1      42.819  24.372  25.234  1.00  0.00    -0.206 F 
ATOM     78  C   UNL A   1      42.068  20.947  26.142  1.00  0.00     0.006 A 
ENDBRANCH  50  71
BRANCH  62  79
ATOM     79  C   UNL A   1      48.165  26.573  29.866  1.00  0.00     0.057 A 
ATOM     80  C   UNL A   1      49.058  26.871  28.829  1.00  0.00     0.134 A 
ATOM     81  C   UNL A   1      48.664  25.886  30.978  1.00  0.00     0.134 A 
ATOM     82  F   UNL A   1      48.634  27.512  27.730  1.00  0.00    -0.206 F 
ATOM     83  C   UNL A   1      50.397  26.483  28.891  1.00  0.00     0.040 A 
ATOM     84  C   UNL A   1      50.006  25.512  31.061  1.00  0.00     0.040 A 
ATOM     85  F   UNL A   1      47.858  25.577  32.006  1.00  0.00    -0.206 F 
ATOM     86  C   UNL A   1      50.875  25.806  30.011  1.00  0.00     0.006 A 
ENDBRANCH  62  79
ENDBRANCH  36  37
ENDBRANCH  29  31
ENDBRANCH  28  29
ENDBRANCH  27  28
ENDBRANCH   1  27
TORSDOF 14
ENDMDL
MODEL 2
REMARK VINA RESULT:     -12.1      3.087      6.757
REMARK SMILES CC(C)c1cc(N2CCC(C(=O)OCCOC(=O)c3ccc(-c4c5nc(c(-c6c(F)cccc6F)c6ccc([nH]6)c(-c6c(F)cccc6F)c6nc(c(-c7c(F)cccc7F)c7ccc4[nH]7)C=C6)C=C5)cc3)CC2)nc(-c2ccc(F)cc2)n1
REMARK SMILES IDX 14 1 13 2 11 3 12 4 10 5 7 6 8 7 74 8 9 9 73 10 6 11 4 12
REMARK SMILES IDX 5 13 84 14 76 15 75 16 2 17 1 18 3 19 77 20 78 21 83 22
REMARK SMILES IDX 79 23 82 24 80 25 81 26 15 27 16 28 17 29 18 30 19 31 20 32
REMARK SMILES IDX 72 33 21 34 71 35 22 36 23 37 24 38 65 39 25 40 70 41 64 42
REMARK SMILES IDX 66 43 26 44 69 45 63 46 62 47 27 49 53 50 36 51 52 52 37 53
REMARK SMILES IDX 40 54 51 55 67 56 38 57 39 58 50 60 68 61 41 62 28 63 29 64
REMARK SMILES IDX 34 65 30 66 31 67 33 68 35 69 32 70 54 71 55 72 60 73 56 74
REMARK SMILES IDX 57 75 59 76 61 77 58 78 42 79 43 80 48 81 44 82 45 83 47 84
REMARK SMILES IDX 49 85 46 86
REMARK H PARENT 66 48 40 59
REMARK Flexibility Score: inf
ROOT
ATOM      1  C   UNL A   1      31.409  28.961  24.211  1.00  0.00     0.274 C 
ENDROOT
BRANCH   1   2
ATOM      2  O   UNL A   1      31.502  27.537  24.031  1.00  0.00    -0.462 OA
BRANCH   2   3
ATOM      3  C   UNL A   1      31.031  27.036  22.862  1.00  0.00     0.309 C 
ATOM      4  O   UNL A   1      30.448  27.685  22.002  1.00  0.00    -0.252 OA
BRANCH   3   5
ATOM      5  C   UNL A   1      31.337  25.564  22.690  1.00  0.00     0.103 C 
ATOM      6  N   UNL A   1      32.439  22.993  23.083  1.00  0.00    -0.356 N 
ATOM      7  C   UNL A   1      32.919  23.774  21.954  1.00  0.00     0.119 C 
ATOM      8  C   UNL A   1      31.139  23.270  23.670  1.00  0.00     0.119 C 
ATOM      9  C   UNL A   1      32.767  25.261  22.231  1.00  0.00     0.037 C 
ATOM     10  C   UNL A   1      31.005  24.769  23.953  1.00  0.00     0.037 C 
BRANCH   6  11
ATOM     11  C   UNL A   1      33.336  22.182  23.741  1.00  0.00     0.132 A 
ATOM     12  C   UNL A   1      35.294  21.914  25.037  1.00  0.00     0.049 A 
ATOM     13  C   UNL A   1      34.484  22.734  24.276  1.00  0.00     0.071 A 
ATOM     14  N   UNL A   1      35.001  20.614  25.232  1.00  0.00    -0.233 NA
ATOM     15  C   UNL A   1      33.895  20.149  24.625  1.00  0.00     0.161 A 
ATOM     16  N   UNL A   1      33.038  20.885  23.898  1.00  0.00    -0.211 NA
BRANCH  12  17
ATOM     17  C   UNL A   1      36.497  22.492  25.752  1.00  0.00     0.032 C 
ATOM     18  C   UNL A   1      37.779  21.865  25.205  1.00  0.00     0.014 C 
ATOM     19  C   UNL A   1      36.547  24.017  25.643  1.00  0.00     0.014 C 
ENDBRANCH  12  17
BRANCH  15  20
ATOM     20  C   UNL A   1      33.626  18.714  24.738  1.00  0.00     0.019 A 
ATOM     21  C   UNL A   1      34.227  17.792  23.861  1.00  0.00     0.015 A 
ATOM     22  C   UNL A   1      32.738  18.222  25.714  1.00  0.00     0.015 A 
ATOM     23  C   UNL A   1      33.951  16.425  23.956  1.00  0.00     0.040 A 
ATOM     24  C   UNL A   1      32.446  16.858  25.799  1.00  0.00     0.040 A 
ATOM     25  C   UNL A   1      33.058  15.973  24.920  1.00  0.00     0.123 A 
ATOM     26  F   UNL A   1      32.781  14.665  25.001  1.00  0.00    -0.207 F 
ENDBRANCH  15  20
ENDBRANCH   6  11
ENDBRANCH   3   5
ENDBRANCH   2   3
ENDBRANCH   1   2
BRANCH   1  27
ATOM     27  C   UNL A   1      31.749  29.330  25.654  1.00  0.00     0.275 C 
BRANCH  27  28
ATOM     28  O   UNL A   1      32.982  30.075  25.713  1.00  0.00    -0.458 OA
BRANCH  28  29
ATOM     29  C   UNL A   1      33.063  31.004  26.694  1.00  0.00     0.338 C 
ATOM     30  O   UNL A   1      32.236  31.835  27.015  1.00  0.00    -0.246 OA
BRANCH  29  31
ATOM     31  C   UNL A   1      34.323  30.807  27.425  1.00  0.00     0.060 A 
ATOM     32  C   UNL A   1      34.600  29.541  27.944  1.00  0.00     0.016 A 
ATOM     33  C   UNL A   1      35.191  31.874  27.657  1.00  0.00     0.016 A 
ATOM     34  C   UNL A   1      35.756  29.327  28.689  1.00  0.00     0.010 A 
ATOM     35  C   UNL A   1      36.361  31.655  28.391  1.00  0.00     0.010 A 
ATOM     36  C   UNL A   1      36.651  30.380  28.912  1.00  0.00    -0.014 A 
BRANCH  36  37
ATOM     37  C   UNL A   1      37.898  30.144  29.678  1.00  0.00     0.031 A 
ATOM     38  C   UNL A   1      38.990  29.289  29.107  1.00  0.00     0.074 A 
ATOM     39  C   UNL A   1      38.043  30.703  30.896  1.00  0.00     0.049 A 
ATOM     40  N   UNL A   1      40.097  28.878  29.672  1.00  0.00    -0.248 NA
ATOM     41  C   UNL A   1      38.816  28.835  27.719  1.00  0.00     0.031 C 
ATOM     42  C   UNL A   1      37.070  31.586  31.541  1.00  0.00     0.029 A 
ATOM     43  N   UNL A   1      39.061  30.603  31.809  1.00  0.00    -0.354 N 
ATOM     44  C   UNL A   1      40.741  28.099  28.720  1.00  0.00     0.074 A 
ATOM     45  C   UNL A   1      39.899  28.089  27.542  1.00  0.00     0.031 C 
ATOM     46  C   UNL A   1      37.538  31.944  32.747  1.00  0.00     0.029 A 
ATOM     47  C   UNL A   1      38.815  31.278  32.979  1.00  0.00     0.049 A 
ATOM     48  H   UNL A   1      39.889  30.096  31.642  1.00  0.00     0.167 HD
ATOM     49  C   UNL A   1      41.926  27.452  28.824  1.00  0.00     0.037 A 
ATOM     50  C   UNL A   1      39.521  31.323  34.125  1.00  0.00     0.037 A 
ATOM     51  C   UNL A   1      42.772  27.480  29.988  1.00  0.00     0.049 A 
ATOM     52  C   UNL A   1      40.800  30.543  34.233  1.00  0.00     0.074 A 
ATOM     53  C   UNL A   1      44.007  26.883  30.172  1.00  0.00     0.029 A 
ATOM     54  N   UNL A   1      42.467  28.142  31.169  1.00  0.00    -0.354 N 
ATOM     55  N   UNL A   1      41.398  29.808  33.328  1.00  0.00    -0.248 NA
ATOM     56  C   UNL A   1      41.493  30.584  35.529  1.00  0.00     0.031 C 
ATOM     57  C   UNL A   1      44.434  27.154  31.478  1.00  0.00     0.029 A 
ATOM     58  C   UNL A   1      43.480  27.946  32.093  1.00  0.00     0.049 A 
ATOM     59  H   UNL A   1      41.653  28.673  31.325  1.00  0.00     0.167 HD
ATOM     60  C   UNL A   1      42.539  29.307  33.939  1.00  0.00     0.074 A 
ATOM     61  C   UNL A   1      42.562  29.838  35.286  1.00  0.00     0.031 C 
ATOM     62  C   UNL A   1      43.482  28.478  33.431  1.00  0.00     0.037 A 
BRANCH  49  63
ATOM     63  C   UNL A   1      42.373  26.632  27.653  1.00  0.00     0.057 A 
ATOM     64  C   UNL A   1      42.003  25.290  27.506  1.00  0.00     0.134 A 
ATOM     65  C   UNL A   1      43.135  27.211  26.631  1.00  0.00     0.134 A 
ATOM     66  F   UNL A   1      41.283  24.675  28.457  1.00  0.00    -0.206 F 
ATOM     67  C   UNL A   1      42.384  24.548  26.387  1.00  0.00     0.040 A 
ATOM     68  C   UNL A   1      43.507  26.485  25.498  1.00  0.00     0.040 A 
ATOM     69  F   UNL A   1      43.519  28.494  26.711  1.00  0.00    -0.206 F 
ATOM     70  C   UNL A   1      43.132  25.149  25.375  1.00  0.00     0.006 A 
ENDBRANCH  49  63
BRANCH  50  71
ATOM     71  C   UNL A   1      39.013  32.102  35.279  1.00  0.00     0.057 A 
ATOM     72  C   UNL A   1      39.290  33.467  35.412  1.00  0.00     0.134 A 
ATOM     73  C   UNL A   1      38.254  31.496  36.287  1.00  0.00     0.134 A 
ATOM     74  F   UNL A   1      40.034  34.096  34.490  1.00  0.00    -0.206 F 
ATOM     75  C   UNL A   1      38.841  34.199  36.511  1.00  0.00     0.040 A 
ATOM     76  C   UNL A   1      37.779  32.221  37.381  1.00  0.00     0.040 A 
ATOM     77  F   UNL A   1      37.957  30.190  36.219  1.00  0.00    -0.206 F 
ATOM     78  C   UNL A   1      38.078  33.576  37.497  1.00  0.00     0.006 A 
ENDBRANCH  50  71
BRANCH  62  79
ATOM     79  C   UNL A   1      44.619  28.107  34.335  1.00  0.00     0.057 A 
ATOM     80  C   UNL A   1      45.774  28.894  34.417  1.00  0.00     0.134 A 
ATOM     81  C   UNL A   1      44.546  26.971  35.148  1.00  0.00     0.134 A 
ATOM     82  F   UNL A   1      45.908  29.987  33.650  1.00  0.00    -0.206 F 
ATOM     83  C   UNL A   1      46.827  28.552  35.265  1.00  0.00     0.040 A 
ATOM     84  C   UNL A   1      45.584  26.629  36.016  1.00  0.00     0.040 A 
ATOM     85  F   UNL A   1      43.463  26.180  35.118  1.00  0.00    -0.206 F 
ATOM     86  C   UNL A   1      46.732  27.419  36.072  1.00  0.00     0.006 A 
ENDBRANCH  62  79
ENDBRANCH  36  37
ENDBRANCH  29  31
ENDBRANCH  28  29
ENDBRANCH  27  28
ENDBRANCH   1  27
TORSDOF 14
ENDMDL
MODEL 3
REMARK VINA RESULT:     -12.1      3.690      7.588
REMARK SMILES CC(C)c1cc(N2CCC(C(=O)OCCOC(=O)c3ccc(-c4c5nc(c(-c6c(F)cccc6F)c6ccc([nH]6)c(-c6c(F)cccc6F)c6nc(c(-c7c(F)cccc7F)c7ccc4[nH]7)C=C6)C=C5)cc3)CC2)nc(-c2ccc(F)cc2)n1
REMARK SMILES IDX 14 1 13 2 11 3 12 4 10 5 7 6 8 7 74 8 9 9 73 10 6 11 4 12
REMARK SMILES IDX 5 13 84 14 76 15 75 16 2 17 1 18 3 19 77 20 78 21 83 22
REMARK SMILES IDX 79 23 82 24 80 25 81 26 15 27 16 28 17 29 18 30 19 31 20 32
REMARK SMILES IDX 72 33 21 34 71 35 22 36 23 37 24 38 65 39 25 40 70 41 64 42
REMARK SMILES IDX 66 43 26 44 69 45 63 46 62 47 27 49 53 50 36 51 52 52 37 53
REMARK SMILES IDX 40 54 51 55 67 56 38 57 39 58 50 60 68 61 41 62 28 63 29 64
REMARK SMILES IDX 34 65 30 66 31 67 33 68 35 69 32 70 54 71 55 72 60 73 56 74
REMARK SMILES IDX 57 75 59 76 61 77 58 78 42 79 43 80 48 81 44 82 45 83 47 84
REMARK SMILES IDX 49 85 46 86
REMARK H PARENT 66 48 40 59
REMARK Flexibility Score: inf
ROOT
ATOM      1  C   UNL A   1      34.499  21.218  25.352  1.00  0.00     0.274 C 
ENDROOT
BRANCH   1   2
ATOM      2  O   UNL A   1      33.994  22.184  24.412  1.00  0.00    -0.462 OA
BRANCH   2   3
ATOM      3  C   UNL A   1      32.871  21.847  23.733  1.00  0.00     0.309 C 
ATOM      4  O   UNL A   1      32.420  20.711  23.635  1.00  0.00    -0.252 OA
BRANCH   3   5
ATOM      5  C   UNL A   1      32.175  23.043  23.120  1.00  0.00     0.103 C 
ATOM      6  N   UNL A   1      31.245  25.678  22.703  1.00  0.00    -0.356 N 
ATOM      7  C   UNL A   1      30.289  24.684  23.167  1.00  0.00     0.119 C 
ATOM      8  C   UNL A   1      32.455  25.268  22.010  1.00  0.00     0.119 C 
ATOM      9  C   UNL A   1      30.998  23.583  23.940  1.00  0.00     0.037 C 
ATOM     10  C   UNL A   1      33.161  24.167  22.804  1.00  0.00     0.037 C 
BRANCH   6  11
ATOM     11  C   UNL A   1      31.114  26.969  23.162  1.00  0.00     0.132 A 
ATOM     12  C   UNL A   1      29.925  29.010  23.243  1.00  0.00     0.049 A 
ATOM     13  C   UNL A   1      30.102  27.767  22.666  1.00  0.00     0.071 A 
ATOM     14  N   UNL A   1      30.724  29.450  24.233  1.00  0.00    -0.233 NA
ATOM     15  C   UNL A   1      31.720  28.628  24.613  1.00  0.00     0.161 A 
ATOM     16  N   UNL A   1      31.939  27.396  24.128  1.00  0.00    -0.211 NA
BRANCH  12  17
ATOM     17  C   UNL A   1      28.755  29.877  22.827  1.00  0.00     0.032 C 
ATOM     18  C   UNL A   1      27.446  29.113  23.022  1.00  0.00     0.014 C 
ATOM     19  C   UNL A   1      28.730  31.204  23.588  1.00  0.00     0.014 C 
ENDBRANCH  12  17
BRANCH  15  20
ATOM     20  C   UNL A   1      32.662  29.141  25.611  1.00  0.00     0.019 A 
ATOM     21  C   UNL A   1      33.836  28.434  25.931  1.00  0.00     0.015 A 
ATOM     22  C   UNL A   1      32.402  30.344  26.296  1.00  0.00     0.015 A 
ATOM     23  C   UNL A   1      34.721  28.912  26.901  1.00  0.00     0.040 A 
ATOM     24  C   UNL A   1      33.276  30.814  27.279  1.00  0.00     0.040 A 
ATOM     25  C   UNL A   1      34.428  30.095  27.569  1.00  0.00     0.123 A 
ATOM     26  F   UNL A   1      35.269  30.546  28.510  1.00  0.00    -0.207 F 
ENDBRANCH  15  20
ENDBRANCH   6  11
ENDBRANCH   3   5
ENDBRANCH   2   3
ENDBRANCH   1   2
BRANCH   1  27
ATOM     27  C   UNL A   1      35.953  20.880  25.025  1.00  0.00     0.275 C 
BRANCH  27  28
ATOM     28  O   UNL A   1      36.852  21.674  25.824  1.00  0.00    -0.458 OA
BRANCH  28  29
ATOM     29  C   UNL A   1      38.159  21.327  25.763  1.00  0.00     0.338 C 
ATOM     30  O   UNL A   1      38.647  20.312  25.303  1.00  0.00    -0.246 OA
BRANCH  29  31
ATOM     31  C   UNL A   1      38.968  22.443  26.274  1.00  0.00     0.060 A 
ATOM     32  C   UNL A   1      38.582  23.745  25.954  1.00  0.00     0.016 A 
ATOM     33  C   UNL A   1      40.132  22.207  27.004  1.00  0.00     0.016 A 
ATOM     34  C   UNL A   1      39.352  24.827  26.372  1.00  0.00     0.010 A 
ATOM     35  C   UNL A   1      40.897  23.294  27.440  1.00  0.00     0.010 A 
ATOM     36  C   UNL A   1      40.511  24.610  27.127  1.00  0.00    -0.014 A 
BRANCH  36  37
ATOM     37  C   UNL A   1      41.313  25.765  27.599  1.00  0.00     0.031 A 
ATOM     38  C   UNL A   1      40.703  26.794  28.504  1.00  0.00     0.074 A 
ATOM     39  C   UNL A   1      42.597  25.883  27.209  1.00  0.00     0.049 A 
ATOM     40  N   UNL A   1      41.209  27.925  28.926  1.00  0.00    -0.248 NA
ATOM     41  C   UNL A   1      39.346  26.518  28.998  1.00  0.00     0.031 C 
ATOM     42  C   UNL A   1      43.315  24.927  26.365  1.00  0.00     0.029 A 
ATOM     43  N   UNL A   1      43.522  26.863  27.465  1.00  0.00    -0.354 N 
ATOM     44  C   UNL A   1      40.226  28.507  29.716  1.00  0.00     0.074 A 
ATOM     45  C   UNL A   1      39.091  27.608  29.711  1.00  0.00     0.031 C 
ATOM     46  C   UNL A   1      44.568  25.370  26.170  1.00  0.00     0.029 A 
ATOM     47  C   UNL A   1      44.724  26.660  26.832  1.00  0.00     0.049 A 
ATOM     48  H   UNL A   1      43.342  27.637  28.047  1.00  0.00     0.167 HD
ATOM     49  C   UNL A   1      40.271  29.685  30.383  1.00  0.00     0.037 A 
ATOM     50  C   UNL A   1      45.815  27.446  26.761  1.00  0.00     0.037 A 
ATOM     51  C   UNL A   1      41.408  30.567  30.405  1.00  0.00     0.049 A 
ATOM     52  C   UNL A   1      45.811  28.776  27.458  1.00  0.00     0.074 A 
ATOM     53  C   UNL A   1      41.557  31.766  31.081  1.00  0.00     0.029 A 
ATOM     54  N   UNL A   1      42.592  30.346  29.717  1.00  0.00    -0.354 N 
ATOM     55  N   UNL A   1      44.876  29.318  28.199  1.00  0.00    -0.248 NA
ATOM     56  C   UNL A   1      47.009  29.614  27.292  1.00  0.00     0.031 C 
ATOM     57  C   UNL A   1      42.819  32.288  30.774  1.00  0.00     0.029 A 
ATOM     58  C   UNL A   1      43.466  31.398  29.933  1.00  0.00     0.049 A 
ATOM     59  H   UNL A   1      42.782  29.557  29.160  1.00  0.00     0.167 HD
ATOM     60  C   UNL A   1      45.373  30.552  28.595  1.00  0.00     0.074 A 
ATOM     61  C   UNL A   1      46.701  30.671  28.030  1.00  0.00     0.031 C 
ATOM     62  C   UNL A   1      44.781  31.503  29.357  1.00  0.00     0.037 A 
BRANCH  49  63
ATOM     63  C   UNL A   1      39.042  30.107  31.128  1.00  0.00     0.057 A 
ATOM     64  C   UNL A   1      38.057  30.906  30.538  1.00  0.00     0.134 A 
ATOM     65  C   UNL A   1      38.816  29.657  32.435  1.00  0.00     0.134 A 
ATOM     66  F   UNL A   1      38.221  31.378  29.292  1.00  0.00    -0.206 F 
ATOM     67  C   UNL A   1      36.893  31.253  31.225  1.00  0.00     0.040 A 
ATOM     68  C   UNL A   1      37.647  29.982  33.126  1.00  0.00     0.040 A 
ATOM     69  F   UNL A   1      39.721  28.885  33.056  1.00  0.00    -0.206 F 
ATOM     70  C   UNL A   1      36.682  30.784  32.520  1.00  0.00     0.006 A 
ENDBRANCH  49  63
BRANCH  50  71
ATOM     71  C   UNL A   1      46.989  27.015  25.964  1.00  0.00     0.057 A 
ATOM     72  C   UNL A   1      48.032  26.287  26.546  1.00  0.00     0.134 A 
ATOM     73  C   UNL A   1      47.104  27.337  24.607  1.00  0.00     0.134 A 
ATOM     74  F   UNL A   1      47.989  25.971  27.849  1.00  0.00    -0.206 F 
ATOM     75  C   UNL A   1      49.154  25.905  25.811  1.00  0.00     0.040 A 
ATOM     76  C   UNL A   1      48.209  26.941  23.853  1.00  0.00     0.040 A 
ATOM     77  F   UNL A   1      46.138  28.035  23.992  1.00  0.00    -0.206 F 
ATOM     78  C   UNL A   1      49.242  26.228  24.457  1.00  0.00     0.006 A 
ENDBRANCH  50  71
BRANCH  62  79
ATOM     79  C   UNL A   1      45.573  32.746  29.628  1.00  0.00     0.057 A 
ATOM     80  C   UNL A   1      46.454  32.830  30.713  1.00  0.00     0.134 A 
ATOM     81  C   UNL A   1      45.473  33.857  28.783  1.00  0.00     0.134 A 
ATOM     82  F   UNL A   1      46.580  31.803  31.567  1.00  0.00    -0.206 F 
ATOM     83  C   UNL A   1      47.196  33.986  30.958  1.00  0.00     0.040 A 
ATOM     84  C   UNL A   1      46.225  35.011  29.006  1.00  0.00     0.040 A 
ATOM     85  F   UNL A   1      44.649  33.836  27.724  1.00  0.00    -0.206 F 
ATOM     86  C   UNL A   1      47.086  35.079  30.100  1.00  0.00     0.006 A 
ENDBRANCH  62  79
ENDBRANCH  36  37
ENDBRANCH  29  31
ENDBRANCH  28  29
ENDBRANCH  27  28
ENDBRANCH   1  27
TORSDOF 14
ENDMDL
