MODEL 1
REMARK VINA RESULT:     -10.5      0.000      0.000
REMARK SMILES Cc1ncccc1C(=O)N1CC[C@@H](C(=O)OCCOC(=O)c2ccc(-c3c4nc(c(-c5c(F)cccc5F)c5ccc([nH]5)c(-c5c(F)cccc5F)c5nc(c(-c6c(F)cccc6F)c6ccc3[nH]6)C=C5)C=C4)cc2)C1
REMARK SMILES IDX 17 1 16 2 14 3 15 4 13 5 10 6 11 7 76 8 12 9 8 10 9 11 7 12
REMARK SMILES IDX 1 13 2 14 3 15 4 16 6 17 5 18 18 19 19 20 20 21 21 22 22 23
REMARK SMILES IDX 23 24 75 25 24 26 74 27 25 28 26 29 27 30 68 31 28 32 73 33
REMARK SMILES IDX 67 34 69 35 29 36 72 37 66 38 65 39 30 41 56 42 39 43 55 44
REMARK SMILES IDX 40 45 43 46 54 47 70 48 41 49 42 50 53 52 71 53 44 54 31 55
REMARK SMILES IDX 32 56 37 57 33 58 34 59 36 60 38 61 35 62 57 63 58 64 63 65
REMARK SMILES IDX 59 66 60 67 62 68 64 69 61 70 45 71 46 72 51 73 47 74 48 75
REMARK SMILES IDX 50 76 52 77 49 78
REMARK H PARENT 69 40 43 51
REMARK Flexibility Score: inf
ROOT
ATOM      1  C   UNL A   1      38.520  21.263  25.621  1.00  0.00     0.274 C 
ENDROOT
BRANCH   1   2
ATOM      2  O   UNL A   1      37.527  21.605  24.631  1.00  0.00    -0.462 OA
BRANCH   2   3
ATOM      3  C   UNL A   1      36.235  21.541  25.038  1.00  0.00     0.310 C 
ATOM      4  O   UNL A   1      35.557  20.519  25.052  1.00  0.00    -0.252 OA
BRANCH   3   5
ATOM      5  C   UNL A   1      35.700  22.859  25.539  1.00  0.00     0.120 C 
ATOM      6  N   UNL A   1      33.837  24.243  25.298  1.00  0.00    -0.338 N 
ATOM      7  C   UNL A   1      33.580  23.545  26.541  1.00  0.00     0.121 C 
ATOM      8  C   UNL A   1      34.772  23.485  24.513  1.00  0.00     0.135 C 
ATOM      9  C   UNL A   1      34.910  22.860  26.858  1.00  0.00     0.039 C 
BRANCH   6  10
ATOM     10  C   UNL A   1      33.256  25.371  24.765  1.00  0.00     0.255 C 
ATOM     11  O   UNL A   1      33.208  25.578  23.553  1.00  0.00    -0.269 OA
BRANCH  10  12
ATOM     12  C   UNL A   1      32.741  26.427  25.653  1.00  0.00     0.061 A 
ATOM     13  C   UNL A   1      30.441  25.339  25.860  1.00  0.00     0.067 C 
ATOM     14  C   UNL A   1      31.455  26.392  26.202  1.00  0.00     0.050 A 
ATOM     15  N   UNL A   1      31.039  27.304  27.123  1.00  0.00    -0.261 NA
ATOM     16  C   UNL A   1      31.939  28.209  27.564  1.00  0.00     0.111 A 
ATOM     17  C   UNL A   1      33.651  27.372  26.140  1.00  0.00     0.017 A 
ATOM     18  C   UNL A   1      33.246  28.278  27.114  1.00  0.00     0.021 A 
ENDBRANCH  10  12
ENDBRANCH   6  10
ENDBRANCH   3   5
ENDBRANCH   2   3
ENDBRANCH   1   2
BRANCH   1  19
ATOM     19  C   UNL A   1      39.249  19.960  25.285  1.00  0.00     0.275 C 
BRANCH  19  20
ATOM     20  O   UNL A   1      40.180  19.598  26.321  1.00  0.00    -0.458 OA
BRANCH  20  21
ATOM     21  C   UNL A   1      41.483  19.746  25.991  1.00  0.00     0.338 C 
ATOM     22  O   UNL A   1      42.159  19.008  25.297  1.00  0.00    -0.246 OA
BRANCH  21  23
ATOM     23  C   UNL A   1      41.982  21.033  26.497  1.00  0.00     0.060 A 
ATOM     24  C   UNL A   1      41.925  21.249  27.871  1.00  0.00     0.016 A 
ATOM     25  C   UNL A   1      42.373  22.060  25.639  1.00  0.00     0.016 A 
ATOM     26  C   UNL A   1      42.180  22.506  28.399  1.00  0.00     0.010 A 
ATOM     27  C   UNL A   1      42.699  23.313  26.178  1.00  0.00     0.010 A 
ATOM     28  C   UNL A   1      42.578  23.551  27.559  1.00  0.00    -0.014 A 
BRANCH  28  29
ATOM     29  C   UNL A   1      42.852  24.880  28.160  1.00  0.00     0.031 A 
ATOM     30  C   UNL A   1      44.249  25.273  28.544  1.00  0.00     0.074 A 
ATOM     31  C   UNL A   1      41.841  25.757  28.307  1.00  0.00     0.049 A 
ATOM     32  N   UNL A   1      44.670  26.379  29.103  1.00  0.00    -0.248 NA
ATOM     33  C   UNL A   1      45.309  24.291  28.275  1.00  0.00     0.031 C 
ATOM     34  C   UNL A   1      40.445  25.500  27.949  1.00  0.00     0.029 A 
ATOM     35  N   UNL A   1      41.835  27.044  28.779  1.00  0.00    -0.354 N 
ATOM     36  C   UNL A   1      46.036  26.213  29.286  1.00  0.00     0.074 A 
ATOM     37  C   UNL A   1      46.371  24.895  28.789  1.00  0.00     0.031 C 
ATOM     38  C   UNL A   1      39.721  26.604  28.190  1.00  0.00     0.029 A 
ATOM     39  C   UNL A   1      40.591  27.625  28.763  1.00  0.00     0.049 A 
ATOM     40  H   UNL A   1      42.643  27.506  29.099  1.00  0.00     0.167 HD
ATOM     41  C   UNL A   1      46.930  27.082  29.818  1.00  0.00     0.037 A 
ATOM     42  C   UNL A   1      40.190  28.841  29.179  1.00  0.00     0.037 A 
ATOM     43  C   UNL A   1      46.603  28.409  30.272  1.00  0.00     0.049 A 
ATOM     44  C   UNL A   1      41.200  29.790  29.752  1.00  0.00     0.074 A 
ATOM     45  C   UNL A   1      47.444  29.378  30.791  1.00  0.00     0.029 A 
ATOM     46  N   UNL A   1      45.328  28.958  30.255  1.00  0.00    -0.354 N 
ATOM     47  N   UNL A   1      42.487  29.618  29.928  1.00  0.00    -0.248 NA
ATOM     48  C   UNL A   1      40.701  31.100  30.190  1.00  0.00     0.031 C 
ATOM     49  C   UNL A   1      46.674  30.499  31.120  1.00  0.00     0.029 A 
ATOM     50  C   UNL A   1      45.358  30.243  30.772  1.00  0.00     0.049 A 
ATOM     51  H   UNL A   1      44.522  28.501  29.924  1.00  0.00     0.167 HD
ATOM     52  C   UNL A   1      42.954  30.793  30.498  1.00  0.00     0.074 A 
ATOM     53  C   UNL A   1      41.814  31.683  30.610  1.00  0.00     0.031 C 
ATOM     54  C   UNL A   1      44.210  31.105  30.899  1.00  0.00     0.037 A 
BRANCH  41  55
ATOM     55  C   UNL A   1      48.343  26.603  29.970  1.00  0.00     0.057 A 
ATOM     56  C   UNL A   1      48.758  25.839  31.068  1.00  0.00     0.134 A 
ATOM     57  C   UNL A   1      49.302  26.912  28.998  1.00  0.00     0.134 A 
ATOM     58  F   UNL A   1      47.892  25.521  32.042  1.00  0.00    -0.206 F 
ATOM     59  C   UNL A   1      50.084  25.423  31.206  1.00  0.00     0.040 A 
ATOM     60  C   UNL A   1      50.625  26.483  29.113  1.00  0.00     0.040 A 
ATOM     61  F   UNL A   1      48.969  27.638  27.919  1.00  0.00    -0.206 F 
ATOM     62  C   UNL A   1      51.021  25.742  30.225  1.00  0.00     0.006 A 
ENDBRANCH  41  55
BRANCH  42  63
ATOM     63  C   UNL A   1      38.758  29.208  29.078  1.00  0.00     0.057 A 
ATOM     64  C   UNL A   1      38.197  29.619  27.865  1.00  0.00     0.134 A 
ATOM     65  C   UNL A   1      37.910  29.120  30.188  1.00  0.00     0.134 A 
ATOM     66  F   UNL A   1      38.965  29.740  26.773  1.00  0.00    -0.206 F 
ATOM     67  C   UNL A   1      36.841  29.930  27.758  1.00  0.00     0.040 A 
ATOM     68  C   UNL A   1      36.548  29.407  30.091  1.00  0.00     0.040 A 
ATOM     69  F   UNL A   1      38.390  28.728  31.378  1.00  0.00    -0.206 F 
ATOM     70  C   UNL A   1      36.011  29.815  28.872  1.00  0.00     0.006 A 
ENDBRANCH  42  63
BRANCH  54  71
ATOM     71  C   UNL A   1      44.405  32.463  31.506  1.00  0.00     0.057 A 
ATOM     72  C   UNL A   1      44.294  32.670  32.886  1.00  0.00     0.134 A 
ATOM     73  C   UNL A   1      44.707  33.570  30.705  1.00  0.00     0.134 A 
ATOM     74  F   UNL A   1      43.990  31.651  33.705  1.00  0.00    -0.206 F 
ATOM     75  C   UNL A   1      44.452  33.938  33.447  1.00  0.00     0.040 A 
ATOM     76  C   UNL A   1      44.889  34.839  31.256  1.00  0.00     0.040 A 
ATOM     77  F   UNL A   1      44.831  33.437  29.375  1.00  0.00    -0.206 F 
ATOM     78  C   UNL A   1      44.754  35.027  32.631  1.00  0.00     0.006 A 
ENDBRANCH  54  71
ENDBRANCH  28  29
ENDBRANCH  21  23
ENDBRANCH  20  21
ENDBRANCH  19  20
ENDBRANCH   1  19
TORSDOF 13
ENDMDL
MODEL 2
REMARK VINA RESULT:     -10.5      4.234      9.224
REMARK SMILES Cc1ncccc1C(=O)N1CC[C@@H](C(=O)OCCOC(=O)c2ccc(-c3c4nc(c(-c5c(F)cccc5F)c5ccc([nH]5)c(-c5c(F)cccc5F)c5nc(c(-c6c(F)cccc6F)c6ccc3[nH]6)C=C5)C=C4)cc2)C1
REMARK SMILES IDX 17 1 16 2 14 3 15 4 13 5 10 6 11 7 76 8 12 9 8 10 9 11 7 12
REMARK SMILES IDX 1 13 2 14 3 15 4 16 6 17 5 18 18 19 19 20 20 21 21 22 22 23
REMARK SMILES IDX 23 24 75 25 24 26 74 27 25 28 26 29 27 30 68 31 28 32 73 33
REMARK SMILES IDX 67 34 69 35 29 36 72 37 66 38 65 39 30 41 56 42 39 43 55 44
REMARK SMILES IDX 40 45 43 46 54 47 70 48 41 49 42 50 53 52 71 53 44 54 31 55
REMARK SMILES IDX 32 56 37 57 33 58 34 59 36 60 38 61 35 62 57 63 58 64 63 65
REMARK SMILES IDX 59 66 60 67 62 68 64 69 61 70 45 71 46 72 51 73 47 74 48 75
REMARK SMILES IDX 50 76 52 77 49 78
REMARK H PARENT 69 40 43 51
REMARK Flexibility Score: inf
ROOT
ATOM      1  C   UNL A   1      31.212  31.800  26.525  1.00  0.00     0.274 C 
ENDROOT
BRANCH   1   2
ATOM      2  O   UNL A   1      31.958  30.618  26.885  1.00  0.00    -0.462 OA
BRANCH   2   3
ATOM      3  C   UNL A   1      31.863  29.571  26.029  1.00  0.00     0.310 C 
ATOM      4  O   UNL A   1      31.454  29.648  24.875  1.00  0.00    -0.252 OA
BRANCH   3   5
ATOM      5  C   UNL A   1      32.366  28.274  26.611  1.00  0.00     0.120 C 
ATOM      6  N   UNL A   1      32.437  25.996  26.114  1.00  0.00    -0.338 N 
ATOM      7  C   UNL A   1      33.756  26.463  25.740  1.00  0.00     0.121 C 
ATOM      8  C   UNL A   1      31.526  27.107  26.126  1.00  0.00     0.135 C 
ATOM      9  C   UNL A   1      33.823  27.874  26.325  1.00  0.00     0.039 C 
BRANCH   6  10
ATOM     10  C   UNL A   1      31.959  24.720  26.315  1.00  0.00     0.255 C 
ATOM     11  O   UNL A   1      31.180  24.444  27.225  1.00  0.00    -0.269 OA
BRANCH  10  12
ATOM     12  C   UNL A   1      32.448  23.609  25.481  1.00  0.00     0.061 A 
ATOM     13  C   UNL A   1      34.060  22.774  27.277  1.00  0.00     0.067 C 
ATOM     14  C   UNL A   1      33.385  22.676  25.940  1.00  0.00     0.050 A 
ATOM     15  N   UNL A   1      33.729  21.581  25.208  1.00  0.00    -0.261 NA
ATOM     16  C   UNL A   1      33.073  21.368  24.047  1.00  0.00     0.111 A 
ATOM     17  C   UNL A   1      31.781  23.351  24.279  1.00  0.00     0.017 A 
ATOM     18  C   UNL A   1      32.095  22.210  23.549  1.00  0.00     0.021 A 
ENDBRANCH  10  12
ENDBRANCH   6  10
ENDBRANCH   3   5
ENDBRANCH   2   3
ENDBRANCH   1   2
BRANCH   1  19
ATOM     19  C   UNL A   1      32.037  33.078  26.686  1.00  0.00     0.275 C 
BRANCH  19  20
ATOM     20  O   UNL A   1      32.137  33.467  28.068  1.00  0.00    -0.458 OA
BRANCH  20  21
ATOM     21  C   UNL A   1      33.111  34.365  28.337  1.00  0.00     0.338 C 
ATOM     22  O   UNL A   1      33.011  35.579  28.368  1.00  0.00    -0.246 OA
BRANCH  21  23
ATOM     23  C   UNL A   1      34.342  33.662  28.729  1.00  0.00     0.060 A 
ATOM     24  C   UNL A   1      34.205  32.410  29.322  1.00  0.00     0.016 A 
ATOM     25  C   UNL A   1      35.595  34.266  28.641  1.00  0.00     0.016 A 
ATOM     26  C   UNL A   1      35.297  31.781  29.902  1.00  0.00     0.010 A 
ATOM     27  C   UNL A   1      36.712  33.600  29.166  1.00  0.00     0.010 A 
ATOM     28  C   UNL A   1      36.565  32.366  29.824  1.00  0.00    -0.014 A 
BRANCH  28  29
ATOM     29  C   UNL A   1      37.712  31.661  30.448  1.00  0.00     0.031 A 
ATOM     30  C   UNL A   1      38.059  31.892  31.890  1.00  0.00     0.074 A 
ATOM     31  C   UNL A   1      38.409  30.766  29.723  1.00  0.00     0.049 A 
ATOM     32  N   UNL A   1      39.039  31.386  32.595  1.00  0.00    -0.248 NA
ATOM     33  C   UNL A   1      37.198  32.822  32.635  1.00  0.00     0.031 C 
ATOM     34  C   UNL A   1      38.153  30.437  28.319  1.00  0.00     0.029 A 
ATOM     35  N   UNL A   1      39.461  29.958  30.070  1.00  0.00    -0.354 N 
ATOM     36  C   UNL A   1      38.936  31.960  33.854  1.00  0.00     0.074 A 
ATOM     37  C   UNL A   1      37.805  32.864  33.813  1.00  0.00     0.031 C 
ATOM     38  C   UNL A   1      39.008  29.478  27.932  1.00  0.00     0.029 A 
ATOM     39  C   UNL A   1      39.900  29.161  29.042  1.00  0.00     0.049 A 
ATOM     40  H   UNL A   1      39.862  29.951  30.969  1.00  0.00     0.167 HD
ATOM     41  C   UNL A   1      39.713  31.752  34.944  1.00  0.00     0.037 A 
ATOM     42  C   UNL A   1      40.918  28.283  28.992  1.00  0.00     0.037 A 
ATOM     43  C   UNL A   1      40.811  30.821  34.996  1.00  0.00     0.049 A 
ATOM     44  C   UNL A   1      41.756  28.060  30.215  1.00  0.00     0.074 A 
ATOM     45  C   UNL A   1      41.633  30.512  36.065  1.00  0.00     0.029 A 
ATOM     46  N   UNL A   1      41.236  30.043  33.929  1.00  0.00    -0.354 N 
ATOM     47  N   UNL A   1      41.654  28.616  31.398  1.00  0.00    -0.248 NA
ATOM     48  C   UNL A   1      42.853  27.091  30.098  1.00  0.00     0.031 C 
ATOM     49  C   UNL A   1      42.578  29.572  35.636  1.00  0.00     0.029 A 
ATOM     50  C   UNL A   1      42.321  29.269  34.309  1.00  0.00     0.049 A 
ATOM     51  H   UNL A   1      40.827  30.041  33.034  1.00  0.00     0.167 HD
ATOM     52  C   UNL A   1      42.673  28.070  32.165  1.00  0.00     0.074 A 
ATOM     53  C   UNL A   1      43.363  27.114  31.321  1.00  0.00     0.031 C 
ATOM     54  C   UNL A   1      43.011  28.341  33.448  1.00  0.00     0.037 A 
BRANCH  41  55
ATOM     55  C   UNL A   1      39.420  32.579  36.161  1.00  0.00     0.057 A 
ATOM     56  C   UNL A   1      40.034  33.817  36.387  1.00  0.00     0.134 A 
ATOM     57  C   UNL A   1      38.506  32.126  37.120  1.00  0.00     0.134 A 
ATOM     58  F   UNL A   1      40.929  34.302  35.515  1.00  0.00    -0.206 F 
ATOM     59  C   UNL A   1      39.768  34.563  37.539  1.00  0.00     0.040 A 
ATOM     60  C   UNL A   1      38.215  32.871  38.264  1.00  0.00     0.040 A 
ATOM     61  F   UNL A   1      37.881  30.948  36.962  1.00  0.00    -0.206 F 
ATOM     62  C   UNL A   1      38.853  34.091  38.479  1.00  0.00     0.006 A 
ENDBRANCH  41  55
BRANCH  42  63
ATOM     63  C   UNL A   1      41.201  27.569  27.725  1.00  0.00     0.057 A 
ATOM     64  C   UNL A   1      42.026  28.127  26.745  1.00  0.00     0.134 A 
ATOM     65  C   UNL A   1      40.678  26.293  27.483  1.00  0.00     0.134 A 
ATOM     66  F   UNL A   1      42.539  29.355  26.913  1.00  0.00    -0.206 F 
ATOM     67  C   UNL A   1      42.325  27.442  25.566  1.00  0.00     0.040 A 
ATOM     68  C   UNL A   1      40.986  25.586  26.319  1.00  0.00     0.040 A 
ATOM     69  F   UNL A   1      39.883  25.703  28.388  1.00  0.00    -0.206 F 
ATOM     70  C   UNL A   1      41.811  26.164  25.356  1.00  0.00     0.006 A 
ENDBRANCH  42  63
BRANCH  54  71
ATOM     71  C   UNL A   1      44.187  27.596  34.005  1.00  0.00     0.057 A 
ATOM     72  C   UNL A   1      44.038  26.342  34.611  1.00  0.00     0.134 A 
ATOM     73  C   UNL A   1      45.477  28.133  33.934  1.00  0.00     0.134 A 
ATOM     74  F   UNL A   1      42.824  25.781  34.724  1.00  0.00    -0.206 F 
ATOM     75  C   UNL A   1      45.129  25.659  35.150  1.00  0.00     0.040 A 
ATOM     76  C   UNL A   1      46.579  27.451  34.451  1.00  0.00     0.040 A 
ATOM     77  F   UNL A   1      45.688  29.329  33.363  1.00  0.00    -0.206 F 
ATOM     78  C   UNL A   1      46.406  26.213  35.068  1.00  0.00     0.006 A 
ENDBRANCH  54  71
ENDBRANCH  28  29
ENDBRANCH  21  23
ENDBRANCH  20  21
ENDBRANCH  19  20
ENDBRANCH   1  19
TORSDOF 13
ENDMDL
MODEL 3
REMARK VINA RESULT:     -10.5      1.821      3.366
REMARK SMILES Cc1ncccc1C(=O)N1CC[C@@H](C(=O)OCCOC(=O)c2ccc(-c3c4nc(c(-c5c(F)cccc5F)c5ccc([nH]5)c(-c5c(F)cccc5F)c5nc(c(-c6c(F)cccc6F)c6ccc3[nH]6)C=C5)C=C4)cc2)C1
REMARK SMILES IDX 17 1 16 2 14 3 15 4 13 5 10 6 11 7 76 8 12 9 8 10 9 11 7 12
REMARK SMILES IDX 1 13 2 14 3 15 4 16 6 17 5 18 18 19 19 20 20 21 21 22 22 23
REMARK SMILES IDX 23 24 75 25 24 26 74 27 25 28 26 29 27 30 68 31 28 32 73 33
REMARK SMILES IDX 67 34 69 35 29 36 72 37 66 38 65 39 30 41 56 42 39 43 55 44
REMARK SMILES IDX 40 45 43 46 54 47 70 48 41 49 42 50 53 52 71 53 44 54 31 55
REMARK SMILES IDX 32 56 37 57 33 58 34 59 36 60 38 61 35 62 57 63 58 64 63 65
REMARK SMILES IDX 59 66 60 67 62 68 64 69 61 70 45 71 46 72 51 73 47 74 48 75
REMARK SMILES IDX 50 76 52 77 49 78
REMARK H PARENT 69 40 43 51
REMARK Flexibility Score: inf
ROOT
ATOM      1  C   UNL A   1      38.715  21.365  25.722  1.00  0.00     0.274 C 
ENDROOT
BRANCH   1   2
ATOM      2  O   UNL A   1      37.356  21.507  25.258  1.00  0.00    -0.462 OA
BRANCH   2   3
ATOM      3  C   UNL A   1      36.812  22.743  25.379  1.00  0.00     0.310 C 
ATOM      4  O   UNL A   1      37.438  23.793  25.280  1.00  0.00    -0.252 OA
BRANCH   3   5
ATOM      5  C   UNL A   1      35.321  22.723  25.599  1.00  0.00     0.120 C 
ATOM      6  N   UNL A   1      33.561  21.204  25.799  1.00  0.00    -0.338 N 
ATOM      7  C   UNL A   1      33.866  21.549  27.172  1.00  0.00     0.121 C 
ATOM      8  C   UNL A   1      34.704  21.484  24.974  1.00  0.00     0.135 C 
ATOM      9  C   UNL A   1      34.807  22.748  27.048  1.00  0.00     0.039 C 
BRANCH   6  10
ATOM     10  C   UNL A   1      32.462  20.580  25.252  1.00  0.00     0.255 C 
ATOM     11  O   UNL A   1      31.335  21.070  25.297  1.00  0.00    -0.269 OA
BRANCH  10  12
ATOM     12  C   UNL A   1      32.594  19.237  24.662  1.00  0.00     0.061 A 
ATOM     13  C   UNL A   1      32.146  20.073  22.291  1.00  0.00     0.067 C 
ATOM     14  C   UNL A   1      32.496  19.005  23.285  1.00  0.00     0.050 A 
ATOM     15  N   UNL A   1      32.749  17.783  22.741  1.00  0.00    -0.261 NA
ATOM     16  C   UNL A   1      33.185  16.804  23.565  1.00  0.00     0.111 A 
ATOM     17  C   UNL A   1      33.057  18.203  25.483  1.00  0.00     0.017 A 
ATOM     18  C   UNL A   1      33.361  16.966  24.928  1.00  0.00     0.021 A 
ENDBRANCH  10  12
ENDBRANCH   6  10
ENDBRANCH   3   5
ENDBRANCH   2   3
ENDBRANCH   1   2
BRANCH   1  19
ATOM     19  C   UNL A   1      39.304  19.995  25.379  1.00  0.00     0.275 C 
BRANCH  19  20
ATOM     20  O   UNL A   1      40.284  19.588  26.351  1.00  0.00    -0.458 OA
BRANCH  20  21
ATOM     21  C   UNL A   1      41.570  19.775  25.976  1.00  0.00     0.338 C 
ATOM     22  O   UNL A   1      42.235  19.070  25.237  1.00  0.00    -0.246 OA
BRANCH  21  23
ATOM     23  C   UNL A   1      42.058  21.061  26.494  1.00  0.00     0.060 A 
ATOM     24  C   UNL A   1      41.975  21.273  27.868  1.00  0.00     0.016 A 
ATOM     25  C   UNL A   1      42.464  22.090  25.647  1.00  0.00     0.016 A 
ATOM     26  C   UNL A   1      42.220  22.528  28.404  1.00  0.00     0.010 A 
ATOM     27  C   UNL A   1      42.780  23.342  26.195  1.00  0.00     0.010 A 
ATOM     28  C   UNL A   1      42.633  23.576  27.575  1.00  0.00    -0.014 A 
BRANCH  28  29
ATOM     29  C   UNL A   1      42.894  24.903  28.184  1.00  0.00     0.031 A 
ATOM     30  C   UNL A   1      44.285  25.300  28.586  1.00  0.00     0.074 A 
ATOM     31  C   UNL A   1      41.878  25.776  28.324  1.00  0.00     0.049 A 
ATOM     32  N   UNL A   1      44.696  26.405  29.155  1.00  0.00    -0.248 NA
ATOM     33  C   UNL A   1      45.352  24.324  28.324  1.00  0.00     0.031 C 
ATOM     34  C   UNL A   1      40.487  25.515  27.949  1.00  0.00     0.029 A 
ATOM     35  N   UNL A   1      41.862  27.061  28.801  1.00  0.00    -0.354 N 
ATOM     36  C   UNL A   1      46.061  26.244  29.352  1.00  0.00     0.074 A 
ATOM     37  C   UNL A   1      46.406  24.929  28.853  1.00  0.00     0.031 C 
ATOM     38  C   UNL A   1      39.757  26.615  28.187  1.00  0.00     0.029 A 
ATOM     39  C   UNL A   1      40.616  27.637  28.774  1.00  0.00     0.049 A 
ATOM     40  H   UNL A   1      42.664  27.524  29.132  1.00  0.00     0.167 HD
ATOM     41  C   UNL A   1      46.944  27.115  29.898  1.00  0.00     0.037 A 
ATOM     42  C   UNL A   1      40.206  28.849  29.190  1.00  0.00     0.037 A 
ATOM     43  C   UNL A   1      46.607  28.438  30.354  1.00  0.00     0.049 A 
ATOM     44  C   UNL A   1      41.205  29.800  29.779  1.00  0.00     0.074 A 
ATOM     45  C   UNL A   1      47.439  29.408  30.886  1.00  0.00     0.029 A 
ATOM     46  N   UNL A   1      45.331  28.982  30.325  1.00  0.00    -0.354 N 
ATOM     47  N   UNL A   1      42.491  29.632  29.968  1.00  0.00    -0.248 NA
ATOM     48  C   UNL A   1      40.696  31.106  30.216  1.00  0.00     0.031 C 
ATOM     49  C   UNL A   1      46.661  30.525  31.211  1.00  0.00     0.029 A 
ATOM     50  C   UNL A   1      45.349  30.265  30.848  1.00  0.00     0.049 A 
ATOM     51  H   UNL A   1      44.530  28.523  29.983  1.00  0.00     0.167 HD
ATOM     52  C   UNL A   1      42.946  30.807  30.549  1.00  0.00     0.074 A 
ATOM     53  C   UNL A   1      41.802  31.692  30.652  1.00  0.00     0.031 C 
ATOM     54  C   UNL A   1      44.197  31.122  30.966  1.00  0.00     0.037 A 
BRANCH  41  55
ATOM     55  C   UNL A   1      48.358  26.640  30.064  1.00  0.00     0.057 A 
ATOM     56  C   UNL A   1      49.347  26.894  29.106  1.00  0.00     0.134 A 
ATOM     57  C   UNL A   1      48.732  25.919  31.204  1.00  0.00     0.134 A 
ATOM     58  F   UNL A   1      49.052  27.566  27.984  1.00  0.00    -0.206 F 
ATOM     59  C   UNL A   1      50.653  26.422  29.265  1.00  0.00     0.040 A 
ATOM     60  C   UNL A   1      50.038  25.462  31.386  1.00  0.00     0.040 A 
ATOM     61  F   UNL A   1      47.832  25.645  32.162  1.00  0.00    -0.206 F 
ATOM     62  C   UNL A   1      51.002  25.707  30.409  1.00  0.00     0.006 A 
ENDBRANCH  41  55
BRANCH  42  63
ATOM     63  C   UNL A   1      38.774  29.211  29.075  1.00  0.00     0.057 A 
ATOM     64  C   UNL A   1      38.221  29.607  27.854  1.00  0.00     0.134 A 
ATOM     65  C   UNL A   1      37.917  29.133  30.180  1.00  0.00     0.134 A 
ATOM     66  F   UNL A   1      38.996  29.720  26.765  1.00  0.00    -0.206 F 
ATOM     67  C   UNL A   1      36.864  29.914  27.733  1.00  0.00     0.040 A 
ATOM     68  C   UNL A   1      36.555  29.414  30.069  1.00  0.00     0.040 A 
ATOM     69  F   UNL A   1      38.389  28.755  31.377  1.00  0.00    -0.206 F 
ATOM     70  C   UNL A   1      36.026  29.808  28.842  1.00  0.00     0.006 A 
ENDBRANCH  42  63
BRANCH  54  71
ATOM     71  C   UNL A   1      44.379  32.478  31.580  1.00  0.00     0.057 A 
ATOM     72  C   UNL A   1      44.627  33.609  30.793  1.00  0.00     0.134 A 
ATOM     73  C   UNL A   1      44.304  32.655  32.966  1.00  0.00     0.134 A 
ATOM     74  F   UNL A   1      44.727  33.502  29.459  1.00  0.00    -0.206 F 
ATOM     75  C   UNL A   1      44.821  34.867  31.366  1.00  0.00     0.040 A 
ATOM     76  C   UNL A   1      44.474  33.911  33.550  1.00  0.00     0.040 A 
ATOM     77  F   UNL A   1      44.065  31.611  33.775  1.00  0.00    -0.206 F 
ATOM     78  C   UNL A   1      44.741  35.020  32.749  1.00  0.00     0.006 A 
ENDBRANCH  54  71
ENDBRANCH  28  29
ENDBRANCH  21  23
ENDBRANCH  20  21
ENDBRANCH  19  20
ENDBRANCH   1  19
TORSDOF 13
ENDMDL
