MODEL 1
REMARK VINA RESULT:     -11.7      0.000      0.000
REMARK SMILES Cc1nc(C)c(C(=O)N2CCC([C@H](C)C(=O)OCCOC(=O)c3ccc(-c4c5nc(c(-c6c(F)cccc6F)c6ccc([nH]6)c(-c6c(F)cccc6F)c6nc(c(-c7c(F)cccc7F)c7ccc4[nH]7)C=C6)C=C5)cc3)CC2)s1
REMARK SMILES IDX 18 1 17 2 15 3 16 4 13 5 14 6 12 7 7 8 8 9 9 10 10 11 78 12
REMARK SMILES IDX 11 13 77 14 6 15 1 16 2 17 3 18 79 19 4 20 5 21 19 22 20 23
REMARK SMILES IDX 21 24 22 25 23 26 24 27 76 28 25 29 75 30 26 31 27 32 28 33
REMARK SMILES IDX 69 34 29 35 74 36 68 37 70 38 30 39 73 40 67 41 66 42 31 44
REMARK SMILES IDX 57 45 40 46 56 47 41 48 44 49 55 50 71 51 42 52 43 53 54 55
REMARK SMILES IDX 72 56 45 57 32 58 33 59 38 60 34 61 35 62 37 63 39 64 36 65
REMARK SMILES IDX 58 66 59 67 64 68 60 69 61 70 63 71 65 72 62 73 46 74 47 75
REMARK SMILES IDX 52 76 48 77 49 78 51 79 53 80 50 81
REMARK H PARENT 70 43 44 54
REMARK Flexibility Score: inf
ROOT
ATOM      1  C   UNL A   1      31.575  31.889  26.857  1.00  0.00     0.274 C 
ENDROOT
BRANCH   1   2
ATOM      2  O   UNL A   1      32.367  30.687  26.890  1.00  0.00    -0.462 OA
BRANCH   2   3
ATOM      3  C   UNL A   1      32.270  29.890  25.795  1.00  0.00     0.309 C 
ATOM      4  O   UNL A   1      31.344  29.914  24.992  1.00  0.00    -0.252 OA
BRANCH   3   5
ATOM      5  C   UNL A   1      33.429  28.911  25.662  1.00  0.00     0.099 C 
ATOM      6  C   UNL A   1      34.378  28.975  26.862  1.00  0.00     0.020 C 
BRANCH   5   7
ATOM      7  C   UNL A   1      33.023  27.485  25.190  1.00  0.00     0.006 C 
ATOM      8  C   UNL A   1      33.927  23.759  23.415  1.00  0.00     0.265 C 
ATOM      9  O   UNL A   1      34.398  23.936  22.290  1.00  0.00    -0.268 OA
ATOM     10  N   UNL A   1      33.291  24.810  24.081  1.00  0.00    -0.338 N 
ATOM     11  C   UNL A   1      32.676  25.863  23.292  1.00  0.00     0.120 C 
ATOM     12  C   UNL A   1      33.198  24.957  25.532  1.00  0.00     0.120 C 
ATOM     13  C   UNL A   1      33.202  27.236  23.683  1.00  0.00     0.026 C 
ATOM     14  C   UNL A   1      33.688  26.336  25.980  1.00  0.00     0.026 C 
BRANCH   8  15
ATOM     15  C   UNL A   1      33.978  22.455  24.050  1.00  0.00     0.115 A 
ATOM     16  C   UNL A   1      32.929  18.867  25.106  1.00  0.00     0.079 C 
ATOM     17  C   UNL A   1      33.545  20.183  24.785  1.00  0.00     0.091 A 
ATOM     18  N   UNL A   1      34.815  20.470  24.963  1.00  0.00    -0.246 NA
ATOM     19  S   UNL A   1      32.599  21.428  24.091  1.00  0.00    -0.113 S 
ATOM     20  C   UNL A   1      35.084  21.755  24.506  1.00  0.00     0.061 A 
ATOM     21  C   UNL A   1      36.499  22.214  24.526  1.00  0.00     0.068 C 
ENDBRANCH   8  15
ENDBRANCH   5   7
ENDBRANCH   3   5
ENDBRANCH   2   3
ENDBRANCH   1   2
BRANCH   1  22
ATOM     22  C   UNL A   1      32.439  33.155  26.879  1.00  0.00     0.275 C 
BRANCH  22  23
ATOM     23  O   UNL A   1      32.212  33.938  28.066  1.00  0.00    -0.458 OA
BRANCH  23  24
ATOM     24  C   UNL A   1      33.254  34.708  28.456  1.00  0.00     0.338 C 
ATOM     25  O   UNL A   1      33.273  35.919  28.588  1.00  0.00    -0.246 OA
BRANCH  24  26
ATOM     26  C   UNL A   1      34.389  33.855  28.838  1.00  0.00     0.060 A 
ATOM     27  C   UNL A   1      34.117  32.679  29.543  1.00  0.00     0.016 A 
ATOM     28  C   UNL A   1      35.705  34.255  28.606  1.00  0.00     0.016 A 
ATOM     29  C   UNL A   1      35.157  31.889  30.020  1.00  0.00     0.010 A 
ATOM     30  C   UNL A   1      36.752  33.466  29.095  1.00  0.00     0.010 A 
ATOM     31  C   UNL A   1      36.483  32.288  29.816  1.00  0.00    -0.014 A 
BRANCH  31  32
ATOM     32  C   UNL A   1      37.583  31.513  30.432  1.00  0.00     0.031 A 
ATOM     33  C   UNL A   1      37.926  31.740  31.874  1.00  0.00     0.074 A 
ATOM     34  C   UNL A   1      38.248  30.594  29.711  1.00  0.00     0.049 A 
ATOM     35  N   UNL A   1      38.916  31.252  32.577  1.00  0.00    -0.248 NA
ATOM     36  C   UNL A   1      37.034  32.635  32.627  1.00  0.00     0.031 C 
ATOM     37  C   UNL A   1      37.959  30.239  28.322  1.00  0.00     0.029 A 
ATOM     38  N   UNL A   1      39.310  29.795  30.049  1.00  0.00    -0.354 N 
ATOM     39  C   UNL A   1      38.781  31.797  33.845  1.00  0.00     0.074 A 
ATOM     40  C   UNL A   1      37.617  32.658  33.817  1.00  0.00     0.031 C 
ATOM     41  C   UNL A   1      38.833  29.300  27.922  1.00  0.00     0.029 A 
ATOM     42  C   UNL A   1      39.767  29.023  29.010  1.00  0.00     0.049 A 
ATOM     43  H   UNL A   1      39.707  29.778  30.951  1.00  0.00     0.167 HD
ATOM     44  C   UNL A   1      39.561  31.598  34.934  1.00  0.00     0.037 A 
ATOM     45  C   UNL A   1      40.838  28.212  28.937  1.00  0.00     0.037 A 
ATOM     46  C   UNL A   1      40.710  30.733  34.960  1.00  0.00     0.049 A 
ATOM     47  C   UNL A   1      41.726  28.056  30.140  1.00  0.00     0.074 A 
ATOM     48  C   UNL A   1      41.570  30.468  36.012  1.00  0.00     0.029 A 
ATOM     49  N   UNL A   1      41.159  29.990  33.879  1.00  0.00    -0.354 N 
ATOM     50  N   UNL A   1      41.610  28.599  31.328  1.00  0.00    -0.248 NA
ATOM     51  C   UNL A   1      42.900  27.184  29.990  1.00  0.00     0.031 C 
ATOM     52  C   UNL A   1      42.558  29.588  35.557  1.00  0.00     0.029 A 
ATOM     53  C   UNL A   1      42.292  29.277  34.233  1.00  0.00     0.049 A 
ATOM     54  H   UNL A   1      40.734  29.972  32.990  1.00  0.00     0.167 HD
ATOM     55  C   UNL A   1      42.683  28.123  32.070  1.00  0.00     0.074 A 
ATOM     56  C   UNL A   1      43.432  27.238  31.203  1.00  0.00     0.031 C 
ATOM     57  C   UNL A   1      43.020  28.398  33.354  1.00  0.00     0.037 A 
BRANCH  44  58
ATOM     58  C   UNL A   1      39.212  32.360  36.177  1.00  0.00     0.057 A 
ATOM     59  C   UNL A   1      39.753  33.624  36.447  1.00  0.00     0.134 A 
ATOM     60  C   UNL A   1      38.309  31.828  37.107  1.00  0.00     0.134 A 
ATOM     61  F   UNL A   1      40.636  34.179  35.605  1.00  0.00    -0.206 F 
ATOM     62  C   UNL A   1      39.420  34.324  37.609  1.00  0.00     0.040 A 
ATOM     63  C   UNL A   1      37.955  32.528  38.261  1.00  0.00     0.040 A 
ATOM     64  F   UNL A   1      37.756  30.623  36.905  1.00  0.00    -0.206 F 
ATOM     65  C   UNL A   1      38.514  33.778  38.517  1.00  0.00     0.006 A 
ENDBRANCH  44  58
BRANCH  45  66
ATOM     66  C   UNL A   1      41.150  27.512  27.667  1.00  0.00     0.057 A 
ATOM     67  C   UNL A   1      40.646  26.235  27.400  1.00  0.00     0.134 A 
ATOM     68  C   UNL A   1      41.962  28.105  26.692  1.00  0.00     0.134 A 
ATOM     69  F   UNL A   1      39.883  25.608  28.305  1.00  0.00    -0.206 F 
ATOM     70  C   UNL A   1      40.946  25.567  26.211  1.00  0.00     0.040 A 
ATOM     71  C   UNL A   1      42.252  27.458  25.491  1.00  0.00     0.040 A 
ATOM     72  F   UNL A   1      42.476  29.327  26.892  1.00  0.00    -0.206 F 
ATOM     73  C   UNL A   1      41.747  26.181  25.250  1.00  0.00     0.006 A 
ENDBRANCH  45  66
BRANCH  57  74
ATOM     74  C   UNL A   1      44.235  27.713  33.901  1.00  0.00     0.057 A 
ATOM     75  C   UNL A   1      44.163  26.439  34.478  1.00  0.00     0.134 A 
ATOM     76  C   UNL A   1      45.494  28.320  33.818  1.00  0.00     0.134 A 
ATOM     77  F   UNL A   1      42.983  25.813  34.598  1.00  0.00    -0.206 F 
ATOM     78  C   UNL A   1      45.302  25.798  34.968  1.00  0.00     0.040 A 
ATOM     79  C   UNL A   1      46.643  27.680  34.286  1.00  0.00     0.040 A 
ATOM     80  F   UNL A   1      45.628  29.537  33.271  1.00  0.00    -0.206 F 
ATOM     81  C   UNL A   1      46.548  26.418  34.867  1.00  0.00     0.006 A 
ENDBRANCH  57  74
ENDBRANCH  31  32
ENDBRANCH  24  26
ENDBRANCH  23  24
ENDBRANCH  22  23
ENDBRANCH   1  22
TORSDOF 13
ENDMDL
MODEL 2
REMARK VINA RESULT:     -11.3      4.399      9.957
REMARK SMILES Cc1nc(C)c(C(=O)N2CCC([C@H](C)C(=O)OCCOC(=O)c3ccc(-c4c5nc(c(-c6c(F)cccc6F)c6ccc([nH]6)c(-c6c(F)cccc6F)c6nc(c(-c7c(F)cccc7F)c7ccc4[nH]7)C=C6)C=C5)cc3)CC2)s1
REMARK SMILES IDX 18 1 17 2 15 3 16 4 13 5 14 6 12 7 7 8 8 9 9 10 10 11 78 12
REMARK SMILES IDX 11 13 77 14 6 15 1 16 2 17 3 18 79 19 4 20 5 21 19 22 20 23
REMARK SMILES IDX 21 24 22 25 23 26 24 27 76 28 25 29 75 30 26 31 27 32 28 33
REMARK SMILES IDX 69 34 29 35 74 36 68 37 70 38 30 39 73 40 67 41 66 42 31 44
REMARK SMILES IDX 57 45 40 46 56 47 41 48 44 49 55 50 71 51 42 52 43 53 54 55
REMARK SMILES IDX 72 56 45 57 32 58 33 59 38 60 34 61 35 62 37 63 39 64 36 65
REMARK SMILES IDX 58 66 59 67 64 68 60 69 61 70 63 71 65 72 62 73 46 74 47 75
REMARK SMILES IDX 52 76 48 77 49 78 51 79 53 80 50 81
REMARK H PARENT 70 43 44 54
REMARK Flexibility Score: inf
ROOT
ATOM      1  C   UNL A   1      37.752  20.062  24.806  1.00  0.00     0.274 C 
ENDROOT
BRANCH   1   2
ATOM      2  O   UNL A   1      37.328  21.086  25.726  1.00  0.00    -0.462 OA
BRANCH   2   3
ATOM      3  C   UNL A   1      36.024  21.452  25.636  1.00  0.00     0.309 C 
ATOM      4  O   UNL A   1      35.129  20.746  25.184  1.00  0.00    -0.252 OA
BRANCH   3   5
ATOM      5  C   UNL A   1      35.764  22.869  26.130  1.00  0.00     0.099 C 
ATOM      6  C   UNL A   1      37.027  23.734  26.089  1.00  0.00     0.020 C 
BRANCH   5   7
ATOM      7  C   UNL A   1      34.470  23.525  25.567  1.00  0.00     0.006 C 
ATOM      8  C   UNL A   1      31.313  26.322  25.810  1.00  0.00     0.265 C 
ATOM      9  O   UNL A   1      30.710  26.180  26.876  1.00  0.00    -0.268 OA
ATOM     10  N   UNL A   1      32.206  25.340  25.375  1.00  0.00    -0.338 N 
ATOM     11  C   UNL A   1      32.001  23.970  25.812  1.00  0.00     0.120 C 
ATOM     12  C   UNL A   1      33.360  25.572  24.510  1.00  0.00     0.120 C 
ATOM     13  C   UNL A   1      33.242  23.405  26.487  1.00  0.00     0.026 C 
ATOM     14  C   UNL A   1      34.638  24.996  25.128  1.00  0.00     0.026 C 
BRANCH   8  15
ATOM     15  C   UNL A   1      31.076  27.479  24.966  1.00  0.00     0.115 A 
ATOM     16  C   UNL A   1      29.500  29.737  22.227  1.00  0.00     0.079 C 
ATOM     17  C   UNL A   1      30.207  29.071  23.354  1.00  0.00     0.091 A 
ATOM     18  N   UNL A   1      30.936  29.701  24.247  1.00  0.00    -0.246 NA
ATOM     19  S   UNL A   1      30.060  27.382  23.583  1.00  0.00    -0.113 S 
ATOM     20  C   UNL A   1      31.405  28.805  25.201  1.00  0.00     0.061 A 
ATOM     21  C   UNL A   1      32.162  29.358  26.357  1.00  0.00     0.068 C 
ENDBRANCH   8  15
ENDBRANCH   5   7
ENDBRANCH   3   5
ENDBRANCH   2   3
ENDBRANCH   1   2
BRANCH   1  22
ATOM     22  C   UNL A   1      38.888  19.204  25.375  1.00  0.00     0.275 C 
BRANCH  22  23
ATOM     23  O   UNL A   1      39.416  19.755  26.596  1.00  0.00    -0.458 OA
BRANCH  23  24
ATOM     24  C   UNL A   1      40.747  20.000  26.587  1.00  0.00     0.338 C 
ATOM     25  O   UNL A   1      41.638  19.243  26.245  1.00  0.00    -0.246 OA
BRANCH  24  26
ATOM     26  C   UNL A   1      40.998  21.404  26.945  1.00  0.00     0.060 A 
ATOM     27  C   UNL A   1      40.454  22.397  26.126  1.00  0.00     0.016 A 
ATOM     28  C   UNL A   1      41.844  21.741  28.002  1.00  0.00     0.016 A 
ATOM     29  C   UNL A   1      40.746  23.737  26.357  1.00  0.00     0.010 A 
ATOM     30  C   UNL A   1      42.147  23.088  28.229  1.00  0.00     0.010 A 
ATOM     31  C   UNL A   1      41.610  24.090  27.399  1.00  0.00    -0.014 A 
BRANCH  31  32
ATOM     32  C   UNL A   1      42.018  25.503  27.564  1.00  0.00     0.031 A 
ATOM     33  C   UNL A   1      43.334  25.960  27.007  1.00  0.00     0.074 A 
ATOM     34  C   UNL A   1      41.202  26.374  28.182  1.00  0.00     0.049 A 
ATOM     35  N   UNL A   1      43.929  27.118  27.134  1.00  0.00    -0.248 NA
ATOM     36  C   UNL A   1      44.077  24.983  26.198  1.00  0.00     0.031 C 
ATOM     37  C   UNL A   1      39.872  26.061  28.704  1.00  0.00     0.029 A 
ATOM     38  N   UNL A   1      41.378  27.700  28.481  1.00  0.00    -0.354 N 
ATOM     39  C   UNL A   1      45.126  27.003  26.442  1.00  0.00     0.074 A 
ATOM     40  C   UNL A   1      45.177  25.661  25.901  1.00  0.00     0.031 C 
ATOM     41  C   UNL A   1      39.356  27.164  29.271  1.00  0.00     0.029 A 
ATOM     42  C   UNL A   1      40.336  28.244  29.191  1.00  0.00     0.049 A 
ATOM     43  H   UNL A   1      42.174  28.213  28.213  1.00  0.00     0.167 HD
ATOM     44  C   UNL A   1      46.096  27.933  26.276  1.00  0.00     0.037 A 
ATOM     45  C   UNL A   1      40.205  29.464  29.744  1.00  0.00     0.037 A 
ATOM     46  C   UNL A   1      46.035  29.270  26.807  1.00  0.00     0.049 A 
ATOM     47  C   UNL A   1      41.322  30.460  29.600  1.00  0.00     0.074 A 
ATOM     48  C   UNL A   1      46.968  30.286  26.700  1.00  0.00     0.029 A 
ATOM     49  N   UNL A   1      44.976  29.774  27.547  1.00  0.00    -0.354 N 
ATOM     50  N   UNL A   1      42.466  30.333  28.971  1.00  0.00    -0.248 NA
ATOM     51  C   UNL A   1      41.138  31.763  30.254  1.00  0.00     0.031 C 
ATOM     52  C   UNL A   1      46.487  31.396  27.402  1.00  0.00     0.029 A 
ATOM     53  C   UNL A   1      45.239  31.082  27.915  1.00  0.00     0.049 A 
ATOM     54  H   UNL A   1      44.158  29.275  27.776  1.00  0.00     0.167 HD
ATOM     55  C   UNL A   1      43.128  31.543  29.137  1.00  0.00     0.074 A 
ATOM     56  C   UNL A   1      42.253  32.394  29.917  1.00  0.00     0.031 C 
ATOM     57  C   UNL A   1      44.352  31.913  28.688  1.00  0.00     0.037 A 
BRANCH  44  58
ATOM     58  C   UNL A   1      47.320  27.521  25.517  1.00  0.00     0.057 A 
ATOM     59  C   UNL A   1      47.425  27.691  24.130  1.00  0.00     0.134 A 
ATOM     60  C   UNL A   1      48.416  26.961  26.185  1.00  0.00     0.134 A 
ATOM     61  F   UNL A   1      46.403  28.205  23.430  1.00  0.00    -0.206 F 
ATOM     62  C   UNL A   1      48.570  27.302  23.434  1.00  0.00     0.040 A 
ATOM     63  C   UNL A   1      49.574  26.587  25.502  1.00  0.00     0.040 A 
ATOM     64  F   UNL A   1      48.379  26.773  27.513  1.00  0.00    -0.206 F 
ATOM     65  C   UNL A   1      49.652  26.753  24.121  1.00  0.00     0.006 A 
ENDBRANCH  44  58
BRANCH  45  66
ATOM     66  C   UNL A   1      38.983  29.800  30.514  1.00  0.00     0.057 A 
ATOM     67  C   UNL A   1      38.866  29.473  31.868  1.00  0.00     0.134 A 
ATOM     68  C   UNL A   1      37.902  30.454  29.911  1.00  0.00     0.134 A 
ATOM     69  F   UNL A   1      39.858  28.824  32.495  1.00  0.00    -0.206 F 
ATOM     70  C   UNL A   1      37.713  29.777  32.595  1.00  0.00     0.040 A 
ATOM     71  C   UNL A   1      36.753  30.784  30.630  1.00  0.00     0.040 A 
ATOM     72  F   UNL A   1      37.954  30.793  28.614  1.00  0.00    -0.206 F 
ATOM     73  C   UNL A   1      36.655  30.439  31.977  1.00  0.00     0.006 A 
ENDBRANCH  45  66
BRANCH  57  74
ATOM     74  C   UNL A   1      44.801  33.306  29.007  1.00  0.00     0.057 A 
ATOM     75  C   UNL A   1      45.565  33.590  30.146  1.00  0.00     0.134 A 
ATOM     76  C   UNL A   1      44.497  34.369  28.147  1.00  0.00     0.134 A 
ATOM     77  F   UNL A   1      45.877  32.616  31.015  1.00  0.00    -0.206 F 
ATOM     78  C   UNL A   1      45.997  34.886  30.428  1.00  0.00     0.040 A 
ATOM     79  C   UNL A   1      44.941  35.666  28.408  1.00  0.00     0.040 A 
ATOM     80  F   UNL A   1      43.775  34.161  27.038  1.00  0.00    -0.206 F 
ATOM     81  C   UNL A   1      45.689  35.928  29.553  1.00  0.00     0.006 A 
ENDBRANCH  57  74
ENDBRANCH  31  32
ENDBRANCH  24  26
ENDBRANCH  23  24
ENDBRANCH  22  23
ENDBRANCH   1  22
TORSDOF 13
ENDMDL
MODEL 3
REMARK VINA RESULT:     -11.3      4.443      8.903
REMARK SMILES Cc1nc(C)c(C(=O)N2CCC([C@H](C)C(=O)OCCOC(=O)c3ccc(-c4c5nc(c(-c6c(F)cccc6F)c6ccc([nH]6)c(-c6c(F)cccc6F)c6nc(c(-c7c(F)cccc7F)c7ccc4[nH]7)C=C6)C=C5)cc3)CC2)s1
REMARK SMILES IDX 18 1 17 2 15 3 16 4 13 5 14 6 12 7 7 8 8 9 9 10 10 11 78 12
REMARK SMILES IDX 11 13 77 14 6 15 1 16 2 17 3 18 79 19 4 20 5 21 19 22 20 23
REMARK SMILES IDX 21 24 22 25 23 26 24 27 76 28 25 29 75 30 26 31 27 32 28 33
REMARK SMILES IDX 69 34 29 35 74 36 68 37 70 38 30 39 73 40 67 41 66 42 31 44
REMARK SMILES IDX 57 45 40 46 56 47 41 48 44 49 55 50 71 51 42 52 43 53 54 55
REMARK SMILES IDX 72 56 45 57 32 58 33 59 38 60 34 61 35 62 37 63 39 64 36 65
REMARK SMILES IDX 58 66 59 67 64 68 60 69 61 70 63 71 65 72 62 73 46 74 47 75
REMARK SMILES IDX 52 76 48 77 49 78 51 79 53 80 50 81
REMARK H PARENT 70 43 44 54
REMARK Flexibility Score: inf
ROOT
ATOM      1  C   UNL A   1      37.825  20.072  24.968  1.00  0.00     0.274 C 
ENDROOT
BRANCH   1   2
ATOM      2  O   UNL A   1      37.075  21.236  24.570  1.00  0.00    -0.462 OA
BRANCH   2   3
ATOM      3  C   UNL A   1      35.842  21.356  25.123  1.00  0.00     0.309 C 
ATOM      4  O   UNL A   1      34.980  20.485  25.107  1.00  0.00    -0.252 OA
BRANCH   3   5
ATOM      5  C   UNL A   1      35.601  22.720  25.757  1.00  0.00     0.099 C 
ATOM      6  C   UNL A   1      36.865  23.583  25.766  1.00  0.00     0.020 C 
BRANCH   5   7
ATOM      7  C   UNL A   1      34.295  23.429  25.294  1.00  0.00     0.006 C 
ATOM      8  C   UNL A   1      31.291  26.362  25.764  1.00  0.00     0.265 C 
ATOM      9  O   UNL A   1      30.770  26.251  26.876  1.00  0.00    -0.268 OA
ATOM     10  N   UNL A   1      32.103  25.340  25.267  1.00  0.00    -0.338 N 
ATOM     11  C   UNL A   1      31.875  23.982  25.731  1.00  0.00     0.120 C 
ATOM     12  C   UNL A   1      33.194  25.517  24.312  1.00  0.00     0.120 C 
ATOM     13  C   UNL A   1      33.141  23.367  26.309  1.00  0.00     0.026 C 
ATOM     14  C   UNL A   1      34.490  24.889  24.831  1.00  0.00     0.026 C 
BRANCH   8  15
ATOM     15  C   UNL A   1      31.037  27.524  24.932  1.00  0.00     0.115 A 
ATOM     16  C   UNL A   1      29.380  29.813  22.268  1.00  0.00     0.079 C 
ATOM     17  C   UNL A   1      30.125  29.133  23.361  1.00  0.00     0.091 A 
ATOM     18  N   UNL A   1      30.905  29.749  24.221  1.00  0.00    -0.246 NA
ATOM     19  S   UNL A   1      29.958  27.447  23.596  1.00  0.00    -0.113 S 
ATOM     20  C   UNL A   1      31.400  28.843  25.152  1.00  0.00     0.061 A 
ATOM     21  C   UNL A   1      32.219  29.382  26.273  1.00  0.00     0.068 C 
ENDBRANCH   8  15
ENDBRANCH   5   7
ENDBRANCH   3   5
ENDBRANCH   2   3
ENDBRANCH   1   2
BRANCH   1  22
ATOM     22  C   UNL A   1      39.240  20.426  25.441  1.00  0.00     0.275 C 
BRANCH  22  23
ATOM     23  O   UNL A   1      40.001  19.252  25.780  1.00  0.00    -0.458 OA
BRANCH  23  24
ATOM     24  C   UNL A   1      41.322  19.462  25.986  1.00  0.00     0.338 C 
ATOM     25  O   UNL A   1      42.245  18.724  25.691  1.00  0.00    -0.246 OA
BRANCH  24  26
ATOM     26  C   UNL A   1      41.533  20.813  26.528  1.00  0.00     0.060 A 
ATOM     27  C   UNL A   1      41.982  21.807  25.654  1.00  0.00     0.016 A 
ATOM     28  C   UNL A   1      41.400  21.074  27.891  1.00  0.00     0.016 A 
ATOM     29  C   UNL A   1      42.299  23.074  26.134  1.00  0.00     0.010 A 
ATOM     30  C   UNL A   1      41.728  22.345  28.376  1.00  0.00     0.010 A 
ATOM     31  C   UNL A   1      42.191  23.345  27.502  1.00  0.00    -0.014 A 
BRANCH  31  32
ATOM     32  C   UNL A   1      42.647  24.652  28.026  1.00  0.00     0.031 A 
ATOM     33  C   UNL A   1      41.636  25.718  28.328  1.00  0.00     0.074 A 
ATOM     34  C   UNL A   1      43.954  24.869  28.257  1.00  0.00     0.049 A 
ATOM     35  N   UNL A   1      41.826  26.962  28.687  1.00  0.00    -0.248 NA
ATOM     36  C   UNL A   1      40.222  25.331  28.211  1.00  0.00     0.031 C 
ATOM     37  C   UNL A   1      45.020  23.886  28.065  1.00  0.00     0.029 A 
ATOM     38  N   UNL A   1      44.605  25.993  28.696  1.00  0.00    -0.354 N 
ATOM     39  C   UNL A   1      40.559  27.513  28.816  1.00  0.00     0.074 A 
ATOM     40  C   UNL A   1      39.607  26.471  28.493  1.00  0.00     0.031 C 
ATOM     41  C   UNL A   1      46.197  24.455  28.374  1.00  0.00     0.029 A 
ATOM     42  C   UNL A   1      45.970  25.851  28.740  1.00  0.00     0.049 A 
ATOM     43  H   UNL A   1      44.139  26.821  28.953  1.00  0.00     0.167 HD
ATOM     44  C   UNL A   1      40.223  28.776  29.171  1.00  0.00     0.037 A 
ATOM     45  C   UNL A   1      46.928  26.756  29.012  1.00  0.00     0.037 A 
ATOM     46  C   UNL A   1      41.173  29.804  29.503  1.00  0.00     0.049 A 
ATOM     47  C   UNL A   1      46.533  28.169  29.342  1.00  0.00     0.074 A 
ATOM     48  C   UNL A   1      40.934  31.117  29.869  1.00  0.00     0.029 A 
ATOM     49  N   UNL A   1      42.549  29.630  29.508  1.00  0.00    -0.354 N 
ATOM     50  N   UNL A   1      45.334  28.691  29.432  1.00  0.00    -0.248 NA
ATOM     51  C   UNL A   1      47.624  29.121  29.596  1.00  0.00     0.031 C 
ATOM     52  C   UNL A   1      42.167  31.747  30.066  1.00  0.00     0.029 A 
ATOM     53  C   UNL A   1      43.172  30.816  29.858  1.00  0.00     0.049 A 
ATOM     54  H   UNL A   1      43.013  28.788  29.296  1.00  0.00     0.167 HD
ATOM     55  C   UNL A   1      45.524  30.025  29.769  1.00  0.00     0.074 A 
ATOM     56  C   UNL A   1      46.954  30.229  29.879  1.00  0.00     0.031 C 
ATOM     57  C   UNL A   1      44.598  30.995  29.965  1.00  0.00     0.037 A 
BRANCH  44  58
ATOM     58  C   UNL A   1      38.764  29.120  29.183  1.00  0.00     0.057 A 
ATOM     59  C   UNL A   1      37.987  29.014  30.344  1.00  0.00     0.134 A 
ATOM     60  C   UNL A   1      38.133  29.578  28.020  1.00  0.00     0.134 A 
ATOM     61  F   UNL A   1      38.529  28.564  31.485  1.00  0.00    -0.206 F 
ATOM     62  C   UNL A   1      36.629  29.337  30.342  1.00  0.00     0.040 A 
ATOM     63  C   UNL A   1      36.780  29.923  28.012  1.00  0.00     0.040 A 
ATOM     64  F   UNL A   1      38.822  29.702  26.876  1.00  0.00    -0.206 F 
ATOM     65  C   UNL A   1      36.023  29.798  29.174  1.00  0.00     0.006 A 
ENDBRANCH  44  58
BRANCH  45  66
ATOM     66  C   UNL A   1      48.356  26.362  28.950  1.00  0.00     0.057 A 
ATOM     67  C   UNL A   1      49.021  25.862  30.074  1.00  0.00     0.134 A 
ATOM     68  C   UNL A   1      49.091  26.480  27.763  1.00  0.00     0.134 A 
ATOM     69  F   UNL A   1      48.377  25.749  31.244  1.00  0.00    -0.206 F 
ATOM     70  C   UNL A   1      50.369  25.500  30.024  1.00  0.00     0.040 A 
ATOM     71  C   UNL A   1      50.432  26.102  27.693  1.00  0.00     0.040 A 
ATOM     72  F   UNL A   1      48.509  26.955  26.652  1.00  0.00    -0.206 F 
ATOM     73  C   UNL A   1      51.076  25.615  28.829  1.00  0.00     0.006 A 
ENDBRANCH  45  66
BRANCH  57  74
ATOM     74  C   UNL A   1      45.104  32.353  30.345  1.00  0.00     0.057 A 
ATOM     75  C   UNL A   1      45.407  33.321  29.379  1.00  0.00     0.134 A 
ATOM     76  C   UNL A   1      45.255  32.708  31.691  1.00  0.00     0.134 A 
ATOM     77  F   UNL A   1      45.295  33.037  28.073  1.00  0.00    -0.206 F 
ATOM     78  C   UNL A   1      45.859  34.591  29.740  1.00  0.00     0.040 A 
ATOM     79  C   UNL A   1      45.688  33.981  32.064  1.00  0.00     0.040 A 
ATOM     80  F   UNL A   1      44.976  31.827  32.662  1.00  0.00    -0.206 F 
ATOM     81  C   UNL A   1      45.996  34.925  31.087  1.00  0.00     0.006 A 
ENDBRANCH  57  74
ENDBRANCH  31  32
ENDBRANCH  24  26
ENDBRANCH  23  24
ENDBRANCH  22  23
ENDBRANCH   1  22
TORSDOF 13
ENDMDL
