MODEL 1
REMARK VINA RESULT:     -12.5      0.000      0.000
REMARK SMILES COC(=O)[C@@H]1CN(C(=O)NC(=O)CCCC(=O)OCCOC(=O)c2ccc(-c3c4nc(c(-c5c(F)cccc5F)c5ccc([nH]5)c(-c5c(F)cccc5F)c5nc(c(-c6c(F)cccc6F)c6ccc3[nH]6)C=C5)C=C4)cc2)C[C@H]1C
REMARK SMILES IDX 16 1 17 2 15 3 14 4 13 5 11 6 8 7 9 8 10 9 12 11 7 12 5 13
REMARK SMILES IDX 6 14 79 15 78 16 80 17 3 18 4 19 2 20 1 21 18 22 19 23 20 24
REMARK SMILES IDX 21 25 22 26 23 27 24 28 25 29 77 30 26 31 76 32 27 33 28 34
REMARK SMILES IDX 29 35 70 36 30 37 75 38 69 39 71 40 31 41 74 42 68 43 67 44
REMARK SMILES IDX 32 46 58 47 41 48 57 49 42 50 45 51 56 52 72 53 43 54 44 55
REMARK SMILES IDX 55 57 73 58 46 59 33 60 34 61 39 62 35 63 36 64 38 65 40 66
REMARK SMILES IDX 37 67 59 68 60 69 65 70 61 71 62 72 64 73 66 74 63 75 47 76
REMARK SMILES IDX 48 77 53 78 49 79 50 80 52 81 54 82 51 83
REMARK H PARENT 10 10 71 45 45 56
REMARK Flexibility Score: inf
ROOT
ATOM      1  C   UNL A   1      33.998  21.717  24.096  1.00  0.00     0.305 C 
ATOM      2  O   UNL A   1      33.235  20.730  24.266  1.00  0.00    -0.252 OA
ENDROOT
BRANCH   1   3
ATOM      3  C   UNL A   1      33.084  22.896  23.528  1.00  0.00     0.123 C 
BRANCH   3   4
ATOM      4  C   UNL A   1      33.619  23.643  22.299  1.00  0.00     0.022 C 
BRANCH   4   5
ATOM      5  C   UNL A   1      33.520  25.162  22.227  1.00  0.00     0.101 C 
BRANCH   5   6
ATOM      6  C   UNL A   1      32.675  25.773  21.145  1.00  0.00     0.228 C 
ATOM      7  C   UNL A   1      30.893  27.187  22.349  1.00  0.00     0.324 C 
ATOM      8  O   UNL A   1      30.447  28.288  22.012  1.00  0.00    -0.248 OA
ATOM      9  N   UNL A   1      31.475  26.418  21.374  1.00  0.00    -0.278 N 
ATOM     10  H   UNL A   1      30.859  26.288  20.617  1.00  0.00     0.174 HD
ATOM     11  O   UNL A   1      33.050  25.674  19.969  1.00  0.00    -0.275 OA
BRANCH   7  12
ATOM     12  N   UNL A   1      30.987  26.859  23.667  1.00  0.00    -0.323 N 
ATOM     13  C   UNL A   1      31.204  25.435  26.492  1.00  0.00     0.123 C 
ATOM     14  C   UNL A   1      30.481  25.301  24.608  1.00  0.00     0.137 C 
ATOM     15  C   UNL A   1      32.124  27.345  26.592  1.00  0.00     0.021 C 
ATOM     16  C   UNL A   1      31.877  28.128  24.745  1.00  0.00     0.125 C 
ATOM     17  C   UNL A   1      31.770  28.779  27.322  1.00  0.00     0.010 C 
BRANCH  13  18
ATOM     18  C   UNL A   1      31.635  23.985  26.848  1.00  0.00     0.310 C 
ATOM     19  O   UNL A   1      32.793  23.592  26.794  1.00  0.00    -0.252 OA
BRANCH  18  20
ATOM     20  O   UNL A   1      30.664  23.319  27.524  1.00  0.00    -0.469 OA
ATOM     21  C   UNL A   1      29.777  22.546  26.722  1.00  0.00     0.282 C 
ENDBRANCH  18  20
ENDBRANCH  13  18
ENDBRANCH   7  12
ENDBRANCH   5   6
ENDBRANCH   4   5
ENDBRANCH   3   4
ENDBRANCH   1   3
BRANCH   1  22
ATOM     22  O   UNL A   1      35.879  21.709  24.475  1.00  0.00    -0.462 OA
BRANCH  22  23
ATOM     23  C   UNL A   1      37.173  20.551  24.973  1.00  0.00     0.274 C 
BRANCH  23  24
ATOM     24  C   UNL A   1      38.736  21.149  25.607  1.00  0.00     0.275 C 
BRANCH  24  25
ATOM     25  O   UNL A   1      39.646  20.194  26.355  1.00  0.00    -0.458 OA
BRANCH  25  26
ATOM     26  C   UNL A   1      40.959  19.920  26.107  1.00  0.00     0.338 C 
ATOM     27  O   UNL A   1      41.395  18.885  25.634  1.00  0.00    -0.246 OA
BRANCH  26  28
ATOM     28  C   UNL A   1      41.925  21.032  26.447  1.00  0.00     0.060 A 
ATOM     29  C   UNL A   1      42.189  21.382  27.782  1.00  0.00     0.016 A 
ATOM     30  C   UNL A   1      42.330  21.941  25.468  1.00  0.00     0.016 A 
ATOM     31  C   UNL A   1      42.906  22.527  28.149  1.00  0.00     0.010 A 
ATOM     32  C   UNL A   1      42.986  23.143  25.830  1.00  0.00     0.010 A 
ATOM     33  C   UNL A   1      43.273  23.444  27.174  1.00  0.00    -0.014 A 
BRANCH  33  34
ATOM     34  C   UNL A   1      43.810  24.763  27.593  1.00  0.00     0.031 A 
ATOM     35  C   UNL A   1      42.857  25.821  28.077  1.00  0.00     0.074 A 
ATOM     36  C   UNL A   1      45.137  24.982  27.617  1.00  0.00     0.049 A 
ATOM     37  N   UNL A   1      43.064  27.094  28.292  1.00  0.00    -0.248 NA
ATOM     38  C   UNL A   1      41.487  25.375  28.378  1.00  0.00     0.031 C 
ATOM     39  C   UNL A   1      46.159  23.972  27.347  1.00  0.00     0.029 A 
ATOM     40  N   UNL A   1      45.853  26.126  27.866  1.00  0.00    -0.354 N 
ATOM     41  C   UNL A   1      41.841  27.610  28.710  1.00  0.00     0.074 A 
ATOM     42  C   UNL A   1      40.906  26.509  28.746  1.00  0.00     0.031 C 
ATOM     43  C   UNL A   1      47.370  24.552  27.396  1.00  0.00     0.029 A 
ATOM     44  C   UNL A   1      47.201  25.981  27.632  1.00  0.00     0.049 A 
ATOM     45  H   UNL A   1      45.445  26.964  28.182  1.00  0.00     0.167 HD
ATOM     46  C   UNL A   1      41.535  28.896  29.010  1.00  0.00     0.037 A 
ATOM     47  C   UNL A   1      48.169  26.914  27.546  1.00  0.00     0.037 A 
ATOM     48  C   UNL A   1      42.497  29.968  28.956  1.00  0.00     0.049 A 
ATOM     49  C   UNL A   1      47.787  28.356  27.753  1.00  0.00     0.074 A 
ATOM     50  C   UNL A   1      42.306  31.321  29.170  1.00  0.00     0.029 A 
ATOM     51  N   UNL A   1      43.843  29.794  28.661  1.00  0.00    -0.354 N 
ATOM     52  N   UNL A   1      46.612  28.865  28.046  1.00  0.00    -0.248 NA
ATOM     53  C   UNL A   1      48.853  29.354  27.607  1.00  0.00     0.031 C 
ATOM     54  C   UNL A   1      43.528  31.970  28.959  1.00  0.00     0.029 A 
ATOM     55  C   UNL A   1      44.494  31.016  28.672  1.00  0.00     0.049 A 
ATOM     56  H   UNL A   1      44.272  28.928  28.471  1.00  0.00     0.167 HD
ATOM     57  C   UNL A   1      46.803  30.236  28.149  1.00  0.00     0.074 A 
ATOM     58  C   UNL A   1      48.210  30.477  27.897  1.00  0.00     0.031 C 
ATOM     59  C   UNL A   1      45.902  31.211  28.428  1.00  0.00     0.037 A 
BRANCH  46  60
ATOM     60  C   UNL A   1      40.103  29.217  29.335  1.00  0.00     0.057 A 
ATOM     61  C   UNL A   1      39.625  29.286  30.650  1.00  0.00     0.134 A 
ATOM     62  C   UNL A   1      39.183  29.469  28.306  1.00  0.00     0.134 A 
ATOM     63  F   UNL A   1      40.444  29.041  31.684  1.00  0.00    -0.206 F 
ATOM     64  C   UNL A   1      38.284  29.569  30.928  1.00  0.00     0.040 A 
ATOM     65  C   UNL A   1      37.847  29.776  28.572  1.00  0.00     0.040 A 
ATOM     66  F   UNL A   1      39.569  29.422  27.021  1.00  0.00    -0.206 F 
ATOM     67  C   UNL A   1      37.392  29.819  29.887  1.00  0.00     0.006 A 
ENDBRANCH  46  60
BRANCH  47  68
ATOM     68  C   UNL A   1      49.557  26.527  27.177  1.00  0.00     0.057 A 
ATOM     69  C   UNL A   1      50.536  26.300  28.150  1.00  0.00     0.134 A 
ATOM     70  C   UNL A   1      49.943  26.381  25.837  1.00  0.00     0.134 A 
ATOM     71  F   UNL A   1      50.242  26.447  29.451  1.00  0.00    -0.206 F 
ATOM     72  C   UNL A   1      51.846  25.953  27.808  1.00  0.00     0.040 A 
ATOM     73  C   UNL A   1      51.240  26.007  25.481  1.00  0.00     0.040 A 
ATOM     74  F   UNL A   1      49.058  26.587  24.850  1.00  0.00    -0.206 F 
ATOM     75  C   UNL A   1      52.199  25.798  26.468  1.00  0.00     0.006 A 
ENDBRANCH  47  68
BRANCH  59  76
ATOM     76  C   UNL A   1      46.431  32.610  28.529  1.00  0.00     0.057 A 
ATOM     77  C   UNL A   1      46.442  33.482  27.434  1.00  0.00     0.134 A 
ATOM     78  C   UNL A   1      46.910  33.095  29.753  1.00  0.00     0.134 A 
ATOM     79  F   UNL A   1      46.011  33.071  26.232  1.00  0.00    -0.206 F 
ATOM     80  C   UNL A   1      46.936  34.782  27.547  1.00  0.00     0.040 A 
ATOM     81  C   UNL A   1      47.379  34.402  29.884  1.00  0.00     0.040 A 
ATOM     82  F   UNL A   1      46.916  32.311  30.841  1.00  0.00    -0.206 F 
ATOM     83  C   UNL A   1      47.400  35.247  28.777  1.00  0.00     0.006 A 
ENDBRANCH  59  76
ENDBRANCH  33  34
ENDBRANCH  26  28
ENDBRANCH  25  26
ENDBRANCH  24  25
ENDBRANCH  23  24
ENDBRANCH  22  23
ENDBRANCH   1  22
TORSDOF 17
ENDMDL
MODEL 2
REMARK VINA RESULT:     -12.4      1.048      6.467
REMARK SMILES COC(=O)[C@@H]1CN(C(=O)NC(=O)CCCC(=O)OCCOC(=O)c2ccc(-c3c4nc(c(-c5c(F)cccc5F)c5ccc([nH]5)c(-c5c(F)cccc5F)c5nc(c(-c6c(F)cccc6F)c6ccc3[nH]6)C=C5)C=C4)cc2)C[C@H]1C
REMARK SMILES IDX 16 1 17 2 15 3 14 4 13 5 11 6 8 7 9 8 10 9 12 11 7 12 5 13
REMARK SMILES IDX 6 14 79 15 78 16 80 17 3 18 4 19 2 20 1 21 18 22 19 23 20 24
REMARK SMILES IDX 21 25 22 26 23 27 24 28 25 29 77 30 26 31 76 32 27 33 28 34
REMARK SMILES IDX 29 35 70 36 30 37 75 38 69 39 71 40 31 41 74 42 68 43 67 44
REMARK SMILES IDX 32 46 58 47 41 48 57 49 42 50 45 51 56 52 72 53 43 54 44 55
REMARK SMILES IDX 55 57 73 58 46 59 33 60 34 61 39 62 35 63 36 64 38 65 40 66
REMARK SMILES IDX 37 67 59 68 60 69 65 70 61 71 62 72 64 73 66 74 63 75 47 76
REMARK SMILES IDX 48 77 53 78 49 79 50 80 52 81 54 82 51 83
REMARK H PARENT 10 10 71 45 45 56
REMARK Flexibility Score: inf
ROOT
ATOM      1  C   UNL A   1      35.870  23.049  23.869  1.00  0.00     0.305 C 
ATOM      2  O   UNL A   1      36.155  23.300  22.669  1.00  0.00    -0.252 OA
ENDROOT
BRANCH   1   3
ATOM      3  C   UNL A   1      34.442  23.710  24.136  1.00  0.00     0.123 C 
BRANCH   3   4
ATOM      4  C   UNL A   1      34.000  24.803  23.153  1.00  0.00     0.022 C 
BRANCH   4   5
ATOM      5  C   UNL A   1      32.921  24.507  22.119  1.00  0.00     0.101 C 
BRANCH   5   6
ATOM      6  C   UNL A   1      32.602  25.562  21.097  1.00  0.00     0.228 C 
ATOM      7  C   UNL A   1      31.476  27.483  22.387  1.00  0.00     0.324 C 
ATOM      8  O   UNL A   1      31.617  28.697  22.212  1.00  0.00    -0.248 OA
ATOM      9  N   UNL A   1      31.793  26.654  21.342  1.00  0.00    -0.278 N 
ATOM     10  H   UNL A   1      31.300  26.912  20.529  1.00  0.00     0.174 HD
ATOM     11  O   UNL A   1      33.062  25.442  19.954  1.00  0.00    -0.275 OA
BRANCH   7  12
ATOM     12  N   UNL A   1      31.222  26.995  23.633  1.00  0.00    -0.323 N 
ATOM     13  C   UNL A   1      30.531  25.251  26.190  1.00  0.00     0.123 C 
ATOM     14  C   UNL A   1      30.198  25.518  24.214  1.00  0.00     0.137 C 
ATOM     15  C   UNL A   1      31.816  26.846  26.749  1.00  0.00     0.021 C 
ATOM     16  C   UNL A   1      32.134  27.870  25.036  1.00  0.00     0.125 C 
ATOM     17  C   UNL A   1      31.650  28.231  27.627  1.00  0.00     0.010 C 
BRANCH  13  18
ATOM     18  C   UNL A   1      30.543  23.709  26.380  1.00  0.00     0.310 C 
ATOM     19  O   UNL A   1      31.306  22.961  25.783  1.00  0.00    -0.252 OA
BRANCH  18  20
ATOM     20  O   UNL A   1      29.863  23.330  27.492  1.00  0.00    -0.469 OA
ATOM     21  C   UNL A   1      28.881  22.317  27.298  1.00  0.00     0.282 C 
ENDBRANCH  18  20
ENDBRANCH  13  18
ENDBRANCH   7  12
ENDBRANCH   5   6
ENDBRANCH   4   5
ENDBRANCH   3   4
ENDBRANCH   1   3
BRANCH   1  22
ATOM     22  O   UNL A   1      36.996  22.058  25.066  1.00  0.00    -0.462 OA
BRANCH  22  23
ATOM     23  C   UNL A   1      37.946  20.522  25.099  1.00  0.00     0.274 C 
BRANCH  23  24
ATOM     24  C   UNL A   1      39.575  20.474  25.837  1.00  0.00     0.275 C 
BRANCH  24  25
ATOM     25  O   UNL A   1      40.422  19.226  25.681  1.00  0.00    -0.458 OA
BRANCH  25  26
ATOM     26  C   UNL A   1      41.740  19.063  25.994  1.00  0.00     0.338 C 
ATOM     27  O   UNL A   1      42.337  18.002  26.035  1.00  0.00    -0.246 OA
BRANCH  26  28
ATOM     28  C   UNL A   1      42.494  20.338  26.294  1.00  0.00     0.060 A 
ATOM     29  C   UNL A   1      42.342  20.999  27.525  1.00  0.00     0.016 A 
ATOM     30  C   UNL A   1      43.102  21.059  25.266  1.00  0.00     0.016 A 
ATOM     31  C   UNL A   1      42.848  22.280  27.777  1.00  0.00     0.010 A 
ATOM     32  C   UNL A   1      43.548  22.386  25.483  1.00  0.00     0.010 A 
ATOM     33  C   UNL A   1      43.419  23.004  26.740  1.00  0.00    -0.014 A 
BRANCH  33  34
ATOM     34  C   UNL A   1      43.726  24.441  26.951  1.00  0.00     0.031 A 
ATOM     35  C   UNL A   1      45.146  24.916  26.804  1.00  0.00     0.074 A 
ATOM     36  C   UNL A   1      42.738  25.322  27.190  1.00  0.00     0.049 A 
ATOM     37  N   UNL A   1      45.681  26.060  27.140  1.00  0.00    -0.248 NA
ATOM     38  C   UNL A   1      46.085  23.973  26.174  1.00  0.00     0.031 C 
ATOM     39  C   UNL A   1      41.310  25.006  27.170  1.00  0.00     0.029 A 
ATOM     40  N   UNL A   1      42.782  26.656  27.510  1.00  0.00    -0.354 N 
ATOM     41  C   UNL A   1      47.028  25.961  26.803  1.00  0.00     0.074 A 
ATOM     42  C   UNL A   1      47.222  24.655  26.212  1.00  0.00     0.031 C 
ATOM     43  C   UNL A   1      40.615  26.103  27.514  1.00  0.00     0.029 A 
ATOM     44  C   UNL A   1      41.552  27.172  27.843  1.00  0.00     0.049 A 
ATOM     45  H   UNL A   1      43.609  27.189  27.501  1.00  0.00     0.167 HD
ATOM     46  C   UNL A   1      48.009  26.875  26.999  1.00  0.00     0.037 A 
ATOM     47  C   UNL A   1      41.234  28.349  28.417  1.00  0.00     0.037 A 
ATOM     48  C   UNL A   1      47.775  28.164  27.598  1.00  0.00     0.049 A 
ATOM     49  C   UNL A   1      42.352  29.302  28.749  1.00  0.00     0.074 A 
ATOM     50  C   UNL A   1      48.685  29.157  27.914  1.00  0.00     0.029 A 
ATOM     51  N   UNL A   1      46.523  28.635  27.975  1.00  0.00    -0.354 N 
ATOM     52  N   UNL A   1      43.640  29.173  28.530  1.00  0.00    -0.248 NA
ATOM     53  C   UNL A   1      41.980  30.556  29.417  1.00  0.00     0.031 C 
ATOM     54  C   UNL A   1      47.989  30.207  28.523  1.00  0.00     0.029 A 
ATOM     55  C   UNL A   1      46.637  29.896  28.533  1.00  0.00     0.049 A 
ATOM     56  H   UNL A   1      45.678  28.143  27.861  1.00  0.00     0.167 HD
ATOM     57  C   UNL A   1      44.229  30.336  29.003  1.00  0.00     0.074 A 
ATOM     58  C   UNL A   1      43.154  31.165  29.512  1.00  0.00     0.031 C 
ATOM     59  C   UNL A   1      45.538  30.694  29.017  1.00  0.00     0.037 A 
BRANCH  46  60
ATOM     60  C   UNL A   1      49.415  26.481  26.643  1.00  0.00     0.057 A 
ATOM     61  C   UNL A   1      49.979  26.749  25.388  1.00  0.00     0.134 A 
ATOM     62  C   UNL A   1      50.225  25.823  27.580  1.00  0.00     0.134 A 
ATOM     63  F   UNL A   1      49.258  27.361  24.436  1.00  0.00    -0.206 F 
ATOM     64  C   UNL A   1      51.284  26.357  25.073  1.00  0.00     0.040 A 
ATOM     65  C   UNL A   1      51.537  25.448  27.284  1.00  0.00     0.040 A 
ATOM     66  F   UNL A   1      49.753  25.534  28.803  1.00  0.00    -0.206 F 
ATOM     67  C   UNL A   1      52.068  25.708  26.024  1.00  0.00     0.006 A 
ENDBRANCH  46  60
BRANCH  47  68
ATOM     68  C   UNL A   1      39.824  28.652  28.781  1.00  0.00     0.057 A 
ATOM     69  C   UNL A   1      38.934  29.212  27.858  1.00  0.00     0.134 A 
ATOM     70  C   UNL A   1      39.331  28.397  30.069  1.00  0.00     0.134 A 
ATOM     71  F   UNL A   1      39.347  29.505  26.616  1.00  0.00    -0.206 F 
ATOM     72  C   UNL A   1      37.614  29.516  28.201  1.00  0.00     0.040 A 
ATOM     73  C   UNL A   1      38.007  28.668  30.417  1.00  0.00     0.040 A 
ATOM     74  F   UNL A   1      40.129  27.866  31.008  1.00  0.00    -0.206 F 
ATOM     75  C   UNL A   1      37.145  29.236  29.484  1.00  0.00     0.006 A 
ENDBRANCH  47  68
BRANCH  59  76
ATOM     76  C   UNL A   1      45.858  32.059  29.548  1.00  0.00     0.057 A 
ATOM     77  C   UNL A   1      46.186  32.276  30.892  1.00  0.00     0.134 A 
ATOM     78  C   UNL A   1      45.865  33.166  28.688  1.00  0.00     0.134 A 
ATOM     79  F   UNL A   1      46.182  31.259  31.766  1.00  0.00    -0.206 F 
ATOM     80  C   UNL A   1      46.484  33.553  31.368  1.00  0.00     0.040 A 
ATOM     81  C   UNL A   1      46.191  34.442  29.148  1.00  0.00     0.040 A 
ATOM     82  F   UNL A   1      45.570  33.020  27.388  1.00  0.00    -0.206 F 
ATOM     83  C   UNL A   1      46.494  34.639  30.493  1.00  0.00     0.006 A 
ENDBRANCH  59  76
ENDBRANCH  33  34
ENDBRANCH  26  28
ENDBRANCH  25  26
ENDBRANCH  24  25
ENDBRANCH  23  24
ENDBRANCH  22  23
ENDBRANCH   1  22
TORSDOF 17
ENDMDL
MODEL 3
REMARK VINA RESULT:     -12.4      4.564      8.533
REMARK SMILES COC(=O)[C@@H]1CN(C(=O)NC(=O)CCCC(=O)OCCOC(=O)c2ccc(-c3c4nc(c(-c5c(F)cccc5F)c5ccc([nH]5)c(-c5c(F)cccc5F)c5nc(c(-c6c(F)cccc6F)c6ccc3[nH]6)C=C5)C=C4)cc2)C[C@H]1C
REMARK SMILES IDX 16 1 17 2 15 3 14 4 13 5 11 6 8 7 9 8 10 9 12 11 7 12 5 13
REMARK SMILES IDX 6 14 79 15 78 16 80 17 3 18 4 19 2 20 1 21 18 22 19 23 20 24
REMARK SMILES IDX 21 25 22 26 23 27 24 28 25 29 77 30 26 31 76 32 27 33 28 34
REMARK SMILES IDX 29 35 70 36 30 37 75 38 69 39 71 40 31 41 74 42 68 43 67 44
REMARK SMILES IDX 32 46 58 47 41 48 57 49 42 50 45 51 56 52 72 53 43 54 44 55
REMARK SMILES IDX 55 57 73 58 46 59 33 60 34 61 39 62 35 63 36 64 38 65 40 66
REMARK SMILES IDX 37 67 59 68 60 69 65 70 61 71 62 72 64 73 66 74 63 75 47 76
REMARK SMILES IDX 48 77 53 78 49 79 50 80 52 81 54 82 51 83
REMARK H PARENT 10 10 71 45 45 56
REMARK Flexibility Score: inf
ROOT
ATOM      1  C   UNL A   1      37.403  21.871  24.755  1.00  0.00     0.305 C 
ATOM      2  O   UNL A   1      36.611  20.900  24.644  1.00  0.00    -0.252 OA
ENDROOT
BRANCH   1   3
ATOM      3  C   UNL A   1      36.639  23.141  24.161  1.00  0.00     0.123 C 
BRANCH   3   4
ATOM      4  C   UNL A   1      35.105  23.088  24.186  1.00  0.00     0.022 C 
BRANCH   4   5
ATOM      5  C   UNL A   1      34.332  23.896  25.221  1.00  0.00     0.101 C 
BRANCH   5   6
ATOM      6  C   UNL A   1      33.784  23.180  26.423  1.00  0.00     0.228 C 
ATOM      7  C   UNL A   1      31.469  24.213  26.870  1.00  0.00     0.324 C 
ATOM      8  O   UNL A   1      30.440  23.634  27.234  1.00  0.00    -0.248 OA
ATOM      9  N   UNL A   1      32.665  23.589  27.121  1.00  0.00    -0.278 N 
ATOM     10  H   UNL A   1      32.750  23.370  28.077  1.00  0.00     0.174 HD
ATOM     11  O   UNL A   1      34.378  22.178  26.842  1.00  0.00    -0.275 OA
BRANCH   7  12
ATOM     12  N   UNL A   1      31.391  25.312  26.071  1.00  0.00    -0.323 N 
ATOM     13  C   UNL A   1      30.675  27.521  23.911  1.00  0.00     0.123 C 
ATOM     14  C   UNL A   1      30.715  25.542  24.322  1.00  0.00     0.137 C 
ATOM     15  C   UNL A   1      31.529  28.452  25.618  1.00  0.00     0.021 C 
ATOM     16  C   UNL A   1      31.953  26.926  26.872  1.00  0.00     0.125 C 
ATOM     17  C   UNL A   1      32.953  29.211  25.948  1.00  0.00     0.010 C 
BRANCH  13  18
ATOM     18  C   UNL A   1      29.377  27.722  23.081  1.00  0.00     0.310 C 
ATOM     19  O   UNL A   1      28.260  27.447  23.497  1.00  0.00    -0.252 OA
BRANCH  18  20
ATOM     20  O   UNL A   1      29.584  28.522  22.003  1.00  0.00    -0.469 OA
ATOM     21  C   UNL A   1      30.519  29.579  22.193  1.00  0.00     0.282 C 
ENDBRANCH  18  20
ENDBRANCH  13  18
ENDBRANCH   7  12
ENDBRANCH   5   6
ENDBRANCH   4   5
ENDBRANCH   3   4
ENDBRANCH   1   3
BRANCH   1  22
ATOM     22  O   UNL A   1      39.165  21.752  25.506  1.00  0.00    -0.462 OA
BRANCH  22  23
ATOM     23  C   UNL A   1      40.274  20.514  26.211  1.00  0.00     0.274 C 
BRANCH  23  24
ATOM     24  C   UNL A   1      41.655  21.005  27.237  1.00  0.00     0.275 C 
BRANCH  24  25
ATOM     25  O   UNL A   1      42.770  21.834  26.630  1.00  0.00    -0.458 OA
BRANCH  25  26
ATOM     26  C   UNL A   1      42.658  22.933  25.830  1.00  0.00     0.338 C 
ATOM     27  O   UNL A   1      42.915  22.979  24.641  1.00  0.00    -0.246 OA
BRANCH  26  28
ATOM     28  C   UNL A   1      42.149  24.181  26.516  1.00  0.00     0.060 A 
ATOM     29  C   UNL A   1      42.951  25.329  26.626  1.00  0.00     0.016 A 
ATOM     30  C   UNL A   1      41.015  24.128  27.328  1.00  0.00     0.016 A 
ATOM     31  C   UNL A   1      42.615  26.429  27.424  1.00  0.00     0.010 A 
ATOM     32  C   UNL A   1      40.704  25.200  28.200  1.00  0.00     0.010 A 
ATOM     33  C   UNL A   1      41.506  26.355  28.255  1.00  0.00    -0.014 A 
BRANCH  33  34
ATOM     34  C   UNL A   1      41.298  27.417  29.271  1.00  0.00     0.031 A 
ATOM     35  C   UNL A   1      42.158  27.430  30.505  1.00  0.00     0.074 A 
ATOM     36  C   UNL A   1      40.407  28.401  29.055  1.00  0.00     0.049 A 
ATOM     37  N   UNL A   1      42.023  28.118  31.608  1.00  0.00    -0.248 NA
ATOM     38  C   UNL A   1      43.345  26.559  30.480  1.00  0.00     0.031 C 
ATOM     39  C   UNL A   1      39.653  28.593  27.817  1.00  0.00     0.029 A 
ATOM     40  N   UNL A   1      39.975  29.416  29.872  1.00  0.00    -0.354 N 
ATOM     41  C   UNL A   1      43.081  27.731  32.426  1.00  0.00     0.074 A 
ATOM     42  C   UNL A   1      43.864  26.770  31.682  1.00  0.00     0.031 C 
ATOM     43  C   UNL A   1      38.813  29.630  27.973  1.00  0.00     0.029 A 
ATOM     44  C   UNL A   1      38.924  30.127  29.340  1.00  0.00     0.049 A 
ATOM     45  H   UNL A   1      40.376  29.616  30.748  1.00  0.00     0.167 HD
ATOM     46  C   UNL A   1      43.349  28.132  33.693  1.00  0.00     0.037 A 
ATOM     47  C   UNL A   1      38.104  31.023  29.922  1.00  0.00     0.037 A 
ATOM     48  C   UNL A   1      42.539  29.089  34.403  1.00  0.00     0.049 A 
ATOM     49  C   UNL A   1      38.335  31.361  31.371  1.00  0.00     0.074 A 
ATOM     50  C   UNL A   1      42.658  29.534  35.708  1.00  0.00     0.029 A 
ATOM     51  N   UNL A   1      41.448  29.751  33.852  1.00  0.00    -0.354 N 
ATOM     52  N   UNL A   1      39.268  30.922  32.184  1.00  0.00    -0.248 NA
ATOM     53  C   UNL A   1      37.396  32.305  31.992  1.00  0.00     0.031 C 
ATOM     54  C   UNL A   1      41.611  30.429  35.959  1.00  0.00     0.029 A 
ATOM     55  C   UNL A   1      40.874  30.588  34.794  1.00  0.00     0.049 A 
ATOM     56  H   UNL A   1      41.129  29.639  32.928  1.00  0.00     0.167 HD
ATOM     57  C   UNL A   1      39.051  31.557  33.398  1.00  0.00     0.074 A 
ATOM     58  C   UNL A   1      37.900  32.420  33.212  1.00  0.00     0.031 C 
ATOM     59  C   UNL A   1      39.736  31.442  34.564  1.00  0.00     0.037 A 
BRANCH  46  60
ATOM     60  C   UNL A   1      44.500  27.480  34.406  1.00  0.00     0.057 A 
ATOM     61  C   UNL A   1      44.365  26.281  35.117  1.00  0.00     0.134 A 
ATOM     62  C   UNL A   1      45.774  28.065  34.374  1.00  0.00     0.134 A 
ATOM     63  F   UNL A   1      43.173  25.672  35.204  1.00  0.00    -0.206 F 
ATOM     64  C   UNL A   1      45.447  25.702  35.788  1.00  0.00     0.040 A 
ATOM     65  C   UNL A   1      46.867  27.484  35.021  1.00  0.00     0.040 A 
ATOM     66  F   UNL A   1      45.980  29.214  33.712  1.00  0.00    -0.206 F 
ATOM     67  C   UNL A   1      46.703  26.302  35.737  1.00  0.00     0.006 A 
ENDBRANCH  46  60
BRANCH  47  68
ATOM     68  C   UNL A   1      36.958  31.595  29.167  1.00  0.00     0.057 A 
ATOM     69  C   UNL A   1      35.815  30.838  28.886  1.00  0.00     0.134 A 
ATOM     70  C   UNL A   1      36.979  32.917  28.697  1.00  0.00     0.134 A 
ATOM     71  F   UNL A   1      35.738  29.560  29.285  1.00  0.00    -0.206 F 
ATOM     72  C   UNL A   1      34.742  31.367  28.162  1.00  0.00     0.040 A 
ATOM     73  C   UNL A   1      35.904  33.467  27.997  1.00  0.00     0.040 A 
ATOM     74  F   UNL A   1      38.044  33.700  28.924  1.00  0.00    -0.206 F 
ATOM     75  C   UNL A   1      34.783  32.689  27.721  1.00  0.00     0.006 A 
ENDBRANCH  47  68
BRANCH  59  76
ATOM     76  C   UNL A   1      39.287  32.314  35.698  1.00  0.00     0.057 A 
ATOM     77  C   UNL A   1      38.354  31.878  36.646  1.00  0.00     0.134 A 
ATOM     78  C   UNL A   1      39.825  33.598  35.855  1.00  0.00     0.134 A 
ATOM     79  F   UNL A   1      37.792  30.665  36.541  1.00  0.00    -0.206 F 
ATOM     80  C   UNL A   1      37.950  32.703  37.697  1.00  0.00     0.040 A 
ATOM     81  C   UNL A   1      39.451  34.418  36.919  1.00  0.00     0.040 A 
ATOM     82  F   UNL A   1      40.731  34.068  34.985  1.00  0.00    -0.206 F 
ATOM     83  C   UNL A   1      38.505  33.974  37.839  1.00  0.00     0.006 A 
ENDBRANCH  59  76
ENDBRANCH  33  34
ENDBRANCH  26  28
ENDBRANCH  25  26
ENDBRANCH  24  25
ENDBRANCH  23  24
ENDBRANCH  22  23
ENDBRANCH   1  22
TORSDOF 17
ENDMDL
