MODEL 1
REMARK VINA RESULT:     -11.1      0.000      0.000
REMARK SMILES CC/C(=C/C(=O)[C@H](Cc1ccc(Cl)cc1Cl)C(=O)OCCOC(=O)c1ccc(-c2c3nc(c(-c4c(F)cccc4F)c4ccc([nH]4)c(-c4c(F)cccc4F)c4nc(c(-c5c(F)cccc5F)c5ccc2[nH]5)C=C4)C=C3)cc1)N(C)C
REMARK SMILES IDX 20 1 19 2 17 3 18 4 7 5 5 6 6 7 4 8 3 9 2 10 1 11 79 12
REMARK SMILES IDX 80 13 81 14 8 15 9 16 10 17 15 18 11 19 14 20 16 21 12 22
REMARK SMILES IDX 13 23 21 24 22 25 23 26 24 27 25 28 26 29 78 30 27 31 77 32
REMARK SMILES IDX 28 33 29 34 30 35 71 36 31 37 76 38 70 39 72 40 32 41 75 42
REMARK SMILES IDX 69 43 68 44 33 46 59 47 42 48 58 49 43 50 46 51 57 52 73 53
REMARK SMILES IDX 44 54 45 55 56 57 74 58 47 59 34 60 35 61 40 62 36 63 37 64
REMARK SMILES IDX 39 65 41 66 38 67 60 68 61 69 66 70 62 71 63 72 65 73 67 74
REMARK SMILES IDX 64 75 48 76 49 77 54 78 50 79 51 80 53 81 55 82 52 83
REMARK H PARENT 72 45 46 56
REMARK Flexibility Score: inf
ROOT
ATOM      1  C   UNL A   1      31.735  28.510  27.418  1.00  0.00     0.274 C 
ENDROOT
BRANCH   1   2
ATOM      2  O   UNL A   1      31.000  27.287  27.203  1.00  0.00    -0.461 OA
BRANCH   2   3
ATOM      3  C   UNL A   1      31.507  26.422  26.286  1.00  0.00     0.317 C 
ATOM      4  O   UNL A   1      32.707  26.240  26.106  1.00  0.00    -0.251 OA
BRANCH   3   5
ATOM      5  C   UNL A   1      30.448  25.570  25.609  1.00  0.00     0.175 C 
BRANCH   5   6
ATOM      6  C   UNL A   1      30.620  24.137  26.055  1.00  0.00     0.171 C 
ATOM      7  O   UNL A   1      30.084  23.775  27.113  1.00  0.00    -0.294 OA
BRANCH   6   8
ATOM      8  C   UNL A   1      31.284  23.056  25.253  1.00  0.00     0.069 C 
ATOM      9  C   UNL A   1      32.449  22.690  24.660  1.00  0.00     0.016 C 
BRANCH   9  10
ATOM     10  C   UNL A   1      32.408  21.260  24.069  1.00  0.00     0.050 C 
ATOM     11  C   UNL A   1      32.046  21.238  22.589  1.00  0.00     0.010 C 
ENDBRANCH   9  10
BRANCH   9  12
ATOM     12  N   UNL A   1      33.683  23.356  24.540  1.00  0.00    -0.381 N 
ATOM     13  C   UNL A   1      34.862  23.068  25.377  1.00  0.00     0.143 C 
ATOM     14  C   UNL A   1      34.037  24.214  23.429  1.00  0.00     0.143 C 
ENDBRANCH   9  12
ENDBRANCH   6   8
ENDBRANCH   5   6
BRANCH   5  15
ATOM     15  C   UNL A   1      30.424  25.632  24.061  1.00  0.00     0.060 C 
BRANCH  15  16
ATOM     16  C   UNL A   1      29.870  26.971  23.597  1.00  0.00    -0.028 A 
ATOM     17  C   UNL A   1      28.478  27.168  23.666  1.00  0.00     0.007 A 
ATOM     18  C   UNL A   1      30.662  27.961  22.986  1.00  0.00     0.045 A 
ATOM     19  C   UNL A   1      27.889  28.293  23.086  1.00  0.00     0.021 A 
ATOM     20  C   UNL A   1      30.069  29.085  22.402  1.00  0.00     0.041 A 
ATOM     21  Cl  UNL A   1      32.377  27.818  22.863  1.00  0.00    -0.084 Cl
ATOM     22  C   UNL A   1      28.685  29.234  22.440  1.00  0.00     0.042 A 
ATOM     23  Cl  UNL A   1      27.946  30.570  21.648  1.00  0.00    -0.084 Cl
ENDBRANCH  15  16
ENDBRANCH   5  15
ENDBRANCH   3   5
ENDBRANCH   2   3
ENDBRANCH   1   2
BRANCH   1  24
ATOM     24  C   UNL A   1      31.690  29.365  26.155  1.00  0.00     0.275 C 
BRANCH  24  25
ATOM     25  O   UNL A   1      32.956  30.025  25.970  1.00  0.00    -0.458 OA
BRANCH  25  26
ATOM     26  C   UNL A   1      33.252  30.986  26.876  1.00  0.00     0.338 C 
ATOM     27  O   UNL A   1      32.543  31.909  27.237  1.00  0.00    -0.246 OA
BRANCH  26  28
ATOM     28  C   UNL A   1      34.605  30.774  27.425  1.00  0.00     0.060 A 
ATOM     29  C   UNL A   1      35.105  29.488  27.607  1.00  0.00     0.016 A 
ATOM     30  C   UNL A   1      35.329  31.876  27.886  1.00  0.00     0.016 A 
ATOM     31  C   UNL A   1      36.286  29.304  28.337  1.00  0.00     0.010 A 
ATOM     32  C   UNL A   1      36.550  31.685  28.545  1.00  0.00     0.010 A 
ATOM     33  C   UNL A   1      37.026  30.394  28.826  1.00  0.00    -0.014 A 
BRANCH  33  34
ATOM     34  C   UNL A   1      38.252  30.202  29.665  1.00  0.00     0.031 A 
ATOM     35  C   UNL A   1      39.419  29.393  29.143  1.00  0.00     0.074 A 
ATOM     36  C   UNL A   1      38.354  30.739  30.898  1.00  0.00     0.049 A 
ATOM     37  N   UNL A   1      40.437  28.888  29.796  1.00  0.00    -0.248 NA
ATOM     38  C   UNL A   1      39.436  29.103  27.700  1.00  0.00     0.031 C 
ATOM     39  C   UNL A   1      37.359  31.595  31.543  1.00  0.00     0.029 A 
ATOM     40  N   UNL A   1      39.358  30.641  31.835  1.00  0.00    -0.354 N 
ATOM     41  C   UNL A   1      41.167  28.157  28.865  1.00  0.00     0.074 A 
ATOM     42  C   UNL A   1      40.488  28.300  27.594  1.00  0.00     0.031 C 
ATOM     43  C   UNL A   1      37.820  31.984  32.740  1.00  0.00     0.029 A 
ATOM     44  C   UNL A   1      39.091  31.318  33.000  1.00  0.00     0.049 A 
ATOM     45  H   UNL A   1      40.189  30.135  31.683  1.00  0.00     0.167 HD
ATOM     46  C   UNL A   1      42.293  27.424  29.052  1.00  0.00     0.037 A 
ATOM     47  C   UNL A   1      39.753  31.362  34.172  1.00  0.00     0.037 A 
ATOM     48  C   UNL A   1      43.025  27.344  30.289  1.00  0.00     0.049 A 
ATOM     49  C   UNL A   1      40.991  30.536  34.365  1.00  0.00     0.074 A 
ATOM     50  C   UNL A   1      44.179  26.628  30.565  1.00  0.00     0.029 A 
ATOM     51  N   UNL A   1      42.695  28.026  31.448  1.00  0.00    -0.354 N 
ATOM     52  N   UNL A   1      41.601  29.754  33.510  1.00  0.00    -0.248 NA
ATOM     53  C   UNL A   1      41.611  30.573  35.697  1.00  0.00     0.031 C 
ATOM     54  C   UNL A   1      44.538  26.865  31.897  1.00  0.00     0.029 A 
ATOM     55  C   UNL A   1      43.624  27.751  32.439  1.00  0.00     0.049 A 
ATOM     56  H   UNL A   1      41.916  28.620  31.553  1.00  0.00     0.167 HD
ATOM     57  C   UNL A   1      42.674  29.204  34.200  1.00  0.00     0.074 A 
ATOM     58  C   UNL A   1      42.646  29.761  35.536  1.00  0.00     0.031 C 
ATOM     59  C   UNL A   1      43.592  28.308  33.765  1.00  0.00     0.037 A 
BRANCH  46  60
ATOM     60  C   UNL A   1      42.797  26.612  27.895  1.00  0.00     0.057 A 
ATOM     61  C   UNL A   1      43.743  27.106  26.991  1.00  0.00     0.134 A 
ATOM     62  C   UNL A   1      42.375  25.285  27.730  1.00  0.00     0.134 A 
ATOM     63  F   UNL A   1      44.180  28.371  27.090  1.00  0.00    -0.206 F 
ATOM     64  C   UNL A   1      44.243  26.314  25.955  1.00  0.00     0.040 A 
ATOM     65  C   UNL A   1      42.884  24.476  26.713  1.00  0.00     0.040 A 
ATOM     66  F   UNL A   1      41.477  24.747  28.570  1.00  0.00    -0.206 F 
ATOM     67  C   UNL A   1      43.820  24.993  25.820  1.00  0.00     0.006 A 
ENDBRANCH  46  60
BRANCH  47  68
ATOM     68  C   UNL A   1      39.216  32.182  35.286  1.00  0.00     0.057 A 
ATOM     69  C   UNL A   1      38.366  31.624  36.247  1.00  0.00     0.134 A 
ATOM     70  C   UNL A   1      39.552  33.534  35.424  1.00  0.00     0.134 A 
ATOM     71  F   UNL A   1      37.988  30.341  36.150  1.00  0.00    -0.206 F 
ATOM     72  C   UNL A   1      37.872  32.381  37.309  1.00  0.00     0.040 A 
ATOM     73  C   UNL A   1      39.087  34.296  36.495  1.00  0.00     0.040 A 
ATOM     74  F   UNL A   1      40.363  34.124  34.533  1.00  0.00    -0.206 F 
ATOM     75  C   UNL A   1      38.241  33.720  37.440  1.00  0.00     0.006 A 
ENDBRANCH  47  68
BRANCH  59  76
ATOM     76  C   UNL A   1      44.654  27.893  34.736  1.00  0.00     0.057 A 
ATOM     77  C   UNL A   1      44.500  26.767  35.554  1.00  0.00     0.134 A 
ATOM     78  C   UNL A   1      45.848  28.614  34.841  1.00  0.00     0.134 A 
ATOM     79  F   UNL A   1      43.371  26.044  35.509  1.00  0.00    -0.206 F 
ATOM     80  C   UNL A   1      45.492  26.383  36.457  1.00  0.00     0.040 A 
ATOM     81  C   UNL A   1      46.855  28.230  35.728  1.00  0.00     0.040 A 
ATOM     82  F   UNL A   1      46.058  29.700  34.082  1.00  0.00    -0.206 F 
ATOM     83  C   UNL A   1      46.676  27.112  36.543  1.00  0.00     0.006 A 
ENDBRANCH  59  76
ENDBRANCH  33  34
ENDBRANCH  26  28
ENDBRANCH  25  26
ENDBRANCH  24  25
ENDBRANCH   1  24
TORSDOF 17
ENDMDL
MODEL 2
REMARK VINA RESULT:     -11.0      4.003      8.823
REMARK SMILES CC/C(=C/C(=O)[C@H](Cc1ccc(Cl)cc1Cl)C(=O)OCCOC(=O)c1ccc(-c2c3nc(c(-c4c(F)cccc4F)c4ccc([nH]4)c(-c4c(F)cccc4F)c4nc(c(-c5c(F)cccc5F)c5ccc2[nH]5)C=C4)C=C3)cc1)N(C)C
REMARK SMILES IDX 20 1 19 2 17 3 18 4 7 5 5 6 6 7 4 8 3 9 2 10 1 11 79 12
REMARK SMILES IDX 80 13 81 14 8 15 9 16 10 17 15 18 11 19 14 20 16 21 12 22
REMARK SMILES IDX 13 23 21 24 22 25 23 26 24 27 25 28 26 29 78 30 27 31 77 32
REMARK SMILES IDX 28 33 29 34 30 35 71 36 31 37 76 38 70 39 72 40 32 41 75 42
REMARK SMILES IDX 69 43 68 44 33 46 59 47 42 48 58 49 43 50 46 51 57 52 73 53
REMARK SMILES IDX 44 54 45 55 56 57 74 58 47 59 34 60 35 61 40 62 36 63 37 64
REMARK SMILES IDX 39 65 41 66 38 67 60 68 61 69 66 70 62 71 63 72 65 73 67 74
REMARK SMILES IDX 64 75 48 76 49 77 54 78 50 79 51 80 53 81 55 82 52 83
REMARK H PARENT 72 45 46 56
REMARK Flexibility Score: inf
ROOT
ATOM      1  C   UNL A   1      36.527  22.946  23.443  1.00  0.00     0.274 C 
ENDROOT
BRANCH   1   2
ATOM      2  O   UNL A   1      35.396  23.239  22.597  1.00  0.00    -0.461 OA
BRANCH   2   3
ATOM      3  C   UNL A   1      34.421  24.023  23.128  1.00  0.00     0.317 C 
ATOM      4  O   UNL A   1      34.614  24.849  24.015  1.00  0.00    -0.251 OA
BRANCH   3   5
ATOM      5  C   UNL A   1      33.089  23.905  22.408  1.00  0.00     0.175 C 
BRANCH   5   6
ATOM      6  C   UNL A   1      32.714  25.260  21.856  1.00  0.00     0.171 C 
ATOM      7  O   UNL A   1      33.294  25.670  20.839  1.00  0.00    -0.294 OA
BRANCH   6   8
ATOM      8  C   UNL A   1      31.589  26.117  22.360  1.00  0.00     0.069 C 
ATOM      9  C   UNL A   1      31.297  27.282  22.991  1.00  0.00     0.016 C 
BRANCH   9  10
ATOM     10  C   UNL A   1      29.779  27.572  23.063  1.00  0.00     0.050 C 
ATOM     11  C   UNL A   1      29.019  26.561  23.913  1.00  0.00     0.010 C 
ENDBRANCH   9  10
BRANCH   9  12
ATOM     12  N   UNL A   1      32.126  28.282  23.534  1.00  0.00    -0.381 N 
ATOM     13  C   UNL A   1      32.044  28.757  24.927  1.00  0.00     0.143 C 
ATOM     14  C   UNL A   1      33.320  28.785  22.887  1.00  0.00     0.143 C 
ENDBRANCH   9  12
ENDBRANCH   6   8
ENDBRANCH   5   6
BRANCH   5  15
ATOM     15  C   UNL A   1      31.917  23.344  23.251  1.00  0.00     0.060 C 
BRANCH  15  16
ATOM     16  C   UNL A   1      32.313  22.022  23.890  1.00  0.00    -0.028 A 
ATOM     17  C   UNL A   1      32.285  20.867  23.085  1.00  0.00     0.007 A 
ATOM     18  C   UNL A   1      32.576  21.879  25.264  1.00  0.00     0.045 A 
ATOM     19  C   UNL A   1      32.454  19.602  23.650  1.00  0.00     0.021 A 
ATOM     20  C   UNL A   1      32.740  20.611  25.828  1.00  0.00     0.041 A 
ATOM     21  Cl  UNL A   1      32.643  23.234  26.331  1.00  0.00    -0.084 Cl
ATOM     22  C   UNL A   1      32.659  19.479  25.021  1.00  0.00     0.042 A 
ATOM     23  Cl  UNL A   1      32.774  17.914  25.725  1.00  0.00    -0.084 Cl
ENDBRANCH  15  16
ENDBRANCH   5  15
ENDBRANCH   3   5
ENDBRANCH   2   3
ENDBRANCH   1   2
BRANCH   1  24
ATOM     24  C   UNL A   1      36.234  21.706  24.282  1.00  0.00     0.275 C 
BRANCH  24  25
ATOM     25  O   UNL A   1      36.765  21.881  25.609  1.00  0.00    -0.458 OA
BRANCH  25  26
ATOM     26  C   UNL A   1      38.082  21.605  25.753  1.00  0.00     0.338 C 
ATOM     27  O   UNL A   1      38.673  20.603  25.390  1.00  0.00    -0.246 OA
BRANCH  26  28
ATOM     28  C   UNL A   1      38.770  22.724  26.423  1.00  0.00     0.060 A 
ATOM     29  C   UNL A   1      38.260  24.017  26.354  1.00  0.00     0.016 A 
ATOM     30  C   UNL A   1      40.014  22.495  27.017  1.00  0.00     0.016 A 
ATOM     31  C   UNL A   1      39.043  25.091  26.796  1.00  0.00     0.010 A 
ATOM     32  C   UNL A   1      40.753  23.569  27.529  1.00  0.00     0.010 A 
ATOM     33  C   UNL A   1      40.304  24.891  27.383  1.00  0.00    -0.014 A 
BRANCH  33  34
ATOM     34  C   UNL A   1      41.173  26.039  27.794  1.00  0.00     0.031 A 
ATOM     35  C   UNL A   1      40.631  27.126  28.697  1.00  0.00     0.074 A 
ATOM     36  C   UNL A   1      42.452  26.140  27.379  1.00  0.00     0.049 A 
ATOM     37  N   UNL A   1      41.117  28.318  28.946  1.00  0.00    -0.248 NA
ATOM     38  C   UNL A   1      39.372  26.839  29.403  1.00  0.00     0.031 C 
ATOM     39  C   UNL A   1      43.163  25.163  26.556  1.00  0.00     0.029 A 
ATOM     40  N   UNL A   1      43.388  27.125  27.599  1.00  0.00    -0.354 N 
ATOM     41  C   UNL A   1      40.188  28.949  29.765  1.00  0.00     0.074 A 
ATOM     42  C   UNL A   1      39.117  28.000  29.992  1.00  0.00     0.031 C 
ATOM     43  C   UNL A   1      44.430  25.567  26.383  1.00  0.00     0.029 A 
ATOM     44  C   UNL A   1      44.594  26.885  26.986  1.00  0.00     0.049 A 
ATOM     45  H   UNL A   1      43.211  27.925  28.145  1.00  0.00     0.167 HD
ATOM     46  C   UNL A   1      40.217  30.205  30.275  1.00  0.00     0.037 A 
ATOM     47  C   UNL A   1      45.695  27.651  26.864  1.00  0.00     0.037 A 
ATOM     48  C   UNL A   1      41.314  31.126  30.128  1.00  0.00     0.049 A 
ATOM     49  C   UNL A   1      45.706  29.043  27.424  1.00  0.00     0.074 A 
ATOM     50  C   UNL A   1      41.429  32.419  30.616  1.00  0.00     0.029 A 
ATOM     51  N   UNL A   1      42.501  30.843  29.473  1.00  0.00    -0.354 N 
ATOM     52  N   UNL A   1      44.770  29.669  28.093  1.00  0.00    -0.248 NA
ATOM     53  C   UNL A   1      46.912  29.846  27.179  1.00  0.00     0.031 C 
ATOM     54  C   UNL A   1      42.679  32.923  30.240  1.00  0.00     0.029 A 
ATOM     55  C   UNL A   1      43.352  31.934  29.545  1.00  0.00     0.049 A 
ATOM     56  H   UNL A   1      42.709  29.993  29.022  1.00  0.00     0.167 HD
ATOM     57  C   UNL A   1      45.273  30.938  28.348  1.00  0.00     0.074 A 
ATOM     58  C   UNL A   1      46.605  30.986  27.783  1.00  0.00     0.031 C 
ATOM     59  C   UNL A   1      44.676  31.975  28.983  1.00  0.00     0.037 A 
BRANCH  46  60
ATOM     60  C   UNL A   1      39.005  30.685  31.018  1.00  0.00     0.057 A 
ATOM     61  C   UNL A   1      38.868  30.531  32.401  1.00  0.00     0.134 A 
ATOM     62  C   UNL A   1      37.992  31.378  30.340  1.00  0.00     0.134 A 
ATOM     63  F   UNL A   1      39.798  29.869  33.106  1.00  0.00    -0.206 F 
ATOM     64  C   UNL A   1      37.758  31.036  33.084  1.00  0.00     0.040 A 
ATOM     65  C   UNL A   1      36.890  31.907  31.013  1.00  0.00     0.040 A 
ATOM     66  F   UNL A   1      38.069  31.570  29.013  1.00  0.00    -0.206 F 
ATOM     67  C   UNL A   1      36.770  31.734  32.390  1.00  0.00     0.006 A 
ENDBRANCH  46  60
BRANCH  47  68
ATOM     68  C   UNL A   1      46.870  27.131  26.122  1.00  0.00     0.057 A 
ATOM     69  C   UNL A   1      47.866  26.396  26.773  1.00  0.00     0.134 A 
ATOM     70  C   UNL A   1      47.015  27.342  24.745  1.00  0.00     0.134 A 
ATOM     71  F   UNL A   1      47.795  26.186  28.095  1.00  0.00    -0.206 F 
ATOM     72  C   UNL A   1      48.965  25.887  26.081  1.00  0.00     0.040 A 
ATOM     73  C   UNL A   1      48.094  26.817  24.035  1.00  0.00     0.040 A 
ATOM     74  F   UNL A   1      46.091  28.040  24.067  1.00  0.00    -0.206 F 
ATOM     75  C   UNL A   1      49.075  26.089  24.705  1.00  0.00     0.006 A 
ENDBRANCH  47  68
BRANCH  59  76
ATOM     76  C   UNL A   1      45.468  33.238  29.121  1.00  0.00     0.057 A 
ATOM     77  C   UNL A   1      45.385  34.263  28.170  1.00  0.00     0.134 A 
ATOM     78  C   UNL A   1      46.306  33.441  30.223  1.00  0.00     0.134 A 
ATOM     79  F   UNL A   1      44.611  34.121  27.084  1.00  0.00    -0.206 F 
ATOM     80  C   UNL A   1      46.124  35.439  28.303  1.00  0.00     0.040 A 
ATOM     81  C   UNL A   1      47.037  34.620  30.376  1.00  0.00     0.040 A 
ATOM     82  F   UNL A   1      46.425  32.499  31.171  1.00  0.00    -0.206 F 
ATOM     83  C   UNL A   1      46.950  35.622  29.410  1.00  0.00     0.006 A 
ENDBRANCH  59  76
ENDBRANCH  33  34
ENDBRANCH  26  28
ENDBRANCH  25  26
ENDBRANCH  24  25
ENDBRANCH   1  24
TORSDOF 17
ENDMDL
MODEL 3
REMARK VINA RESULT:     -10.9      2.001      3.580
REMARK SMILES CC/C(=C/C(=O)[C@H](Cc1ccc(Cl)cc1Cl)C(=O)OCCOC(=O)c1ccc(-c2c3nc(c(-c4c(F)cccc4F)c4ccc([nH]4)c(-c4c(F)cccc4F)c4nc(c(-c5c(F)cccc5F)c5ccc2[nH]5)C=C4)C=C3)cc1)N(C)C
REMARK SMILES IDX 20 1 19 2 17 3 18 4 7 5 5 6 6 7 4 8 3 9 2 10 1 11 79 12
REMARK SMILES IDX 80 13 81 14 8 15 9 16 10 17 15 18 11 19 14 20 16 21 12 22
REMARK SMILES IDX 13 23 21 24 22 25 23 26 24 27 25 28 26 29 78 30 27 31 77 32
REMARK SMILES IDX 28 33 29 34 30 35 71 36 31 37 76 38 70 39 72 40 32 41 75 42
REMARK SMILES IDX 69 43 68 44 33 46 59 47 42 48 58 49 43 50 46 51 57 52 73 53
REMARK SMILES IDX 44 54 45 55 56 57 74 58 47 59 34 60 35 61 40 62 36 63 37 64
REMARK SMILES IDX 39 65 41 66 38 67 60 68 61 69 66 70 62 71 63 72 65 73 67 74
REMARK SMILES IDX 64 75 48 76 49 77 54 78 50 79 51 80 53 81 55 82 52 83
REMARK H PARENT 72 45 46 56
REMARK Flexibility Score: inf
ROOT
ATOM      1  C   UNL A   1      31.567  28.775  24.516  1.00  0.00     0.274 C 
ENDROOT
BRANCH   1   2
ATOM      2  O   UNL A   1      32.541  27.885  25.099  1.00  0.00    -0.461 OA
BRANCH   2   3
ATOM      3  C   UNL A   1      33.449  27.331  24.253  1.00  0.00     0.317 C 
ATOM      4  O   UNL A   1      34.204  27.981  23.537  1.00  0.00    -0.251 OA
BRANCH   3   5
ATOM      5  C   UNL A   1      33.562  25.823  24.390  1.00  0.00     0.175 C 
BRANCH   5   6
ATOM      6  C   UNL A   1      32.244  25.200  23.995  1.00  0.00     0.171 C 
ATOM      7  O   UNL A   1      31.705  25.567  22.941  1.00  0.00    -0.294 OA
BRANCH   6   8
ATOM      8  C   UNL A   1      31.578  24.059  24.710  1.00  0.00     0.069 C 
ATOM      9  C   UNL A   1      31.581  22.711  24.863  1.00  0.00     0.016 C 
BRANCH   9  10
ATOM     10  C   UNL A   1      30.599  22.220  25.953  1.00  0.00     0.050 C 
ATOM     11  C   UNL A   1      30.081  23.346  26.840  1.00  0.00     0.010 C 
ENDBRANCH   9  10
BRANCH   9  12
ATOM     12  N   UNL A   1      32.351  21.705  24.249  1.00  0.00    -0.381 N 
ATOM     13  C   UNL A   1      32.299  20.280  24.626  1.00  0.00     0.143 C 
ATOM     14  C   UNL A   1      33.089  21.886  23.018  1.00  0.00     0.143 C 
ENDBRANCH   9  12
ENDBRANCH   6   8
ENDBRANCH   5   6
BRANCH   5  15
ATOM     15  C   UNL A   1      33.983  25.305  25.789  1.00  0.00     0.060 C 
BRANCH  15  16
ATOM     16  C   UNL A   1      34.927  24.121  25.649  1.00  0.00    -0.028 A 
ATOM     17  C   UNL A   1      35.854  24.139  24.590  1.00  0.00     0.007 A 
ATOM     18  C   UNL A   1      34.830  22.962  26.440  1.00  0.00     0.045 A 
ATOM     19  C   UNL A   1      36.618  23.009  24.292  1.00  0.00     0.021 A 
ATOM     20  C   UNL A   1      35.592  21.829  26.137  1.00  0.00     0.041 A 
ATOM     21  Cl  UNL A   1      33.734  22.845  27.767  1.00  0.00    -0.084 Cl
ATOM     22  C   UNL A   1      36.467  21.854  25.054  1.00  0.00     0.042 A 
ATOM     23  Cl  UNL A   1      37.342  20.436  24.627  1.00  0.00    -0.084 Cl
ENDBRANCH  15  16
ENDBRANCH   5  15
ENDBRANCH   3   5
ENDBRANCH   2   3
ENDBRANCH   1   2
BRANCH   1  24
ATOM     24  C   UNL A   1      31.396  30.004  25.404  1.00  0.00     0.275 C 
BRANCH  24  25
ATOM     25  O   UNL A   1      32.250  29.890  26.558  1.00  0.00    -0.458 OA
BRANCH  25  26
ATOM     26  C   UNL A   1      32.787  31.050  27.003  1.00  0.00     0.338 C 
ATOM     27  O   UNL A   1      32.259  32.148  27.039  1.00  0.00    -0.246 OA
BRANCH  26  28
ATOM     28  C   UNL A   1      34.163  30.825  27.486  1.00  0.00     0.060 A 
ATOM     29  C   UNL A   1      34.649  29.535  27.674  1.00  0.00     0.016 A 
ATOM     30  C   UNL A   1      34.930  31.924  27.882  1.00  0.00     0.016 A 
ATOM     31  C   UNL A   1      35.864  29.346  28.346  1.00  0.00     0.010 A 
ATOM     32  C   UNL A   1      36.181  31.726  28.480  1.00  0.00     0.010 A 
ATOM     33  C   UNL A   1      36.647  30.433  28.768  1.00  0.00    -0.014 A 
BRANCH  33  34
ATOM     34  C   UNL A   1      37.912  30.238  29.547  1.00  0.00     0.031 A 
ATOM     35  C   UNL A   1      39.054  29.432  28.965  1.00  0.00     0.074 A 
ATOM     36  C   UNL A   1      38.072  30.769  30.776  1.00  0.00     0.049 A 
ATOM     37  N   UNL A   1      40.102  28.925  29.567  1.00  0.00    -0.248 NA
ATOM     38  C   UNL A   1      39.002  29.151  27.522  1.00  0.00     0.031 C 
ATOM     39  C   UNL A   1      37.109  31.620  31.473  1.00  0.00     0.029 A 
ATOM     40  N   UNL A   1      39.120  30.667  31.664  1.00  0.00    -0.354 N 
ATOM     41  C   UNL A   1      40.787  28.200  28.598  1.00  0.00     0.074 A 
ATOM     42  C   UNL A   1      40.048  28.350  27.362  1.00  0.00     0.031 C 
ATOM     43  C   UNL A   1      37.625  32.003  32.649  1.00  0.00     0.029 A 
ATOM     44  C   UNL A   1      38.908  31.337  32.844  1.00  0.00     0.049 A 
ATOM     45  H   UNL A   1      39.943  30.162  31.471  1.00  0.00     0.167 HD
ATOM     46  C   UNL A   1      41.921  27.468  28.727  1.00  0.00     0.037 A 
ATOM     47  C   UNL A   1      39.625  31.375  33.983  1.00  0.00     0.037 A 
ATOM     48  C   UNL A   1      42.711  27.381  29.928  1.00  0.00     0.049 A 
ATOM     49  C   UNL A   1      40.871  30.550  34.112  1.00  0.00     0.074 A 
ATOM     50  C   UNL A   1      43.878  26.665  30.145  1.00  0.00     0.029 A 
ATOM     51  N   UNL A   1      42.437  28.057  31.104  1.00  0.00    -0.354 N 
ATOM     52  N   UNL A   1      41.441  29.772  33.226  1.00  0.00    -0.248 NA
ATOM     53  C   UNL A   1      41.554  30.580  35.414  1.00  0.00     0.031 C 
ATOM     54  C   UNL A   1      44.300  26.896  31.459  1.00  0.00     0.029 A 
ATOM     55  C   UNL A   1      43.412  27.777  32.049  1.00  0.00     0.049 A 
ATOM     56  H   UNL A   1      41.664  28.649  31.249  1.00  0.00     0.167 HD
ATOM     57  C   UNL A   1      42.546  29.220  33.861  1.00  0.00     0.074 A 
ATOM     58  C   UNL A   1      42.582  29.770  35.200  1.00  0.00     0.031 C 
ATOM     59  C   UNL A   1      43.443  28.327  33.377  1.00  0.00     0.037 A 
BRANCH  46  60
ATOM     60  C   UNL A   1      42.370  26.662  27.543  1.00  0.00     0.057 A 
ATOM     61  C   UNL A   1      41.945  25.346  27.331  1.00  0.00     0.134 A 
ATOM     62  C   UNL A   1      43.188  27.245  26.565  1.00  0.00     0.134 A 
ATOM     63  F   UNL A   1      41.170  24.729  28.235  1.00  0.00    -0.206 F 
ATOM     64  C   UNL A   1      42.329  24.632  26.193  1.00  0.00     0.040 A 
ATOM     65  C   UNL A   1      43.559  26.550  25.413  1.00  0.00     0.040 A 
ATOM     66  F   UNL A   1      43.621  28.508  26.703  1.00  0.00    -0.206 F 
ATOM     67  C   UNL A   1      43.130  25.238  25.226  1.00  0.00     0.006 A 
ENDBRANCH  46  60
BRANCH  47  68
ATOM     68  C   UNL A   1      39.141  32.189  35.126  1.00  0.00     0.057 A 
ATOM     69  C   UNL A   1      39.464  33.545  35.232  1.00  0.00     0.134 A 
ATOM     70  C   UNL A   1      38.334  31.634  36.126  1.00  0.00     0.134 A 
ATOM     71  F   UNL A   1      40.257  34.124  34.319  1.00  0.00    -0.206 F 
ATOM     72  C   UNL A   1      38.999  34.324  36.292  1.00  0.00     0.040 A 
ATOM     73  C   UNL A   1      37.840  32.406  37.177  1.00  0.00     0.040 A 
ATOM     74  F   UNL A   1      37.992  30.338  36.078  1.00  0.00    -0.206 F 
ATOM     75  C   UNL A   1      38.176  33.755  37.264  1.00  0.00     0.006 A 
ENDBRANCH  47  68
BRANCH  59  76
ATOM     76  C   UNL A   1      44.550  27.909  34.295  1.00  0.00     0.057 A 
ATOM     77  C   UNL A   1      44.435  26.779  35.115  1.00  0.00     0.134 A 
ATOM     78  C   UNL A   1      45.749  28.629  34.345  1.00  0.00     0.134 A 
ATOM     79  F   UNL A   1      43.305  26.057  35.121  1.00  0.00    -0.206 F 
ATOM     80  C   UNL A   1      45.470  26.391  35.967  1.00  0.00     0.040 A 
ATOM     81  C   UNL A   1      46.797  28.241  35.181  1.00  0.00     0.040 A 
ATOM     82  F   UNL A   1      45.922  29.718  33.581  1.00  0.00    -0.206 F 
ATOM     83  C   UNL A   1      46.657  27.120  35.999  1.00  0.00     0.006 A 
ENDBRANCH  59  76
ENDBRANCH  33  34
ENDBRANCH  26  28
ENDBRANCH  25  26
ENDBRANCH  24  25
ENDBRANCH   1  24
TORSDOF 17
ENDMDL
