MODEL 1
REMARK VINA RESULT:     -11.1      0.000      0.000
REMARK SMILES CCC(CC)(Nc1cc2ccccc2c(=O)[nH]1)C(=O)OCCOC(=O)c1ccc(-c2c3nc(c(-c4c(F)cccc4F)c4ccc([nH]4)c(-c4c(F)cccc4F)c4nc(c(-c5c(F)cccc5F)c5ccc2[nH]5)C=C4)C=C3)cc1
REMARK SMILES IDX 21 1 20 2 18 3 19 4 3 5 2 6 1 7 4 8 5 9 6 10 7 12 8 13 17 14
REMARK SMILES IDX 9 15 15 16 10 18 14 19 16 20 11 21 13 22 12 23 22 24 23 25
REMARK SMILES IDX 24 26 25 27 26 28 27 29 79 30 28 31 78 32 29 33 30 34 31 35
REMARK SMILES IDX 72 36 32 37 77 38 71 39 73 40 33 41 76 42 70 43 69 44 34 46
REMARK SMILES IDX 60 47 43 48 59 49 44 50 47 51 58 52 74 53 45 54 46 55 57 57
REMARK SMILES IDX 75 58 48 59 35 60 36 61 41 62 37 63 38 64 40 65 42 66 39 67
REMARK SMILES IDX 61 68 62 69 67 70 63 71 64 72 66 73 68 74 65 75 49 76 50 77
REMARK SMILES IDX 55 78 51 79 52 80 54 81 56 82 53 83
REMARK H PARENT 6 11 17 17 73 45 47 56
REMARK Flexibility Score: inf
ROOT
ATOM      1  C   UNL A   1      34.685  21.234  24.892  1.00  0.00     0.274 C 
ENDROOT
BRANCH   1   2
ATOM      2  O   UNL A   1      34.791  22.676  24.808  1.00  0.00    -0.460 OA
BRANCH   2   3
ATOM      3  C   UNL A   1      34.620  23.251  23.590  1.00  0.00     0.331 C 
ATOM      4  O   UNL A   1      35.439  23.116  22.686  1.00  0.00    -0.249 OA
BRANCH   3   5
ATOM      5  C   UNL A   1      33.357  24.180  23.496  1.00  0.00     0.136 C 
BRANCH   5   6
ATOM      6  C   UNL A   1      32.102  23.330  23.073  1.00  0.00     0.037 C 
ATOM      7  C   UNL A   1      32.319  21.930  22.509  1.00  0.00     0.007 C 
ENDBRANCH   5   6
BRANCH   5   8
ATOM      8  C   UNL A   1      33.698  25.273  22.457  1.00  0.00     0.037 C 
ATOM      9  C   UNL A   1      32.569  25.653  21.503  1.00  0.00     0.007 C 
ENDBRANCH   5   8
BRANCH   5  10
ATOM     10  N   UNL A   1      32.908  24.835  24.767  1.00  0.00    -0.356 N 
ATOM     11  H   UNL A   1      32.632  24.189  25.457  1.00  0.00     0.163 HD
BRANCH  10  12
ATOM     12  C   UNL A   1      32.796  26.145  25.181  1.00  0.00     0.107 A 
ATOM     13  C   UNL A   1      33.713  26.679  26.011  1.00  0.00     0.053 A 
ATOM     14  N   UNL A   1      31.751  26.933  24.799  1.00  0.00    -0.308 N 
ATOM     15  C   UNL A   1      33.655  28.092  26.402  1.00  0.00    -0.009 A 
ATOM     16  C   UNL A   1      31.578  28.268  25.077  1.00  0.00     0.257 A 
ATOM     17  H   UNL A   1      31.044  26.501  24.268  1.00  0.00     0.171 HD
ATOM     18  C   UNL A   1      34.643  28.671  27.206  1.00  0.00     0.009 A 
ATOM     19  C   UNL A   1      32.615  28.897  25.922  1.00  0.00     0.047 A 
ATOM     20  O   UNL A   1      30.637  28.909  24.621  1.00  0.00    -0.269 OA
ATOM     21  C   UNL A   1      34.593  30.037  27.506  1.00  0.00     0.001 A 
ATOM     22  C   UNL A   1      32.564  30.263  26.215  1.00  0.00     0.014 A 
ATOM     23  C   UNL A   1      33.560  30.832  27.006  1.00  0.00     0.001 A 
ENDBRANCH  10  12
ENDBRANCH   5  10
ENDBRANCH   3   5
ENDBRANCH   2   3
ENDBRANCH   1   2
BRANCH   1  24
ATOM     24  C   UNL A   1      36.077  20.598  24.990  1.00  0.00     0.275 C 
BRANCH  24  25
ATOM     25  O   UNL A   1      36.924  21.476  25.748  1.00  0.00    -0.458 OA
BRANCH  25  26
ATOM     26  C   UNL A   1      38.257  21.241  25.705  1.00  0.00     0.338 C 
ATOM     27  O   UNL A   1      38.820  20.246  25.292  1.00  0.00    -0.246 OA
BRANCH  26  28
ATOM     28  C   UNL A   1      38.947  22.420  26.281  1.00  0.00     0.060 A 
ATOM     29  C   UNL A   1      40.093  22.244  27.055  1.00  0.00     0.016 A 
ATOM     30  C   UNL A   1      38.462  23.709  26.063  1.00  0.00     0.016 A 
ATOM     31  C   UNL A   1      40.753  23.326  27.627  1.00  0.00     0.010 A 
ATOM     32  C   UNL A   1      39.177  24.808  26.560  1.00  0.00     0.010 A 
ATOM     33  C   UNL A   1      40.338  24.627  27.337  1.00  0.00    -0.014 A 
BRANCH  33  34
ATOM     34  C   UNL A   1      41.142  25.789  27.802  1.00  0.00     0.031 A 
ATOM     35  C   UNL A   1      40.501  26.872  28.617  1.00  0.00     0.074 A 
ATOM     36  C   UNL A   1      42.447  25.883  27.470  1.00  0.00     0.049 A 
ATOM     37  N   UNL A   1      40.951  28.068  28.902  1.00  0.00    -0.248 NA
ATOM     38  C   UNL A   1      39.175  26.576  29.185  1.00  0.00     0.031 C 
ATOM     39  C   UNL A   1      43.216  24.873  26.738  1.00  0.00     0.029 A 
ATOM     40  N   UNL A   1      43.357  26.888  27.693  1.00  0.00    -0.354 N 
ATOM     41  C   UNL A   1      39.946  28.686  29.632  1.00  0.00     0.074 A 
ATOM     42  C   UNL A   1      38.866  27.730  29.763  1.00  0.00     0.031 C 
ATOM     43  C   UNL A   1      44.474  25.306  26.576  1.00  0.00     0.029 A 
ATOM     44  C   UNL A   1      44.577  26.660  27.101  1.00  0.00     0.049 A 
ATOM     45  H   UNL A   1      43.154  27.693  28.223  1.00  0.00     0.167 HD
ATOM     46  C   UNL A   1      39.927  29.943  30.133  1.00  0.00     0.037 A 
ATOM     47  C   UNL A   1      45.638  27.473  26.931  1.00  0.00     0.037 A 
ATOM     48  C   UNL A   1      41.022  30.871  30.036  1.00  0.00     0.049 A 
ATOM     49  C   UNL A   1      45.560  28.888  27.429  1.00  0.00     0.074 A 
ATOM     50  C   UNL A   1      41.111  32.157  30.543  1.00  0.00     0.029 A 
ATOM     51  N   UNL A   1      42.222  30.612  29.393  1.00  0.00    -0.354 N 
ATOM     52  N   UNL A   1      44.591  29.480  28.083  1.00  0.00    -0.248 NA
ATOM     53  C   UNL A   1      46.710  29.756  27.137  1.00  0.00     0.031 C 
ATOM     54  C   UNL A   1      42.348  32.690  30.169  1.00  0.00     0.029 A 
ATOM     55  C   UNL A   1      43.044  31.723  29.462  1.00  0.00     0.049 A 
ATOM     56  H   UNL A   1      42.455  29.763  28.950  1.00  0.00     0.167 HD
ATOM     57  C   UNL A   1      45.012  30.788  28.280  1.00  0.00     0.074 A 
ATOM     58  C   UNL A   1      46.335  30.896  27.703  1.00  0.00     0.031 C 
ATOM     59  C   UNL A   1      44.357  31.812  28.877  1.00  0.00     0.037 A 
BRANCH  46  60
ATOM     60  C   UNL A   1      38.669  30.414  30.797  1.00  0.00     0.057 A 
ATOM     61  C   UNL A   1      37.619  30.995  30.080  1.00  0.00     0.134 A 
ATOM     62  C   UNL A   1      38.484  30.213  32.172  1.00  0.00     0.134 A 
ATOM     63  F   UNL A   1      37.738  31.225  28.765  1.00  0.00    -0.206 F 
ATOM     64  C   UNL A   1      36.426  31.364  30.708  1.00  0.00     0.040 A 
ATOM     65  C   UNL A   1      37.293  30.560  32.808  1.00  0.00     0.040 A 
ATOM     66  F   UNL A   1      39.455  29.658  32.915  1.00  0.00    -0.206 F 
ATOM     67  C   UNL A   1      36.258  31.139  32.074  1.00  0.00     0.006 A 
ENDBRANCH  46  60
BRANCH  47  68
ATOM     68  C   UNL A   1      46.822  27.005  26.167  1.00  0.00     0.057 A 
ATOM     69  C   UNL A   1      47.880  26.342  26.798  1.00  0.00     0.134 A 
ATOM     70  C   UNL A   1      46.935  27.231  24.789  1.00  0.00     0.134 A 
ATOM     71  F   UNL A   1      47.846  26.121  28.121  1.00  0.00    -0.206 F 
ATOM     72  C   UNL A   1      49.012  25.932  26.090  1.00  0.00     0.040 A 
ATOM     73  C   UNL A   1      48.045  26.801  24.062  1.00  0.00     0.040 A 
ATOM     74  F   UNL A   1      45.957  27.865  24.124  1.00  0.00    -0.206 F 
ATOM     75  C   UNL A   1      49.093  26.156  24.716  1.00  0.00     0.006 A 
ENDBRANCH  47  68
BRANCH  59  76
ATOM     76  C   UNL A   1      45.066  33.129  28.940  1.00  0.00     0.057 A 
ATOM     77  C   UNL A   1      45.956  33.432  29.978  1.00  0.00     0.134 A 
ATOM     78  C   UNL A   1      44.883  34.089  27.937  1.00  0.00     0.134 A 
ATOM     79  F   UNL A   1      46.159  32.558  30.975  1.00  0.00    -0.206 F 
ATOM     80  C   UNL A   1      46.629  34.653  30.025  1.00  0.00     0.040 A 
ATOM     81  C   UNL A   1      45.569  35.305  27.962  1.00  0.00     0.040 A 
ATOM     82  F   UNL A   1      44.048  33.857  26.915  1.00  0.00    -0.206 F 
ATOM     83  C   UNL A   1      46.441  35.590  29.011  1.00  0.00     0.006 A 
ENDBRANCH  59  76
ENDBRANCH  33  34
ENDBRANCH  26  28
ENDBRANCH  25  26
ENDBRANCH  24  25
ENDBRANCH   1  24
TORSDOF 15
ENDMDL
MODEL 2
REMARK VINA RESULT:     -11.0      2.159      7.023
REMARK SMILES CCC(CC)(Nc1cc2ccccc2c(=O)[nH]1)C(=O)OCCOC(=O)c1ccc(-c2c3nc(c(-c4c(F)cccc4F)c4ccc([nH]4)c(-c4c(F)cccc4F)c4nc(c(-c5c(F)cccc5F)c5ccc2[nH]5)C=C4)C=C3)cc1
REMARK SMILES IDX 21 1 20 2 18 3 19 4 3 5 2 6 1 7 4 8 5 9 6 10 7 12 8 13 17 14
REMARK SMILES IDX 9 15 15 16 10 18 14 19 16 20 11 21 13 22 12 23 22 24 23 25
REMARK SMILES IDX 24 26 25 27 26 28 27 29 79 30 28 31 78 32 29 33 30 34 31 35
REMARK SMILES IDX 72 36 32 37 77 38 71 39 73 40 33 41 76 42 70 43 69 44 34 46
REMARK SMILES IDX 60 47 43 48 59 49 44 50 47 51 58 52 74 53 45 54 46 55 57 57
REMARK SMILES IDX 75 58 48 59 35 60 36 61 41 62 37 63 38 64 40 65 42 66 39 67
REMARK SMILES IDX 61 68 62 69 67 70 63 71 64 72 66 73 68 74 65 75 49 76 50 77
REMARK SMILES IDX 55 78 51 79 52 80 54 81 56 82 53 83
REMARK H PARENT 6 11 17 17 73 45 47 56
REMARK Flexibility Score: inf
ROOT
ATOM      1  C   UNL A   1      32.326  29.357  26.882  1.00  0.00     0.274 C 
ENDROOT
BRANCH   1   2
ATOM      2  O   UNL A   1      32.995  28.091  26.669  1.00  0.00    -0.460 OA
BRANCH   2   3
ATOM      3  C   UNL A   1      33.273  27.731  25.390  1.00  0.00     0.331 C 
ATOM      4  O   UNL A   1      33.927  28.448  24.640  1.00  0.00    -0.249 OA
BRANCH   3   5
ATOM      5  C   UNL A   1      32.589  26.389  24.943  1.00  0.00     0.136 C 
BRANCH   5   6
ATOM      6  C   UNL A   1      32.995  26.054  23.460  1.00  0.00     0.037 C 
ATOM      7  C   UNL A   1      31.976  25.368  22.556  1.00  0.00     0.007 C 
ENDBRANCH   5   6
BRANCH   5   8
ATOM      8  C   UNL A   1      31.065  26.607  25.096  1.00  0.00     0.037 C 
ATOM      9  C   UNL A   1      30.332  25.574  25.947  1.00  0.00     0.007 C 
ENDBRANCH   5   8
BRANCH   5  10
ATOM     10  N   UNL A   1      32.985  25.151  25.689  1.00  0.00    -0.356 N 
ATOM     11  H   UNL A   1      32.428  24.985  26.484  1.00  0.00     0.163 HD
BRANCH  10  12
ATOM     12  C   UNL A   1      33.961  24.195  25.505  1.00  0.00     0.107 A 
ATOM     13  C   UNL A   1      35.254  24.483  25.752  1.00  0.00     0.053 A 
ATOM     14  N   UNL A   1      33.666  22.947  25.041  1.00  0.00    -0.308 N 
ATOM     15  C   UNL A   1      36.297  23.458  25.636  1.00  0.00    -0.009 A 
ATOM     16  C   UNL A   1      34.535  21.892  24.899  1.00  0.00     0.257 A 
ATOM     17  H   UNL A   1      32.731  22.783  24.780  1.00  0.00     0.171 HD
ATOM     18  C   UNL A   1      37.631  23.731  25.959  1.00  0.00     0.009 A 
ATOM     19  C   UNL A   1      35.949  22.162  25.240  1.00  0.00     0.047 A 
ATOM     20  O   UNL A   1      34.155  20.782  24.543  1.00  0.00    -0.269 OA
ATOM     21  C   UNL A   1      38.590  22.713  25.901  1.00  0.00     0.001 A 
ATOM     22  C   UNL A   1      36.902  21.141  25.185  1.00  0.00     0.014 A 
ATOM     23  C   UNL A   1      38.225  21.420  25.521  1.00  0.00     0.001 A 
ENDBRANCH  10  12
ENDBRANCH   5  10
ENDBRANCH   3   5
ENDBRANCH   2   3
ENDBRANCH   1   2
BRANCH   1  24
ATOM     24  C   UNL A   1      33.341  30.445  27.255  1.00  0.00     0.275 C 
BRANCH  24  25
ATOM     25  O   UNL A   1      34.452  29.820  27.917  1.00  0.00    -0.458 OA
BRANCH  25  26
ATOM     26  C   UNL A   1      35.243  30.612  28.680  1.00  0.00     0.338 C 
ATOM     27  O   UNL A   1      34.938  31.651  29.231  1.00  0.00    -0.246 OA
BRANCH  26  28
ATOM     28  C   UNL A   1      36.594  30.003  28.722  1.00  0.00     0.060 A 
ATOM     29  C   UNL A   1      37.385  29.987  27.574  1.00  0.00     0.016 A 
ATOM     30  C   UNL A   1      37.087  29.438  29.896  1.00  0.00     0.016 A 
ATOM     31  C   UNL A   1      38.648  29.407  27.573  1.00  0.00     0.010 A 
ATOM     32  C   UNL A   1      38.396  28.935  29.925  1.00  0.00     0.010 A 
ATOM     33  C   UNL A   1      39.194  28.926  28.765  1.00  0.00    -0.014 A 
BRANCH  33  34
ATOM     34  C   UNL A   1      40.607  28.465  28.806  1.00  0.00     0.031 A 
ATOM     35  C   UNL A   1      41.711  29.440  29.090  1.00  0.00     0.074 A 
ATOM     36  C   UNL A   1      40.902  27.170  28.562  1.00  0.00     0.049 A 
ATOM     37  N   UNL A   1      43.002  29.297  28.926  1.00  0.00    -0.248 NA
ATOM     38  C   UNL A   1      41.313  30.751  29.627  1.00  0.00     0.031 C 
ATOM     39  C   UNL A   1      39.926  26.101  28.334  1.00  0.00     0.029 A 
ATOM     40  N   UNL A   1      42.116  26.535  28.448  1.00  0.00    -0.354 N 
ATOM     41  C   UNL A   1      43.564  30.514  29.284  1.00  0.00     0.074 A 
ATOM     42  C   UNL A   1      42.479  31.381  29.692  1.00  0.00     0.031 C 
ATOM     43  C   UNL A   1      40.575  24.949  28.113  1.00  0.00     0.029 A 
ATOM     44  C   UNL A   1      42.008  25.213  28.083  1.00  0.00     0.049 A 
ATOM     45  H   UNL A   1      42.978  26.983  28.611  1.00  0.00     0.167 HD
ATOM     46  C   UNL A   1      44.869  30.872  29.260  1.00  0.00     0.037 A 
ATOM     47  C   UNL A   1      42.945  24.329  27.693  1.00  0.00     0.037 A 
ATOM     48  C   UNL A   1      45.946  29.990  28.896  1.00  0.00     0.049 A 
ATOM     49  C   UNL A   1      44.376  24.776  27.601  1.00  0.00     0.074 A 
ATOM     50  C   UNL A   1      47.306  30.251  28.874  1.00  0.00     0.029 A 
ATOM     51  N   UNL A   1      45.786  28.673  28.494  1.00  0.00    -0.354 N 
ATOM     52  N   UNL A   1      44.898  25.939  27.902  1.00  0.00    -0.248 NA
ATOM     53  C   UNL A   1      45.344  23.797  27.084  1.00  0.00     0.031 C 
ATOM     54  C   UNL A   1      47.964  29.105  28.417  1.00  0.00     0.029 A 
ATOM     55  C   UNL A   1      47.018  28.119  28.191  1.00  0.00     0.049 A 
ATOM     56  H   UNL A   1      44.923  28.202  28.431  1.00  0.00     0.167 HD
ATOM     57  C   UNL A   1      46.251  25.834  27.612  1.00  0.00     0.074 A 
ATOM     58  C   UNL A   1      46.476  24.485  27.138  1.00  0.00     0.031 C 
ATOM     59  C   UNL A   1      47.220  26.775  27.717  1.00  0.00     0.037 A 
BRANCH  46  60
ATOM     60  C   UNL A   1      45.212  32.291  29.595  1.00  0.00     0.057 A 
ATOM     61  C   UNL A   1      45.584  32.685  30.885  1.00  0.00     0.134 A 
ATOM     62  C   UNL A   1      45.238  33.265  28.587  1.00  0.00     0.134 A 
ATOM     63  F   UNL A   1      45.568  31.804  31.896  1.00  0.00    -0.206 F 
ATOM     64  C   UNL A   1      45.967  34.000  31.162  1.00  0.00     0.040 A 
ATOM     65  C   UNL A   1      45.635  34.576  28.847  1.00  0.00     0.040 A 
ATOM     66  F   UNL A   1      44.894  32.949  27.329  1.00  0.00    -0.206 F 
ATOM     67  C   UNL A   1      46.001  34.947  30.139  1.00  0.00     0.006 A 
ENDBRANCH  46  60
BRANCH  47  68
ATOM     68  C   UNL A   1      42.551  22.964  27.259  1.00  0.00     0.057 A 
ATOM     69  C   UNL A   1      42.467  22.627  25.904  1.00  0.00     0.134 A 
ATOM     70  C   UNL A   1      42.224  21.971  28.191  1.00  0.00     0.134 A 
ATOM     71  F   UNL A   1      42.739  23.543  24.962  1.00  0.00    -0.206 F 
ATOM     72  C   UNL A   1      42.062  21.356  25.491  1.00  0.00     0.040 A 
ATOM     73  C   UNL A   1      41.847  20.688  27.795  1.00  0.00     0.040 A 
ATOM     74  F   UNL A   1      42.280  22.231  29.506  1.00  0.00    -0.206 F 
ATOM     75  C   UNL A   1      41.756  20.380  26.439  1.00  0.00     0.006 A 
ENDBRANCH  47  68
BRANCH  59  76
ATOM     76  C   UNL A   1      48.606  26.370  27.321  1.00  0.00     0.057 A 
ATOM     77  C   UNL A   1      49.464  25.723  28.220  1.00  0.00     0.134 A 
ATOM     78  C   UNL A   1      49.076  26.601  26.023  1.00  0.00     0.134 A 
ATOM     79  F   UNL A   1      49.076  25.491  29.483  1.00  0.00    -0.206 F 
ATOM     80  C   UNL A   1      50.749  25.332  27.843  1.00  0.00     0.040 A 
ATOM     81  C   UNL A   1      50.351  26.193  25.628  1.00  0.00     0.040 A 
ATOM     82  F   UNL A   1      48.300  27.212  25.116  1.00  0.00    -0.206 F 
ATOM     83  C   UNL A   1      51.192  25.561  26.542  1.00  0.00     0.006 A 
ENDBRANCH  59  76
ENDBRANCH  33  34
ENDBRANCH  26  28
ENDBRANCH  25  26
ENDBRANCH  24  25
ENDBRANCH   1  24
TORSDOF 15
ENDMDL
MODEL 3
REMARK VINA RESULT:     -11.0      3.670      8.931
REMARK SMILES CCC(CC)(Nc1cc2ccccc2c(=O)[nH]1)C(=O)OCCOC(=O)c1ccc(-c2c3nc(c(-c4c(F)cccc4F)c4ccc([nH]4)c(-c4c(F)cccc4F)c4nc(c(-c5c(F)cccc5F)c5ccc2[nH]5)C=C4)C=C3)cc1
REMARK SMILES IDX 21 1 20 2 18 3 19 4 3 5 2 6 1 7 4 8 5 9 6 10 7 12 8 13 17 14
REMARK SMILES IDX 9 15 15 16 10 18 14 19 16 20 11 21 13 22 12 23 22 24 23 25
REMARK SMILES IDX 24 26 25 27 26 28 27 29 79 30 28 31 78 32 29 33 30 34 31 35
REMARK SMILES IDX 72 36 32 37 77 38 71 39 73 40 33 41 76 42 70 43 69 44 34 46
REMARK SMILES IDX 60 47 43 48 59 49 44 50 47 51 58 52 74 53 45 54 46 55 57 57
REMARK SMILES IDX 75 58 48 59 35 60 36 61 41 62 37 63 38 64 40 65 42 66 39 67
REMARK SMILES IDX 61 68 62 69 67 70 63 71 64 72 66 73 68 74 65 75 49 76 50 77
REMARK SMILES IDX 55 78 51 79 52 80 54 81 56 82 53 83
REMARK H PARENT 6 11 17 17 73 45 47 56
REMARK Flexibility Score: inf
ROOT
ATOM      1  C   UNL A   1      31.570  28.486  26.569  1.00  0.00     0.274 C 
ENDROOT
BRANCH   1   2
ATOM      2  O   UNL A   1      32.411  27.494  25.933  1.00  0.00    -0.460 OA
BRANCH   2   3
ATOM      3  C   UNL A   1      31.920  26.234  25.811  1.00  0.00     0.331 C 
ATOM      4  O   UNL A   1      31.687  25.530  26.788  1.00  0.00    -0.249 OA
BRANCH   3   5
ATOM      5  C   UNL A   1      31.794  25.741  24.325  1.00  0.00     0.136 C 
BRANCH   5   6
ATOM      6  C   UNL A   1      32.262  26.881  23.346  1.00  0.00     0.037 C 
ATOM      7  C   UNL A   1      33.421  26.604  22.396  1.00  0.00     0.007 C 
ENDBRANCH   5   6
BRANCH   5   8
ATOM      8  C   UNL A   1      30.309  25.365  24.116  1.00  0.00     0.037 C 
ATOM      9  C   UNL A   1      29.347  26.538  23.950  1.00  0.00     0.007 C 
ENDBRANCH   5   8
BRANCH   5  10
ATOM     10  N   UNL A   1      32.655  24.580  23.927  1.00  0.00    -0.356 N 
ATOM     11  H   UNL A   1      33.363  24.826  23.289  1.00  0.00     0.163 HD
BRANCH  10  12
ATOM     12  C   UNL A   1      32.670  23.242  24.259  1.00  0.00     0.107 A 
ATOM     13  C   UNL A   1      32.354  22.308  23.340  1.00  0.00     0.053 A 
ATOM     14  N   UNL A   1      32.969  22.817  25.519  1.00  0.00    -0.308 N 
ATOM     15  C   UNL A   1      32.437  20.876  23.651  1.00  0.00    -0.009 A 
ATOM     16  C   UNL A   1      33.097  21.516  25.944  1.00  0.00     0.257 A 
ATOM     17  H   UNL A   1      33.108  23.516  26.198  1.00  0.00     0.171 HD
ATOM     18  C   UNL A   1      32.179  19.900  22.683  1.00  0.00     0.009 A 
ATOM     19  C   UNL A   1      32.831  20.472  24.932  1.00  0.00     0.047 A 
ATOM     20  O   UNL A   1      33.445  21.238  27.086  1.00  0.00    -0.269 OA
ATOM     21  C   UNL A   1      32.332  18.545  22.994  1.00  0.00     0.001 A 
ATOM     22  C   UNL A   1      32.991  19.118  25.245  1.00  0.00     0.014 A 
ATOM     23  C   UNL A   1      32.743  18.155  24.270  1.00  0.00     0.001 A 
ENDBRANCH  10  12
ENDBRANCH   5  10
ENDBRANCH   3   5
ENDBRANCH   2   3
ENDBRANCH   1   2
BRANCH   1  24
ATOM     24  C   UNL A   1      31.716  29.843  25.870  1.00  0.00     0.275 C 
BRANCH  24  25
ATOM     25  O   UNL A   1      33.071  30.291  26.028  1.00  0.00    -0.458 OA
BRANCH  25  26
ATOM     26  C   UNL A   1      33.302  31.249  26.956  1.00  0.00     0.338 C 
ATOM     27  O   UNL A   1      32.589  32.193  27.239  1.00  0.00    -0.246 OA
BRANCH  26  28
ATOM     28  C   UNL A   1      34.618  30.973  27.580  1.00  0.00     0.060 A 
ATOM     29  C   UNL A   1      35.485  32.026  27.869  1.00  0.00     0.016 A 
ATOM     30  C   UNL A   1      35.007  29.669  27.879  1.00  0.00     0.016 A 
ATOM     31  C   UNL A   1      36.734  31.801  28.435  1.00  0.00     0.010 A 
ATOM     32  C   UNL A   1      36.226  29.445  28.535  1.00  0.00     0.010 A 
ATOM     33  C   UNL A   1      37.097  30.512  28.831  1.00  0.00    -0.014 A 
BRANCH  33  34
ATOM     34  C   UNL A   1      38.354  30.291  29.593  1.00  0.00     0.031 A 
ATOM     35  C   UNL A   1      39.437  29.420  29.027  1.00  0.00     0.074 A 
ATOM     36  C   UNL A   1      38.514  30.853  30.810  1.00  0.00     0.049 A 
ATOM     37  N   UNL A   1      40.481  28.905  29.626  1.00  0.00    -0.248 NA
ATOM     38  C   UNL A   1      39.332  29.079  27.600  1.00  0.00     0.031 C 
ATOM     39  C   UNL A   1      37.573  31.773  31.455  1.00  0.00     0.029 A 
ATOM     40  N   UNL A   1      39.524  30.720  31.732  1.00  0.00    -0.354 N 
ATOM     41  C   UNL A   1      41.125  28.136  28.667  1.00  0.00     0.074 A 
ATOM     42  C   UNL A   1      40.366  28.263  27.440  1.00  0.00     0.031 C 
ATOM     43  C   UNL A   1      38.049  32.121  32.659  1.00  0.00     0.029 A 
ATOM     44  C   UNL A   1      39.274  31.376  32.915  1.00  0.00     0.049 A 
ATOM     45  H   UNL A   1      40.346  30.204  31.563  1.00  0.00     0.167 HD
ATOM     46  C   UNL A   1      42.241  27.384  28.809  1.00  0.00     0.037 A 
ATOM     47  C   UNL A   1      39.913  31.329  34.099  1.00  0.00     0.037 A 
ATOM     48  C   UNL A   1      43.013  27.299  30.020  1.00  0.00     0.049 A 
ATOM     49  C   UNL A   1      41.104  30.427  34.251  1.00  0.00     0.074 A 
ATOM     50  C   UNL A   1      44.180  26.590  30.251  1.00  0.00     0.029 A 
ATOM     51  N   UNL A   1      42.699  27.949  31.204  1.00  0.00    -0.354 N 
ATOM     52  N   UNL A   1      41.685  29.670  33.352  1.00  0.00    -0.248 NA
ATOM     53  C   UNL A   1      41.708  30.346  35.589  1.00  0.00     0.031 C 
ATOM     54  C   UNL A   1      44.548  26.777  31.587  1.00  0.00     0.029 A 
ATOM     55  C   UNL A   1      43.632  27.631  32.177  1.00  0.00     0.049 A 
ATOM     56  H   UNL A   1      41.927  28.546  31.333  1.00  0.00     0.167 HD
ATOM     57  C   UNL A   1      42.720  29.024  34.014  1.00  0.00     0.074 A 
ATOM     58  C   UNL A   1      42.707  29.499  35.381  1.00  0.00     0.031 C 
ATOM     59  C   UNL A   1      43.598  28.111  33.534  1.00  0.00     0.037 A 
BRANCH  46  60
ATOM     60  C   UNL A   1      42.679  26.555  27.641  1.00  0.00     0.057 A 
ATOM     61  C   UNL A   1      42.229  25.245  27.444  1.00  0.00     0.134 A 
ATOM     62  C   UNL A   1      43.513  27.109  26.660  1.00  0.00     0.134 A 
ATOM     63  F   UNL A   1      41.439  24.654  28.352  1.00  0.00    -0.206 F 
ATOM     64  C   UNL A   1      42.595  24.513  26.312  1.00  0.00     0.040 A 
ATOM     65  C   UNL A   1      43.872  26.395  25.517  1.00  0.00     0.040 A 
ATOM     66  F   UNL A   1      43.977  28.361  26.791  1.00  0.00    -0.206 F 
ATOM     67  C   UNL A   1      43.412  25.091  25.341  1.00  0.00     0.006 A 
ENDBRANCH  46  60
BRANCH  47  68
ATOM     68  C   UNL A   1      39.381  32.079  35.266  1.00  0.00     0.057 A 
ATOM     69  C   UNL A   1      38.461  31.499  36.146  1.00  0.00     0.134 A 
ATOM     70  C   UNL A   1      39.761  33.404  35.514  1.00  0.00     0.134 A 
ATOM     71  F   UNL A   1      38.035  30.243  35.946  1.00  0.00    -0.206 F 
ATOM     72  C   UNL A   1      37.931  32.212  37.223  1.00  0.00     0.040 A 
ATOM     73  C   UNL A   1      39.263  34.120  36.602  1.00  0.00     0.040 A 
ATOM     74  F   UNL A   1      40.636  34.020  34.705  1.00  0.00    -0.206 F 
ATOM     75  C   UNL A   1      38.337  33.525  37.457  1.00  0.00     0.006 A 
ENDBRANCH  47  68
BRANCH  59  76
ATOM     76  C   UNL A   1      44.615  27.576  34.493  1.00  0.00     0.057 A 
ATOM     77  C   UNL A   1      44.392  26.395  35.213  1.00  0.00     0.134 A 
ATOM     78  C   UNL A   1      45.840  28.229  34.676  1.00  0.00     0.134 A 
ATOM     79  F   UNL A   1      43.231  25.735  35.092  1.00  0.00    -0.206 F 
ATOM     80  C   UNL A   1      45.349  25.890  36.094  1.00  0.00     0.040 A 
ATOM     81  C   UNL A   1      46.813  27.721  35.538  1.00  0.00     0.040 A 
ATOM     82  F   UNL A   1      46.115  29.361  34.012  1.00  0.00    -0.206 F 
ATOM     83  C   UNL A   1      46.566  26.550  36.252  1.00  0.00     0.006 A 
ENDBRANCH  59  76
ENDBRANCH  33  34
ENDBRANCH  26  28
ENDBRANCH  25  26
ENDBRANCH  24  25
ENDBRANCH   1  24
TORSDOF 15
ENDMDL
