MODEL 1
REMARK VINA RESULT:      -9.5      0.000      0.000
REMARK SMILES C[C@H](SCC[NH3+])c1ccc(C(=O)OCCOC(=O)c2ccc(-c3c4nc(c(-c5c(F)cccc5F)c5ccc([nH]5)c(-c5c(F)cccc5F)c5nc(c(-c6c(F)cccc6F)c6ccc3[nH]6)C=C5)C=C4)cc2)o1
REMARK SMILES IDX 13 1 11 2 12 3 10 4 7 5 8 6 73 7 9 8 2 9 1 10 3 11 4 12 5 13
REMARK SMILES IDX 6 14 14 18 15 19 16 20 17 21 18 22 19 23 20 24 72 25 21 26
REMARK SMILES IDX 71 27 22 28 23 29 24 30 65 31 25 32 70 33 64 34 66 35 26 36
REMARK SMILES IDX 69 37 63 38 62 39 27 41 53 42 36 43 52 44 37 45 40 46 51 47
REMARK SMILES IDX 67 48 38 49 39 50 50 52 68 53 41 54 28 55 29 56 34 57 30 58
REMARK SMILES IDX 31 59 33 60 35 61 32 62 54 63 55 64 60 65 56 66 57 67 59 68
REMARK SMILES IDX 61 69 58 70 42 71 43 72 48 73 44 74 45 75 47 76 49 77 46 78
REMARK H PARENT 6 15 6 16 6 17 66 40 40 51
REMARK Flexibility Score: inf
ROOT
ATOM      1  O   UNL A   1      41.819  19.212  25.378  1.00  0.00    -0.456 OA
ENDROOT
BRANCH   1   2
ATOM      2  C   UNL A   1      42.983  18.641  25.813  1.00  0.00     0.374 C 
ATOM      3  O   UNL A   1      43.041  17.637  26.509  1.00  0.00    -0.242 OA
BRANCH   2   4
ATOM      4  C   UNL A   1      44.115  19.343  25.248  1.00  0.00     0.211 A 
ATOM      5  C   UNL A   1      45.110  21.126  24.397  1.00  0.00     0.117 A 
ATOM      6  C   UNL A   1      46.094  20.176  24.579  1.00  0.00     0.048 A 
ATOM      7  O   UNL A   1      43.902  20.606  24.758  1.00  0.00    -0.453 OA
ATOM      8  C   UNL A   1      45.459  19.038  25.137  1.00  0.00     0.058 A 
BRANCH   5   9
ATOM      9  C   UNL A   1      45.150  22.548  23.940  1.00  0.00     0.110 C 
ATOM     10  C   UNL A   1      46.491  23.193  24.299  1.00  0.00     0.028 C 
BRANCH   9  11
ATOM     11  S   UNL A   1      43.818  23.598  24.630  1.00  0.00    -0.145 SA
BRANCH  11  12
ATOM     12  C   UNL A   1      44.638  24.324  26.091  1.00  0.00     0.131 C 
BRANCH  12  13
ATOM     13  C   UNL A   1      44.198  23.739  27.441  1.00  0.00     0.269 C 
BRANCH  13  14
ATOM     14  N   UNL A   1      44.138  22.276  27.488  1.00  0.00    -0.357 N 
ATOM     15  H   UNL A   1      44.503  21.893  26.617  1.00  0.00     0.344 HD
ATOM     16  H   UNL A   1      43.169  21.981  27.610  1.00  0.00     0.344 HD
ATOM     17  H   UNL A   1      44.698  21.938  28.270  1.00  0.00     0.344 HD
ENDBRANCH  13  14
ENDBRANCH  12  13
ENDBRANCH  11  12
ENDBRANCH   9  11
ENDBRANCH   5   9
ENDBRANCH   2   4
ENDBRANCH   1   2
BRANCH   1  18
ATOM     18  C   UNL A   1      40.944  19.713  26.406  1.00  0.00     0.275 C 
BRANCH  18  19
ATOM     19  C   UNL A   1      40.947  21.246  26.444  1.00  0.00     0.275 C 
BRANCH  19  20
ATOM     20  O   UNL A   1      39.786  21.767  27.119  1.00  0.00    -0.458 OA
BRANCH  20  21
ATOM     21  C   UNL A   1      39.153  22.782  26.486  1.00  0.00     0.338 C 
ATOM     22  O   UNL A   1      38.171  22.706  25.768  1.00  0.00    -0.246 OA
BRANCH  21  23
ATOM     23  C   UNL A   1      39.749  24.067  26.891  1.00  0.00     0.060 A 
ATOM     24  C   UNL A   1      39.863  24.323  28.255  1.00  0.00     0.016 A 
ATOM     25  C   UNL A   1      40.105  25.043  25.959  1.00  0.00     0.016 A 
ATOM     26  C   UNL A   1      40.314  25.559  28.703  1.00  0.00     0.010 A 
ATOM     27  C   UNL A   1      40.567  26.287  26.411  1.00  0.00     0.010 A 
ATOM     28  C   UNL A   1      40.658  26.558  27.788  1.00  0.00    -0.014 A 
BRANCH  28  29
ATOM     29  C   UNL A   1      41.057  27.892  28.301  1.00  0.00     0.031 A 
ATOM     30  C   UNL A   1      42.500  28.307  28.281  1.00  0.00     0.074 A 
ATOM     31  C   UNL A   1      40.116  28.761  28.712  1.00  0.00     0.049 A 
ATOM     32  N   UNL A   1      43.051  29.411  28.721  1.00  0.00    -0.248 NA
ATOM     33  C   UNL A   1      43.451  27.358  27.684  1.00  0.00     0.031 C 
ATOM     34  C   UNL A   1      38.675  28.506  28.714  1.00  0.00     0.029 A 
ATOM     35  N   UNL A   1      40.230  30.042  29.192  1.00  0.00    -0.354 N 
ATOM     36  C   UNL A   1      44.412  29.278  28.479  1.00  0.00     0.074 A 
ATOM     37  C   UNL A   1      44.607  27.983  27.861  1.00  0.00     0.031 C 
ATOM     38  C   UNL A   1      38.038  29.604  29.150  1.00  0.00     0.029 A 
ATOM     39  C   UNL A   1      39.026  30.619  29.507  1.00  0.00     0.049 A 
ATOM     40  H   UNL A   1      41.094  30.503  29.298  1.00  0.00     0.167 HD
ATOM     41  C   UNL A   1      45.407  30.157  28.748  1.00  0.00     0.037 A 
ATOM     42  C   UNL A   1      38.748  31.821  30.043  1.00  0.00     0.037 A 
ATOM     43  C   UNL A   1      45.211  31.458  29.333  1.00  0.00     0.049 A 
ATOM     44  C   UNL A   1      39.873  32.756  30.381  1.00  0.00     0.074 A 
ATOM     45  C   UNL A   1      46.159  32.419  29.637  1.00  0.00     0.029 A 
ATOM     46  N   UNL A   1      43.979  31.981  29.696  1.00  0.00    -0.354 N 
ATOM     47  N   UNL A   1      41.160  32.603  30.186  1.00  0.00    -0.248 NA
ATOM     48  C   UNL A   1      39.508  34.025  31.029  1.00  0.00     0.031 C 
ATOM     49  C   UNL A   1      45.503  33.514  30.212  1.00  0.00     0.029 A 
ATOM     50  C   UNL A   1      44.144  33.246  30.238  1.00  0.00     0.049 A 
ATOM     51  H   UNL A   1      43.116  31.522  29.585  1.00  0.00     0.167 HD
ATOM     52  C   UNL A   1      41.758  33.755  30.677  1.00  0.00     0.074 A 
ATOM     53  C   UNL A   1      40.692  34.606  31.164  1.00  0.00     0.031 C 
ATOM     54  C   UNL A   1      43.073  34.076  30.723  1.00  0.00     0.037 A 
BRANCH  41  55
ATOM     55  C   UNL A   1      46.807  29.720  28.442  1.00  0.00     0.057 A 
ATOM     56  C   UNL A   1      47.410  29.974  27.204  1.00  0.00     0.134 A 
ATOM     57  C   UNL A   1      47.569  29.055  29.410  1.00  0.00     0.134 A 
ATOM     58  F   UNL A   1      46.726  30.593  26.230  1.00  0.00    -0.206 F 
ATOM     59  C   UNL A   1      48.717  29.563  26.933  1.00  0.00     0.040 A 
ATOM     60  C   UNL A   1      48.883  28.656  29.158  1.00  0.00     0.040 A 
ATOM     61  F   UNL A   1      47.050  28.786  30.618  1.00  0.00    -0.206 F 
ATOM     62  C   UNL A   1      49.458  28.906  27.913  1.00  0.00     0.006 A 
ENDBRANCH  41  55
BRANCH  42  63
ATOM     63  C   UNL A   1      37.340  32.197  30.317  1.00  0.00     0.057 A 
ATOM     64  C   UNL A   1      36.598  32.944  29.396  1.00  0.00     0.134 A 
ATOM     65  C   UNL A   1      36.702  31.810  31.502  1.00  0.00     0.134 A 
ATOM     66  F   UNL A   1      37.163  33.365  28.255  1.00  0.00    -0.206 F 
ATOM     67  C   UNL A   1      35.270  33.296  29.645  1.00  0.00     0.040 A 
ATOM     68  C   UNL A   1      35.371  32.137  31.755  1.00  0.00     0.040 A 
ATOM     69  F   UNL A   1      37.364  31.096  32.424  1.00  0.00    -0.206 F 
ATOM     70  C   UNL A   1      34.651  32.886  30.825  1.00  0.00     0.006 A 
ENDBRANCH  42  63
BRANCH  54  71
ATOM     71  C   UNL A   1      43.428  35.408  31.312  1.00  0.00     0.057 A 
ATOM     72  C   UNL A   1      43.599  36.541  30.509  1.00  0.00     0.134 A 
ATOM     73  C   UNL A   1      43.570  35.564  32.697  1.00  0.00     0.134 A 
ATOM     74  F   UNL A   1      43.489  36.452  29.175  1.00  0.00    -0.206 F 
ATOM     75  C   UNL A   1      43.916  37.783  31.061  1.00  0.00     0.040 A 
ATOM     76  C   UNL A   1      43.870  36.804  33.261  1.00  0.00     0.040 A 
ATOM     77  F   UNL A   1      43.414  34.516  33.519  1.00  0.00    -0.206 F 
ATOM     78  C   UNL A   1      44.047  37.917  32.443  1.00  0.00     0.006 A 
ENDBRANCH  54  71
ENDBRANCH  28  29
ENDBRANCH  21  23
ENDBRANCH  20  21
ENDBRANCH  19  20
ENDBRANCH  18  19
ENDBRANCH   1  18
TORSDOF 16
ENDMDL
MODEL 2
REMARK VINA RESULT:      -9.4      4.355      6.173
REMARK SMILES C[C@H](SCC[NH3+])c1ccc(C(=O)OCCOC(=O)c2ccc(-c3c4nc(c(-c5c(F)cccc5F)c5ccc([nH]5)c(-c5c(F)cccc5F)c5nc(c(-c6c(F)cccc6F)c6ccc3[nH]6)C=C5)C=C4)cc2)o1
REMARK SMILES IDX 13 1 11 2 12 3 10 4 7 5 8 6 73 7 9 8 2 9 1 10 3 11 4 12 5 13
REMARK SMILES IDX 6 14 14 18 15 19 16 20 17 21 18 22 19 23 20 24 72 25 21 26
REMARK SMILES IDX 71 27 22 28 23 29 24 30 65 31 25 32 70 33 64 34 66 35 26 36
REMARK SMILES IDX 69 37 63 38 62 39 27 41 53 42 36 43 52 44 37 45 40 46 51 47
REMARK SMILES IDX 67 48 38 49 39 50 50 52 68 53 41 54 28 55 29 56 34 57 30 58
REMARK SMILES IDX 31 59 33 60 35 61 32 62 54 63 55 64 60 65 56 66 57 67 59 68
REMARK SMILES IDX 61 69 58 70 42 71 43 72 48 73 44 74 45 75 47 76 49 77 46 78
REMARK H PARENT 6 15 6 16 6 17 66 40 40 51
REMARK Flexibility Score: inf
ROOT
ATOM      1  O   UNL A   1      41.710  21.642  26.381  1.00  0.00    -0.456 OA
ENDROOT
BRANCH   1   2
ATOM      2  C   UNL A   1      40.518  20.980  26.274  1.00  0.00     0.374 C 
ATOM      3  O   UNL A   1      40.391  19.768  26.373  1.00  0.00    -0.242 OA
BRANCH   2   4
ATOM      4  C   UNL A   1      39.439  21.932  26.123  1.00  0.00     0.211 A 
ATOM      5  C   UNL A   1      37.321  22.482  25.798  1.00  0.00     0.117 A 
ATOM      6  C   UNL A   1      37.987  23.648  26.113  1.00  0.00     0.048 A 
ATOM      7  O   UNL A   1      38.209  21.448  25.757  1.00  0.00    -0.453 OA
ATOM      8  C   UNL A   1      39.341  23.294  26.334  1.00  0.00     0.058 A 
BRANCH   5   9
ATOM      9  C   UNL A   1      35.879  22.176  25.551  1.00  0.00     0.110 C 
ATOM     10  C   UNL A   1      35.056  22.394  26.822  1.00  0.00     0.028 C 
BRANCH   9  11
ATOM     11  S   UNL A   1      35.562  20.472  24.960  1.00  0.00    -0.145 SA
BRANCH  11  12
ATOM     12  C   UNL A   1      33.742  20.377  25.067  1.00  0.00     0.131 C 
BRANCH  12  13
ATOM     13  C   UNL A   1      33.169  18.954  25.144  1.00  0.00     0.269 C 
BRANCH  13  14
ATOM     14  N   UNL A   1      32.903  18.470  26.501  1.00  0.00    -0.357 N 
ATOM     15  H   UNL A   1      33.460  17.635  26.679  1.00  0.00     0.344 HD
ATOM     16  H   UNL A   1      31.913  18.246  26.593  1.00  0.00     0.344 HD
ATOM     17  H   UNL A   1      33.152  19.195  27.175  1.00  0.00     0.344 HD
ENDBRANCH  13  14
ENDBRANCH  12  13
ENDBRANCH  11  12
ENDBRANCH   9  11
ENDBRANCH   5   9
ENDBRANCH   2   4
ENDBRANCH   1   2
BRANCH   1  18
ATOM     18  C   UNL A   1      42.845  20.992  25.780  1.00  0.00     0.275 C 
BRANCH  18  19
ATOM     19  C   UNL A   1      43.781  22.006  25.112  1.00  0.00     0.275 C 
BRANCH  19  20
ATOM     20  O   UNL A   1      43.146  23.287  24.939  1.00  0.00    -0.458 OA
BRANCH  20  21
ATOM     21  C   UNL A   1      43.911  24.361  25.247  1.00  0.00     0.338 C 
ATOM     22  O   UNL A   1      44.940  24.715  24.698  1.00  0.00    -0.246 OA
BRANCH  21  23
ATOM     23  C   UNL A   1      43.249  25.157  26.294  1.00  0.00     0.060 A 
ATOM     24  C   UNL A   1      43.580  26.507  26.384  1.00  0.00     0.016 A 
ATOM     25  C   UNL A   1      42.392  24.579  27.232  1.00  0.00     0.016 A 
ATOM     26  C   UNL A   1      43.075  27.288  27.417  1.00  0.00     0.010 A 
ATOM     27  C   UNL A   1      41.877  25.368  28.270  1.00  0.00     0.010 A 
ATOM     28  C   UNL A   1      42.230  26.725  28.378  1.00  0.00    -0.014 A 
BRANCH  28  29
ATOM     29  C   UNL A   1      41.777  27.567  29.512  1.00  0.00     0.031 A 
ATOM     30  C   UNL A   1      42.531  27.555  30.811  1.00  0.00     0.074 A 
ATOM     31  C   UNL A   1      40.735  28.404  29.351  1.00  0.00     0.049 A 
ATOM     32  N   UNL A   1      42.269  28.188  31.927  1.00  0.00    -0.248 NA
ATOM     33  C   UNL A   1      43.743  26.723  30.861  1.00  0.00     0.031 C 
ATOM     34  C   UNL A   1      39.964  28.564  28.118  1.00  0.00     0.029 A 
ATOM     35  N   UNL A   1      40.157  29.289  30.225  1.00  0.00    -0.354 N 
ATOM     36  C   UNL A   1      43.265  27.811  32.818  1.00  0.00     0.074 A 
ATOM     37  C   UNL A   1      44.133  26.888  32.117  1.00  0.00     0.031 C 
ATOM     38  C   UNL A   1      39.028  29.507  28.307  1.00  0.00     0.029 A 
ATOM     39  C   UNL A   1      39.100  29.980  29.687  1.00  0.00     0.049 A 
ATOM     40  H   UNL A   1      40.470  29.418  31.150  1.00  0.00     0.167 HD
ATOM     41  C   UNL A   1      43.439  28.201  34.104  1.00  0.00     0.037 A 
ATOM     42  C   UNL A   1      38.269  30.879  30.246  1.00  0.00     0.037 A 
ATOM     43  C   UNL A   1      42.596  29.143  34.792  1.00  0.00     0.049 A 
ATOM     44  C   UNL A   1      38.451  31.254  31.688  1.00  0.00     0.074 A 
ATOM     45  C   UNL A   1      42.699  29.603  36.094  1.00  0.00     0.029 A 
ATOM     46  N   UNL A   1      41.497  29.775  34.230  1.00  0.00    -0.354 N 
ATOM     47  N   UNL A   1      39.372  30.861  32.534  1.00  0.00    -0.248 NA
ATOM     48  C   UNL A   1      37.468  32.187  32.259  1.00  0.00     0.031 C 
ATOM     49  C   UNL A   1      41.643  30.491  36.329  1.00  0.00     0.029 A 
ATOM     50  C   UNL A   1      40.902  30.607  35.164  1.00  0.00     0.049 A 
ATOM     51  H   UNL A   1      41.187  29.650  33.304  1.00  0.00     0.167 HD
ATOM     52  C   UNL A   1      39.087  31.502  33.732  1.00  0.00     0.074 A 
ATOM     53  C   UNL A   1      37.917  32.324  33.500  1.00  0.00     0.031 C 
ATOM     54  C   UNL A   1      39.735  31.413  34.918  1.00  0.00     0.037 A 
BRANCH  41  55
ATOM     55  C   UNL A   1      44.572  27.576  34.862  1.00  0.00     0.057 A 
ATOM     56  C   UNL A   1      44.471  26.299  35.427  1.00  0.00     0.134 A 
ATOM     57  C   UNL A   1      45.786  28.256  35.007  1.00  0.00     0.134 A 
ATOM     58  F   UNL A   1      43.328  25.603  35.334  1.00  0.00    -0.206 F 
ATOM     59  C   UNL A   1      45.535  25.728  36.128  1.00  0.00     0.040 A 
ATOM     60  C   UNL A   1      46.863  27.689  35.690  1.00  0.00     0.040 A 
ATOM     61  F   UNL A   1      45.947  29.482  34.486  1.00  0.00    -0.206 F 
ATOM     62  C   UNL A   1      46.736  26.422  36.257  1.00  0.00     0.006 A 
ENDBRANCH  41  55
BRANCH  42  63
ATOM     63  C   UNL A   1      37.171  31.466  29.441  1.00  0.00     0.057 A 
ATOM     64  C   UNL A   1      37.269  32.759  28.917  1.00  0.00     0.134 A 
ATOM     65  C   UNL A   1      36.003  30.744  29.170  1.00  0.00     0.134 A 
ATOM     66  F   UNL A   1      38.353  33.508  29.165  1.00  0.00    -0.206 F 
ATOM     67  C   UNL A   1      36.241  33.316  28.154  1.00  0.00     0.040 A 
ATOM     68  C   UNL A   1      34.977  31.279  28.392  1.00  0.00     0.040 A 
ATOM     69  F   UNL A   1      35.850  29.501  29.649  1.00  0.00    -0.206 F 
ATOM     70  C   UNL A   1      35.094  32.571  27.884  1.00  0.00     0.006 A 
ENDBRANCH  42  63
BRANCH  54  71
ATOM     71  C   UNL A   1      39.196  32.235  36.049  1.00  0.00     0.057 A 
ATOM     72  C   UNL A   1      39.616  33.553  36.262  1.00  0.00     0.134 A 
ATOM     73  C   UNL A   1      38.227  31.712  36.916  1.00  0.00     0.134 A 
ATOM     74  F   UNL A   1      40.551  34.104  35.474  1.00  0.00    -0.206 F 
ATOM     75  C   UNL A   1      39.102  34.320  37.309  1.00  0.00     0.040 A 
ATOM     76  C   UNL A   1      37.695  32.475  37.955  1.00  0.00     0.040 A 
ATOM     77  F   UNL A   1      37.782  30.457  36.761  1.00  0.00    -0.206 F 
ATOM     78  C   UNL A   1      38.135  33.782  38.156  1.00  0.00     0.006 A 
ENDBRANCH  54  71
ENDBRANCH  28  29
ENDBRANCH  21  23
ENDBRANCH  20  21
ENDBRANCH  19  20
ENDBRANCH  18  19
ENDBRANCH   1  18
TORSDOF 16
ENDMDL
MODEL 3
REMARK VINA RESULT:      -9.3      6.701     11.147
REMARK SMILES C[C@H](SCC[NH3+])c1ccc(C(=O)OCCOC(=O)c2ccc(-c3c4nc(c(-c5c(F)cccc5F)c5ccc([nH]5)c(-c5c(F)cccc5F)c5nc(c(-c6c(F)cccc6F)c6ccc3[nH]6)C=C5)C=C4)cc2)o1
REMARK SMILES IDX 13 1 11 2 12 3 10 4 7 5 8 6 73 7 9 8 2 9 1 10 3 11 4 12 5 13
REMARK SMILES IDX 6 14 14 18 15 19 16 20 17 21 18 22 19 23 20 24 72 25 21 26
REMARK SMILES IDX 71 27 22 28 23 29 24 30 65 31 25 32 70 33 64 34 66 35 26 36
REMARK SMILES IDX 69 37 63 38 62 39 27 41 53 42 36 43 52 44 37 45 40 46 51 47
REMARK SMILES IDX 67 48 38 49 39 50 50 52 68 53 41 54 28 55 29 56 34 57 30 58
REMARK SMILES IDX 31 59 33 60 35 61 32 62 54 63 55 64 60 65 56 66 57 67 59 68
REMARK SMILES IDX 61 69 58 70 42 71 43 72 48 73 44 74 45 75 47 76 49 77 46 78
REMARK H PARENT 6 15 6 16 6 17 66 40 40 51
REMARK Flexibility Score: inf
ROOT
ATOM      1  O   UNL A   1      33.985  34.044  28.243  1.00  0.00    -0.456 OA
ENDROOT
BRANCH   1   2
ATOM      2  C   UNL A   1      35.108  33.280  28.399  1.00  0.00     0.374 C 
ATOM      3  O   UNL A   1      36.164  33.692  28.859  1.00  0.00    -0.242 OA
BRANCH   2   4
ATOM      4  C   UNL A   1      34.826  31.910  28.030  1.00  0.00     0.211 A 
ATOM      5  C   UNL A   1      33.572  30.323  27.133  1.00  0.00     0.117 A 
ATOM      6  C   UNL A   1      34.782  29.739  27.445  1.00  0.00     0.048 A 
ATOM      7  O   UNL A   1      33.580  31.628  27.530  1.00  0.00    -0.453 OA
ATOM      8  C   UNL A   1      35.590  30.758  28.007  1.00  0.00     0.058 A 
BRANCH   5   9
ATOM      9  C   UNL A   1      32.351  29.811  26.441  1.00  0.00     0.110 C 
ATOM     10  C   UNL A   1      31.778  28.601  27.181  1.00  0.00     0.028 C 
BRANCH   9  11
ATOM     11  S   UNL A   1      32.622  29.328  24.696  1.00  0.00    -0.145 SA
BRANCH  11  12
ATOM     12  C   UNL A   1      31.002  28.608  24.256  1.00  0.00     0.131 C 
BRANCH  12  13
ATOM     13  C   UNL A   1      30.472  29.000  22.869  1.00  0.00     0.269 C 
BRANCH  13  14
ATOM     14  N   UNL A   1      31.434  29.706  22.019  1.00  0.00    -0.357 N 
ATOM     15  H   UNL A   1      31.202  30.698  21.995  1.00  0.00     0.344 HD
ATOM     16  H   UNL A   1      31.396  29.324  21.074  1.00  0.00     0.344 HD
ATOM     17  H   UNL A   1      32.374  29.585  22.397  1.00  0.00     0.344 HD
ENDBRANCH  13  14
ENDBRANCH  12  13
ENDBRANCH  11  12
ENDBRANCH   9  11
ENDBRANCH   5   9
ENDBRANCH   2   4
ENDBRANCH   1   2
BRANCH   1  18
ATOM     18  C   UNL A   1      34.054  35.378  28.780  1.00  0.00     0.275 C 
BRANCH  18  19
ATOM     19  C   UNL A   1      32.803  35.716  29.600  1.00  0.00     0.275 C 
BRANCH  19  20
ATOM     20  O   UNL A   1      33.138  36.341  30.854  1.00  0.00    -0.458 OA
BRANCH  20  21
ATOM     21  C   UNL A   1      32.756  35.662  31.962  1.00  0.00     0.338 C 
ATOM     22  O   UNL A   1      31.623  35.531  32.392  1.00  0.00    -0.246 OA
BRANCH  21  23
ATOM     23  C   UNL A   1      33.916  34.965  32.540  1.00  0.00     0.060 A 
ATOM     24  C   UNL A   1      35.174  35.529  32.340  1.00  0.00     0.016 A 
ATOM     25  C   UNL A   1      33.792  33.734  33.188  1.00  0.00     0.016 A 
ATOM     26  C   UNL A   1      36.318  34.865  32.766  1.00  0.00     0.010 A 
ATOM     27  C   UNL A   1      34.946  33.068  33.623  1.00  0.00     0.010 A 
ATOM     28  C   UNL A   1      36.218  33.623  33.398  1.00  0.00    -0.014 A 
BRANCH  28  29
ATOM     29  C   UNL A   1      37.464  32.905  33.765  1.00  0.00     0.031 A 
ATOM     30  C   UNL A   1      38.064  31.904  32.820  1.00  0.00     0.074 A 
ATOM     31  C   UNL A   1      38.101  33.210  34.910  1.00  0.00     0.049 A 
ATOM     32  N   UNL A   1      39.122  31.148  32.976  1.00  0.00    -0.248 NA
ATOM     33  C   UNL A   1      37.388  31.732  31.525  1.00  0.00     0.031 C 
ATOM     34  C   UNL A   1      37.661  34.214  35.879  1.00  0.00     0.029 A 
ATOM     35  N   UNL A   1      39.264  32.715  35.445  1.00  0.00    -0.354 N 
ATOM     36  C   UNL A   1      39.223  30.393  31.815  1.00  0.00     0.074 A 
ATOM     37  C   UNL A   1      38.114  30.775  30.965  1.00  0.00     0.031 C 
ATOM     38  C   UNL A   1      38.555  34.279  36.878  1.00  0.00     0.029 A 
ATOM     39  C   UNL A   1      39.601  33.286  36.647  1.00  0.00     0.049 A 
ATOM     40  H   UNL A   1      39.806  32.019  35.008  1.00  0.00     0.167 HD
ATOM     41  C   UNL A   1      40.156  29.466  31.489  1.00  0.00     0.037 A 
ATOM     42  C   UNL A   1      40.625  33.025  37.480  1.00  0.00     0.037 A 
ATOM     43  C   UNL A   1      41.276  29.109  32.319  1.00  0.00     0.049 A 
ATOM     44  C   UNL A   1      41.616  31.957  37.120  1.00  0.00     0.074 A 
ATOM     45  C   UNL A   1      42.276  28.185  32.068  1.00  0.00     0.029 A 
ATOM     46  N   UNL A   1      41.548  29.666  33.559  1.00  0.00    -0.354 N 
ATOM     47  N   UNL A   1      41.678  31.219  36.037  1.00  0.00    -0.248 NA
ATOM     48  C   UNL A   1      42.670  31.671  38.104  1.00  0.00     0.031 C 
ATOM     49  C   UNL A   1      43.137  28.162  33.172  1.00  0.00     0.029 A 
ATOM     50  C   UNL A   1      42.690  29.093  34.095  1.00  0.00     0.049 A 
ATOM     51  H   UNL A   1      41.009  30.365  33.994  1.00  0.00     0.167 HD
ATOM     52  C   UNL A   1      42.779  30.391  36.205  1.00  0.00     0.074 A 
ATOM     53  C   UNL A   1      43.366  30.727  37.486  1.00  0.00     0.031 C 
ATOM     54  C   UNL A   1      43.257  29.435  35.373  1.00  0.00     0.037 A 
BRANCH  41  55
ATOM     55  C   UNL A   1      39.979  28.746  30.186  1.00  0.00     0.057 A 
ATOM     56  C   UNL A   1      40.569  29.203  29.000  1.00  0.00     0.134 A 
ATOM     57  C   UNL A   1      39.226  27.568  30.125  1.00  0.00     0.134 A 
ATOM     58  F   UNL A   1      41.290  30.334  28.992  1.00  0.00    -0.206 F 
ATOM     59  C   UNL A   1      40.398  28.521  27.794  1.00  0.00     0.040 A 
ATOM     60  C   UNL A   1      39.063  26.867  28.928  1.00  0.00     0.040 A 
ATOM     61  F   UNL A   1      38.638  27.078  31.226  1.00  0.00    -0.206 F 
ATOM     62  C   UNL A   1      39.647  27.347  27.757  1.00  0.00     0.006 A 
ENDBRANCH  41  55
BRANCH  42  63
ATOM     63  C   UNL A   1      40.748  33.777  38.753  1.00  0.00     0.057 A 
ATOM     64  C   UNL A   1      41.588  34.890  38.858  1.00  0.00     0.134 A 
ATOM     65  C   UNL A   1      40.020  33.404  39.889  1.00  0.00     0.134 A 
ATOM     66  F   UNL A   1      42.329  35.279  37.810  1.00  0.00    -0.206 F 
ATOM     67  C   UNL A   1      41.704  35.605  40.051  1.00  0.00     0.040 A 
ATOM     68  C   UNL A   1      40.110  34.121  41.081  1.00  0.00     0.040 A 
ATOM     69  F   UNL A   1      39.201  32.342  39.850  1.00  0.00    -0.206 F 
ATOM     70  C   UNL A   1      40.957  35.224  41.166  1.00  0.00     0.006 A 
ENDBRANCH  42  63
BRANCH  54  71
ATOM     71  C   UNL A   1      44.480  28.694  35.821  1.00  0.00     0.057 A 
ATOM     72  C   UNL A   1      44.388  27.517  36.572  1.00  0.00     0.134 A 
ATOM     73  C   UNL A   1      45.759  29.147  35.473  1.00  0.00     0.134 A 
ATOM     74  F   UNL A   1      43.192  27.041  36.947  1.00  0.00    -0.206 F 
ATOM     75  C   UNL A   1      45.529  26.822  36.977  1.00  0.00     0.040 A 
ATOM     76  C   UNL A   1      46.906  28.450  35.858  1.00  0.00     0.040 A 
ATOM     77  F   UNL A   1      45.912  30.266  34.751  1.00  0.00    -0.206 F 
ATOM     78  C   UNL A   1      46.792  27.286  36.615  1.00  0.00     0.006 A 
ENDBRANCH  54  71
ENDBRANCH  28  29
ENDBRANCH  21  23
ENDBRANCH  20  21
ENDBRANCH  19  20
ENDBRANCH  18  19
ENDBRANCH   1  18
TORSDOF 16
ENDMDL
