MODEL 1
REMARK VINA RESULT:     -13.0      0.000      0.000
REMARK SMILES O=C(OCCOC(=O)c1ccccc1-c1ccc(/C=C2\C(=O)N(c3cccc(Br)c3)C(=O)N=C2O)o1)c1ccc(-c2c3nc(c(-c4c(F)cccc4F)c4ccc([nH]4)c(-c4c(F)cccc4F)c4nc(c(-c5c(F)cccc5F)c5ccc2[nH]5)C=C4)C=C3)cc1
REMARK SMILES IDX 5 1 4 2 3 3 2 4 1 5 37 6 38 7 90 8 39 9 89 10 40 11 41 12
REMARK SMILES IDX 42 13 83 14 43 15 88 16 82 17 84 18 44 19 87 20 81 21 80 22
REMARK SMILES IDX 45 24 71 25 54 26 70 27 55 28 58 29 69 30 85 31 56 32 57 33
REMARK SMILES IDX 68 35 86 36 59 37 46 38 47 39 52 40 48 41 49 42 51 43 53 44
REMARK SMILES IDX 50 45 72 46 73 47 78 48 74 49 75 50 77 51 79 52 76 53 60 54
REMARK SMILES IDX 61 55 66 56 62 57 63 58 65 59 67 60 64 61 6 62 7 63 8 64
REMARK SMILES IDX 9 65 10 66 14 67 11 68 13 69 12 70 15 71 16 72 36 73 17 74
REMARK SMILES IDX 18 75 19 76 20 77 21 78 34 79 22 80 23 81 33 82 31 83 32 84
REMARK SMILES IDX 35 85 24 87 25 88 30 89 26 90 28 91 27 92 29 93
REMARK H PARENT 84 23 58 34 35 86
REMARK Flexibility Score: inf
ROOT
ATOM      1  C   UNL A   1      44.566  39.802  26.470  1.00  0.00     0.275 C 
ENDROOT
BRANCH   1   2
ATOM      2  C   UNL A   1      45.851  39.013  26.736  1.00  0.00     0.275 C 
BRANCH   2   3
ATOM      3  O   UNL A   1      45.837  38.287  27.985  1.00  0.00    -0.458 OA
BRANCH   3   4
ATOM      4  C   UNL A   1      46.322  37.067  28.329  1.00  0.00     0.338 C 
ATOM      5  O   UNL A   1      47.509  36.985  28.646  1.00  0.00    -0.246 OA
BRANCH   4   6
ATOM      6  C   UNL A   1      45.558  35.779  28.219  1.00  0.00     0.060 A 
ATOM      7  C   UNL A   1      44.785  35.390  27.140  1.00  0.00     0.016 A 
ATOM      8  C   UNL A   1      45.678  34.846  29.272  1.00  0.00     0.016 A 
ATOM      9  C   UNL A   1      44.286  34.090  27.049  1.00  0.00     0.010 A 
ATOM     10  C   UNL A   1      45.154  33.536  29.178  1.00  0.00     0.010 A 
ATOM     11  C   UNL A   1      44.495  33.118  28.023  1.00  0.00    -0.014 A 
BRANCH  11  12
ATOM     12  C   UNL A   1      43.903  31.763  27.905  1.00  0.00     0.031 A 
ATOM     13  C   UNL A   1      44.726  30.723  27.297  1.00  0.00     0.074 A 
ATOM     14  C   UNL A   1      42.906  31.178  28.590  1.00  0.00     0.049 A 
ATOM     15  N   UNL A   1      44.325  29.328  26.494  1.00  0.00    -0.248 NA
ATOM     16  C   UNL A   1      46.734  30.858  27.408  1.00  0.00     0.031 C 
ATOM     17  C   UNL A   1      42.274  31.789  29.718  1.00  0.00     0.029 A 
ATOM     18  N   UNL A   1      42.330  29.925  28.541  1.00  0.00    -0.354 N 
ATOM     19  C   UNL A   1      45.897  28.433  26.058  1.00  0.00     0.074 A 
ATOM     20  C   UNL A   1      47.320  29.524  26.751  1.00  0.00     0.031 C 
ATOM     21  C   UNL A   1      41.337  30.986  30.232  1.00  0.00     0.029 A 
ATOM     22  C   UNL A   1      41.302  29.767  29.439  1.00  0.00     0.049 A 
ATOM     23  H   UNL A   1      42.626  29.217  27.926  1.00  0.00     0.167 HD
ATOM     24  C   UNL A   1      46.068  27.264  25.386  1.00  0.00     0.037 A 
ATOM     25  C   UNL A   1      40.419  28.768  29.620  1.00  0.00     0.037 A 
ATOM     26  C   UNL A   1      45.096  26.194  25.415  1.00  0.00     0.049 A 
ATOM     27  C   UNL A   1      40.635  27.458  28.903  1.00  0.00     0.074 A 
ATOM     28  C   UNL A   1      45.384  24.842  25.396  1.00  0.00     0.029 A 
ATOM     29  N   UNL A   1      43.728  26.298  25.700  1.00  0.00    -0.354 N 
ATOM     30  N   UNL A   1      41.558  27.109  28.032  1.00  0.00    -0.248 NA
ATOM     31  C   UNL A   1      39.713  26.376  29.260  1.00  0.00     0.031 C 
ATOM     32  C   UNL A   1      44.289  24.174  25.957  1.00  0.00     0.029 A 
ATOM     33  C   UNL A   1      43.306  25.103  26.280  1.00  0.00     0.049 A 
ATOM     34  H   UNL A   1      43.161  27.082  25.521  1.00  0.00     0.167 HD
ATOM     35  C   UNL A   1      41.364  25.755  27.772  1.00  0.00     0.074 A 
ATOM     36  C   UNL A   1      40.215  25.361  28.575  1.00  0.00     0.031 C 
ATOM     37  C   UNL A   1      42.077  24.874  27.017  1.00  0.00     0.037 A 
BRANCH  24  38
ATOM     38  C   UNL A   1      47.417  27.033  24.797  1.00  0.00     0.057 A 
ATOM     39  C   UNL A   1      48.452  26.336  25.427  1.00  0.00     0.134 A 
ATOM     40  C   UNL A   1      47.679  27.545  23.518  1.00  0.00     0.134 A 
ATOM     41  F   UNL A   1      48.261  25.761  26.624  1.00  0.00    -0.206 F 
ATOM     42  C   UNL A   1      49.724  26.243  24.859  1.00  0.00     0.040 A 
ATOM     43  C   UNL A   1      48.930  27.413  22.915  1.00  0.00     0.040 A 
ATOM     44  F   UNL A   1      46.718  28.183  22.832  1.00  0.00    -0.206 F 
ATOM     45  C   UNL A   1      49.965  26.782  23.597  1.00  0.00     0.006 A 
ENDBRANCH  24  38
BRANCH  25  46
ATOM     46  C   UNL A   1      39.225  29.022  30.490  1.00  0.00     0.057 A 
ATOM     47  C   UNL A   1      39.181  28.720  31.856  1.00  0.00     0.134 A 
ATOM     48  C   UNL A   1      38.069  29.603  29.937  1.00  0.00     0.134 A 
ATOM     49  F   UNL A   1      40.247  28.181  32.464  1.00  0.00    -0.206 F 
ATOM     50  C   UNL A   1      38.029  28.939  32.623  1.00  0.00     0.040 A 
ATOM     51  C   UNL A   1      36.924  29.856  30.697  1.00  0.00     0.040 A 
ATOM     52  F   UNL A   1      38.040  29.952  28.642  1.00  0.00    -0.206 F 
ATOM     53  C   UNL A   1      36.895  29.508  32.043  1.00  0.00     0.006 A 
ENDBRANCH  25  46
BRANCH  37  54
ATOM     54  C   UNL A   1      41.603  23.451  27.087  1.00  0.00     0.057 A 
ATOM     55  C   UNL A   1      40.462  23.041  26.394  1.00  0.00     0.134 A 
ATOM     56  C   UNL A   1      42.289  22.491  27.846  1.00  0.00     0.134 A 
ATOM     57  F   UNL A   1      39.731  23.931  25.707  1.00  0.00    -0.206 F 
ATOM     58  C   UNL A   1      40.028  21.717  26.437  1.00  0.00     0.040 A 
ATOM     59  C   UNL A   1      41.887  21.158  27.867  1.00  0.00     0.040 A 
ATOM     60  F   UNL A   1      43.371  22.834  28.563  1.00  0.00    -0.206 F 
ATOM     61  C   UNL A   1      40.752  20.768  27.159  1.00  0.00     0.006 A 
ENDBRANCH  37  54
ENDBRANCH  11  12
ENDBRANCH   4   6
ENDBRANCH   3   4
ENDBRANCH   2   3
ENDBRANCH   1   2
BRANCH   1  62
ATOM     62  O   UNL A   1      44.713  40.708  25.374  1.00  0.00    -0.458 OA
BRANCH  62  63
ATOM     63  C   UNL A   1      43.829  41.732  25.342  1.00  0.00     0.338 C 
ATOM     64  O   UNL A   1      42.615  41.653  25.262  1.00  0.00    -0.246 OA
BRANCH  63  65
ATOM     65  C   UNL A   1      44.538  43.005  25.534  1.00  0.00     0.071 A 
ATOM     66  C   UNL A   1      44.839  43.352  26.868  1.00  0.00     0.016 A 
ATOM     67  C   UNL A   1      44.881  43.848  24.467  1.00  0.00     0.032 A 
ATOM     68  C   UNL A   1      45.519  44.532  27.150  1.00  0.00     0.001 A 
ATOM     69  C   UNL A   1      45.408  45.107  24.802  1.00  0.00     0.013 A 
ATOM     70  C   UNL A   1      45.786  45.421  26.118  1.00  0.00     0.001 A 
BRANCH  67  71
ATOM     71  C   UNL A   1      44.736  43.444  23.059  1.00  0.00     0.135 A 
ATOM     72  C   UNL A   1      45.570  42.804  22.180  1.00  0.00     0.051 A 
ATOM     73  O   UNL A   1      43.597  43.838  22.387  1.00  0.00    -0.457 OA
ATOM     74  C   UNL A   1      44.909  42.811  20.929  1.00  0.00     0.051 A 
ATOM     75  C   UNL A   1      43.677  43.456  21.060  1.00  0.00     0.128 A 
BRANCH  75  76
ATOM     76  C   UNL A   1      42.721  43.609  19.993  1.00  0.00     0.066 C 
ATOM     77  C   UNL A   1      42.602  44.491  18.973  1.00  0.00     0.106 C 
ATOM     78  C   UNL A   1      43.467  45.644  18.629  1.00  0.00     0.272 C 
ATOM     79  C   UNL A   1      41.465  44.331  18.059  1.00  0.00     0.228 C 
ATOM     80  O   UNL A   1      44.467  45.857  19.292  1.00  0.00    -0.268 OA
ATOM     81  N   UNL A   1      43.043  46.447  17.570  1.00  0.00    -0.226 N 
ATOM     82  N   UNL A   1      41.164  45.048  17.052  1.00  0.00    -0.156 NA
ATOM     83  C   UNL A   1      41.942  46.131  16.748  1.00  0.00     0.358 C 
ATOM     84  O   UNL A   1      41.648  46.790  15.754  1.00  0.00    -0.245 OA
BRANCH  79  85
ATOM     85  O   UNL A   1      40.636  43.307  18.298  1.00  0.00    -0.493 OA
ATOM     86  H   UNL A   1      40.224  42.862  17.584  1.00  0.00     0.295 HD
ENDBRANCH  79  85
BRANCH  81  87
ATOM     87  C   UNL A   1      43.599  47.783  17.446  1.00  0.00     0.055 A 
ATOM     88  C   UNL A   1      42.947  48.738  18.235  1.00  0.00     0.027 A 
ATOM     89  C   UNL A   1      44.833  48.109  16.746  1.00  0.00     0.042 A 
ATOM     90  C   UNL A   1      43.527  49.945  18.463  1.00  0.00     0.003 A 
ATOM     91  C   UNL A   1      45.563  49.469  16.810  1.00  0.00     0.020 A 
ATOM     92  C   UNL A   1      44.749  50.220  17.859  1.00  0.00     0.016 A 
ATOM     93  Br  UNL A   1      48.060  50.220  15.885  1.00  0.00    -0.051 Br
ENDBRANCH  81  87
ENDBRANCH  75  76
ENDBRANCH  67  71
ENDBRANCH  63  65
ENDBRANCH  62  63
ENDBRANCH   1  62
TORSDOF 15
ENDMDL
MODEL 2
REMARK VINA RESULT:     -12.9      0.948      1.561
REMARK SMILES O=C(OCCOC(=O)c1ccccc1-c1ccc(/C=C2\C(=O)N(c3cccc(Br)c3)C(=O)N=C2O)o1)c1ccc(-c2c3nc(c(-c4c(F)cccc4F)c4ccc([nH]4)c(-c4c(F)cccc4F)c4nc(c(-c5c(F)cccc5F)c5ccc2[nH]5)C=C4)C=C3)cc1
REMARK SMILES IDX 5 1 4 2 3 3 2 4 1 5 37 6 38 7 90 8 39 9 89 10 40 11 41 12
REMARK SMILES IDX 42 13 83 14 43 15 88 16 82 17 84 18 44 19 87 20 81 21 80 22
REMARK SMILES IDX 45 24 71 25 54 26 70 27 55 28 58 29 69 30 85 31 56 32 57 33
REMARK SMILES IDX 68 35 86 36 59 37 46 38 47 39 52 40 48 41 49 42 51 43 53 44
REMARK SMILES IDX 50 45 72 46 73 47 78 48 74 49 75 50 77 51 79 52 76 53 60 54
REMARK SMILES IDX 61 55 66 56 62 57 63 58 65 59 67 60 64 61 6 62 7 63 8 64
REMARK SMILES IDX 9 65 10 66 14 67 11 68 13 69 12 70 15 71 16 72 36 73 17 74
REMARK SMILES IDX 18 75 19 76 20 77 21 78 34 79 22 80 23 81 33 82 31 83 32 84
REMARK SMILES IDX 35 85 24 87 25 88 30 89 26 90 28 91 27 92 29 93
REMARK H PARENT 84 23 58 34 35 86
REMARK Flexibility Score: inf
ROOT
ATOM      1  C   UNL A   1      44.832  39.573  26.223  1.00  0.00     0.275 C 
ENDROOT
BRANCH   1   2
ATOM      2  C   UNL A   1      46.147  39.346  26.975  1.00  0.00     0.275 C 
BRANCH   2   3
ATOM      3  O   UNL A   1      46.654  37.998  26.863  1.00  0.00    -0.458 OA
BRANCH   3   4
ATOM      4  C   UNL A   1      46.771  36.997  27.772  1.00  0.00     0.338 C 
ATOM      5  O   UNL A   1      47.579  37.141  28.690  1.00  0.00    -0.246 OA
BRANCH   4   6
ATOM      6  C   UNL A   1      46.092  35.662  27.669  1.00  0.00     0.060 A 
ATOM      7  C   UNL A   1      45.354  35.215  26.588  1.00  0.00     0.016 A 
ATOM      8  C   UNL A   1      46.262  34.748  28.732  1.00  0.00     0.016 A 
ATOM      9  C   UNL A   1      44.940  33.884  26.506  1.00  0.00     0.010 A 
ATOM     10  C   UNL A   1      45.825  33.407  28.646  1.00  0.00     0.010 A 
ATOM     11  C   UNL A   1      45.203  32.936  27.490  1.00  0.00    -0.014 A 
BRANCH  11  12
ATOM     12  C   UNL A   1      44.699  31.545  27.381  1.00  0.00     0.031 A 
ATOM     13  C   UNL A   1      45.649  30.519  26.965  1.00  0.00     0.074 A 
ATOM     14  C   UNL A   1      43.644  30.946  27.958  1.00  0.00     0.049 A 
ATOM     15  N   UNL A   1      45.435  29.060  26.208  1.00  0.00    -0.248 NA
ATOM     16  C   UNL A   1      47.612  30.775  27.347  1.00  0.00     0.031 C 
ATOM     17  C   UNL A   1      42.828  31.586  28.942  1.00  0.00     0.029 A 
ATOM     18  N   UNL A   1      43.141  29.662  27.912  1.00  0.00    -0.354 N 
ATOM     19  C   UNL A   1      47.095  28.232  26.057  1.00  0.00     0.074 A 
ATOM     20  C   UNL A   1      48.350  29.440  26.868  1.00  0.00     0.031 C 
ATOM     21  C   UNL A   1      41.866  30.762  29.373  1.00  0.00     0.029 A 
ATOM     22  C   UNL A   1      42.003  29.498  28.665  1.00  0.00     0.049 A 
ATOM     23  H   UNL A   1      43.556  28.936  27.392  1.00  0.00     0.167 HD
ATOM     24  C   UNL A   1      47.415  27.036  25.495  1.00  0.00     0.037 A 
ATOM     25  C   UNL A   1      41.152  28.464  28.787  1.00  0.00     0.037 A 
ATOM     26  C   UNL A   1      46.502  25.916  25.459  1.00  0.00     0.049 A 
ATOM     27  C   UNL A   1      41.532  27.128  28.196  1.00  0.00     0.074 A 
ATOM     28  C   UNL A   1      46.854  24.584  25.569  1.00  0.00     0.029 A 
ATOM     29  N   UNL A   1      45.104  25.959  25.541  1.00  0.00    -0.354 N 
ATOM     30  N   UNL A   1      42.586  26.781  27.488  1.00  0.00    -0.248 NA
ATOM     31  C   UNL A   1      40.621  26.019  28.491  1.00  0.00     0.031 C 
ATOM     32  C   UNL A   1      45.724  23.889  26.015  1.00  0.00     0.029 A 
ATOM     33  C   UNL A   1      44.660  24.778  26.135  1.00  0.00     0.049 A 
ATOM     34  H   UNL A   1      44.531  26.698  25.233  1.00  0.00     0.167 HD
ATOM     35  C   UNL A   1      42.496  25.406  27.294  1.00  0.00     0.074 A 
ATOM     36  C   UNL A   1      41.264  24.995  27.952  1.00  0.00     0.031 C 
ATOM     37  C   UNL A   1      43.351  24.524  26.706  1.00  0.00     0.037 A 
BRANCH  24  38
ATOM     38  C   UNL A   1      48.844  26.848  25.117  1.00  0.00     0.057 A 
ATOM     39  C   UNL A   1      49.837  26.364  25.974  1.00  0.00     0.134 A 
ATOM     40  C   UNL A   1      49.234  27.175  23.809  1.00  0.00     0.134 A 
ATOM     41  F   UNL A   1      49.534  25.970  27.219  1.00  0.00    -0.206 F 
ATOM     42  C   UNL A   1      51.177  26.307  25.584  1.00  0.00     0.040 A 
ATOM     43  C   UNL A   1      50.560  27.072  23.390  1.00  0.00     0.040 A 
ATOM     44  F   UNL A   1      48.326  27.599  22.917  1.00  0.00    -0.206 F 
ATOM     45  C   UNL A   1      51.541  26.660  24.286  1.00  0.00     0.006 A 
ENDBRANCH  24  38
BRANCH  25  46
ATOM     46  C   UNL A   1      39.836  28.701  29.462  1.00  0.00     0.057 A 
ATOM     47  C   UNL A   1      38.700  29.180  28.800  1.00  0.00     0.134 A 
ATOM     48  C   UNL A   1      39.696  28.428  30.835  1.00  0.00     0.134 A 
ATOM     49  F   UNL A   1      38.743  29.448  27.487  1.00  0.00    -0.206 F 
ATOM     50  C   UNL A   1      37.498  29.424  29.480  1.00  0.00     0.040 A 
ATOM     51  C   UNL A   1      38.495  28.637  31.518  1.00  0.00     0.040 A 
ATOM     52  F   UNL A   1      40.728  27.936  31.536  1.00  0.00    -0.206 F 
ATOM     53  C   UNL A   1      37.394  29.153  30.844  1.00  0.00     0.006 A 
ENDBRANCH  25  46
BRANCH  37  54
ATOM     54  C   UNL A   1      42.941  23.082  26.803  1.00  0.00     0.057 A 
ATOM     55  C   UNL A   1      42.891  22.433  28.039  1.00  0.00     0.134 A 
ATOM     56  C   UNL A   1      42.594  22.346  25.661  1.00  0.00     0.134 A 
ATOM     57  F   UNL A   1      43.276  23.070  29.154  1.00  0.00    -0.206 F 
ATOM     58  C   UNL A   1      42.490  21.102  28.139  1.00  0.00     0.040 A 
ATOM     59  C   UNL A   1      42.157  21.026  25.752  1.00  0.00     0.040 A 
ATOM     60  F   UNL A   1      42.659  22.905  24.442  1.00  0.00    -0.206 F 
ATOM     61  C   UNL A   1      42.104  20.401  26.997  1.00  0.00     0.006 A 
ENDBRANCH  37  54
ENDBRANCH  11  12
ENDBRANCH   4   6
ENDBRANCH   3   4
ENDBRANCH   2   3
ENDBRANCH   1   2
BRANCH   1  62
ATOM     62  O   UNL A   1      44.934  40.644  25.282  1.00  0.00    -0.458 OA
BRANCH  62  63
ATOM     63  C   UNL A   1      43.977  41.596  25.378  1.00  0.00     0.338 C 
ATOM     64  O   UNL A   1      42.770  41.427  25.385  1.00  0.00    -0.246 OA
BRANCH  63  65
ATOM     65  C   UNL A   1      44.603  42.909  25.593  1.00  0.00     0.071 A 
ATOM     66  C   UNL A   1      44.902  43.242  26.930  1.00  0.00     0.016 A 
ATOM     67  C   UNL A   1      44.872  43.798  24.542  1.00  0.00     0.032 A 
ATOM     68  C   UNL A   1      45.507  44.458  27.232  1.00  0.00     0.001 A 
ATOM     69  C   UNL A   1      45.320  45.081  24.902  1.00  0.00     0.013 A 
ATOM     70  C   UNL A   1      45.698  45.388  26.219  1.00  0.00     0.001 A 
BRANCH  67  71
ATOM     71  C   UNL A   1      44.731  43.421  23.127  1.00  0.00     0.135 A 
ATOM     72  C   UNL A   1      45.578  42.824  22.230  1.00  0.00     0.051 A 
ATOM     73  O   UNL A   1      43.576  43.795  22.469  1.00  0.00    -0.457 OA
ATOM     74  C   UNL A   1      44.909  42.838  20.983  1.00  0.00     0.051 A 
ATOM     75  C   UNL A   1      43.659  43.443  21.134  1.00  0.00     0.128 A 
BRANCH  75  76
ATOM     76  C   UNL A   1      42.694  43.591  20.075  1.00  0.00     0.066 C 
ATOM     77  C   UNL A   1      42.572  44.458  19.044  1.00  0.00     0.106 C 
ATOM     78  C   UNL A   1      43.446  45.596  18.671  1.00  0.00     0.272 C 
ATOM     79  C   UNL A   1      41.423  44.298  18.145  1.00  0.00     0.228 C 
ATOM     80  O   UNL A   1      44.456  45.808  19.320  1.00  0.00    -0.268 OA
ATOM     81  N   UNL A   1      43.019  46.388  17.605  1.00  0.00    -0.226 N 
ATOM     82  N   UNL A   1      41.119  45.002  17.131  1.00  0.00    -0.156 NA
ATOM     83  C   UNL A   1      41.906  46.072  16.801  1.00  0.00     0.358 C 
ATOM     84  O   UNL A   1      41.608  46.718  15.799  1.00  0.00    -0.245 OA
BRANCH  79  85
ATOM     85  O   UNL A   1      40.586  43.286  18.409  1.00  0.00    -0.493 OA
ATOM     86  H   UNL A   1      39.714  43.299  18.066  1.00  0.00     0.295 HD
ENDBRANCH  79  85
BRANCH  81  87
ATOM     87  C   UNL A   1      43.589  47.714  17.455  1.00  0.00     0.055 A 
ATOM     88  C   UNL A   1      42.969  48.686  18.249  1.00  0.00     0.027 A 
ATOM     89  C   UNL A   1      44.809  48.018  16.722  1.00  0.00     0.042 A 
ATOM     90  C   UNL A   1      43.568  49.887  18.451  1.00  0.00     0.003 A 
ATOM     91  C   UNL A   1      45.558  49.369  16.754  1.00  0.00     0.020 A 
ATOM     92  C   UNL A   1      44.779  50.141  17.815  1.00  0.00     0.016 A 
ATOM     93  Br  UNL A   1      48.041  50.080  15.761  1.00  0.00    -0.051 Br
ENDBRANCH  81  87
ENDBRANCH  75  76
ENDBRANCH  67  71
ENDBRANCH  63  65
ENDBRANCH  62  63
ENDBRANCH   1  62
TORSDOF 15
ENDMDL
MODEL 3
REMARK VINA RESULT:     -12.9     11.136     17.524
REMARK SMILES O=C(OCCOC(=O)c1ccccc1-c1ccc(/C=C2\C(=O)N(c3cccc(Br)c3)C(=O)N=C2O)o1)c1ccc(-c2c3nc(c(-c4c(F)cccc4F)c4ccc([nH]4)c(-c4c(F)cccc4F)c4nc(c(-c5c(F)cccc5F)c5ccc2[nH]5)C=C4)C=C3)cc1
REMARK SMILES IDX 5 1 4 2 3 3 2 4 1 5 37 6 38 7 90 8 39 9 89 10 40 11 41 12
REMARK SMILES IDX 42 13 83 14 43 15 88 16 82 17 84 18 44 19 87 20 81 21 80 22
REMARK SMILES IDX 45 24 71 25 54 26 70 27 55 28 58 29 69 30 85 31 56 32 57 33
REMARK SMILES IDX 68 35 86 36 59 37 46 38 47 39 52 40 48 41 49 42 51 43 53 44
REMARK SMILES IDX 50 45 72 46 73 47 78 48 74 49 75 50 77 51 79 52 76 53 60 54
REMARK SMILES IDX 61 55 66 56 62 57 63 58 65 59 67 60 64 61 6 62 7 63 8 64
REMARK SMILES IDX 9 65 10 66 14 67 11 68 13 69 12 70 15 71 16 72 36 73 17 74
REMARK SMILES IDX 18 75 19 76 20 77 21 78 34 79 22 80 23 81 33 82 31 83 32 84
REMARK SMILES IDX 35 85 24 87 25 88 30 89 26 90 28 91 27 92 29 93
REMARK H PARENT 84 23 58 34 35 86
REMARK Flexibility Score: inf
ROOT
ATOM      1  C   UNL A   1      46.762  23.764  39.407  1.00  0.00     0.275 C 
ENDROOT
BRANCH   1   2
ATOM      2  C   UNL A   1      45.961  25.049  39.634  1.00  0.00     0.275 C 
BRANCH   2   3
ATOM      3  O   UNL A   1      46.443  26.175  38.869  1.00  0.00    -0.458 OA
BRANCH   3   4
ATOM      4  C   UNL A   1      46.532  26.390  37.532  1.00  0.00     0.338 C 
ATOM      5  O   UNL A   1      47.647  26.348  37.013  1.00  0.00    -0.246 OA
BRANCH   4   6
ATOM      6  C   UNL A   1      45.389  26.813  36.654  1.00  0.00     0.060 A 
ATOM      7  C   UNL A   1      44.055  26.528  36.876  1.00  0.00     0.016 A 
ATOM      8  C   UNL A   1      45.679  27.624  35.535  1.00  0.00     0.016 A 
ATOM      9  C   UNL A   1      43.056  27.141  36.116  1.00  0.00     0.010 A 
ATOM     10  C   UNL A   1      44.661  28.227  34.761  1.00  0.00     0.010 A 
ATOM     11  C   UNL A   1      43.318  28.038  35.085  1.00  0.00    -0.014 A 
BRANCH  11  12
ATOM     12  C   UNL A   1      42.225  28.626  34.273  1.00  0.00     0.031 A 
ATOM     13  C   UNL A   1      41.648  29.883  34.737  1.00  0.00     0.074 A 
ATOM     14  C   UNL A   1      41.903  28.456  32.980  1.00  0.00     0.049 A 
ATOM     15  N   UNL A   1      40.152  30.561  34.506  1.00  0.00    -0.248 NA
ATOM     16  C   UNL A   1      42.772  31.140  35.841  1.00  0.00     0.031 C 
ATOM     17  C   UNL A   1      42.702  27.693  32.073  1.00  0.00     0.029 A 
ATOM     18  N   UNL A   1      40.920  28.986  32.170  1.00  0.00    -0.354 N 
ATOM     19  C   UNL A   1      40.135  32.231  35.328  1.00  0.00     0.074 A 
ATOM     20  C   UNL A   1      41.888  32.450  36.086  1.00  0.00     0.031 C 
ATOM     21  C   UNL A   1      42.175  27.706  30.845  1.00  0.00     0.029 A 
ATOM     22  C   UNL A   1      40.957  28.501  30.885  1.00  0.00     0.049 A 
ATOM     23  H   UNL A   1      40.259  29.645  32.482  1.00  0.00     0.167 HD
ATOM     24  C   UNL A   1      39.128  33.139  35.418  1.00  0.00     0.037 A 
ATOM     25  C   UNL A   1      40.120  28.662  29.844  1.00  0.00     0.037 A 
ATOM     26  C   UNL A   1      38.105  33.278  34.406  1.00  0.00     0.049 A 
ATOM     27  C   UNL A   1      39.029  29.700  29.933  1.00  0.00     0.074 A 
ATOM     28  C   UNL A   1      37.508  34.463  34.019  1.00  0.00     0.029 A 
ATOM     29  N   UNL A   1      37.693  32.312  33.478  1.00  0.00    -0.354 N 
ATOM     30  N   UNL A   1      38.687  30.490  30.929  1.00  0.00    -0.248 NA
ATOM     31  C   UNL A   1      38.250  29.913  28.710  1.00  0.00     0.031 C 
ATOM     32  C   UNL A   1      37.008  34.276  32.725  1.00  0.00     0.029 A 
ATOM     33  C   UNL A   1      37.251  32.965  32.328  1.00  0.00     0.049 A 
ATOM     34  H   UNL A   1      37.713  31.338  33.614  1.00  0.00     0.167 HD
ATOM     35  C   UNL A   1      37.690  31.330  30.443  1.00  0.00     0.074 A 
ATOM     36  C   UNL A   1      37.476  30.929  29.059  1.00  0.00     0.031 C 
ATOM     37  C   UNL A   1      37.042  32.382  31.016  1.00  0.00     0.037 A 
BRANCH  24  38
ATOM     38  C   UNL A   1      39.251  34.156  36.500  1.00  0.00     0.057 A 
ATOM     39  C   UNL A   1      39.857  35.407  36.352  1.00  0.00     0.134 A 
ATOM     40  C   UNL A   1      38.725  33.847  37.763  1.00  0.00     0.134 A 
ATOM     41  F   UNL A   1      40.327  35.803  35.160  1.00  0.00    -0.206 F 
ATOM     42  C   UNL A   1      40.027  36.271  37.436  1.00  0.00     0.040 A 
ATOM     43  C   UNL A   1      38.841  34.724  38.842  1.00  0.00     0.040 A 
ATOM     44  F   UNL A   1      38.087  32.684  37.967  1.00  0.00    -0.206 F 
ATOM     45  C   UNL A   1      39.516  35.931  38.686  1.00  0.00     0.006 A 
ENDBRANCH  24  38
BRANCH  25  46
ATOM     46  C   UNL A   1      40.278  27.760  28.658  1.00  0.00     0.057 A 
ATOM     47  C   UNL A   1      41.038  28.088  27.529  1.00  0.00     0.134 A 
ATOM     48  C   UNL A   1      39.647  26.502  28.647  1.00  0.00     0.134 A 
ATOM     49  F   UNL A   1      41.687  29.260  27.467  1.00  0.00    -0.206 F 
ATOM     50  C   UNL A   1      41.127  27.229  26.424  1.00  0.00     0.040 A 
ATOM     51  C   UNL A   1      39.753  25.624  27.565  1.00  0.00     0.040 A 
ATOM     52  F   UNL A   1      38.926  26.098  29.703  1.00  0.00    -0.206 F 
ATOM     53  C   UNL A   1      40.482  25.993  26.441  1.00  0.00     0.006 A 
ENDBRANCH  25  46
BRANCH  37  54
ATOM     54  C   UNL A   1      36.100  33.118  30.108  1.00  0.00     0.057 A 
ATOM     55  C   UNL A   1      34.717  33.016  30.276  1.00  0.00     0.134 A 
ATOM     56  C   UNL A   1      36.576  33.929  29.067  1.00  0.00     0.134 A 
ATOM     57  F   UNL A   1      34.207  32.203  31.212  1.00  0.00    -0.206 F 
ATOM     58  C   UNL A   1      33.836  33.714  29.450  1.00  0.00     0.040 A 
ATOM     59  C   UNL A   1      35.707  34.659  28.259  1.00  0.00     0.040 A 
ATOM     60  F   UNL A   1      37.894  34.036  28.834  1.00  0.00    -0.206 F 
ATOM     61  C   UNL A   1      34.331  34.552  28.452  1.00  0.00     0.006 A 
ENDBRANCH  37  54
ENDBRANCH  11  12
ENDBRANCH   4   6
ENDBRANCH   3   4
ENDBRANCH   2   3
ENDBRANCH   1   2
BRANCH   1  62
ATOM     62  O   UNL A   1      46.084  22.860  38.531  1.00  0.00    -0.458 OA
BRANCH  62  63
ATOM     63  C   UNL A   1      46.748  22.541  37.396  1.00  0.00     0.338 C 
ATOM     64  O   UNL A   1      47.720  23.109  36.928  1.00  0.00    -0.246 OA
BRANCH  63  65
ATOM     65  C   UNL A   1      46.193  21.304  36.828  1.00  0.00     0.071 A 
ATOM     66  C   UNL A   1      46.506  20.112  37.513  1.00  0.00     0.016 A 
ATOM     67  C   UNL A   1      45.416  21.291  35.660  1.00  0.00     0.032 A 
ATOM     68  C   UNL A   1      46.017  18.891  37.060  1.00  0.00     0.001 A 
ATOM     69  C   UNL A   1      45.088  20.029  35.137  1.00  0.00     0.013 A 
ATOM     70  C   UNL A   1      45.324  18.847  35.858  1.00  0.00     0.001 A 
BRANCH  67  71
ATOM     71  C   UNL A   1      44.930  22.521  35.016  1.00  0.00     0.135 A 
ATOM     72  C   UNL A   1      43.698  23.118  34.950  1.00  0.00     0.051 A 
ATOM     73  O   UNL A   1      45.809  23.225  34.218  1.00  0.00    -0.457 OA
ATOM     74  C   UNL A   1      43.839  24.223  34.079  1.00  0.00     0.051 A 
ATOM     75  C   UNL A   1      45.158  24.290  33.623  1.00  0.00     0.128 A 
BRANCH  75  76
ATOM     76  C   UNL A   1      45.666  25.317  32.750  1.00  0.00     0.066 C 
ATOM     77  C   UNL A   1      45.510  25.575  31.431  1.00  0.00     0.106 C 
ATOM     78  C   UNL A   1      44.726  24.828  30.419  1.00  0.00     0.272 C 
ATOM     79  C   UNL A   1      46.204  26.742  30.874  1.00  0.00     0.228 C 
ATOM     80  O   UNL A   1      44.072  23.861  30.768  1.00  0.00    -0.268 OA
ATOM     81  N   UNL A   1      44.826  25.272  29.100  1.00  0.00    -0.226 N 
ATOM     82  N   UNL A   1      46.199  27.154  29.671  1.00  0.00    -0.156 NA
ATOM     83  C   UNL A   1      45.501  26.452  28.728  1.00  0.00     0.358 C 
ATOM     84  O   UNL A   1      45.488  26.887  27.579  1.00  0.00    -0.245 OA
BRANCH  79  85
ATOM     85  O   UNL A   1      46.932  27.476  31.726  1.00  0.00    -0.493 OA
ATOM     86  H   UNL A   1      47.552  28.097  31.398  1.00  0.00     0.295 HD
ENDBRANCH  79  85
BRANCH  81  87
ATOM     87  C   UNL A   1      44.430  24.371  28.033  1.00  0.00     0.055 A 
ATOM     88  C   UNL A   1      45.508  23.739  27.402  1.00  0.00     0.027 A 
ATOM     89  C   UNL A   1      43.060  23.975  27.744  1.00  0.00     0.042 A 
ATOM     90  C   UNL A   1      45.295  22.659  26.608  1.00  0.00     0.003 A 
ATOM     91  C   UNL A   1      42.642  22.841  26.782  1.00  0.00     0.020 A 
ATOM     92  C   UNL A   1      43.987  22.231  26.403  1.00  0.00     0.016 A 
ATOM     93  Br  UNL A   1      40.174  21.670  26.338  1.00  0.00    -0.051 Br
ENDBRANCH  81  87
ENDBRANCH  75  76
ENDBRANCH  67  71
ENDBRANCH  63  65
ENDBRANCH  62  63
ENDBRANCH   1  62
TORSDOF 15
ENDMDL
