MODEL 1
REMARK VINA RESULT:     -11.3      0.000      0.000
REMARK SMILES CC[NH2+][C@@]1(C(=O)OCCOC(=O)c2ccc(-c3c4nc(c(-c5c(F)cccc5F)c5ccc([nH]5)c(-c5c(F)cccc5F)c5nc(c(-c6c(F)cccc6F)c6ccc3[nH]6)C=C5)C=C4)cc2)CC[C@@H]([NH+]2CCC(C)(CC)CC2)C1
REMARK SMILES IDX 8 1 7 2 5 3 6 4 4 5 67 6 79 7 68 8 69 9 3 10 2 13 1 14 70 15
REMARK SMILES IDX 71 16 78 17 72 19 77 20 73 21 74 22 75 23 76 24 9 25 10 26
REMARK SMILES IDX 11 27 12 28 13 29 14 30 66 31 15 32 65 33 16 34 17 35 18 36
REMARK SMILES IDX 59 37 19 38 64 39 58 40 60 41 20 42 63 43 57 44 56 45 21 47
REMARK SMILES IDX 47 48 30 49 46 50 31 51 34 52 45 53 61 54 32 55 33 56 44 58
REMARK SMILES IDX 62 59 35 60 22 61 23 62 28 63 24 64 25 65 27 66 29 67 26 68
REMARK SMILES IDX 48 69 49 70 54 71 50 72 51 73 53 74 55 75 52 76 36 77 37 78
REMARK SMILES IDX 42 79 38 80 39 81 41 82 43 83 40 84
REMARK H PARENT 3 11 3 12 70 18 60 46 34 57
REMARK Flexibility Score: inf
ROOT
ATOM      1  C   UNL A   1      31.122  29.443  24.221  1.00  0.00     0.274 C 
ENDROOT
BRANCH   1   2
ATOM      2  O   UNL A   1      31.839  28.421  23.496  1.00  0.00    -0.457 OA
BRANCH   2   3
ATOM      3  C   UNL A   1      31.101  27.477  22.852  1.00  0.00     0.368 C 
ATOM      4  O   UNL A   1      30.211  27.723  22.043  1.00  0.00    -0.245 OA
BRANCH   3   5
ATOM      5  C   UNL A   1      31.465  26.030  23.291  1.00  0.00     0.200 C 
ATOM      6  C   UNL A   1      30.233  25.434  23.991  1.00  0.00     0.087 C 
ATOM      7  C   UNL A   1      32.580  25.955  24.347  1.00  0.00     0.146 C 
ATOM      8  C   UNL A   1      30.419  25.802  25.457  1.00  0.00     0.072 C 
ATOM      9  C   UNL A   1      31.932  25.702  25.713  1.00  0.00     0.191 C 
BRANCH   5  10
ATOM     10  N   UNL A   1      31.731  25.193  22.087  1.00  0.00    -0.332 N 
ATOM     11  H   UNL A   1      31.909  24.239  22.402  1.00  0.00     0.347 HD
ATOM     12  H   UNL A   1      30.905  25.286  21.496  1.00  0.00     0.347 HD
BRANCH  10  13
ATOM     13  C   UNL A   1      32.859  25.609  21.262  1.00  0.00     0.257 C 
ATOM     14  C   UNL A   1      32.511  25.462  19.790  1.00  0.00     0.071 C 
ENDBRANCH  10  13
ENDBRANCH   5  10
BRANCH   9  15
ATOM     15  N   UNL A   1      32.381  24.484  26.408  1.00  0.00    -0.332 N 
ATOM     16  C   UNL A   1      33.688  23.968  25.994  1.00  0.00     0.263 C 
ATOM     17  C   UNL A   1      31.432  23.402  26.645  1.00  0.00     0.263 C 
ATOM     18  H   UNL A   1      32.479  24.902  27.333  1.00  0.00     0.348 HD
ATOM     19  C   UNL A   1      33.697  22.931  24.858  1.00  0.00     0.068 C 
ATOM     20  C   UNL A   1      31.271  22.403  25.498  1.00  0.00     0.068 C 
ATOM     21  C   UNL A   1      32.592  21.842  24.916  1.00  0.00    -0.022 C 
ATOM     22  C   UNL A   1      32.303  21.364  23.467  1.00  0.00     0.012 C 
BRANCH  21  23
ATOM     23  C   UNL A   1      33.068  20.559  25.656  1.00  0.00     0.004 C 
ATOM     24  C   UNL A   1      32.740  19.211  25.040  1.00  0.00     0.004 C 
ENDBRANCH  21  23
ENDBRANCH   9  15
ENDBRANCH   3   5
ENDBRANCH   2   3
ENDBRANCH   1   2
BRANCH   1  25
ATOM     25  C   UNL A   1      31.555  29.438  25.688  1.00  0.00     0.275 C 
BRANCH  25  26
ATOM     26  O   UNL A   1      32.840  30.074  25.779  1.00  0.00    -0.458 OA
BRANCH  26  27
ATOM     27  C   UNL A   1      33.012  30.990  26.759  1.00  0.00     0.338 C 
ATOM     28  O   UNL A   1      32.193  31.815  27.138  1.00  0.00    -0.246 OA
BRANCH  27  29
ATOM     29  C   UNL A   1      34.351  30.809  27.377  1.00  0.00     0.060 A 
ATOM     30  C   UNL A   1      34.800  29.534  27.715  1.00  0.00     0.016 A 
ATOM     31  C   UNL A   1      35.122  31.915  27.740  1.00  0.00     0.016 A 
ATOM     32  C   UNL A   1      35.930  29.377  28.513  1.00  0.00     0.010 A 
ATOM     33  C   UNL A   1      36.340  31.735  28.420  1.00  0.00     0.010 A 
ATOM     34  C   UNL A   1      36.756  30.461  28.841  1.00  0.00    -0.014 A 
BRANCH  34  35
ATOM     35  C   UNL A   1      38.032  30.242  29.597  1.00  0.00     0.031 A 
ATOM     36  C   UNL A   1      39.164  29.429  29.014  1.00  0.00     0.074 A 
ATOM     37  C   UNL A   1      38.206  30.778  30.827  1.00  0.00     0.049 A 
ATOM     38  N   UNL A   1      40.192  28.891  29.624  1.00  0.00    -0.248 NA
ATOM     39  C   UNL A   1      39.134  29.174  27.566  1.00  0.00     0.031 C 
ATOM     40  C   UNL A   1      37.248  31.636  31.530  1.00  0.00     0.029 A 
ATOM     41  N   UNL A   1      39.261  30.691  31.705  1.00  0.00    -0.354 N 
ATOM     42  C   UNL A   1      40.880  28.167  28.656  1.00  0.00     0.074 A 
ATOM     43  C   UNL A   1      40.169  28.358  27.409  1.00  0.00     0.031 C 
ATOM     44  C   UNL A   1      37.787  32.062  32.677  1.00  0.00     0.029 A 
ATOM     45  C   UNL A   1      39.054  31.377  32.879  1.00  0.00     0.049 A 
ATOM     46  H   UNL A   1      40.085  30.187  31.513  1.00  0.00     0.167 HD
ATOM     47  C   UNL A   1      41.990  27.404  28.803  1.00  0.00     0.037 A 
ATOM     48  C   UNL A   1      39.741  31.395  34.036  1.00  0.00     0.037 A 
ATOM     49  C   UNL A   1      42.746  27.286  30.025  1.00  0.00     0.049 A 
ATOM     50  C   UNL A   1      40.936  30.509  34.195  1.00  0.00     0.074 A 
ATOM     51  C   UNL A   1      43.897  26.551  30.261  1.00  0.00     0.029 A 
ATOM     52  N   UNL A   1      42.444  27.939  31.209  1.00  0.00    -0.354 N 
ATOM     53  N   UNL A   1      41.492  29.716  33.315  1.00  0.00    -0.248 NA
ATOM     54  C   UNL A   1      41.562  30.478  35.523  1.00  0.00     0.031 C 
ATOM     55  C   UNL A   1      44.273  26.735  31.596  1.00  0.00     0.029 A 
ATOM     56  C   UNL A   1      43.377  27.612  32.181  1.00  0.00     0.049 A 
ATOM     57  H   UNL A   1      41.680  28.545  31.340  1.00  0.00     0.167 HD
ATOM     58  C   UNL A   1      42.519  29.070  33.988  1.00  0.00     0.074 A 
ATOM     59  C   UNL A   1      42.533  29.595  35.338  1.00  0.00     0.031 C 
ATOM     60  C   UNL A   1      43.362  28.116  33.529  1.00  0.00     0.037 A 
BRANCH  47  61
ATOM     61  C   UNL A   1      42.448  26.590  27.627  1.00  0.00     0.057 A 
ATOM     62  C   UNL A   1      41.993  25.289  27.390  1.00  0.00     0.134 A 
ATOM     63  C   UNL A   1      43.300  27.161  26.670  1.00  0.00     0.134 A 
ATOM     64  F   UNL A   1      41.184  24.680  28.270  1.00  0.00    -0.206 F 
ATOM     65  C   UNL A   1      42.372  24.582  26.246  1.00  0.00     0.040 A 
ATOM     66  C   UNL A   1      43.669  26.474  25.513  1.00  0.00     0.040 A 
ATOM     67  F   UNL A   1      43.764  28.410  26.832  1.00  0.00    -0.206 F 
ATOM     68  C   UNL A   1      43.204  25.178  25.299  1.00  0.00     0.006 A 
ENDBRANCH  47  61
BRANCH  48  69
ATOM     69  C   UNL A   1      39.227  32.198  35.175  1.00  0.00     0.057 A 
ATOM     70  C   UNL A   1      39.513  33.561  35.287  1.00  0.00     0.134 A 
ATOM     71  C   UNL A   1      38.394  31.628  36.148  1.00  0.00     0.134 A 
ATOM     72  F   UNL A   1      40.328  34.155  34.404  1.00  0.00    -0.206 F 
ATOM     73  C   UNL A   1      38.976  34.334  36.319  1.00  0.00     0.040 A 
ATOM     74  C   UNL A   1      37.826  32.394  37.164  1.00  0.00     0.040 A 
ATOM     75  F   UNL A   1      38.084  30.324  36.094  1.00  0.00    -0.206 F 
ATOM     76  C   UNL A   1      38.117  33.753  37.251  1.00  0.00     0.006 A 
ENDBRANCH  48  69
BRANCH  60  77
ATOM     77  C   UNL A   1      44.359  27.575  34.506  1.00  0.00     0.057 A 
ATOM     78  C   UNL A   1      45.593  28.204  34.710  1.00  0.00     0.134 A 
ATOM     79  C   UNL A   1      44.089  26.418  35.244  1.00  0.00     0.134 A 
ATOM     80  F   UNL A   1      45.916  29.307  34.018  1.00  0.00    -0.206 F 
ATOM     81  C   UNL A   1      46.535  27.687  35.601  1.00  0.00     0.040 A 
ATOM     82  C   UNL A   1      45.015  25.900  36.150  1.00  0.00     0.040 A 
ATOM     83  F   UNL A   1      42.923  25.769  35.093  1.00  0.00    -0.206 F 
ATOM     84  C   UNL A   1      46.245  26.533  36.326  1.00  0.00     0.006 A 
ENDBRANCH  60  77
ENDBRANCH  34  35
ENDBRANCH  27  29
ENDBRANCH  26  27
ENDBRANCH  25  26
ENDBRANCH   1  25
TORSDOF 15
ENDMDL
MODEL 2
REMARK VINA RESULT:     -11.1      1.164      2.103
REMARK SMILES CC[NH2+][C@@]1(C(=O)OCCOC(=O)c2ccc(-c3c4nc(c(-c5c(F)cccc5F)c5ccc([nH]5)c(-c5c(F)cccc5F)c5nc(c(-c6c(F)cccc6F)c6ccc3[nH]6)C=C5)C=C4)cc2)CC[C@@H]([NH+]2CCC(C)(CC)CC2)C1
REMARK SMILES IDX 8 1 7 2 5 3 6 4 4 5 67 6 79 7 68 8 69 9 3 10 2 13 1 14 70 15
REMARK SMILES IDX 71 16 78 17 72 19 77 20 73 21 74 22 75 23 76 24 9 25 10 26
REMARK SMILES IDX 11 27 12 28 13 29 14 30 66 31 15 32 65 33 16 34 17 35 18 36
REMARK SMILES IDX 59 37 19 38 64 39 58 40 60 41 20 42 63 43 57 44 56 45 21 47
REMARK SMILES IDX 47 48 30 49 46 50 31 51 34 52 45 53 61 54 32 55 33 56 44 58
REMARK SMILES IDX 62 59 35 60 22 61 23 62 28 63 24 64 25 65 27 66 29 67 26 68
REMARK SMILES IDX 48 69 49 70 54 71 50 72 51 73 53 74 55 75 52 76 36 77 37 78
REMARK SMILES IDX 42 79 38 80 39 81 41 82 43 83 40 84
REMARK H PARENT 3 11 3 12 70 18 60 46 34 57
REMARK Flexibility Score: inf
ROOT
ATOM      1  C   UNL A   1      31.455  28.655  24.041  1.00  0.00     0.274 C 
ENDROOT
BRANCH   1   2
ATOM      2  O   UNL A   1      31.302  27.374  24.690  1.00  0.00    -0.457 OA
BRANCH   2   3
ATOM      3  C   UNL A   1      30.518  26.450  24.071  1.00  0.00     0.368 C 
ATOM      4  O   UNL A   1      29.291  26.440  24.108  1.00  0.00    -0.245 OA
BRANCH   3   5
ATOM      5  C   UNL A   1      31.347  25.354  23.342  1.00  0.00     0.200 C 
ATOM      6  C   UNL A   1      30.598  24.021  23.502  1.00  0.00     0.087 C 
ATOM      7  C   UNL A   1      32.729  25.093  23.964  1.00  0.00     0.146 C 
ATOM      8  C   UNL A   1      31.157  23.427  24.787  1.00  0.00     0.072 C 
ATOM      9  C   UNL A   1      32.647  23.810  24.798  1.00  0.00     0.191 C 
BRANCH   5  10
ATOM     10  N   UNL A   1      31.402  25.653  21.883  1.00  0.00    -0.332 N 
ATOM     11  H   UNL A   1      30.643  25.143  21.430  1.00  0.00     0.347 HD
ATOM     12  H   UNL A   1      31.323  26.667  21.805  1.00  0.00     0.347 HD
BRANCH  10  13
ATOM     13  C   UNL A   1      32.644  25.298  21.208  1.00  0.00     0.257 C 
ATOM     14  C   UNL A   1      32.526  25.575  19.718  1.00  0.00     0.071 C 
ENDBRANCH  10  13
ENDBRANCH   5  10
BRANCH   9  15
ATOM     15  N   UNL A   1      33.581  22.742  24.407  1.00  0.00    -0.332 N 
ATOM     16  C   UNL A   1      34.052  21.886  25.498  1.00  0.00     0.263 C 
ATOM     17  C   UNL A   1      34.651  23.036  23.460  1.00  0.00     0.263 C 
ATOM     18  H   UNL A   1      32.923  22.207  23.840  1.00  0.00     0.348 HD
ATOM     19  C   UNL A   1      35.350  22.315  26.205  1.00  0.00     0.068 C 
ATOM     20  C   UNL A   1      35.932  23.608  24.069  1.00  0.00     0.068 C 
ATOM     21  C   UNL A   1      36.490  22.833  25.288  1.00  0.00    -0.022 C 
ATOM     22  C   UNL A   1      37.366  23.817  26.112  1.00  0.00     0.012 C 
BRANCH  21  23
ATOM     23  C   UNL A   1      37.473  21.701  24.873  1.00  0.00     0.004 C 
ATOM     24  C   UNL A   1      38.683  21.441  25.750  1.00  0.00     0.004 C 
ENDBRANCH  21  23
ENDBRANCH   9  15
ENDBRANCH   3   5
ENDBRANCH   2   3
ENDBRANCH   1   2
BRANCH   1  25
ATOM     25  C   UNL A   1      31.401  29.773  25.082  1.00  0.00     0.275 C 
BRANCH  25  26
ATOM     26  O   UNL A   1      32.694  29.874  25.700  1.00  0.00    -0.458 OA
BRANCH  26  27
ATOM     27  C   UNL A   1      32.863  30.836  26.635  1.00  0.00     0.338 C 
ATOM     28  O   UNL A   1      32.042  31.677  26.973  1.00  0.00    -0.246 OA
BRANCH  27  29
ATOM     29  C   UNL A   1      34.201  30.688  27.263  1.00  0.00     0.060 A 
ATOM     30  C   UNL A   1      34.675  29.425  27.612  1.00  0.00     0.016 A 
ATOM     31  C   UNL A   1      34.945  31.812  27.627  1.00  0.00     0.016 A 
ATOM     32  C   UNL A   1      35.802  29.297  28.419  1.00  0.00     0.010 A 
ATOM     33  C   UNL A   1      36.162  31.663  28.316  1.00  0.00     0.010 A 
ATOM     34  C   UNL A   1      36.603  30.400  28.746  1.00  0.00    -0.014 A 
BRANCH  34  35
ATOM     35  C   UNL A   1      37.878  30.213  29.513  1.00  0.00     0.031 A 
ATOM     36  C   UNL A   1      39.021  29.401  28.952  1.00  0.00     0.074 A 
ATOM     37  C   UNL A   1      38.039  30.777  30.732  1.00  0.00     0.049 A 
ATOM     38  N   UNL A   1      40.054  28.889  29.579  1.00  0.00    -0.248 NA
ATOM     39  C   UNL A   1      39.001  29.115  27.510  1.00  0.00     0.031 C 
ATOM     40  C   UNL A   1      37.068  31.638  31.411  1.00  0.00     0.029 A 
ATOM     41  N   UNL A   1      39.091  30.722  31.616  1.00  0.00    -0.354 N 
ATOM     42  C   UNL A   1      40.754  28.153  28.629  1.00  0.00     0.074 A 
ATOM     43  C   UNL A   1      40.047  28.309  27.376  1.00  0.00     0.031 C 
ATOM     44  C   UNL A   1      37.596  32.096  32.551  1.00  0.00     0.029 A 
ATOM     45  C   UNL A   1      38.870  31.430  32.774  1.00  0.00     0.049 A 
ATOM     46  H   UNL A   1      39.922  30.224  31.438  1.00  0.00     0.167 HD
ATOM     47  C   UNL A   1      41.873  27.406  28.798  1.00  0.00     0.037 A 
ATOM     48  C   UNL A   1      39.551  31.482  33.934  1.00  0.00     0.037 A 
ATOM     49  C   UNL A   1      42.625  27.324  30.026  1.00  0.00     0.049 A 
ATOM     50  C   UNL A   1      40.756  30.614  34.117  1.00  0.00     0.074 A 
ATOM     51  C   UNL A   1      43.783  26.608  30.282  1.00  0.00     0.029 A 
ATOM     52  N   UNL A   1      42.309  27.999  31.193  1.00  0.00    -0.354 N 
ATOM     53  N   UNL A   1      41.326  29.809  33.257  1.00  0.00    -0.248 NA
ATOM     54  C   UNL A   1      41.376  30.619  35.449  1.00  0.00     0.031 C 
ATOM     55  C   UNL A   1      44.151  26.826  31.615  1.00  0.00     0.029 A 
ATOM     56  C   UNL A   1      43.241  27.704  32.177  1.00  0.00     0.049 A 
ATOM     57  H   UNL A   1      41.537  28.598  31.308  1.00  0.00     0.167 HD
ATOM     58  C   UNL A   1      42.357  29.190  33.948  1.00  0.00     0.074 A 
ATOM     59  C   UNL A   1      42.359  29.744  35.287  1.00  0.00     0.031 C 
ATOM     60  C   UNL A   1      43.214  28.236  33.513  1.00  0.00     0.037 A 
BRANCH  47  61
ATOM     61  C   UNL A   1      42.347  26.573  27.642  1.00  0.00     0.057 A 
ATOM     62  C   UNL A   1      41.903  25.264  27.428  1.00  0.00     0.134 A 
ATOM     63  C   UNL A   1      43.200  27.132  26.680  1.00  0.00     0.134 A 
ATOM     64  F   UNL A   1      41.094  24.666  28.314  1.00  0.00    -0.206 F 
ATOM     65  C   UNL A   1      42.297  24.538  26.301  1.00  0.00     0.040 A 
ATOM     66  C   UNL A   1      43.583  26.425  25.539  1.00  0.00     0.040 A 
ATOM     67  F   UNL A   1      43.653  28.388  26.820  1.00  0.00    -0.206 F 
ATOM     68  C   UNL A   1      43.131  25.122  25.348  1.00  0.00     0.006 A 
ENDBRANCH  47  61
BRANCH  48  69
ATOM     69  C   UNL A   1      39.022  32.303  35.053  1.00  0.00     0.057 A 
ATOM     70  C   UNL A   1      38.222  31.739  36.049  1.00  0.00     0.134 A 
ATOM     71  C   UNL A   1      39.351  33.660  35.176  1.00  0.00     0.134 A 
ATOM     72  F   UNL A   1      37.849  30.453  35.970  1.00  0.00    -0.206 F 
ATOM     73  C   UNL A   1      37.778  32.491  37.139  1.00  0.00     0.040 A 
ATOM     74  C   UNL A   1      38.942  34.415  36.274  1.00  0.00     0.040 A 
ATOM     75  F   UNL A   1      40.116  34.258  34.250  1.00  0.00    -0.206 F 
ATOM     76  C   UNL A   1      38.152  33.829  37.260  1.00  0.00     0.006 A 
ENDBRANCH  48  69
BRANCH  60  77
ATOM     77  C   UNL A   1      44.212  27.729  34.507  1.00  0.00     0.057 A 
ATOM     78  C   UNL A   1      43.948  26.597  35.289  1.00  0.00     0.134 A 
ATOM     79  C   UNL A   1      45.439  28.374  34.689  1.00  0.00     0.134 A 
ATOM     80  F   UNL A   1      42.780  25.947  35.172  1.00  0.00    -0.206 F 
ATOM     81  C   UNL A   1      44.865  26.137  36.235  1.00  0.00     0.040 A 
ATOM     82  C   UNL A   1      46.372  27.914  35.620  1.00  0.00     0.040 A 
ATOM     83  F   UNL A   1      45.750  29.463  33.969  1.00  0.00    -0.206 F 
ATOM     84  C   UNL A   1      46.083  26.795  36.400  1.00  0.00     0.006 A 
ENDBRANCH  60  77
ENDBRANCH  34  35
ENDBRANCH  27  29
ENDBRANCH  26  27
ENDBRANCH  25  26
ENDBRANCH   1  25
TORSDOF 15
ENDMDL
MODEL 3
REMARK VINA RESULT:     -11.1      4.039      8.803
REMARK SMILES CC[NH2+][C@@]1(C(=O)OCCOC(=O)c2ccc(-c3c4nc(c(-c5c(F)cccc5F)c5ccc([nH]5)c(-c5c(F)cccc5F)c5nc(c(-c6c(F)cccc6F)c6ccc3[nH]6)C=C5)C=C4)cc2)CC[C@@H]([NH+]2CCC(C)(CC)CC2)C1
REMARK SMILES IDX 8 1 7 2 5 3 6 4 4 5 67 6 79 7 68 8 69 9 3 10 2 13 1 14 70 15
REMARK SMILES IDX 71 16 78 17 72 19 77 20 73 21 74 22 75 23 76 24 9 25 10 26
REMARK SMILES IDX 11 27 12 28 13 29 14 30 66 31 15 32 65 33 16 34 17 35 18 36
REMARK SMILES IDX 59 37 19 38 64 39 58 40 60 41 20 42 63 43 57 44 56 45 21 47
REMARK SMILES IDX 47 48 30 49 46 50 31 51 34 52 45 53 61 54 32 55 33 56 44 58
REMARK SMILES IDX 62 59 35 60 22 61 23 62 28 63 24 64 25 65 27 66 29 67 26 68
REMARK SMILES IDX 48 69 49 70 54 71 50 72 51 73 53 74 55 75 52 76 36 77 37 78
REMARK SMILES IDX 42 79 38 80 39 81 41 82 43 83 40 84
REMARK H PARENT 3 11 3 12 70 18 60 46 34 57
REMARK Flexibility Score: inf
ROOT
ATOM      1  C   UNL A   1      34.704  21.481  25.757  1.00  0.00     0.274 C 
ENDROOT
BRANCH   1   2
ATOM      2  O   UNL A   1      34.472  22.749  25.108  1.00  0.00    -0.457 OA
BRANCH   2   3
ATOM      3  C   UNL A   1      33.391  22.841  24.286  1.00  0.00     0.368 C 
ATOM      4  O   UNL A   1      33.082  22.000  23.447  1.00  0.00    -0.245 OA
BRANCH   3   5
ATOM      5  C   UNL A   1      32.602  24.167  24.480  1.00  0.00     0.200 C 
ATOM      6  C   UNL A   1      32.379  24.783  23.088  1.00  0.00     0.087 C 
ATOM      7  C   UNL A   1      33.371  25.248  25.258  1.00  0.00     0.146 C 
ATOM      8  C   UNL A   1      33.595  25.673  22.872  1.00  0.00     0.072 C 
ATOM      9  C   UNL A   1      33.915  26.269  24.253  1.00  0.00     0.191 C 
BRANCH   5  10
ATOM     10  N   UNL A   1      31.256  23.872  25.048  1.00  0.00    -0.332 N 
ATOM     11  H   UNL A   1      30.599  24.554  24.668  1.00  0.00     0.347 HD
ATOM     12  H   UNL A   1      31.050  22.908  24.786  1.00  0.00     0.347 HD
BRANCH  10  13
ATOM     13  C   UNL A   1      31.158  23.919  26.502  1.00  0.00     0.257 C 
ATOM     14  C   UNL A   1      30.089  22.952  26.983  1.00  0.00     0.071 C 
ENDBRANCH  10  13
ENDBRANCH   5  10
BRANCH   9  15
ATOM     15  N   UNL A   1      33.474  27.658  24.463  1.00  0.00    -0.332 N 
ATOM     16  C   UNL A   1      32.476  27.849  25.519  1.00  0.00     0.263 C 
ATOM     17  C   UNL A   1      33.199  28.506  23.309  1.00  0.00     0.263 C 
ATOM     18  H   UNL A   1      34.368  28.019  24.797  1.00  0.00     0.348 HD
ATOM     19  C   UNL A   1      30.998  27.789  25.095  1.00  0.00     0.068 C 
ATOM     20  C   UNL A   1      31.786  28.395  22.732  1.00  0.00     0.068 C 
ATOM     21  C   UNL A   1      30.637  28.502  23.764  1.00  0.00    -0.022 C 
ATOM     22  C   UNL A   1      29.392  27.799  23.158  1.00  0.00     0.012 C 
BRANCH  21  23
ATOM     23  C   UNL A   1      30.176  29.971  23.990  1.00  0.00     0.004 C 
ATOM     24  C   UNL A   1      28.958  30.466  23.234  1.00  0.00     0.004 C 
ENDBRANCH  21  23
ENDBRANCH   9  15
ENDBRANCH   3   5
ENDBRANCH   2   3
ENDBRANCH   1   2
BRANCH   1  25
ATOM     25  C   UNL A   1      35.793  20.710  25.009  1.00  0.00     0.275 C 
BRANCH  25  26
ATOM     26  O   UNL A   1      36.953  21.551  24.911  1.00  0.00    -0.458 OA
BRANCH  26  27
ATOM     27  C   UNL A   1      38.111  21.076  25.425  1.00  0.00     0.338 C 
ATOM     28  O   UNL A   1      38.526  19.928  25.348  1.00  0.00    -0.246 OA
BRANCH  27  29
ATOM     29  C   UNL A   1      38.864  22.188  26.059  1.00  0.00     0.060 A 
ATOM     30  C   UNL A   1      38.344  23.480  26.054  1.00  0.00     0.016 A 
ATOM     31  C   UNL A   1      40.153  21.981  26.556  1.00  0.00     0.016 A 
ATOM     32  C   UNL A   1      39.144  24.560  26.416  1.00  0.00     0.010 A 
ATOM     33  C   UNL A   1      40.899  23.062  27.058  1.00  0.00     0.010 A 
ATOM     34  C   UNL A   1      40.416  24.379  26.976  1.00  0.00    -0.014 A 
BRANCH  34  35
ATOM     35  C   UNL A   1      41.203  25.556  27.471  1.00  0.00     0.031 A 
ATOM     36  C   UNL A   1      40.589  26.581  28.395  1.00  0.00     0.074 A 
ATOM     37  C   UNL A   1      42.495  25.724  27.107  1.00  0.00     0.049 A 
ATOM     38  N   UNL A   1      41.006  27.793  28.675  1.00  0.00    -0.248 NA
ATOM     39  C   UNL A   1      39.343  26.210  29.081  1.00  0.00     0.031 C 
ATOM     40  C   UNL A   1      43.273  24.811  26.267  1.00  0.00     0.029 A 
ATOM     41  N   UNL A   1      43.391  26.723  27.409  1.00  0.00    -0.354 N 
ATOM     42  C   UNL A   1      40.034  28.354  29.497  1.00  0.00     0.074 A 
ATOM     43  C   UNL A   1      39.020  27.341  29.696  1.00  0.00     0.031 C 
ATOM     44  C   UNL A   1      44.538  25.239  26.192  1.00  0.00     0.029 A 
ATOM     45  C   UNL A   1      44.626  26.543  26.831  1.00  0.00     0.049 A 
ATOM     46  H   UNL A   1      43.171  27.492  27.983  1.00  0.00     0.167 HD
ATOM     47  C   UNL A   1      39.991  29.604  30.020  1.00  0.00     0.037 A 
ATOM     48  C   UNL A   1      45.693  27.357  26.731  1.00  0.00     0.037 A 
ATOM     49  C   UNL A   1      41.044  30.581  29.893  1.00  0.00     0.049 A 
ATOM     50  C   UNL A   1      45.609  28.749  27.273  1.00  0.00     0.074 A 
ATOM     51  C   UNL A   1      41.095  31.867  30.408  1.00  0.00     0.029 A 
ATOM     52  N   UNL A   1      42.240  30.373  29.226  1.00  0.00    -0.354 N 
ATOM     53  N   UNL A   1      44.625  29.318  27.923  1.00  0.00    -0.248 NA
ATOM     54  C   UNL A   1      46.757  29.627  27.017  1.00  0.00     0.031 C 
ATOM     55  C   UNL A   1      42.310  32.447  30.026  1.00  0.00     0.029 A 
ATOM     56  C   UNL A   1      43.029  31.511  29.303  1.00  0.00     0.049 A 
ATOM     57  H   UNL A   1      42.493  29.541  28.765  1.00  0.00     0.167 HD
ATOM     58  C   UNL A   1      45.023  30.630  28.132  1.00  0.00     0.074 A 
ATOM     59  C   UNL A   1      46.355  30.760  27.575  1.00  0.00     0.031 C 
ATOM     60  C   UNL A   1      44.337  31.639  28.719  1.00  0.00     0.037 A 
BRANCH  47  61
ATOM     61  C   UNL A   1      38.747  30.021  30.750  1.00  0.00     0.057 A 
ATOM     62  C   UNL A   1      37.657  30.611  30.100  1.00  0.00     0.134 A 
ATOM     63  C   UNL A   1      38.613  29.745  32.118  1.00  0.00     0.134 A 
ATOM     64  F   UNL A   1      37.723  30.911  28.795  1.00  0.00    -0.206 F 
ATOM     65  C   UNL A   1      36.480  30.917  30.788  1.00  0.00     0.040 A 
ATOM     66  C   UNL A   1      37.434  30.026  32.811  1.00  0.00     0.040 A 
ATOM     67  F   UNL A   1      39.617  29.171  32.798  1.00  0.00    -0.206 F 
ATOM     68  C   UNL A   1      36.362  30.615  32.145  1.00  0.00     0.006 A 
ENDBRANCH  47  61
BRANCH  48  69
ATOM     69  C   UNL A   1      46.888  26.901  25.975  1.00  0.00     0.057 A 
ATOM     70  C   UNL A   1      47.040  27.193  24.618  1.00  0.00     0.134 A 
ATOM     71  C   UNL A   1      47.928  26.208  26.610  1.00  0.00     0.134 A 
ATOM     72  F   UNL A   1      46.065  27.827  23.949  1.00  0.00    -0.206 F 
ATOM     73  C   UNL A   1      48.192  26.825  23.919  1.00  0.00     0.040 A 
ATOM     74  C   UNL A   1      49.097  25.864  25.934  1.00  0.00     0.040 A 
ATOM     75  F   UNL A   1      47.840  25.899  27.913  1.00  0.00    -0.206 F 
ATOM     76  C   UNL A   1      49.231  26.173  24.583  1.00  0.00     0.006 A 
ENDBRANCH  48  69
BRANCH  60  77
ATOM     77  C   UNL A   1      45.018  32.971  28.772  1.00  0.00     0.057 A 
ATOM     78  C   UNL A   1      45.891  33.300  29.816  1.00  0.00     0.134 A 
ATOM     79  C   UNL A   1      44.799  33.932  27.780  1.00  0.00     0.134 A 
ATOM     80  F   UNL A   1      46.126  32.426  30.807  1.00  0.00    -0.206 F 
ATOM     81  C   UNL A   1      46.507  34.551  29.883  1.00  0.00     0.040 A 
ATOM     82  C   UNL A   1      45.422  35.180  27.826  1.00  0.00     0.040 A 
ATOM     83  F   UNL A   1      43.973  33.676  26.753  1.00  0.00    -0.206 F 
ATOM     84  C   UNL A   1      46.274  35.494  28.883  1.00  0.00     0.006 A 
ENDBRANCH  60  77
ENDBRANCH  34  35
ENDBRANCH  27  29
ENDBRANCH  26  27
ENDBRANCH  25  26
ENDBRANCH   1  25
TORSDOF 15
ENDMDL
