MODEL 1
REMARK VINA RESULT:     -11.5      0.000      0.000
REMARK SMILES [NH3+][C@]1(C(=O)OCCOC(=O)c2ccc(-c3c4nc(c(-c5c(F)cccc5F)c5ccc([nH]5)c(-c5c(F)cccc5F)c5nc(c(-c6c(F)cccc6F)c6ccc3[nH]6)C=C5)C=C4)cc2)CC[C@@H]([NH+]2CCC(C(F)(F)F)CC2)C1
REMARK SMILES IDX 6 1 5 2 3 3 4 4 2 5 65 6 78 7 66 8 67 9 1 10 68 14 69 15
REMARK SMILES IDX 77 16 70 18 76 19 71 20 72 21 73 22 74 23 75 24 7 25 8 26
REMARK SMILES IDX 9 27 10 28 11 29 12 30 64 31 13 32 63 33 14 34 15 35 16 36
REMARK SMILES IDX 57 37 17 38 62 39 56 40 58 41 18 42 61 43 55 44 54 45 19 47
REMARK SMILES IDX 45 48 28 49 44 50 29 51 32 52 43 53 59 54 30 55 31 56 42 58
REMARK SMILES IDX 60 59 33 60 20 61 21 62 26 63 22 64 23 65 25 66 27 67 24 68
REMARK SMILES IDX 46 69 47 70 52 71 48 72 49 73 51 74 53 75 50 76 34 77 35 78
REMARK SMILES IDX 40 79 36 80 37 81 39 82 41 83 38 84
REMARK H PARENT 1 11 1 12 1 13 68 17 58 46 32 57
REMARK Flexibility Score: inf
ROOT
ATOM      1  C   UNL A   1      31.360  28.923  25.034  1.00  0.00     0.274 C 
ENDROOT
BRANCH   1   2
ATOM      2  O   UNL A   1      31.849  27.603  25.346  1.00  0.00    -0.457 OA
BRANCH   2   3
ATOM      3  C   UNL A   1      31.236  26.955  26.374  1.00  0.00     0.368 C 
ATOM      4  O   UNL A   1      31.028  27.440  27.482  1.00  0.00    -0.245 OA
BRANCH   3   5
ATOM      5  C   UNL A   1      30.881  25.490  26.027  1.00  0.00     0.198 C 
ATOM      6  C   UNL A   1      30.987  25.276  24.510  1.00  0.00     0.087 C 
ATOM      7  C   UNL A   1      31.872  24.448  26.568  1.00  0.00     0.145 C 
ATOM      8  C   UNL A   1      31.098  23.773  24.326  1.00  0.00     0.072 C 
ATOM      9  C   UNL A   1      31.908  23.290  25.542  1.00  0.00     0.191 C 
BRANCH   5  10
ATOM     10  N   UNL A   1      29.505  25.214  26.501  1.00  0.00    -0.343 N 
ATOM     11  H   UNL A   1      28.945  24.856  25.727  1.00  0.00     0.345 HD
ATOM     12  H   UNL A   1      29.088  26.075  26.852  1.00  0.00     0.345 HD
ATOM     13  H   UNL A   1      29.535  24.521  27.248  1.00  0.00     0.345 HD
ENDBRANCH   5  10
BRANCH   9  14
ATOM     14  N   UNL A   1      33.249  22.776  25.194  1.00  0.00    -0.332 N 
ATOM     15  C   UNL A   1      34.372  23.531  25.768  1.00  0.00     0.263 C 
ATOM     16  C   UNL A   1      33.350  21.339  25.487  1.00  0.00     0.263 C 
ATOM     17  H   UNL A   1      33.338  22.918  24.188  1.00  0.00     0.348 HD
ATOM     18  C   UNL A   1      35.718  23.002  25.266  1.00  0.00     0.074 C 
ATOM     19  C   UNL A   1      34.664  20.756  24.971  1.00  0.00     0.074 C 
ATOM     20  C   UNL A   1      35.863  21.507  25.557  1.00  0.00     0.106 C 
BRANCH  20  21
ATOM     21  C   UNL A   1      37.168  20.964  25.011  1.00  0.00     0.392 C 
ATOM     22  F   UNL A   1      38.212  21.357  25.776  1.00  0.00    -0.171 F 
ATOM     23  F   UNL A   1      37.163  19.612  25.001  1.00  0.00    -0.171 F 
ATOM     24  F   UNL A   1      37.403  21.383  23.750  1.00  0.00    -0.171 F 
ENDBRANCH  20  21
ENDBRANCH   9  14
ENDBRANCH   3   5
ENDBRANCH   2   3
ENDBRANCH   1   2
BRANCH   1  25
ATOM     25  C   UNL A   1      32.402  29.979  25.390  1.00  0.00     0.275 C 
BRANCH  25  26
ATOM     26  O   UNL A   1      32.265  30.343  26.775  1.00  0.00    -0.458 OA
BRANCH  26  27
ATOM     27  C   UNL A   1      32.871  31.492  27.146  1.00  0.00     0.338 C 
ATOM     28  O   UNL A   1      32.420  32.623  27.109  1.00  0.00    -0.246 OA
BRANCH  27  29
ATOM     29  C   UNL A   1      34.223  31.196  27.647  1.00  0.00     0.060 A 
ATOM     30  C   UNL A   1      34.585  29.881  27.933  1.00  0.00     0.016 A 
ATOM     31  C   UNL A   1      35.083  32.246  27.960  1.00  0.00     0.016 A 
ATOM     32  C   UNL A   1      35.759  29.620  28.637  1.00  0.00     0.010 A 
ATOM     33  C   UNL A   1      36.309  31.971  28.572  1.00  0.00     0.010 A 
ATOM     34  C   UNL A   1      36.642  30.661  28.959  1.00  0.00    -0.014 A 
BRANCH  34  35
ATOM     35  C   UNL A   1      37.885  30.406  29.739  1.00  0.00     0.031 A 
ATOM     36  C   UNL A   1      38.995  29.584  29.135  1.00  0.00     0.074 A 
ATOM     37  C   UNL A   1      38.034  30.890  30.988  1.00  0.00     0.049 A 
ATOM     38  N   UNL A   1      40.032  29.036  29.714  1.00  0.00    -0.248 NA
ATOM     39  C   UNL A   1      38.913  29.329  27.687  1.00  0.00     0.031 C 
ATOM     40  C   UNL A   1      37.076  31.744  31.690  1.00  0.00     0.029 A 
ATOM     41  N   UNL A   1      39.056  30.727  31.891  1.00  0.00    -0.354 N 
ATOM     42  C   UNL A   1      40.684  28.315  28.722  1.00  0.00     0.074 A 
ATOM     43  C   UNL A   1      39.934  28.506  27.499  1.00  0.00     0.031 C 
ATOM     44  C   UNL A   1      37.568  32.056  32.899  1.00  0.00     0.029 A 
ATOM     45  C   UNL A   1      38.833  31.355  33.091  1.00  0.00     0.049 A 
ATOM     46  H   UNL A   1      39.870  30.209  31.696  1.00  0.00     0.167 HD
ATOM     47  C   UNL A   1      41.799  27.553  28.826  1.00  0.00     0.037 A 
ATOM     48  C   UNL A   1      39.541  31.337  34.236  1.00  0.00     0.037 A 
ATOM     49  C   UNL A   1      42.585  27.419  30.024  1.00  0.00     0.049 A 
ATOM     50  C   UNL A   1      40.779  30.493  34.328  1.00  0.00     0.074 A 
ATOM     51  C   UNL A   1      43.731  26.668  30.228  1.00  0.00     0.029 A 
ATOM     52  N   UNL A   1      42.320  28.075  31.215  1.00  0.00    -0.354 N 
ATOM     53  N   UNL A   1      41.331  29.736  33.413  1.00  0.00    -0.248 NA
ATOM     54  C   UNL A   1      41.477  30.478  35.622  1.00  0.00     0.031 C 
ATOM     55  C   UNL A   1      44.153  26.862  31.548  1.00  0.00     0.029 A 
ATOM     56  C   UNL A   1      43.283  27.752  32.156  1.00  0.00     0.049 A 
ATOM     57  H   UNL A   1      41.559  28.682  31.369  1.00  0.00     0.167 HD
ATOM     58  C   UNL A   1      42.438  29.155  34.016  1.00  0.00     0.074 A 
ATOM     59  C   UNL A   1      42.493  29.663  35.371  1.00  0.00     0.031 C 
ATOM     60  C   UNL A   1      43.324  28.273  33.497  1.00  0.00     0.037 A 
BRANCH  47  61
ATOM     61  C   UNL A   1      42.218  26.775  27.615  1.00  0.00     0.057 A 
ATOM     62  C   UNL A   1      43.080  27.306  26.651  1.00  0.00     0.134 A 
ATOM     63  C   UNL A   1      41.770  25.460  27.433  1.00  0.00     0.134 A 
ATOM     64  F   UNL A   1      43.530  28.565  26.761  1.00  0.00    -0.206 F 
ATOM     65  C   UNL A   1      43.469  26.562  25.534  1.00  0.00     0.040 A 
ATOM     66  C   UNL A   1      42.167  24.700  26.332  1.00  0.00     0.040 A 
ATOM     67  F   UNL A   1      40.943  24.892  28.325  1.00  0.00    -0.206 F 
ATOM     68  C   UNL A   1      43.017  25.252  25.377  1.00  0.00     0.006 A 
ENDBRANCH  47  61
BRANCH  48  69
ATOM     69  C   UNL A   1      39.066  32.114  35.406  1.00  0.00     0.057 A 
ATOM     70  C   UNL A   1      39.402  33.463  35.558  1.00  0.00     0.134 A 
ATOM     71  C   UNL A   1      38.255  31.532  36.388  1.00  0.00     0.134 A 
ATOM     72  F   UNL A   1      40.196  34.066  34.661  1.00  0.00    -0.206 F 
ATOM     73  C   UNL A   1      38.949  34.208  36.648  1.00  0.00     0.040 A 
ATOM     74  C   UNL A   1      37.777  32.271  37.470  1.00  0.00     0.040 A 
ATOM     75  F   UNL A   1      37.899  30.243  36.294  1.00  0.00    -0.206 F 
ATOM     76  C   UNL A   1      38.127  33.613  37.603  1.00  0.00     0.006 A 
ENDBRANCH  48  69
BRANCH  60  77
ATOM     77  C   UNL A   1      44.437  27.821  34.390  1.00  0.00     0.057 A 
ATOM     78  C   UNL A   1      45.648  28.519  34.461  1.00  0.00     0.134 A 
ATOM     79  C   UNL A   1      44.283  26.696  35.208  1.00  0.00     0.134 A 
ATOM     80  F   UNL A   1      45.857  29.597  33.691  1.00  0.00    -0.206 F 
ATOM     81  C   UNL A   1      46.676  28.105  35.308  1.00  0.00     0.040 A 
ATOM     82  C   UNL A   1      45.298  26.281  36.070  1.00  0.00     0.040 A 
ATOM     83  F   UNL A   1      43.143  25.988  35.185  1.00  0.00    -0.206 F 
ATOM     84  C   UNL A   1      46.500  26.984  36.120  1.00  0.00     0.006 A 
ENDBRANCH  60  77
ENDBRANCH  34  35
ENDBRANCH  27  29
ENDBRANCH  26  27
ENDBRANCH  25  26
ENDBRANCH   1  25
TORSDOF 14
ENDMDL
MODEL 2
REMARK VINA RESULT:     -11.5      4.566      9.075
REMARK SMILES [NH3+][C@]1(C(=O)OCCOC(=O)c2ccc(-c3c4nc(c(-c5c(F)cccc5F)c5ccc([nH]5)c(-c5c(F)cccc5F)c5nc(c(-c6c(F)cccc6F)c6ccc3[nH]6)C=C5)C=C4)cc2)CC[C@@H]([NH+]2CCC(C(F)(F)F)CC2)C1
REMARK SMILES IDX 6 1 5 2 3 3 4 4 2 5 65 6 78 7 66 8 67 9 1 10 68 14 69 15
REMARK SMILES IDX 77 16 70 18 76 19 71 20 72 21 73 22 74 23 75 24 7 25 8 26
REMARK SMILES IDX 9 27 10 28 11 29 12 30 64 31 13 32 63 33 14 34 15 35 16 36
REMARK SMILES IDX 57 37 17 38 62 39 56 40 58 41 18 42 61 43 55 44 54 45 19 47
REMARK SMILES IDX 45 48 28 49 44 50 29 51 32 52 43 53 59 54 30 55 31 56 42 58
REMARK SMILES IDX 60 59 33 60 20 61 21 62 26 63 22 64 23 65 25 66 27 67 24 68
REMARK SMILES IDX 46 69 47 70 52 71 48 72 49 73 51 74 53 75 50 76 34 77 35 78
REMARK SMILES IDX 40 79 36 80 37 81 39 82 41 83 38 84
REMARK H PARENT 1 11 1 12 1 13 68 17 58 46 32 57
REMARK Flexibility Score: inf
ROOT
ATOM      1  C   UNL A   1      34.988  21.852  25.124  1.00  0.00     0.274 C 
ENDROOT
BRANCH   1   2
ATOM      2  O   UNL A   1      34.226  21.924  23.902  1.00  0.00    -0.457 OA
BRANCH   2   3
ATOM      3  C   UNL A   1      34.520  22.954  23.062  1.00  0.00     0.368 C 
ATOM      4  O   UNL A   1      35.655  23.306  22.757  1.00  0.00    -0.245 OA
BRANCH   3   5
ATOM      5  C   UNL A   1      33.257  23.700  22.571  1.00  0.00     0.198 C 
ATOM      6  C   UNL A   1      32.088  23.426  23.529  1.00  0.00     0.087 C 
ATOM      7  C   UNL A   1      33.361  25.232  22.620  1.00  0.00     0.145 C 
ATOM      8  C   UNL A   1      31.083  24.533  23.257  1.00  0.00     0.072 C 
ATOM      9  C   UNL A   1      31.942  25.766  22.928  1.00  0.00     0.191 C 
BRANCH   5  10
ATOM     10  N   UNL A   1      32.935  23.230  21.203  1.00  0.00    -0.343 N 
ATOM     11  H   UNL A   1      31.981  22.869  21.184  1.00  0.00     0.345 HD
ATOM     12  H   UNL A   1      33.583  22.489  20.937  1.00  0.00     0.345 HD
ATOM     13  H   UNL A   1      33.018  24.007  20.548  1.00  0.00     0.345 HD
ENDBRANCH   5  10
BRANCH   9  14
ATOM     14  N   UNL A   1      31.861  26.833  23.947  1.00  0.00    -0.332 N 
ATOM     15  C   UNL A   1      33.103  27.073  24.697  1.00  0.00     0.263 C 
ATOM     16  C   UNL A   1      31.328  28.074  23.365  1.00  0.00     0.263 C 
ATOM     17  H   UNL A   1      31.207  26.486  24.648  1.00  0.00     0.348 HD
ATOM     18  C   UNL A   1      32.898  28.109  25.804  1.00  0.00     0.074 C 
ATOM     19  C   UNL A   1      31.071  29.129  24.438  1.00  0.00     0.074 C 
ATOM     20  C   UNL A   1      32.346  29.418  25.236  1.00  0.00     0.106 C 
BRANCH  20  21
ATOM     21  C   UNL A   1      32.086  30.429  26.335  1.00  0.00     0.392 C 
ATOM     22  F   UNL A   1      31.444  29.854  27.377  1.00  0.00    -0.171 F 
ATOM     23  F   UNL A   1      33.247  30.936  26.808  1.00  0.00    -0.171 F 
ATOM     24  F   UNL A   1      31.331  31.461  25.906  1.00  0.00    -0.171 F 
ENDBRANCH  20  21
ENDBRANCH   9  14
ENDBRANCH   3   5
ENDBRANCH   2   3
ENDBRANCH   1   2
BRANCH   1  25
ATOM     25  C   UNL A   1      36.066  20.778  25.023  1.00  0.00     0.275 C 
BRANCH  25  26
ATOM     26  O   UNL A   1      37.334  21.394  24.735  1.00  0.00    -0.458 OA
BRANCH  26  27
ATOM     27  C   UNL A   1      38.378  20.972  25.481  1.00  0.00     0.338 C 
ATOM     28  O   UNL A   1      38.802  19.836  25.603  1.00  0.00    -0.246 OA
BRANCH  27  29
ATOM     29  C   UNL A   1      38.992  22.123  26.164  1.00  0.00     0.060 A 
ATOM     30  C   UNL A   1      38.477  23.403  25.966  1.00  0.00     0.016 A 
ATOM     31  C   UNL A   1      40.165  21.941  26.892  1.00  0.00     0.016 A 
ATOM     32  C   UNL A   1      39.195  24.516  26.400  1.00  0.00     0.010 A 
ATOM     33  C   UNL A   1      40.827  23.054  27.417  1.00  0.00     0.010 A 
ATOM     34  C   UNL A   1      40.376  24.357  27.140  1.00  0.00    -0.014 A 
BRANCH  34  35
ATOM     35  C   UNL A   1      41.174  25.534  27.583  1.00  0.00     0.031 A 
ATOM     36  C   UNL A   1      40.544  26.575  28.473  1.00  0.00     0.074 A 
ATOM     37  C   UNL A   1      42.453  25.694  27.193  1.00  0.00     0.049 A 
ATOM     38  N   UNL A   1      40.962  27.780  28.765  1.00  0.00    -0.248 NA
ATOM     39  C   UNL A   1      39.261  26.216  29.102  1.00  0.00     0.031 C 
ATOM     40  C   UNL A   1      43.220  24.751  26.378  1.00  0.00     0.029 A 
ATOM     41  N   UNL A   1      43.338  26.717  27.433  1.00  0.00    -0.354 N 
ATOM     42  C   UNL A   1      39.965  28.348  29.548  1.00  0.00     0.074 A 
ATOM     43  C   UNL A   1      38.927  27.350  29.699  1.00  0.00     0.031 C 
ATOM     44  C   UNL A   1      44.465  25.222  26.212  1.00  0.00     0.029 A 
ATOM     45  C   UNL A   1      44.560  26.538  26.834  1.00  0.00     0.049 A 
ATOM     46  H   UNL A   1      43.115  27.504  27.981  1.00  0.00     0.167 HD
ATOM     47  C   UNL A   1      39.915  29.591  30.081  1.00  0.00     0.037 A 
ATOM     48  C   UNL A   1      45.626  27.357  26.753  1.00  0.00     0.037 A 
ATOM     49  C   UNL A   1      40.976  30.560  29.991  1.00  0.00     0.049 A 
ATOM     50  C   UNL A   1      45.554  28.729  27.359  1.00  0.00     0.074 A 
ATOM     51  C   UNL A   1      41.018  31.847  30.498  1.00  0.00     0.029 A 
ATOM     52  N   UNL A   1      42.196  30.332  29.375  1.00  0.00    -0.354 N 
ATOM     53  N   UNL A   1      44.568  29.292  28.012  1.00  0.00    -0.248 NA
ATOM     54  C   UNL A   1      46.733  29.590  27.191  1.00  0.00     0.031 C 
ATOM     55  C   UNL A   1      42.262  32.404  30.177  1.00  0.00     0.029 A 
ATOM     56  C   UNL A   1      43.001  31.453  29.494  1.00  0.00     0.049 A 
ATOM     57  H   UNL A   1      42.453  29.497  28.920  1.00  0.00     0.167 HD
ATOM     58  C   UNL A   1      45.004  30.569  28.332  1.00  0.00     0.074 A 
ATOM     59  C   UNL A   1      46.353  30.693  27.821  1.00  0.00     0.031 C 
ATOM     60  C   UNL A   1      44.343  31.555  28.984  1.00  0.00     0.037 A 
BRANCH  47  61
ATOM     61  C   UNL A   1      38.652  29.991  30.783  1.00  0.00     0.057 A 
ATOM     62  C   UNL A   1      38.456  29.763  32.149  1.00  0.00     0.134 A 
ATOM     63  C   UNL A   1      37.631  30.642  30.080  1.00  0.00     0.134 A 
ATOM     64  F   UNL A   1      39.391  29.130  32.874  1.00  0.00    -0.206 F 
ATOM     65  C   UNL A   1      37.278  30.153  32.790  1.00  0.00     0.040 A 
ATOM     66  C   UNL A   1      36.457  31.054  30.713  1.00  0.00     0.040 A 
ATOM     67  F   UNL A   1      37.759  30.892  28.768  1.00  0.00    -0.206 F 
ATOM     68  C   UNL A   1      36.277  30.806  32.072  1.00  0.00     0.006 A 
ENDBRANCH  47  61
BRANCH  48  69
ATOM     69  C   UNL A   1      46.841  26.912  26.029  1.00  0.00     0.057 A 
ATOM     70  C   UNL A   1      47.015  27.199  24.672  1.00  0.00     0.134 A 
ATOM     71  C   UNL A   1      47.859  26.205  26.680  1.00  0.00     0.134 A 
ATOM     72  F   UNL A   1      46.061  27.853  23.992  1.00  0.00    -0.206 F 
ATOM     73  C   UNL A   1      48.161  26.797  23.983  1.00  0.00     0.040 A 
ATOM     74  C   UNL A   1      49.019  25.817  26.009  1.00  0.00     0.040 A 
ATOM     75  F   UNL A   1      47.749  25.904  27.981  1.00  0.00    -0.206 F 
ATOM     76  C   UNL A   1      49.171  26.111  24.656  1.00  0.00     0.006 A 
ENDBRANCH  48  69
BRANCH  60  77
ATOM     77  C   UNL A   1      45.078  32.841  29.198  1.00  0.00     0.057 A 
ATOM     78  C   UNL A   1      45.890  33.042  30.320  1.00  0.00     0.134 A 
ATOM     79  C   UNL A   1      44.995  33.875  28.259  1.00  0.00     0.134 A 
ATOM     80  F   UNL A   1      45.998  32.091  31.260  1.00  0.00    -0.206 F 
ATOM     81  C   UNL A   1      46.588  34.235  30.507  1.00  0.00     0.040 A 
ATOM     82  C   UNL A   1      45.699  35.067  28.427  1.00  0.00     0.040 A 
ATOM     83  F   UNL A   1      44.233  33.739  27.162  1.00  0.00    -0.206 F 
ATOM     84  C   UNL A   1      46.497  35.251  29.555  1.00  0.00     0.006 A 
ENDBRANCH  60  77
ENDBRANCH  34  35
ENDBRANCH  27  29
ENDBRANCH  26  27
ENDBRANCH  25  26
ENDBRANCH   1  25
TORSDOF 14
ENDMDL
MODEL 3
REMARK VINA RESULT:     -11.5      1.310      2.401
REMARK SMILES [NH3+][C@]1(C(=O)OCCOC(=O)c2ccc(-c3c4nc(c(-c5c(F)cccc5F)c5ccc([nH]5)c(-c5c(F)cccc5F)c5nc(c(-c6c(F)cccc6F)c6ccc3[nH]6)C=C5)C=C4)cc2)CC[C@@H]([NH+]2CCC(C(F)(F)F)CC2)C1
REMARK SMILES IDX 6 1 5 2 3 3 4 4 2 5 65 6 78 7 66 8 67 9 1 10 68 14 69 15
REMARK SMILES IDX 77 16 70 18 76 19 71 20 72 21 73 22 74 23 75 24 7 25 8 26
REMARK SMILES IDX 9 27 10 28 11 29 12 30 64 31 13 32 63 33 14 34 15 35 16 36
REMARK SMILES IDX 57 37 17 38 62 39 56 40 58 41 18 42 61 43 55 44 54 45 19 47
REMARK SMILES IDX 45 48 28 49 44 50 29 51 32 52 43 53 59 54 30 55 31 56 42 58
REMARK SMILES IDX 60 59 33 60 20 61 21 62 26 63 22 64 23 65 25 66 27 67 24 68
REMARK SMILES IDX 46 69 47 70 52 71 48 72 49 73 51 74 53 75 50 76 34 77 35 78
REMARK SMILES IDX 40 79 36 80 37 81 39 82 41 83 38 84
REMARK H PARENT 1 11 1 12 1 13 68 17 58 46 32 57
REMARK Flexibility Score: inf
ROOT
ATOM      1  C   UNL A   1      31.083  29.174  24.400  1.00  0.00     0.274 C 
ENDROOT
BRANCH   1   2
ATOM      2  O   UNL A   1      31.344  27.919  25.058  1.00  0.00    -0.457 OA
BRANCH   2   3
ATOM      3  C   UNL A   1      31.689  26.873  24.259  1.00  0.00     0.368 C 
ATOM      4  O   UNL A   1      30.922  26.291  23.498  1.00  0.00    -0.245 OA
BRANCH   3   5
ATOM      5  C   UNL A   1      33.159  26.434  24.455  1.00  0.00     0.198 C 
ATOM      6  C   UNL A   1      33.328  25.792  25.840  1.00  0.00     0.087 C 
ATOM      7  C   UNL A   1      33.618  25.305  23.519  1.00  0.00     0.145 C 
ATOM      8  C   UNL A   1      34.614  24.990  25.753  1.00  0.00     0.072 C 
ATOM      9  C   UNL A   1      34.648  24.462  24.308  1.00  0.00     0.191 C 
BRANCH   5  10
ATOM     10  N   UNL A   1      34.029  27.626  24.320  1.00  0.00    -0.343 N 
ATOM     11  H   UNL A   1      33.723  28.180  23.520  1.00  0.00     0.345 HD
ATOM     12  H   UNL A   1      34.993  27.328  24.177  1.00  0.00     0.345 HD
ATOM     13  H   UNL A   1      33.967  28.189  25.168  1.00  0.00     0.345 HD
ENDBRANCH   5  10
BRANCH   9  14
ATOM     14  N   UNL A   1      34.492  22.995  24.210  1.00  0.00    -0.332 N 
ATOM     15  C   UNL A   1      35.229  22.223  25.220  1.00  0.00     0.263 C 
ATOM     16  C   UNL A   1      33.071  22.621  24.167  1.00  0.00     0.263 C 
ATOM     17  H   UNL A   1      34.931  22.737  23.326  1.00  0.00     0.348 HD
ATOM     18  C   UNL A   1      35.106  20.717  24.975  1.00  0.00     0.074 C 
ATOM     19  C   UNL A   1      32.894  21.130  23.888  1.00  0.00     0.074 C 
ATOM     20  C   UNL A   1      33.637  20.288  24.928  1.00  0.00     0.106 C 
BRANCH  20  21
ATOM     21  C   UNL A   1      33.507  18.808  24.628  1.00  0.00     0.392 C 
ATOM     22  F   UNL A   1      32.778  18.605  23.507  1.00  0.00    -0.171 F 
ATOM     23  F   UNL A   1      34.720  18.248  24.425  1.00  0.00    -0.171 F 
ATOM     24  F   UNL A   1      32.907  18.138  25.634  1.00  0.00    -0.171 F 
ENDBRANCH  20  21
ENDBRANCH   9  14
ENDBRANCH   3   5
ENDBRANCH   2   3
ENDBRANCH   1   2
BRANCH   1  25
ATOM     25  C   UNL A   1      31.325  30.341  25.353  1.00  0.00     0.275 C 
BRANCH  25  26
ATOM     26  O   UNL A   1      32.602  30.182  25.997  1.00  0.00    -0.458 OA
BRANCH  26  27
ATOM     27  C   UNL A   1      32.958  31.162  26.854  1.00  0.00     0.338 C 
ATOM     28  O   UNL A   1      32.309  32.139  27.187  1.00  0.00    -0.246 OA
BRANCH  27  29
ATOM     29  C   UNL A   1      34.302  30.888  27.386  1.00  0.00     0.060 A 
ATOM     30  C   UNL A   1      34.689  29.576  27.653  1.00  0.00     0.016 A 
ATOM     31  C   UNL A   1      35.127  31.951  27.746  1.00  0.00     0.016 A 
ATOM     32  C   UNL A   1      35.849  29.327  28.384  1.00  0.00     0.010 A 
ATOM     33  C   UNL A   1      36.342  31.692  28.385  1.00  0.00     0.010 A 
ATOM     34  C   UNL A   1      36.697  30.382  28.753  1.00  0.00    -0.014 A 
BRANCH  34  35
ATOM     35  C   UNL A   1      37.924  30.140  29.562  1.00  0.00     0.031 A 
ATOM     36  C   UNL A   1      39.041  29.300  28.996  1.00  0.00     0.074 A 
ATOM     37  C   UNL A   1      38.051  30.650  30.802  1.00  0.00     0.049 A 
ATOM     38  N   UNL A   1      40.065  28.762  29.607  1.00  0.00    -0.248 NA
ATOM     39  C   UNL A   1      38.986  29.013  27.553  1.00  0.00     0.031 C 
ATOM     40  C   UNL A   1      37.084  31.524  31.467  1.00  0.00     0.029 A 
ATOM     41  N   UNL A   1      39.056  30.504  31.727  1.00  0.00    -0.354 N 
ATOM     42  C   UNL A   1      40.732  28.016  28.644  1.00  0.00     0.074 A 
ATOM     43  C   UNL A   1      40.007  28.183  27.403  1.00  0.00     0.031 C 
ATOM     44  C   UNL A   1      37.555  31.860  32.678  1.00  0.00     0.029 A 
ATOM     45  C   UNL A   1      38.813  31.159  32.909  1.00  0.00     0.049 A 
ATOM     46  H   UNL A   1      39.871  29.978  31.559  1.00  0.00     0.167 HD
ATOM     47  C   UNL A   1      41.842  27.253  28.785  1.00  0.00     0.037 A 
ATOM     48  C   UNL A   1      39.499  31.163  34.068  1.00  0.00     0.037 A 
ATOM     49  C   UNL A   1      42.605  27.141  30.001  1.00  0.00     0.049 A 
ATOM     50  C   UNL A   1      40.732  30.317  34.201  1.00  0.00     0.074 A 
ATOM     51  C   UNL A   1      43.743  26.391  30.242  1.00  0.00     0.029 A 
ATOM     52  N   UNL A   1      42.321  27.825  31.171  1.00  0.00    -0.354 N 
ATOM     53  N   UNL A   1      41.298  29.538  33.313  1.00  0.00    -0.248 NA
ATOM     54  C   UNL A   1      41.405  30.328  35.508  1.00  0.00     0.031 C 
ATOM     55  C   UNL A   1      44.141  26.613  31.566  1.00  0.00     0.029 A 
ATOM     56  C   UNL A   1      43.264  27.520  32.137  1.00  0.00     0.049 A 
ATOM     57  H   UNL A   1      41.560  28.438  31.298  1.00  0.00     0.167 HD
ATOM     58  C   UNL A   1      42.391  28.967  33.950  1.00  0.00     0.074 A 
ATOM     59  C   UNL A   1      42.422  29.504  35.295  1.00  0.00     0.031 C 
ATOM     60  C   UNL A   1      43.283  28.070  33.467  1.00  0.00     0.037 A 
BRANCH  47  61
ATOM     61  C   UNL A   1      42.280  26.446  27.600  1.00  0.00     0.057 A 
ATOM     62  C   UNL A   1      41.848  25.132  27.394  1.00  0.00     0.134 A 
ATOM     63  C   UNL A   1      43.126  27.011  26.637  1.00  0.00     0.134 A 
ATOM     64  F   UNL A   1      41.050  24.530  28.289  1.00  0.00    -0.206 F 
ATOM     65  C   UNL A   1      42.257  24.399  26.277  1.00  0.00     0.040 A 
ATOM     66  C   UNL A   1      43.526  26.296  25.507  1.00  0.00     0.040 A 
ATOM     67  F   UNL A   1      43.573  28.269  26.776  1.00  0.00    -0.206 F 
ATOM     68  C   UNL A   1      43.094  24.984  25.327  1.00  0.00     0.006 A 
ENDBRANCH  47  61
BRANCH  48  69
ATOM     69  C   UNL A   1      39.006  31.968  35.211  1.00  0.00     0.057 A 
ATOM     70  C   UNL A   1      38.252  31.380  36.232  1.00  0.00     0.134 A 
ATOM     71  C   UNL A   1      39.288  33.335  35.317  1.00  0.00     0.134 A 
ATOM     72  F   UNL A   1      37.931  30.079  36.171  1.00  0.00    -0.206 F 
ATOM     73  C   UNL A   1      37.794  32.124  37.320  1.00  0.00     0.040 A 
ATOM     74  C   UNL A   1      38.855  34.085  36.410  1.00  0.00     0.040 A 
ATOM     75  F   UNL A   1      40.008  33.952  34.370  1.00  0.00    -0.206 F 
ATOM     76  C   UNL A   1      38.103  33.480  37.414  1.00  0.00     0.006 A 
ENDBRANCH  48  69
BRANCH  60  77
ATOM     77  C   UNL A   1      44.376  27.633  34.391  1.00  0.00     0.057 A 
ATOM     78  C   UNL A   1      44.242  26.498  35.199  1.00  0.00     0.134 A 
ATOM     79  C   UNL A   1      45.584  28.337  34.451  1.00  0.00     0.134 A 
ATOM     80  F   UNL A   1      43.101  25.792  35.194  1.00  0.00    -0.206 F 
ATOM     81  C   UNL A   1      45.270  26.084  36.046  1.00  0.00     0.040 A 
ATOM     82  C   UNL A   1      46.625  27.924  35.282  1.00  0.00     0.040 A 
ATOM     83  F   UNL A   1      45.772  29.432  33.697  1.00  0.00    -0.206 F 
ATOM     84  C   UNL A   1      46.469  26.796  36.085  1.00  0.00     0.006 A 
ENDBRANCH  60  77
ENDBRANCH  34  35
ENDBRANCH  27  29
ENDBRANCH  26  27
ENDBRANCH  25  26
ENDBRANCH   1  25
TORSDOF 14
ENDMDL
