MODEL 1
REMARK VINA RESULT:     -12.4      0.000      0.000
REMARK SMILES O=C(CCC(=O)N1Cc2[nH]cnc2C[C@H]1C(=O)NCc1ccccc1)OCCOC(=O)c1ccc(-c2c3nc(c(-c4c(F)cccc4F)c4ccc([nH]4)c(-c4c(F)cccc4F)c4nc(c(-c5c(F)cccc5F)c5ccc2[nH]5)C=C4)C=C3)cc1
REMARK SMILES IDX 1 1 2 2 3 3 4 4 5 5 6 6 7 7 8 8 15 9 9 10 14 11 10 12 13 13
REMARK SMILES IDX 11 14 12 16 16 17 17 18 18 19 19 21 20 22 21 23 25 24 22 25
REMARK SMILES IDX 24 26 23 27 26 28 27 29 28 30 29 31 30 32 31 33 32 34 33 35
REMARK SMILES IDX 85 36 34 37 84 38 35 39 36 40 37 41 78 42 38 43 83 44 77 45
REMARK SMILES IDX 79 46 39 47 82 48 76 49 75 50 40 52 66 53 49 54 65 55 50 56
REMARK SMILES IDX 53 57 64 58 80 59 51 60 52 61 63 63 81 64 54 65 41 66 42 67
REMARK SMILES IDX 47 68 43 69 44 70 46 71 48 72 45 73 67 74 68 75 73 76 69 77
REMARK SMILES IDX 70 78 72 79 74 80 71 81 55 82 56 83 61 84 57 85 58 86 60 87
REMARK SMILES IDX 62 88 59 89
REMARK H PARENT 10 15 18 20 79 51 53 62
REMARK Flexibility Score: inf
ROOT
ATOM      1  O   UNL A   1      39.232  22.833  26.653  1.00  0.00    -0.252 OA
ATOM      2  C   UNL A   1      39.340  21.740  26.105  1.00  0.00     0.306 C 
ENDROOT
BRANCH   2   3
ATOM      3  C   UNL A   1      38.248  21.193  25.249  1.00  0.00     0.132 C 
BRANCH   3   4
ATOM      4  C   UNL A   1      36.937  21.850  25.642  1.00  0.00     0.112 C 
BRANCH   4   5
ATOM      5  C   UNL A   1      36.217  22.405  24.435  1.00  0.00     0.224 C 
ATOM      6  O   UNL A   1      36.885  22.584  23.409  1.00  0.00    -0.275 OA
BRANCH   5   7
ATOM      7  N   UNL A   1      34.868  22.744  24.491  1.00  0.00    -0.324 N 
ATOM      8  C   UNL A   1      34.236  22.937  23.175  1.00  0.00     0.176 C 
ATOM      9  C   UNL A   1      34.054  22.981  25.752  1.00  0.00     0.180 C 
ATOM     10  C   UNL A   1      33.126  23.893  23.270  1.00  0.00     0.058 A 
ATOM     11  C   UNL A   1      33.158  24.251  25.747  1.00  0.00     0.093 C 
ATOM     12  N   UNL A   1      32.312  24.299  22.251  1.00  0.00    -0.347 N 
ATOM     13  C   UNL A   1      32.636  24.507  24.392  1.00  0.00     0.066 A 
ATOM     14  C   UNL A   1      31.374  25.132  22.800  1.00  0.00     0.197 A 
ATOM     15  H   UNL A   1      32.385  24.041  21.303  1.00  0.00     0.167 HD
ATOM     16  N   UNL A   1      31.551  25.280  24.096  1.00  0.00    -0.242 NA
BRANCH   9  17
ATOM     17  C   UNL A   1      33.437  21.778  26.493  1.00  0.00     0.243 C 
ATOM     18  O   UNL A   1      33.782  21.521  27.654  1.00  0.00    -0.273 OA
ATOM     19  N   UNL A   1      32.567  20.903  25.942  1.00  0.00    -0.350 N 
ATOM     20  H   UNL A   1      32.016  20.404  26.586  1.00  0.00     0.163 HD
BRANCH  19  21
ATOM     21  C   UNL A   1      32.319  20.589  24.560  1.00  0.00     0.151 C 
BRANCH  21  22
ATOM     22  C   UNL A   1      32.993  19.310  24.125  1.00  0.00    -0.029 A 
ATOM     23  C   UNL A   1      32.382  18.536  23.128  1.00  0.00     0.005 A 
ATOM     24  C   UNL A   1      34.216  18.865  24.659  1.00  0.00     0.005 A 
ATOM     25  C   UNL A   1      32.970  17.348  22.692  1.00  0.00     0.000 A 
ATOM     26  C   UNL A   1      34.811  17.687  24.210  1.00  0.00     0.000 A 
ATOM     27  C   UNL A   1      34.184  16.926  23.231  1.00  0.00     0.000 A 
ENDBRANCH  21  22
ENDBRANCH  19  21
ENDBRANCH   9  17
ENDBRANCH   5   7
ENDBRANCH   4   5
ENDBRANCH   3   4
ENDBRANCH   2   3
BRANCH   2  28
ATOM     28  O   UNL A   1      40.514  21.072  26.125  1.00  0.00    -0.462 OA
BRANCH  28  29
ATOM     29  C   UNL A   1      40.808  19.774  26.703  1.00  0.00     0.274 C 
BRANCH  29  30
ATOM     30  C   UNL A   1      42.238  19.410  26.284  1.00  0.00     0.275 C 
BRANCH  30  31
ATOM     31  O   UNL A   1      42.848  20.527  25.644  1.00  0.00    -0.458 OA
BRANCH  31  32
ATOM     32  C   UNL A   1      43.998  20.219  24.980  1.00  0.00     0.338 C 
ATOM     33  O   UNL A   1      44.411  19.113  24.727  1.00  0.00    -0.246 OA
BRANCH  32  34
ATOM     34  C   UNL A   1      44.669  21.515  24.716  1.00  0.00     0.060 A 
ATOM     35  C   UNL A   1      45.730  21.817  25.554  1.00  0.00     0.016 A 
ATOM     36  C   UNL A   1      43.941  22.505  24.033  1.00  0.00     0.016 A 
ATOM     37  C   UNL A   1      45.744  23.087  26.070  1.00  0.00     0.010 A 
ATOM     38  C   UNL A   1      43.913  23.750  24.583  1.00  0.00     0.010 A 
ATOM     39  C   UNL A   1      44.721  23.962  25.686  1.00  0.00    -0.014 A 
BRANCH  39  40
ATOM     40  C   UNL A   1      44.458  25.098  26.522  1.00  0.00     0.031 A 
ATOM     41  C   UNL A   1      45.535  26.089  26.504  1.00  0.00     0.074 A 
ATOM     42  C   UNL A   1      43.295  25.249  27.178  1.00  0.00     0.049 A 
ATOM     43  N   UNL A   1      46.394  26.326  27.435  1.00  0.00    -0.248 NA
ATOM     44  C   UNL A   1      45.800  26.767  25.228  1.00  0.00     0.031 C 
ATOM     45  C   UNL A   1      42.030  24.524  27.015  1.00  0.00     0.029 A 
ATOM     46  N   UNL A   1      42.999  26.182  28.116  1.00  0.00    -0.354 N 
ATOM     47  C   UNL A   1      47.206  27.323  26.924  1.00  0.00     0.074 A 
ATOM     48  C   UNL A   1      46.930  27.410  25.514  1.00  0.00     0.031 C 
ATOM     49  C   UNL A   1      41.056  25.182  27.689  1.00  0.00     0.029 A 
ATOM     50  C   UNL A   1      41.655  26.284  28.425  1.00  0.00     0.049 A 
ATOM     51  H   UNL A   1      43.687  26.741  28.542  1.00  0.00     0.167 HD
ATOM     52  C   UNL A   1      47.874  28.177  27.741  1.00  0.00     0.037 A 
ATOM     53  C   UNL A   1      41.105  27.272  29.170  1.00  0.00     0.037 A 
ATOM     54  C   UNL A   1      47.958  27.677  29.087  1.00  0.00     0.049 A 
ATOM     55  C   UNL A   1      42.205  27.918  29.940  1.00  0.00     0.074 A 
ATOM     56  C   UNL A   1      48.523  26.552  29.659  1.00  0.00     0.029 A 
ATOM     57  N   UNL A   1      47.063  28.158  30.012  1.00  0.00    -0.354 N 
ATOM     58  N   UNL A   1      42.853  27.341  30.916  1.00  0.00    -0.248 NA
ATOM     59  C   UNL A   1      42.891  29.047  29.326  1.00  0.00     0.031 C 
ATOM     60  C   UNL A   1      47.615  26.158  30.685  1.00  0.00     0.029 A 
ATOM     61  C   UNL A   1      46.568  27.080  30.708  1.00  0.00     0.049 A 
ATOM     62  H   UNL A   1      46.821  29.101  30.151  1.00  0.00     0.167 HD
ATOM     63  C   UNL A   1      44.170  27.758  30.772  1.00  0.00     0.074 A 
ATOM     64  C   UNL A   1      44.115  28.876  29.835  1.00  0.00     0.031 C 
ATOM     65  C   UNL A   1      45.211  26.984  31.202  1.00  0.00     0.037 A 
BRANCH  52  66
ATOM     66  C   UNL A   1      48.156  29.596  27.356  1.00  0.00     0.057 A 
ATOM     67  C   UNL A   1      49.477  30.055  27.307  1.00  0.00     0.134 A 
ATOM     68  C   UNL A   1      47.161  30.593  27.246  1.00  0.00     0.134 A 
ATOM     69  F   UNL A   1      50.505  29.205  27.451  1.00  0.00    -0.206 F 
ATOM     70  C   UNL A   1      49.788  31.412  27.168  1.00  0.00     0.040 A 
ATOM     71  C   UNL A   1      47.458  31.940  27.044  1.00  0.00     0.040 A 
ATOM     72  F   UNL A   1      45.860  30.330  27.423  1.00  0.00    -0.206 F 
ATOM     73  C   UNL A   1      48.777  32.358  27.026  1.00  0.00     0.006 A 
ENDBRANCH  52  66
BRANCH  53  74
ATOM     74  C   UNL A   1      39.779  27.904  29.003  1.00  0.00     0.057 A 
ATOM     75  C   UNL A   1      38.867  27.964  30.065  1.00  0.00     0.134 A 
ATOM     76  C   UNL A   1      39.479  28.701  27.884  1.00  0.00     0.134 A 
ATOM     77  F   UNL A   1      39.089  27.274  31.193  1.00  0.00    -0.206 F 
ATOM     78  C   UNL A   1      37.732  28.785  30.025  1.00  0.00     0.040 A 
ATOM     79  C   UNL A   1      38.346  29.518  27.827  1.00  0.00     0.040 A 
ATOM     80  F   UNL A   1      40.321  28.783  26.844  1.00  0.00    -0.206 F 
ATOM     81  C   UNL A   1      37.474  29.574  28.907  1.00  0.00     0.006 A 
ENDBRANCH  53  74
BRANCH  65  82
ATOM     82  C   UNL A   1      44.880  25.781  32.045  1.00  0.00     0.057 A 
ATOM     83  C   UNL A   1      44.671  25.836  33.433  1.00  0.00     0.134 A 
ATOM     84  C   UNL A   1      44.621  24.556  31.419  1.00  0.00     0.134 A 
ATOM     85  F   UNL A   1      44.789  26.987  34.105  1.00  0.00    -0.206 F 
ATOM     86  C   UNL A   1      44.272  24.715  34.167  1.00  0.00     0.040 A 
ATOM     87  C   UNL A   1      44.188  23.437  32.136  1.00  0.00     0.040 A 
ATOM     88  F   UNL A   1      44.740  24.441  30.087  1.00  0.00    -0.206 F 
ATOM     89  C   UNL A   1      44.023  23.511  33.516  1.00  0.00     0.006 A 
ENDBRANCH  65  82
ENDBRANCH  39  40
ENDBRANCH  32  34
ENDBRANCH  31  32
ENDBRANCH  30  31
ENDBRANCH  29  30
ENDBRANCH  28  29
ENDBRANCH   2  28
TORSDOF 17
ENDMDL
MODEL 2
REMARK VINA RESULT:     -12.3      1.359      2.475
REMARK SMILES O=C(CCC(=O)N1Cc2[nH]cnc2C[C@H]1C(=O)NCc1ccccc1)OCCOC(=O)c1ccc(-c2c3nc(c(-c4c(F)cccc4F)c4ccc([nH]4)c(-c4c(F)cccc4F)c4nc(c(-c5c(F)cccc5F)c5ccc2[nH]5)C=C4)C=C3)cc1
REMARK SMILES IDX 1 1 2 2 3 3 4 4 5 5 6 6 7 7 8 8 15 9 9 10 14 11 10 12 13 13
REMARK SMILES IDX 11 14 12 16 16 17 17 18 18 19 19 21 20 22 21 23 25 24 22 25
REMARK SMILES IDX 24 26 23 27 26 28 27 29 28 30 29 31 30 32 31 33 32 34 33 35
REMARK SMILES IDX 85 36 34 37 84 38 35 39 36 40 37 41 78 42 38 43 83 44 77 45
REMARK SMILES IDX 79 46 39 47 82 48 76 49 75 50 40 52 66 53 49 54 65 55 50 56
REMARK SMILES IDX 53 57 64 58 80 59 51 60 52 61 63 63 81 64 54 65 41 66 42 67
REMARK SMILES IDX 47 68 43 69 44 70 46 71 48 72 45 73 67 74 68 75 73 76 69 77
REMARK SMILES IDX 70 78 72 79 74 80 71 81 55 82 56 83 61 84 57 85 58 86 60 87
REMARK SMILES IDX 62 88 59 89
REMARK H PARENT 10 15 18 20 79 51 53 62
REMARK Flexibility Score: inf
ROOT
ATOM      1  O   UNL A   1      38.753  23.086  26.113  1.00  0.00    -0.252 OA
ATOM      2  C   UNL A   1      39.034  21.894  26.194  1.00  0.00     0.306 C 
ENDROOT
BRANCH   2   3
ATOM      3  C   UNL A   1      38.340  20.876  25.355  1.00  0.00     0.132 C 
BRANCH   3   4
ATOM      4  C   UNL A   1      37.384  21.584  24.411  1.00  0.00     0.112 C 
BRANCH   4   5
ATOM      5  C   UNL A   1      35.945  21.334  24.795  1.00  0.00     0.224 C 
ATOM      6  O   UNL A   1      35.608  20.161  25.000  1.00  0.00    -0.275 OA
BRANCH   5   7
ATOM      7  N   UNL A   1      35.026  22.376  24.871  1.00  0.00    -0.324 N 
ATOM      8  C   UNL A   1      34.573  22.883  23.565  1.00  0.00     0.176 C 
ATOM      9  C   UNL A   1      34.528  23.043  26.143  1.00  0.00     0.180 C 
ATOM     10  C   UNL A   1      34.201  24.300  23.660  1.00  0.00     0.058 A 
ATOM     11  C   UNL A   1      34.507  24.596  26.126  1.00  0.00     0.093 C 
ATOM     12  N   UNL A   1      33.727  25.086  22.648  1.00  0.00    -0.347 N 
ATOM     13  C   UNL A   1      34.179  25.092  24.776  1.00  0.00     0.066 A 
ATOM     14  C   UNL A   1      33.442  26.309  23.196  1.00  0.00     0.197 A 
ATOM     15  H   UNL A   1      33.612  24.825  21.705  1.00  0.00     0.167 HD
ATOM     16  N   UNL A   1      33.712  26.340  24.484  1.00  0.00    -0.242 NA
BRANCH   9  17
ATOM     17  C   UNL A   1      33.363  22.405  26.926  1.00  0.00     0.243 C 
ATOM     18  O   UNL A   1      33.579  21.829  28.000  1.00  0.00    -0.273 OA
ATOM     19  N   UNL A   1      32.083  22.360  26.492  1.00  0.00    -0.350 N 
ATOM     20  H   UNL A   1      31.410  22.234  27.199  1.00  0.00     0.163 HD
BRANCH  19  21
ATOM     21  C   UNL A   1      31.552  22.469  25.160  1.00  0.00     0.151 C 
BRANCH  21  22
ATOM     22  C   UNL A   1      30.900  23.807  24.903  1.00  0.00    -0.029 A 
ATOM     23  C   UNL A   1      30.722  24.683  25.983  1.00  0.00     0.005 A 
ATOM     24  C   UNL A   1      30.480  24.225  23.627  1.00  0.00     0.005 A 
ATOM     25  C   UNL A   1      30.127  25.931  25.793  1.00  0.00     0.000 A 
ATOM     26  C   UNL A   1      29.902  25.479  23.436  1.00  0.00     0.000 A 
ATOM     27  C   UNL A   1      29.720  26.329  24.520  1.00  0.00     0.000 A 
ENDBRANCH  21  22
ENDBRANCH  19  21
ENDBRANCH   9  17
ENDBRANCH   5   7
ENDBRANCH   4   5
ENDBRANCH   3   4
ENDBRANCH   2   3
BRANCH   2  28
ATOM     28  O   UNL A   1      40.094  21.485  26.925  1.00  0.00    -0.462 OA
BRANCH  28  29
ATOM     29  C   UNL A   1      40.782  20.208  26.888  1.00  0.00     0.274 C 
BRANCH  29  30
ATOM     30  C   UNL A   1      42.280  20.510  26.748  1.00  0.00     0.275 C 
BRANCH  30  31
ATOM     31  O   UNL A   1      42.651  20.459  25.374  1.00  0.00    -0.458 OA
BRANCH  31  32
ATOM     32  C   UNL A   1      43.959  20.129  25.171  1.00  0.00     0.338 C 
ATOM     33  O   UNL A   1      44.450  19.031  25.273  1.00  0.00    -0.246 OA
BRANCH  32  34
ATOM     34  C   UNL A   1      44.656  21.406  24.887  1.00  0.00     0.060 A 
ATOM     35  C   UNL A   1      45.698  21.720  25.746  1.00  0.00     0.016 A 
ATOM     36  C   UNL A   1      43.963  22.385  24.152  1.00  0.00     0.016 A 
ATOM     37  C   UNL A   1      45.715  23.005  26.223  1.00  0.00     0.010 A 
ATOM     38  C   UNL A   1      43.938  23.647  24.662  1.00  0.00     0.010 A 
ATOM     39  C   UNL A   1      44.718  23.881  25.782  1.00  0.00    -0.014 A 
BRANCH  39  40
ATOM     40  C   UNL A   1      44.447  25.047  26.574  1.00  0.00     0.031 A 
ATOM     41  C   UNL A   1      45.532  26.030  26.543  1.00  0.00     0.074 A 
ATOM     42  C   UNL A   1      43.273  25.227  27.202  1.00  0.00     0.049 A 
ATOM     43  N   UNL A   1      46.375  26.292  27.481  1.00  0.00    -0.248 NA
ATOM     44  C   UNL A   1      45.825  26.663  25.250  1.00  0.00     0.031 C 
ATOM     45  C   UNL A   1      42.007  24.506  27.041  1.00  0.00     0.029 A 
ATOM     46  N   UNL A   1      42.967  26.194  28.103  1.00  0.00    -0.354 N 
ATOM     47  C   UNL A   1      47.204  27.266  26.952  1.00  0.00     0.074 A 
ATOM     48  C   UNL A   1      46.954  27.307  25.535  1.00  0.00     0.031 C 
ATOM     49  C   UNL A   1      41.025  25.193  27.673  1.00  0.00     0.029 A 
ATOM     50  C   UNL A   1      41.618  26.315  28.384  1.00  0.00     0.049 A 
ATOM     51  H   UNL A   1      43.651  26.763  28.523  1.00  0.00     0.167 HD
ATOM     52  C   UNL A   1      47.863  28.143  27.752  1.00  0.00     0.037 A 
ATOM     53  C   UNL A   1      41.062  27.331  29.085  1.00  0.00     0.037 A 
ATOM     54  C   UNL A   1      47.918  27.687  29.116  1.00  0.00     0.049 A 
ATOM     55  C   UNL A   1      42.152  27.995  29.853  1.00  0.00     0.074 A 
ATOM     56  C   UNL A   1      48.464  26.578  29.736  1.00  0.00     0.029 A 
ATOM     57  N   UNL A   1      47.010  28.205  30.007  1.00  0.00    -0.354 N 
ATOM     58  N   UNL A   1      42.778  27.448  30.859  1.00  0.00    -0.248 NA
ATOM     59  C   UNL A   1      42.858  29.099  29.214  1.00  0.00     0.031 C 
ATOM     60  C   UNL A   1      47.535  26.225  30.757  1.00  0.00     0.029 A 
ATOM     61  C   UNL A   1      46.495  27.155  30.730  1.00  0.00     0.049 A 
ATOM     62  H   UNL A   1      46.772  29.154  30.110  1.00  0.00     0.167 HD
ATOM     63  C   UNL A   1      44.101  27.851  30.726  1.00  0.00     0.074 A 
ATOM     64  C   UNL A   1      44.071  28.936  29.751  1.00  0.00     0.031 C 
ATOM     65  C   UNL A   1      45.127  27.084  31.201  1.00  0.00     0.037 A 
BRANCH  52  66
ATOM     66  C   UNL A   1      48.162  29.546  27.326  1.00  0.00     0.057 A 
ATOM     67  C   UNL A   1      49.483  30.009  27.332  1.00  0.00     0.134 A 
ATOM     68  C   UNL A   1      47.172  30.532  27.118  1.00  0.00     0.134 A 
ATOM     69  F   UNL A   1      50.503  29.170  27.570  1.00  0.00    -0.206 F 
ATOM     70  C   UNL A   1      49.797  31.361  27.155  1.00  0.00     0.040 A 
ATOM     71  C   UNL A   1      47.477  31.871  26.877  1.00  0.00     0.040 A 
ATOM     72  F   UNL A   1      45.864  30.270  27.232  1.00  0.00    -0.206 F 
ATOM     73  C   UNL A   1      48.793  32.294  26.917  1.00  0.00     0.006 A 
ENDBRANCH  52  66
BRANCH  53  74
ATOM     74  C   UNL A   1      39.744  27.967  28.872  1.00  0.00     0.057 A 
ATOM     75  C   UNL A   1      38.808  28.056  29.910  1.00  0.00     0.134 A 
ATOM     76  C   UNL A   1      39.475  28.738  27.727  1.00  0.00     0.134 A 
ATOM     77  F   UNL A   1      38.999  27.391  31.059  1.00  0.00    -0.206 F 
ATOM     78  C   UNL A   1      37.679  28.882  29.824  1.00  0.00     0.040 A 
ATOM     79  C   UNL A   1      38.348  29.560  27.625  1.00  0.00     0.040 A 
ATOM     80  F   UNL A   1      40.341  28.791  26.706  1.00  0.00    -0.206 F 
ATOM     81  C   UNL A   1      37.452  29.646  28.683  1.00  0.00     0.006 A 
ENDBRANCH  53  74
BRANCH  65  82
ATOM     82  C   UNL A   1      44.772  25.912  32.078  1.00  0.00     0.057 A 
ATOM     83  C   UNL A   1      44.525  24.619  31.589  1.00  0.00     0.134 A 
ATOM     84  C   UNL A   1      44.822  26.059  33.469  1.00  0.00     0.134 A 
ATOM     85  F   UNL A   1      44.562  24.358  30.277  1.00  0.00    -0.206 F 
ATOM     86  C   UNL A   1      44.291  23.537  32.442  1.00  0.00     0.040 A 
ATOM     87  C   UNL A   1      44.626  24.978  34.333  1.00  0.00     0.040 A 
ATOM     88  F   UNL A   1      45.113  27.251  34.012  1.00  0.00    -0.206 F 
ATOM     89  C   UNL A   1      44.347  23.714  33.820  1.00  0.00     0.006 A 
ENDBRANCH  65  82
ENDBRANCH  39  40
ENDBRANCH  32  34
ENDBRANCH  31  32
ENDBRANCH  30  31
ENDBRANCH  29  30
ENDBRANCH  28  29
ENDBRANCH   2  28
TORSDOF 17
ENDMDL
MODEL 3
REMARK VINA RESULT:     -11.9      1.407      2.758
REMARK SMILES O=C(CCC(=O)N1Cc2[nH]cnc2C[C@H]1C(=O)NCc1ccccc1)OCCOC(=O)c1ccc(-c2c3nc(c(-c4c(F)cccc4F)c4ccc([nH]4)c(-c4c(F)cccc4F)c4nc(c(-c5c(F)cccc5F)c5ccc2[nH]5)C=C4)C=C3)cc1
REMARK SMILES IDX 1 1 2 2 3 3 4 4 5 5 6 6 7 7 8 8 15 9 9 10 14 11 10 12 13 13
REMARK SMILES IDX 11 14 12 16 16 17 17 18 18 19 19 21 20 22 21 23 25 24 22 25
REMARK SMILES IDX 24 26 23 27 26 28 27 29 28 30 29 31 30 32 31 33 32 34 33 35
REMARK SMILES IDX 85 36 34 37 84 38 35 39 36 40 37 41 78 42 38 43 83 44 77 45
REMARK SMILES IDX 79 46 39 47 82 48 76 49 75 50 40 52 66 53 49 54 65 55 50 56
REMARK SMILES IDX 53 57 64 58 80 59 51 60 52 61 63 63 81 64 54 65 41 66 42 67
REMARK SMILES IDX 47 68 43 69 44 70 46 71 48 72 45 73 67 74 68 75 73 76 69 77
REMARK SMILES IDX 70 78 72 79 74 80 71 81 55 82 56 83 61 84 57 85 58 86 60 87
REMARK SMILES IDX 62 88 59 89
REMARK H PARENT 10 15 18 20 79 51 53 62
REMARK Flexibility Score: inf
ROOT
ATOM      1  O   UNL A   1      39.112  23.056  26.140  1.00  0.00    -0.252 OA
ATOM      2  C   UNL A   1      39.005  21.839  26.024  1.00  0.00     0.306 C 
ENDROOT
BRANCH   2   3
ATOM      3  C   UNL A   1      37.953  21.234  25.157  1.00  0.00     0.132 C 
BRANCH   3   4
ATOM      4  C   UNL A   1      36.954  22.310  24.770  1.00  0.00     0.112 C 
BRANCH   4   5
ATOM      5  C   UNL A   1      35.599  22.049  25.384  1.00  0.00     0.224 C 
ATOM      6  O   UNL A   1      35.446  20.980  25.988  1.00  0.00    -0.275 OA
BRANCH   5   7
ATOM      7  N   UNL A   1      34.552  22.955  25.238  1.00  0.00    -0.324 N 
ATOM      8  C   UNL A   1      34.977  24.362  25.136  1.00  0.00     0.176 C 
ATOM      9  C   UNL A   1      33.070  22.622  25.240  1.00  0.00     0.180 C 
ATOM     10  C   UNL A   1      33.933  25.256  25.652  1.00  0.00     0.058 A 
ATOM     11  C   UNL A   1      32.174  23.538  26.119  1.00  0.00     0.093 C 
ATOM     12  N   UNL A   1      33.981  26.620  25.701  1.00  0.00    -0.347 N 
ATOM     13  C   UNL A   1      32.688  24.920  26.113  1.00  0.00     0.066 A 
ATOM     14  C   UNL A   1      32.772  27.043  26.185  1.00  0.00     0.197 A 
ATOM     15  H   UNL A   1      34.740  27.191  25.439  1.00  0.00     0.167 HD
ATOM     16  N   UNL A   1      31.971  26.031  26.447  1.00  0.00    -0.242 NA
BRANCH   9  17
ATOM     17  C   UNL A   1      32.398  22.149  23.935  1.00  0.00     0.243 C 
ATOM     18  O   UNL A   1      32.206  20.942  23.739  1.00  0.00    -0.273 OA
ATOM     19  N   UNL A   1      32.046  22.964  22.916  1.00  0.00    -0.350 N 
ATOM     20  H   UNL A   1      31.355  22.603  22.316  1.00  0.00     0.163 HD
BRANCH  19  21
ATOM     21  C   UNL A   1      32.524  24.277  22.572  1.00  0.00     0.151 C 
BRANCH  21  22
ATOM     22  C   UNL A   1      31.522  25.360  22.891  1.00  0.00    -0.029 A 
ATOM     23  C   UNL A   1      31.857  26.689  22.594  1.00  0.00     0.005 A 
ATOM     24  C   UNL A   1      30.260  25.099  23.454  1.00  0.00     0.005 A 
ATOM     25  C   UNL A   1      30.961  27.725  22.868  1.00  0.00     0.000 A 
ATOM     26  C   UNL A   1      29.360  26.132  23.710  1.00  0.00     0.000 A 
ATOM     27  C   UNL A   1      29.713  27.445  23.423  1.00  0.00     0.000 A 
ENDBRANCH  21  22
ENDBRANCH  19  21
ENDBRANCH   9  17
ENDBRANCH   5   7
ENDBRANCH   4   5
ENDBRANCH   3   4
ENDBRANCH   2   3
BRANCH   2  28
ATOM     28  O   UNL A   1      39.937  21.012  26.546  1.00  0.00    -0.462 OA
BRANCH  28  29
ATOM     29  C   UNL A   1      40.475  19.786  25.987  1.00  0.00     0.274 C 
BRANCH  29  30
ATOM     30  C   UNL A   1      41.979  19.778  26.289  1.00  0.00     0.275 C 
BRANCH  30  31
ATOM     31  O   UNL A   1      42.649  20.668  25.401  1.00  0.00    -0.458 OA
BRANCH  31  32
ATOM     32  C   UNL A   1      43.922  20.286  25.098  1.00  0.00     0.338 C 
ATOM     33  O   UNL A   1      44.351  19.158  25.076  1.00  0.00    -0.246 OA
BRANCH  32  34
ATOM     34  C   UNL A   1      44.679  21.544  24.888  1.00  0.00     0.060 A 
ATOM     35  C   UNL A   1      45.675  21.801  25.817  1.00  0.00     0.016 A 
ATOM     36  C   UNL A   1      44.069  22.562  24.135  1.00  0.00     0.016 A 
ATOM     37  C   UNL A   1      45.707  23.074  26.325  1.00  0.00     0.010 A 
ATOM     38  C   UNL A   1      44.055  23.812  24.672  1.00  0.00     0.010 A 
ATOM     39  C   UNL A   1      44.770  23.995  25.843  1.00  0.00    -0.014 A 
BRANCH  39  40
ATOM     40  C   UNL A   1      44.490  25.153  26.644  1.00  0.00     0.031 A 
ATOM     41  C   UNL A   1      45.559  26.152  26.606  1.00  0.00     0.074 A 
ATOM     42  C   UNL A   1      43.321  25.311  27.287  1.00  0.00     0.049 A 
ATOM     43  N   UNL A   1      46.408  26.423  27.535  1.00  0.00    -0.248 NA
ATOM     44  C   UNL A   1      45.826  26.796  25.312  1.00  0.00     0.031 C 
ATOM     45  C   UNL A   1      42.064  24.570  27.137  1.00  0.00     0.029 A 
ATOM     46  N   UNL A   1      43.010  26.268  28.196  1.00  0.00    -0.354 N 
ATOM     47  C   UNL A   1      47.215  27.413  27.001  1.00  0.00     0.074 A 
ATOM     48  C   UNL A   1      46.948  27.457  25.587  1.00  0.00     0.031 C 
ATOM     49  C   UNL A   1      41.079  25.238  27.784  1.00  0.00     0.029 A 
ATOM     50  C   UNL A   1      41.663  26.366  28.493  1.00  0.00     0.049 A 
ATOM     51  H   UNL A   1      43.690  26.846  28.611  1.00  0.00     0.167 HD
ATOM     52  C   UNL A   1      47.869  28.296  27.798  1.00  0.00     0.037 A 
ATOM     53  C   UNL A   1      41.098  27.370  29.206  1.00  0.00     0.037 A 
ATOM     54  C   UNL A   1      47.948  27.835  29.159  1.00  0.00     0.049 A 
ATOM     55  C   UNL A   1      42.187  28.048  29.964  1.00  0.00     0.074 A 
ATOM     56  C   UNL A   1      48.519  26.732  29.766  1.00  0.00     0.029 A 
ATOM     57  N   UNL A   1      47.043  28.334  30.063  1.00  0.00    -0.354 N 
ATOM     58  N   UNL A   1      42.833  27.505  30.960  1.00  0.00    -0.248 NA
ATOM     59  C   UNL A   1      42.868  29.166  29.323  1.00  0.00     0.031 C 
ATOM     60  C   UNL A   1      47.608  26.359  30.797  1.00  0.00     0.029 A 
ATOM     61  C   UNL A   1      46.553  27.273  30.786  1.00  0.00     0.049 A 
ATOM     62  H   UNL A   1      46.791  29.279  30.173  1.00  0.00     0.167 HD
ATOM     63  C   UNL A   1      44.148  27.930  30.814  1.00  0.00     0.074 A 
ATOM     64  C   UNL A   1      44.089  29.020  29.845  1.00  0.00     0.031 C 
ATOM     65  C   UNL A   1      45.192  27.178  31.273  1.00  0.00     0.037 A 
BRANCH  52  66
ATOM     66  C   UNL A   1      48.141  29.706  27.375  1.00  0.00     0.057 A 
ATOM     67  C   UNL A   1      49.460  30.165  27.288  1.00  0.00     0.134 A 
ATOM     68  C   UNL A   1      47.143  30.699  27.261  1.00  0.00     0.134 A 
ATOM     69  F   UNL A   1      50.492  29.319  27.431  1.00  0.00    -0.206 F 
ATOM     70  C   UNL A   1      49.766  31.519  27.111  1.00  0.00     0.040 A 
ATOM     71  C   UNL A   1      47.434  32.042  27.022  1.00  0.00     0.040 A 
ATOM     72  F   UNL A   1      45.846  30.439  27.471  1.00  0.00    -0.206 F 
ATOM     73  C   UNL A   1      48.752  32.460  26.968  1.00  0.00     0.006 A 
ENDBRANCH  52  66
BRANCH  53  74
ATOM     74  C   UNL A   1      39.768  27.985  29.012  1.00  0.00     0.057 A 
ATOM     75  C   UNL A   1      38.838  28.043  30.058  1.00  0.00     0.134 A 
ATOM     76  C   UNL A   1      39.478  28.769  27.881  1.00  0.00     0.134 A 
ATOM     77  F   UNL A   1      39.050  27.365  31.195  1.00  0.00    -0.206 F 
ATOM     78  C   UNL A   1      37.695  28.850  29.992  1.00  0.00     0.040 A 
ATOM     79  C   UNL A   1      38.336  29.572  27.799  1.00  0.00     0.040 A 
ATOM     80  F   UNL A   1      40.336  28.852  26.854  1.00  0.00    -0.206 F 
ATOM     81  C   UNL A   1      37.446  29.626  28.863  1.00  0.00     0.006 A 
ENDBRANCH  53  74
BRANCH  65  82
ATOM     82  C   UNL A   1      44.866  25.996  32.148  1.00  0.00     0.057 A 
ATOM     83  C   UNL A   1      44.634  26.091  33.530  1.00  0.00     0.134 A 
ATOM     84  C   UNL A   1      44.636  24.749  31.557  1.00  0.00     0.134 A 
ATOM     85  F   UNL A   1      44.724  27.265  34.168  1.00  0.00    -0.206 F 
ATOM     86  C   UNL A   1      44.241  24.987  34.293  1.00  0.00     0.040 A 
ATOM     87  C   UNL A   1      44.208  23.646  32.301  1.00  0.00     0.040 A 
ATOM     88  F   UNL A   1      44.777  24.595  30.231  1.00  0.00    -0.206 F 
ATOM     89  C   UNL A   1      44.020  23.760  33.676  1.00  0.00     0.006 A 
ENDBRANCH  65  82
ENDBRANCH  39  40
ENDBRANCH  32  34
ENDBRANCH  31  32
ENDBRANCH  30  31
ENDBRANCH  29  30
ENDBRANCH  28  29
ENDBRANCH   2  28
TORSDOF 17
ENDMDL
