MODEL 1
REMARK VINA RESULT:     -10.6      0.000      0.000
REMARK SMILES C[C@H]([NH3+])c1ccc(F)cc1OCC(C)(C)C(=O)OCCOC(=O)c1ccc(-c2c3nc(c(-c4c(F)cccc4F)c4ccc([nH]4)c(-c4c(F)cccc4F)c4nc(c(-c5c(F)cccc5F)c5ccc2[nH]5)C=C4)C=C3)cc1
REMARK SMILES IDX 18 1 16 2 17 3 13 4 14 5 15 6 12 7 11 8 10 9 4 10 5 11 6 12
REMARK SMILES IDX 9 13 7 14 8 15 2 16 1 17 3 18 19 22 20 23 21 24 22 25 23 26
REMARK SMILES IDX 24 27 25 28 77 29 26 30 76 31 27 32 28 33 29 34 70 35 30 36
REMARK SMILES IDX 75 37 69 38 71 39 31 40 74 41 68 42 67 43 32 45 58 46 41 47
REMARK SMILES IDX 57 48 42 49 45 50 56 51 72 52 43 53 44 54 55 56 73 57 46 58
REMARK SMILES IDX 33 59 34 60 39 61 35 62 36 63 38 64 40 65 37 66 59 67 60 68
REMARK SMILES IDX 65 69 61 70 62 71 64 72 66 73 63 74 47 75 48 76 53 77 49 78
REMARK SMILES IDX 50 79 52 80 54 81 51 82
REMARK H PARENT 3 19 3 20 3 21 71 44 45 55
REMARK Flexibility Score: inf
ROOT
ATOM      1  O   UNL A   1      35.905  21.023  25.310  1.00  0.00    -0.462 OA
ENDROOT
BRANCH   1   2
ATOM      2  C   UNL A   1      34.869  21.578  24.618  1.00  0.00     0.315 C 
ATOM      3  O   UNL A   1      33.823  20.992  24.377  1.00  0.00    -0.251 OA
BRANCH   2   4
ATOM      4  C   UNL A   1      35.228  22.971  24.084  1.00  0.00     0.096 C 
ATOM      5  C   UNL A   1      34.193  23.279  22.996  1.00  0.00     0.027 C 
ATOM      6  C   UNL A   1      36.633  22.981  23.442  1.00  0.00     0.027 C 
BRANCH   4   7
ATOM      7  C   UNL A   1      35.275  24.019  25.227  1.00  0.00     0.247 C 
BRANCH   7   8
ATOM      8  O   UNL A   1      34.136  24.151  26.062  1.00  0.00    -0.492 OA
BRANCH   8   9
ATOM      9  C   UNL A   1      33.232  25.167  26.044  1.00  0.00     0.131 A 
ATOM     10  C   UNL A   1      31.835  25.151  26.228  1.00  0.00     0.051 A 
ATOM     11  C   UNL A   1      31.137  26.379  26.069  1.00  0.00     0.017 A 
ATOM     12  C   UNL A   1      31.786  27.571  25.751  1.00  0.00     0.040 A 
ATOM     13  C   UNL A   1      33.867  26.377  25.700  1.00  0.00     0.086 A 
ATOM     14  C   UNL A   1      33.153  27.557  25.563  1.00  0.00     0.126 A 
ATOM     15  F   UNL A   1      33.789  28.688  25.233  1.00  0.00    -0.207 F 
BRANCH  10  16
ATOM     16  C   UNL A   1      31.003  23.908  26.483  1.00  0.00     0.212 C 
ATOM     17  C   UNL A   1      31.048  22.959  25.289  1.00  0.00     0.081 C 
BRANCH  16  18
ATOM     18  N   UNL A   1      29.605  24.213  26.828  1.00  0.00    -0.351 N 
ATOM     19  H   UNL A   1      29.470  24.098  27.833  1.00  0.00     0.345 HD
ATOM     20  H   UNL A   1      28.985  23.578  26.326  1.00  0.00     0.345 HD
ATOM     21  H   UNL A   1      29.393  25.175  26.564  1.00  0.00     0.345 HD
ENDBRANCH  16  18
ENDBRANCH  10  16
ENDBRANCH   8   9
ENDBRANCH   7   8
ENDBRANCH   4   7
ENDBRANCH   2   4
ENDBRANCH   1   2
BRANCH   1  22
ATOM     22  C   UNL A   1      36.261  19.670  24.965  1.00  0.00     0.274 C 
BRANCH  22  23
ATOM     23  C   UNL A   1      37.776  19.482  24.968  1.00  0.00     0.275 C 
BRANCH  23  24
ATOM     24  O   UNL A   1      38.430  20.702  25.359  1.00  0.00    -0.458 OA
BRANCH  24  25
ATOM     25  C   UNL A   1      39.565  20.547  26.076  1.00  0.00     0.338 C 
ATOM     26  O   UNL A   1      40.262  19.552  26.168  1.00  0.00    -0.246 OA
BRANCH  25  27
ATOM     27  C   UNL A   1      39.927  21.819  26.715  1.00  0.00     0.060 A 
ATOM     28  C   UNL A   1      39.280  22.975  26.290  1.00  0.00     0.016 A 
ATOM     29  C   UNL A   1      41.015  21.901  27.580  1.00  0.00     0.016 A 
ATOM     30  C   UNL A   1      39.783  24.225  26.632  1.00  0.00     0.010 A 
ATOM     31  C   UNL A   1      41.461  23.160  28.004  1.00  0.00     0.010 A 
ATOM     32  C   UNL A   1      40.882  24.338  27.495  1.00  0.00    -0.014 A 
BRANCH  32  33
ATOM     33  C   UNL A   1      41.460  25.680  27.792  1.00  0.00     0.031 A 
ATOM     34  C   UNL A   1      42.809  26.066  27.242  1.00  0.00     0.074 A 
ATOM     35  C   UNL A   1      40.757  26.589  28.500  1.00  0.00     0.049 A 
ATOM     36  N   UNL A   1      43.536  27.126  27.495  1.00  0.00    -0.248 NA
ATOM     37  C   UNL A   1      43.431  25.132  26.289  1.00  0.00     0.031 C 
ATOM     38  C   UNL A   1      39.416  26.386  29.047  1.00  0.00     0.029 A 
ATOM     39  N   UNL A   1      41.068  27.879  28.855  1.00  0.00    -0.354 N 
ATOM     40  C   UNL A   1      44.718  26.957  26.786  1.00  0.00     0.074 A 
ATOM     41  C   UNL A   1      44.614  25.694  26.088  1.00  0.00     0.031 C 
ATOM     42  C   UNL A   1      38.992  27.528  29.608  1.00  0.00     0.029 A 
ATOM     43  C   UNL A   1      40.062  28.518  29.538  1.00  0.00     0.049 A 
ATOM     44  H   UNL A   1      41.929  28.304  28.642  1.00  0.00     0.167 HD
ATOM     45  C   UNL A   1      45.793  27.779  26.722  1.00  0.00     0.037 A 
ATOM     46  C   UNL A   1      40.010  29.754  30.071  1.00  0.00     0.037 A 
ATOM     47  C   UNL A   1      45.873  29.069  27.356  1.00  0.00     0.049 A 
ATOM     48  C   UNL A   1      41.213  30.647  29.989  1.00  0.00     0.074 A 
ATOM     49  C   UNL A   1      46.927  29.967  27.355  1.00  0.00     0.029 A 
ATOM     50  N   UNL A   1      44.848  29.658  28.078  1.00  0.00    -0.354 N 
ATOM     51  N   UNL A   1      42.365  30.429  29.404  1.00  0.00    -0.248 NA
ATOM     52  C   UNL A   1      41.119  31.947  30.669  1.00  0.00     0.031 C 
ATOM     53  C   UNL A   1      46.546  31.093  28.092  1.00  0.00     0.029 A 
ATOM     54  C   UNL A   1      45.243  30.909  28.525  1.00  0.00     0.049 A 
ATOM     55  H   UNL A   1      43.969  29.248  28.248  1.00  0.00     0.167 HD
ATOM     56  C   UNL A   1      43.134  31.557  29.650  1.00  0.00     0.074 A 
ATOM     57  C   UNL A   1      42.309  32.473  30.410  1.00  0.00     0.031 C 
ATOM     58  C   UNL A   1      44.416  31.805  29.289  1.00  0.00     0.037 A 
BRANCH  45  59
ATOM     59  C   UNL A   1      46.990  27.298  25.956  1.00  0.00     0.057 A 
ATOM     60  C   UNL A   1      48.023  26.621  26.616  1.00  0.00     0.134 A 
ATOM     61  C   UNL A   1      47.145  27.542  24.588  1.00  0.00     0.134 A 
ATOM     62  F   UNL A   1      47.938  26.360  27.929  1.00  0.00    -0.206 F 
ATOM     63  C   UNL A   1      49.175  26.211  25.941  1.00  0.00     0.040 A 
ATOM     64  C   UNL A   1      48.282  27.119  23.897  1.00  0.00     0.040 A 
ATOM     65  F   UNL A   1      46.183  28.172  23.895  1.00  0.00    -0.206 F 
ATOM     66  C   UNL A   1      49.304  26.457  24.576  1.00  0.00     0.006 A 
ENDBRANCH  45  59
BRANCH  46  67
ATOM     67  C   UNL A   1      38.774  30.207  30.757  1.00  0.00     0.057 A 
ATOM     68  C   UNL A   1      37.804  30.965  30.089  1.00  0.00     0.134 A 
ATOM     69  C   UNL A   1      38.546  29.905  32.103  1.00  0.00     0.134 A 
ATOM     70  F   UNL A   1      37.966  31.285  28.797  1.00  0.00    -0.206 F 
ATOM     71  C   UNL A   1      36.663  31.430  30.744  1.00  0.00     0.040 A 
ATOM     72  C   UNL A   1      37.397  30.342  32.764  1.00  0.00     0.040 A 
ATOM     73  F   UNL A   1      39.427  29.159  32.786  1.00  0.00    -0.206 F 
ATOM     74  C   UNL A   1      36.457  31.115  32.086  1.00  0.00     0.006 A 
ENDBRANCH  46  67
BRANCH  58  75
ATOM     75  C   UNL A   1      45.005  33.115  29.713  1.00  0.00     0.057 A 
ATOM     76  C   UNL A   1      45.697  33.232  30.926  1.00  0.00     0.134 A 
ATOM     77  C   UNL A   1      44.855  34.270  28.936  1.00  0.00     0.134 A 
ATOM     78  F   UNL A   1      45.867  32.164  31.718  1.00  0.00    -0.206 F 
ATOM     79  C   UNL A   1      46.216  34.455  31.352  1.00  0.00     0.040 A 
ATOM     80  C   UNL A   1      45.386  35.495  29.342  1.00  0.00     0.040 A 
ATOM     81  F   UNL A   1      44.212  34.218  27.760  1.00  0.00    -0.206 F 
ATOM     82  C   UNL A   1      46.065  35.590  30.556  1.00  0.00     0.006 A 
ENDBRANCH  58  75
ENDBRANCH  32  33
ENDBRANCH  25  27
ENDBRANCH  24  25
ENDBRANCH  23  24
ENDBRANCH  22  23
ENDBRANCH   1  22
TORSDOF 16
ENDMDL
MODEL 2
REMARK VINA RESULT:     -10.5      2.011      7.042
REMARK SMILES C[C@H]([NH3+])c1ccc(F)cc1OCC(C)(C)C(=O)OCCOC(=O)c1ccc(-c2c3nc(c(-c4c(F)cccc4F)c4ccc([nH]4)c(-c4c(F)cccc4F)c4nc(c(-c5c(F)cccc5F)c5ccc2[nH]5)C=C4)C=C3)cc1
REMARK SMILES IDX 18 1 16 2 17 3 13 4 14 5 15 6 12 7 11 8 10 9 4 10 5 11 6 12
REMARK SMILES IDX 9 13 7 14 8 15 2 16 1 17 3 18 19 22 20 23 21 24 22 25 23 26
REMARK SMILES IDX 24 27 25 28 77 29 26 30 76 31 27 32 28 33 29 34 70 35 30 36
REMARK SMILES IDX 75 37 69 38 71 39 31 40 74 41 68 42 67 43 32 45 58 46 41 47
REMARK SMILES IDX 57 48 42 49 45 50 56 51 72 52 43 53 44 54 55 56 73 57 46 58
REMARK SMILES IDX 33 59 34 60 39 61 35 62 36 63 38 64 40 65 37 66 59 67 60 68
REMARK SMILES IDX 65 69 61 70 62 71 64 72 66 73 63 74 47 75 48 76 53 77 49 78
REMARK SMILES IDX 50 79 52 80 54 81 51 82
REMARK H PARENT 3 19 3 20 3 21 71 44 45 55
REMARK Flexibility Score: inf
ROOT
ATOM      1  O   UNL A   1      34.820  22.965  25.634  1.00  0.00    -0.462 OA
ENDROOT
BRANCH   1   2
ATOM      2  C   UNL A   1      33.588  23.485  25.368  1.00  0.00     0.315 C 
ATOM      3  O   UNL A   1      33.386  24.355  24.532  1.00  0.00    -0.251 OA
BRANCH   2   4
ATOM      4  C   UNL A   1      32.522  22.934  26.324  1.00  0.00     0.096 C 
ATOM      5  C   UNL A   1      31.595  24.113  26.639  1.00  0.00     0.027 C 
ATOM      6  C   UNL A   1      33.154  22.440  27.644  1.00  0.00     0.027 C 
BRANCH   4   7
ATOM      7  C   UNL A   1      31.798  21.706  25.713  1.00  0.00     0.247 C 
BRANCH   7   8
ATOM      8  O   UNL A   1      32.564  20.543  25.440  1.00  0.00    -0.492 OA
BRANCH   8   9
ATOM      9  C   UNL A   1      32.488  19.765  24.327  1.00  0.00     0.131 A 
ATOM     10  C   UNL A   1      32.747  18.392  24.152  1.00  0.00     0.051 A 
ATOM     11  C   UNL A   1      32.658  17.869  22.833  1.00  0.00     0.017 A 
ATOM     12  C   UNL A   1      32.322  18.661  21.737  1.00  0.00     0.040 A 
ATOM     13  C   UNL A   1      32.172  20.555  23.204  1.00  0.00     0.086 A 
ATOM     14  C   UNL A   1      32.085  20.006  21.933  1.00  0.00     0.126 A 
ATOM     15  F   UNL A   1      31.785  20.787  20.888  1.00  0.00    -0.207 F 
BRANCH  10  16
ATOM     16  C   UNL A   1      33.213  17.445  25.243  1.00  0.00     0.212 C 
ATOM     17  C   UNL A   1      32.759  16.015  24.965  1.00  0.00     0.081 C 
BRANCH  16  18
ATOM     18  N   UNL A   1      32.774  17.857  26.586  1.00  0.00    -0.351 N 
ATOM     19  H   UNL A   1      31.992  17.274  26.882  1.00  0.00     0.345 HD
ATOM     20  H   UNL A   1      32.481  18.834  26.563  1.00  0.00     0.345 HD
ATOM     21  H   UNL A   1      33.546  17.750  27.243  1.00  0.00     0.345 HD
ENDBRANCH  16  18
ENDBRANCH  10  16
ENDBRANCH   8   9
ENDBRANCH   7   8
ENDBRANCH   4   7
ENDBRANCH   2   4
ENDBRANCH   1   2
BRANCH   1  22
ATOM     22  C   UNL A   1      35.438  22.196  24.584  1.00  0.00     0.274 C 
BRANCH  22  23
ATOM     23  C   UNL A   1      36.386  21.146  25.155  1.00  0.00     0.275 C 
BRANCH  23  24
ATOM     24  O   UNL A   1      37.739  21.421  24.749  1.00  0.00    -0.458 OA
BRANCH  24  25
ATOM     25  C   UNL A   1      38.697  21.023  25.615  1.00  0.00     0.338 C 
ATOM     26  O   UNL A   1      39.124  19.896  25.792  1.00  0.00    -0.246 OA
BRANCH  25  27
ATOM     27  C   UNL A   1      39.252  22.191  26.312  1.00  0.00     0.060 A 
ATOM     28  C   UNL A   1      38.697  23.438  26.050  1.00  0.00     0.016 A 
ATOM     29  C   UNL A   1      40.420  22.086  27.064  1.00  0.00     0.016 A 
ATOM     30  C   UNL A   1      39.361  24.596  26.436  1.00  0.00     0.010 A 
ATOM     31  C   UNL A   1      41.037  23.252  27.538  1.00  0.00     0.010 A 
ATOM     32  C   UNL A   1      40.542  24.522  27.187  1.00  0.00    -0.014 A 
BRANCH  32  33
ATOM     33  C   UNL A   1      41.287  25.768  27.528  1.00  0.00     0.031 A 
ATOM     34  C   UNL A   1      40.670  26.796  28.442  1.00  0.00     0.074 A 
ATOM     35  C   UNL A   1      42.545  25.961  27.080  1.00  0.00     0.049 A 
ATOM     36  N   UNL A   1      41.098  27.996  28.750  1.00  0.00    -0.248 NA
ATOM     37  C   UNL A   1      39.397  26.435  29.087  1.00  0.00     0.031 C 
ATOM     38  C   UNL A   1      43.298  25.032  26.239  1.00  0.00     0.029 A 
ATOM     39  N   UNL A   1      43.421  26.996  27.296  1.00  0.00    -0.354 N 
ATOM     40  C   UNL A   1      40.124  28.550  29.569  1.00  0.00     0.074 A 
ATOM     41  C   UNL A   1      39.080  27.558  29.715  1.00  0.00     0.031 C 
ATOM     42  C   UNL A   1      44.542  25.504  26.066  1.00  0.00     0.029 A 
ATOM     43  C   UNL A   1      44.649  26.809  26.710  1.00  0.00     0.049 A 
ATOM     44  H   UNL A   1      43.191  27.797  27.820  1.00  0.00     0.167 HD
ATOM     45  C   UNL A   1      40.098  29.775  30.147  1.00  0.00     0.037 A 
ATOM     46  C   UNL A   1      45.735  27.604  26.671  1.00  0.00     0.037 A 
ATOM     47  C   UNL A   1      41.165  30.739  30.064  1.00  0.00     0.049 A 
ATOM     48  C   UNL A   1      45.685  28.958  27.318  1.00  0.00     0.074 A 
ATOM     49  C   UNL A   1      41.223  32.011  30.608  1.00  0.00     0.029 A 
ATOM     50  N   UNL A   1      42.372  30.525  29.420  1.00  0.00    -0.354 N 
ATOM     51  N   UNL A   1      44.713  29.511  28.000  1.00  0.00    -0.248 NA
ATOM     52  C   UNL A   1      46.872  29.810  27.162  1.00  0.00     0.031 C 
ATOM     53  C   UNL A   1      42.460  32.573  30.278  1.00  0.00     0.029 A 
ATOM     54  C   UNL A   1      43.184  31.640  29.555  1.00  0.00     0.049 A 
ATOM     55  H   UNL A   1      42.618  29.703  28.937  1.00  0.00     0.167 HD
ATOM     56  C   UNL A   1      45.167  30.775  28.349  1.00  0.00     0.074 A 
ATOM     57  C   UNL A   1      46.513  30.898  27.830  1.00  0.00     0.031 C 
ATOM     58  C   UNL A   1      44.518  31.752  29.026  1.00  0.00     0.037 A 
BRANCH  45  59
ATOM     59  C   UNL A   1      38.863  30.160  30.905  1.00  0.00     0.057 A 
ATOM     60  C   UNL A   1      38.734  29.826  32.259  1.00  0.00     0.134 A 
ATOM     61  C   UNL A   1      37.787  30.811  30.293  1.00  0.00     0.134 A 
ATOM     62  F   UNL A   1      39.728  29.196  32.904  1.00  0.00    -0.206 F 
ATOM     63  C   UNL A   1      37.573  30.120  32.977  1.00  0.00     0.040 A 
ATOM     64  C   UNL A   1      36.628  31.130  31.005  1.00  0.00     0.040 A 
ATOM     65  F   UNL A   1      37.854  31.171  29.002  1.00  0.00    -0.206 F 
ATOM     66  C   UNL A   1      36.518  30.777  32.350  1.00  0.00     0.006 A 
ENDBRANCH  45  59
BRANCH  46  67
ATOM     67  C   UNL A   1      46.958  27.145  25.968  1.00  0.00     0.057 A 
ATOM     68  C   UNL A   1      47.977  26.461  26.643  1.00  0.00     0.134 A 
ATOM     69  C   UNL A   1      47.142  27.397  24.605  1.00  0.00     0.134 A 
ATOM     70  F   UNL A   1      47.857  26.188  27.951  1.00  0.00    -0.206 F 
ATOM     71  C   UNL A   1      49.147  26.068  25.993  1.00  0.00     0.040 A 
ATOM     72  C   UNL A   1      48.296  26.987  23.936  1.00  0.00     0.040 A 
ATOM     73  F   UNL A   1      46.188  28.024  23.900  1.00  0.00    -0.206 F 
ATOM     74  C   UNL A   1      49.307  26.329  24.633  1.00  0.00     0.006 A 
ENDBRANCH  46  67
BRANCH  58  75
ATOM     75  C   UNL A   1      45.254  33.039  29.243  1.00  0.00     0.057 A 
ATOM     76  C   UNL A   1      46.057  33.224  30.376  1.00  0.00     0.134 A 
ATOM     77  C   UNL A   1      45.138  34.107  28.347  1.00  0.00     0.134 A 
ATOM     78  F   UNL A   1      46.202  32.240  31.276  1.00  0.00    -0.206 F 
ATOM     79  C   UNL A   1      46.717  34.430  30.610  1.00  0.00     0.040 A 
ATOM     80  C   UNL A   1      45.808  35.313  28.560  1.00  0.00     0.040 A 
ATOM     81  F   UNL A   1      44.392  33.986  27.238  1.00  0.00    -0.206 F 
ATOM     82  C   UNL A   1      46.596  35.478  29.698  1.00  0.00     0.006 A 
ENDBRANCH  58  75
ENDBRANCH  32  33
ENDBRANCH  25  27
ENDBRANCH  24  25
ENDBRANCH  23  24
ENDBRANCH  22  23
ENDBRANCH   1  22
TORSDOF 16
ENDMDL
MODEL 3
REMARK VINA RESULT:     -10.4      4.037      7.006
REMARK SMILES C[C@H]([NH3+])c1ccc(F)cc1OCC(C)(C)C(=O)OCCOC(=O)c1ccc(-c2c3nc(c(-c4c(F)cccc4F)c4ccc([nH]4)c(-c4c(F)cccc4F)c4nc(c(-c5c(F)cccc5F)c5ccc2[nH]5)C=C4)C=C3)cc1
REMARK SMILES IDX 18 1 16 2 17 3 13 4 14 5 15 6 12 7 11 8 10 9 4 10 5 11 6 12
REMARK SMILES IDX 9 13 7 14 8 15 2 16 1 17 3 18 19 22 20 23 21 24 22 25 23 26
REMARK SMILES IDX 24 27 25 28 77 29 26 30 76 31 27 32 28 33 29 34 70 35 30 36
REMARK SMILES IDX 75 37 69 38 71 39 31 40 74 41 68 42 67 43 32 45 58 46 41 47
REMARK SMILES IDX 57 48 42 49 45 50 56 51 72 52 43 53 44 54 55 56 73 57 46 58
REMARK SMILES IDX 33 59 34 60 39 61 35 62 36 63 38 64 40 65 37 66 59 67 60 68
REMARK SMILES IDX 65 69 61 70 62 71 64 72 66 73 63 74 47 75 48 76 53 77 49 78
REMARK SMILES IDX 50 79 52 80 54 81 51 82
REMARK H PARENT 3 19 3 20 3 21 71 44 45 55
REMARK Flexibility Score: inf
ROOT
ATOM      1  O   UNL A   1      31.766  28.195  25.467  1.00  0.00    -0.462 OA
ENDROOT
BRANCH   1   2
ATOM      2  C   UNL A   1      31.461  26.985  24.918  1.00  0.00     0.315 C 
ATOM      3  O   UNL A   1      30.499  26.795  24.186  1.00  0.00    -0.251 OA
BRANCH   2   4
ATOM      4  C   UNL A   1      32.396  25.880  25.429  1.00  0.00     0.096 C 
ATOM      5  C   UNL A   1      31.588  25.100  26.473  1.00  0.00     0.027 C 
ATOM      6  C   UNL A   1      33.644  26.474  26.117  1.00  0.00     0.027 C 
BRANCH   4   7
ATOM      7  C   UNL A   1      32.928  25.008  24.261  1.00  0.00     0.247 C 
BRANCH   7   8
ATOM      8  O   UNL A   1      33.727  23.879  24.577  1.00  0.00    -0.492 OA
BRANCH   8   9
ATOM      9  C   UNL A   1      33.368  22.573  24.452  1.00  0.00     0.131 A 
ATOM     10  C   UNL A   1      33.597  21.476  25.307  1.00  0.00     0.051 A 
ATOM     11  C   UNL A   1      33.167  20.196  24.864  1.00  0.00     0.017 A 
ATOM     12  C   UNL A   1      32.533  20.005  23.637  1.00  0.00     0.040 A 
ATOM     13  C   UNL A   1      32.747  22.357  23.207  1.00  0.00     0.086 A 
ATOM     14  C   UNL A   1      32.332  21.094  22.813  1.00  0.00     0.126 A 
ATOM     15  F   UNL A   1      31.747  20.924  21.621  1.00  0.00    -0.207 F 
BRANCH  10  16
ATOM     16  C   UNL A   1      34.357  21.537  26.620  1.00  0.00     0.212 C 
ATOM     17  C   UNL A   1      33.520  22.195  27.713  1.00  0.00     0.081 C 
BRANCH  16  18
ATOM     18  N   UNL A   1      35.655  22.221  26.501  1.00  0.00    -0.351 N 
ATOM     19  H   UNL A   1      36.078  21.992  25.602  1.00  0.00     0.345 HD
ATOM     20  H   UNL A   1      36.270  21.915  27.256  1.00  0.00     0.345 HD
ATOM     21  H   UNL A   1      35.514  23.228  26.565  1.00  0.00     0.345 HD
ENDBRANCH  16  18
ENDBRANCH  10  16
ENDBRANCH   8   9
ENDBRANCH   7   8
ENDBRANCH   4   7
ENDBRANCH   2   4
ENDBRANCH   1   2
BRANCH   1  22
ATOM     22  C   UNL A   1      31.429  29.361  24.691  1.00  0.00     0.274 C 
BRANCH  22  23
ATOM     23  C   UNL A   1      31.403  30.613  25.562  1.00  0.00     0.275 C 
BRANCH  23  24
ATOM     24  O   UNL A   1      32.247  30.439  26.714  1.00  0.00    -0.458 OA
BRANCH  24  25
ATOM     25  C   UNL A   1      32.865  31.557  27.154  1.00  0.00     0.338 C 
ATOM     26  O   UNL A   1      32.400  32.678  27.253  1.00  0.00    -0.246 OA
BRANCH  25  27
ATOM     27  C   UNL A   1      34.226  31.230  27.600  1.00  0.00     0.060 A 
ATOM     28  C   UNL A   1      34.541  29.894  27.823  1.00  0.00     0.016 A 
ATOM     29  C   UNL A   1      35.116  32.234  27.975  1.00  0.00     0.016 A 
ATOM     30  C   UNL A   1      35.693  29.553  28.522  1.00  0.00     0.010 A 
ATOM     31  C   UNL A   1      36.324  31.883  28.593  1.00  0.00     0.010 A 
ATOM     32  C   UNL A   1      36.603  30.542  28.919  1.00  0.00    -0.014 A 
BRANCH  32  33
ATOM     33  C   UNL A   1      37.795  30.173  29.735  1.00  0.00     0.031 A 
ATOM     34  C   UNL A   1      38.912  29.363  29.128  1.00  0.00     0.074 A 
ATOM     35  C   UNL A   1      37.921  30.612  31.005  1.00  0.00     0.049 A 
ATOM     36  N   UNL A   1      39.961  28.832  29.706  1.00  0.00    -0.248 NA
ATOM     37  C   UNL A   1      38.836  29.105  27.680  1.00  0.00     0.031 C 
ATOM     38  C   UNL A   1      36.954  31.453  31.712  1.00  0.00     0.029 A 
ATOM     39  N   UNL A   1      38.932  30.433  31.916  1.00  0.00    -0.354 N 
ATOM     40  C   UNL A   1      40.631  28.131  28.712  1.00  0.00     0.074 A 
ATOM     41  C   UNL A   1      39.874  28.304  27.491  1.00  0.00     0.031 C 
ATOM     42  C   UNL A   1      37.448  31.772  32.917  1.00  0.00     0.029 A 
ATOM     43  C   UNL A   1      38.724  31.090  33.105  1.00  0.00     0.049 A 
ATOM     44  H   UNL A   1      39.730  29.885  31.736  1.00  0.00     0.167 HD
ATOM     45  C   UNL A   1      41.772  27.408  28.807  1.00  0.00     0.037 A 
ATOM     46  C   UNL A   1      39.462  31.123  34.231  1.00  0.00     0.037 A 
ATOM     47  C   UNL A   1      42.567  27.291  30.001  1.00  0.00     0.049 A 
ATOM     48  C   UNL A   1      40.723  30.314  34.314  1.00  0.00     0.074 A 
ATOM     49  C   UNL A   1      43.734  26.571  30.194  1.00  0.00     0.029 A 
ATOM     50  N   UNL A   1      42.294  27.935  31.197  1.00  0.00    -0.354 N 
ATOM     51  N   UNL A   1      41.288  29.569  33.396  1.00  0.00    -0.248 NA
ATOM     52  C   UNL A   1      41.432  30.325  35.602  1.00  0.00     0.031 C 
ATOM     53  C   UNL A   1      44.157  26.766  31.513  1.00  0.00     0.029 A 
ATOM     54  C   UNL A   1      43.271  27.632  32.131  1.00  0.00     0.049 A 
ATOM     55  H   UNL A   1      41.520  28.522  31.358  1.00  0.00     0.167 HD
ATOM     56  C   UNL A   1      42.413  29.019  33.995  1.00  0.00     0.074 A 
ATOM     57  C   UNL A   1      42.469  29.539  35.345  1.00  0.00     0.031 C 
ATOM     58  C   UNL A   1      43.310  28.148  33.474  1.00  0.00     0.037 A 
BRANCH  45  59
ATOM     59  C   UNL A   1      42.223  26.660  27.588  1.00  0.00     0.057 A 
ATOM     60  C   UNL A   1      41.848  25.324  27.401  1.00  0.00     0.134 A 
ATOM     61  C   UNL A   1      43.062  27.238  26.628  1.00  0.00     0.134 A 
ATOM     62  F   UNL A   1      41.050  24.710  28.288  1.00  0.00    -0.206 F 
ATOM     63  C   UNL A   1      42.299  24.585  26.305  1.00  0.00     0.040 A 
ATOM     64  C   UNL A   1      43.502  26.516  25.517  1.00  0.00     0.040 A 
ATOM     65  F   UNL A   1      43.445  28.519  26.741  1.00  0.00    -0.206 F 
ATOM     66  C   UNL A   1      43.125  25.183  25.358  1.00  0.00     0.006 A 
ENDBRANCH  45  59
BRANCH  46  67
ATOM     67  C   UNL A   1      39.006  31.938  35.385  1.00  0.00     0.057 A 
ATOM     68  C   UNL A   1      38.241  31.380  36.417  1.00  0.00     0.134 A 
ATOM     69  C   UNL A   1      39.312  33.300  35.469  1.00  0.00     0.134 A 
ATOM     70  F   UNL A   1      37.917  30.079  36.392  1.00  0.00    -0.206 F 
ATOM     71  C   UNL A   1      37.774  32.155  37.479  1.00  0.00     0.040 A 
ATOM     72  C   UNL A   1      38.872  34.081  36.539  1.00  0.00     0.040 A 
ATOM     73  F   UNL A   1      40.064  33.882  34.524  1.00  0.00    -0.206 F 
ATOM     74  C   UNL A   1      38.093  33.510  37.543  1.00  0.00     0.006 A 
ENDBRANCH  46  67
BRANCH  58  75
ATOM     75  C   UNL A   1      44.427  27.702  34.367  1.00  0.00     0.057 A 
ATOM     76  C   UNL A   1      45.633  28.413  34.418  1.00  0.00     0.134 A 
ATOM     77  C   UNL A   1      44.321  26.546  35.149  1.00  0.00     0.134 A 
ATOM     78  F   UNL A   1      45.800  29.525  33.686  1.00  0.00    -0.206 F 
ATOM     79  C   UNL A   1      46.695  27.987  35.215  1.00  0.00     0.040 A 
ATOM     80  C   UNL A   1      45.370  26.119  35.965  1.00  0.00     0.040 A 
ATOM     81  F   UNL A   1      43.186  25.830  35.150  1.00  0.00    -0.206 F 
ATOM     82  C   UNL A   1      46.563  26.838  35.995  1.00  0.00     0.006 A 
ENDBRANCH  58  75
ENDBRANCH  32  33
ENDBRANCH  25  27
ENDBRANCH  24  25
ENDBRANCH  23  24
ENDBRANCH  22  23
ENDBRANCH   1  22
TORSDOF 16
ENDMDL
