MODEL 1
REMARK VINA RESULT:     -11.8      0.000      0.000
REMARK SMILES CCc1cccc(-c2ccc([C@@H](C)C(=O)OCCOC(=O)c3ccc(-c4c5nc(c(-c6c(F)cccc6F)c6ccc([nH]6)c(-c6c(F)cccc6F)c6nc(c(-c7c(F)cccc7F)c7ccc4[nH]7)C=C6)C=C5)cc3)cc2)c1
REMARK SMILES IDX 17 1 16 2 14 3 15 4 12 5 13 6 11 7 8 8 9 9 77 10 10 11 76 12
REMARK SMILES IDX 7 13 3 14 4 15 78 16 5 17 6 18 2 19 1 20 18 21 19 22 20 23
REMARK SMILES IDX 21 24 22 25 23 26 75 27 24 28 74 29 25 30 26 31 27 32 68 33
REMARK SMILES IDX 28 34 73 35 67 36 69 37 29 38 72 39 66 40 65 41 30 43 56 44
REMARK SMILES IDX 39 45 55 46 40 47 43 48 54 49 70 50 41 51 42 52 53 54 71 55
REMARK SMILES IDX 44 56 31 57 32 58 37 59 33 60 34 61 36 62 38 63 35 64 57 65
REMARK SMILES IDX 58 66 63 67 59 68 60 69 62 70 64 71 61 72 45 73 46 74 51 75
REMARK SMILES IDX 47 76 48 77 50 78 52 79 49 80
REMARK H PARENT 69 42 43 53
REMARK Flexibility Score: inf
ROOT
ATOM      1  C   UNL A   1      42.941  21.256  26.119  1.00  0.00     0.274 C 
ENDROOT
BRANCH   1   2
ATOM      2  O   UNL A   1      41.562  21.324  25.712  1.00  0.00    -0.462 OA
BRANCH   2   3
ATOM      3  C   UNL A   1      40.650  21.609  26.678  1.00  0.00     0.313 C 
ATOM      4  O   UNL A   1      40.689  21.161  27.820  1.00  0.00    -0.252 OA
BRANCH   3   5
ATOM      5  C   UNL A   1      39.515  22.507  26.202  1.00  0.00     0.126 C 
ATOM      6  C   UNL A   1      39.244  23.594  27.241  1.00  0.00     0.025 C 
BRANCH   5   7
ATOM      7  C   UNL A   1      38.249  21.793  25.753  1.00  0.00    -0.034 A 
ATOM      8  C   UNL A   1      35.850  20.486  24.959  1.00  0.00    -0.018 A 
ATOM      9  C   UNL A   1      37.089  19.830  24.903  1.00  0.00     0.009 A 
ATOM     10  C   UNL A   1      35.834  21.815  25.405  1.00  0.00     0.009 A 
ATOM     11  C   UNL A   1      38.269  20.470  25.295  1.00  0.00     0.005 A 
ATOM     12  C   UNL A   1      37.014  22.457  25.799  1.00  0.00     0.005 A 
BRANCH   8  13
ATOM     13  C   UNL A   1      34.609  19.787  24.590  1.00  0.00    -0.018 A 
ATOM     14  C   UNL A   1      33.373  17.723  24.115  1.00  0.00    -0.048 A 
ATOM     15  C   UNL A   1      32.211  18.478  23.907  1.00  0.00     0.004 A 
ATOM     16  C   UNL A   1      34.563  18.387  24.458  1.00  0.00     0.012 A 
ATOM     17  C   UNL A   1      32.240  19.865  24.022  1.00  0.00     0.001 A 
ATOM     18  C   UNL A   1      33.428  20.512  24.360  1.00  0.00     0.009 A 
BRANCH  14  19
ATOM     19  C   UNL A   1      33.337  16.219  23.999  1.00  0.00     0.032 C 
ATOM     20  C   UNL A   1      33.315  15.523  25.354  1.00  0.00     0.009 C 
ENDBRANCH  14  19
ENDBRANCH   8  13
ENDBRANCH   5   7
ENDBRANCH   3   5
ENDBRANCH   2   3
ENDBRANCH   1   2
BRANCH   1  21
ATOM     21  C   UNL A   1      43.842  22.033  25.157  1.00  0.00     0.275 C 
BRANCH  21  22
ATOM     22  O   UNL A   1      43.279  23.320  24.849  1.00  0.00    -0.458 OA
BRANCH  22  23
ATOM     23  C   UNL A   1      44.064  24.379  25.146  1.00  0.00     0.338 C 
ATOM     24  O   UNL A   1      45.129  24.685  24.638  1.00  0.00    -0.246 OA
BRANCH  23  25
ATOM     25  C   UNL A   1      43.394  25.217  26.147  1.00  0.00     0.060 A 
ATOM     26  C   UNL A   1      43.650  26.591  26.138  1.00  0.00     0.016 A 
ATOM     27  C   UNL A   1      42.606  24.646  27.146  1.00  0.00     0.016 A 
ATOM     28  C   UNL A   1      43.136  27.402  27.144  1.00  0.00     0.010 A 
ATOM     29  C   UNL A   1      42.081  25.463  28.152  1.00  0.00     0.010 A 
ATOM     30  C   UNL A   1      42.360  26.842  28.167  1.00  0.00    -0.014 A 
BRANCH  30  31
ATOM     31  C   UNL A   1      41.899  27.693  29.287  1.00  0.00     0.031 A 
ATOM     32  C   UNL A   1      42.641  27.674  30.591  1.00  0.00     0.074 A 
ATOM     33  C   UNL A   1      40.833  28.498  29.126  1.00  0.00     0.049 A 
ATOM     34  N   UNL A   1      42.363  28.290  31.712  1.00  0.00    -0.248 NA
ATOM     35  C   UNL A   1      43.860  26.852  30.642  1.00  0.00     0.031 C 
ATOM     36  C   UNL A   1      40.057  28.633  27.893  1.00  0.00     0.029 A 
ATOM     37  N   UNL A   1      40.220  29.352  30.007  1.00  0.00    -0.354 N 
ATOM     38  C   UNL A   1      43.356  27.916  32.605  1.00  0.00     0.074 A 
ATOM     39  C   UNL A   1      44.238  27.008  31.902  1.00  0.00     0.031 C 
ATOM     40  C   UNL A   1      39.069  29.521  28.097  1.00  0.00     0.029 A 
ATOM     41  C   UNL A   1      39.122  29.984  29.480  1.00  0.00     0.049 A 
ATOM     42  H   UNL A   1      40.538  29.497  30.927  1.00  0.00     0.167 HD
ATOM     43  C   UNL A   1      43.520  28.297  33.895  1.00  0.00     0.037 A 
ATOM     44  C   UNL A   1      38.243  30.825  30.060  1.00  0.00     0.037 A 
ATOM     45  C   UNL A   1      42.651  29.213  34.587  1.00  0.00     0.049 A 
ATOM     46  C   UNL A   1      38.422  31.199  31.504  1.00  0.00     0.074 A 
ATOM     47  C   UNL A   1      42.739  29.666  35.892  1.00  0.00     0.029 A 
ATOM     48  N   UNL A   1      41.536  29.815  34.028  1.00  0.00    -0.354 N 
ATOM     49  N   UNL A   1      39.360  30.832  32.342  1.00  0.00    -0.248 NA
ATOM     50  C   UNL A   1      37.417  32.101  32.083  1.00  0.00     0.031 C 
ATOM     51  C   UNL A   1      41.657  30.522  36.132  1.00  0.00     0.029 A 
ATOM     52  C   UNL A   1      40.918  30.627  34.964  1.00  0.00     0.049 A 
ATOM     53  H   UNL A   1      41.228  29.686  33.101  1.00  0.00     0.167 HD
ATOM     54  C   UNL A   1      39.069  31.470  33.541  1.00  0.00     0.074 A 
ATOM     55  C   UNL A   1      37.875  32.258  33.318  1.00  0.00     0.031 C 
ATOM     56  C   UNL A   1      39.731  31.407  34.722  1.00  0.00     0.037 A 
BRANCH  43  57
ATOM     57  C   UNL A   1      44.670  27.701  34.646  1.00  0.00     0.057 A 
ATOM     58  C   UNL A   1      44.551  26.493  35.345  1.00  0.00     0.134 A 
ATOM     59  C   UNL A   1      45.920  28.332  34.653  1.00  0.00     0.134 A 
ATOM     60  F   UNL A   1      43.375  25.847  35.390  1.00  0.00    -0.206 F 
ATOM     61  C   UNL A   1      45.630  25.944  36.041  1.00  0.00     0.040 A 
ATOM     62  C   UNL A   1      47.012  27.784  35.328  1.00  0.00     0.040 A 
ATOM     63  F   UNL A   1      46.100  29.491  34.001  1.00  0.00    -0.206 F 
ATOM     64  C   UNL A   1      46.866  26.588  36.028  1.00  0.00     0.006 A 
ENDBRANCH  43  57
BRANCH  44  65
ATOM     65  C   UNL A   1      37.107  31.359  29.273  1.00  0.00     0.057 A 
ATOM     66  C   UNL A   1      35.978  30.575  29.008  1.00  0.00     0.134 A 
ATOM     67  C   UNL A   1      37.123  32.663  28.764  1.00  0.00     0.134 A 
ATOM     68  F   UNL A   1      35.916  29.311  29.449  1.00  0.00    -0.206 F 
ATOM     69  C   UNL A   1      34.909  31.067  28.257  1.00  0.00     0.040 A 
ATOM     70  C   UNL A   1      36.053  33.174  28.030  1.00  0.00     0.040 A 
ATOM     71  F   UNL A   1      38.178  33.463  28.984  1.00  0.00    -0.206 F 
ATOM     72  C   UNL A   1      34.943  32.372  27.771  1.00  0.00     0.006 A 
ENDBRANCH  44  65
BRANCH  56  73
ATOM     73  C   UNL A   1      39.194  32.234  35.849  1.00  0.00     0.057 A 
ATOM     74  C   UNL A   1      38.287  31.709  36.778  1.00  0.00     0.134 A 
ATOM     75  C   UNL A   1      39.611  33.559  36.026  1.00  0.00     0.134 A 
ATOM     76  F   UNL A   1      37.838  30.451  36.655  1.00  0.00    -0.206 F 
ATOM     77  C   UNL A   1      37.800  32.481  37.835  1.00  0.00     0.040 A 
ATOM     78  C   UNL A   1      39.147  34.333  37.088  1.00  0.00     0.040 A 
ATOM     79  F   UNL A   1      40.483  34.117  35.173  1.00  0.00    -0.206 F 
ATOM     80  C   UNL A   1      38.235  33.795  37.996  1.00  0.00     0.006 A 
ENDBRANCH  56  73
ENDBRANCH  30  31
ENDBRANCH  23  25
ENDBRANCH  22  23
ENDBRANCH  21  22
ENDBRANCH   1  21
TORSDOF 14
ENDMDL
MODEL 2
REMARK VINA RESULT:     -11.7      1.783      2.762
REMARK SMILES CCc1cccc(-c2ccc([C@@H](C)C(=O)OCCOC(=O)c3ccc(-c4c5nc(c(-c6c(F)cccc6F)c6ccc([nH]6)c(-c6c(F)cccc6F)c6nc(c(-c7c(F)cccc7F)c7ccc4[nH]7)C=C6)C=C5)cc3)cc2)c1
REMARK SMILES IDX 17 1 16 2 14 3 15 4 12 5 13 6 11 7 8 8 9 9 77 10 10 11 76 12
REMARK SMILES IDX 7 13 3 14 4 15 78 16 5 17 6 18 2 19 1 20 18 21 19 22 20 23
REMARK SMILES IDX 21 24 22 25 23 26 75 27 24 28 74 29 25 30 26 31 27 32 68 33
REMARK SMILES IDX 28 34 73 35 67 36 69 37 29 38 72 39 66 40 65 41 30 43 56 44
REMARK SMILES IDX 39 45 55 46 40 47 43 48 54 49 70 50 41 51 42 52 53 54 71 55
REMARK SMILES IDX 44 56 31 57 32 58 37 59 33 60 34 61 36 62 38 63 35 64 57 65
REMARK SMILES IDX 58 66 63 67 59 68 60 69 62 70 64 71 61 72 45 73 46 74 51 75
REMARK SMILES IDX 47 76 48 77 50 78 52 79 49 80
REMARK H PARENT 69 42 43 53
REMARK Flexibility Score: inf
ROOT
ATOM      1  C   UNL A   1      43.678  21.247  25.746  1.00  0.00     0.274 C 
ENDROOT
BRANCH   1   2
ATOM      2  O   UNL A   1      42.497  20.517  25.366  1.00  0.00    -0.462 OA
BRANCH   2   3
ATOM      3  C   UNL A   1      41.518  20.403  26.301  1.00  0.00     0.313 C 
ATOM      4  O   UNL A   1      41.019  19.339  26.654  1.00  0.00    -0.252 OA
BRANCH   3   5
ATOM      5  C   UNL A   1      41.040  21.741  26.851  1.00  0.00     0.126 C 
ATOM      6  C   UNL A   1      41.144  21.742  28.375  1.00  0.00     0.025 C 
BRANCH   5   7
ATOM      7  C   UNL A   1      39.681  22.213  26.354  1.00  0.00    -0.034 A 
ATOM      8  C   UNL A   1      37.151  23.066  25.373  1.00  0.00    -0.018 A 
ATOM      9  C   UNL A   1      37.940  23.903  26.177  1.00  0.00     0.009 A 
ATOM     10  C   UNL A   1      37.644  21.787  25.081  1.00  0.00     0.009 A 
ATOM     11  C   UNL A   1      39.185  23.487  26.658  1.00  0.00     0.005 A 
ATOM     12  C   UNL A   1      38.891  21.369  25.561  1.00  0.00     0.005 A 
BRANCH   8  13
ATOM     13  C   UNL A   1      35.864  23.533  24.833  1.00  0.00    -0.018 A 
ATOM     14  C   UNL A   1      33.951  25.066  24.879  1.00  0.00    -0.048 A 
ATOM     15  C   UNL A   1      33.417  24.418  23.758  1.00  0.00     0.004 A 
ATOM     16  C   UNL A   1      35.174  24.617  25.405  1.00  0.00     0.012 A 
ATOM     17  C   UNL A   1      34.080  23.337  23.185  1.00  0.00     0.001 A 
ATOM     18  C   UNL A   1      35.292  22.899  23.718  1.00  0.00     0.009 A 
BRANCH  14  19
ATOM     19  C   UNL A   1      33.236  26.245  25.493  1.00  0.00     0.032 C 
ATOM     20  C   UNL A   1      31.922  25.856  26.159  1.00  0.00     0.009 C 
ENDBRANCH  14  19
ENDBRANCH   8  13
ENDBRANCH   5   7
ENDBRANCH   3   5
ENDBRANCH   2   3
ENDBRANCH   1   2
BRANCH   1  21
ATOM     21  C   UNL A   1      44.115  22.210  24.640  1.00  0.00     0.275 C 
BRANCH  21  22
ATOM     22  O   UNL A   1      43.433  23.471  24.757  1.00  0.00    -0.458 OA
BRANCH  22  23
ATOM     23  C   UNL A   1      44.218  24.523  25.079  1.00  0.00     0.338 C 
ATOM     24  O   UNL A   1      45.296  24.826  24.598  1.00  0.00    -0.246 OA
BRANCH  23  25
ATOM     25  C   UNL A   1      43.531  25.357  26.072  1.00  0.00     0.060 A 
ATOM     26  C   UNL A   1      43.951  26.680  26.230  1.00  0.00     0.016 A 
ATOM     27  C   UNL A   1      42.556  24.815  26.909  1.00  0.00     0.016 A 
ATOM     28  C   UNL A   1      43.414  27.467  27.242  1.00  0.00     0.010 A 
ATOM     29  C   UNL A   1      42.009  25.609  27.922  1.00  0.00     0.010 A 
ATOM     30  C   UNL A   1      42.450  26.932  28.106  1.00  0.00    -0.014 A 
BRANCH  30  31
ATOM     31  C   UNL A   1      41.955  27.742  29.243  1.00  0.00     0.031 A 
ATOM     32  C   UNL A   1      42.666  27.686  30.563  1.00  0.00     0.074 A 
ATOM     33  C   UNL A   1      40.884  28.541  29.084  1.00  0.00     0.049 A 
ATOM     34  N   UNL A   1      42.356  28.262  31.696  1.00  0.00    -0.248 NA
ATOM     35  C   UNL A   1      43.892  26.873  30.615  1.00  0.00     0.031 C 
ATOM     36  C   UNL A   1      40.136  28.711  27.839  1.00  0.00     0.029 A 
ATOM     37  N   UNL A   1      40.243  29.360  29.978  1.00  0.00    -0.354 N 
ATOM     38  C   UNL A   1      43.333  27.867  32.600  1.00  0.00     0.074 A 
ATOM     39  C   UNL A   1      44.239  26.991  31.888  1.00  0.00     0.031 C 
ATOM     40  C   UNL A   1      39.135  29.582  28.048  1.00  0.00     0.029 A 
ATOM     41  C   UNL A   1      39.151  30.000  29.447  1.00  0.00     0.049 A 
ATOM     42  H   UNL A   1      40.538  29.478  30.909  1.00  0.00     0.167 HD
ATOM     43  C   UNL A   1      43.463  28.207  33.905  1.00  0.00     0.037 A 
ATOM     44  C   UNL A   1      38.251  30.812  30.033  1.00  0.00     0.037 A 
ATOM     45  C   UNL A   1      42.569  29.091  34.607  1.00  0.00     0.049 A 
ATOM     46  C   UNL A   1      38.393  31.140  31.493  1.00  0.00     0.074 A 
ATOM     47  C   UNL A   1      42.622  29.501  35.927  1.00  0.00     0.029 A 
ATOM     48  N   UNL A   1      41.461  29.702  34.042  1.00  0.00    -0.354 N 
ATOM     49  N   UNL A   1      39.315  30.754  32.340  1.00  0.00    -0.248 NA
ATOM     50  C   UNL A   1      37.366  32.013  32.077  1.00  0.00     0.031 C 
ATOM     51  C   UNL A   1      41.527  30.339  36.170  1.00  0.00     0.029 A 
ATOM     52  C   UNL A   1      40.813  30.476  34.989  1.00  0.00     0.049 A 
ATOM     53  H   UNL A   1      41.176  29.600  33.104  1.00  0.00     0.167 HD
ATOM     54  C   UNL A   1      38.990  31.349  33.552  1.00  0.00     0.074 A 
ATOM     55  C   UNL A   1      37.793  32.133  33.327  1.00  0.00     0.031 C 
ATOM     56  C   UNL A   1      39.626  31.253  34.745  1.00  0.00     0.037 A 
BRANCH  43  57
ATOM     57  C   UNL A   1      44.601  27.596  34.663  1.00  0.00     0.057 A 
ATOM     58  C   UNL A   1      44.477  26.366  35.320  1.00  0.00     0.134 A 
ATOM     59  C   UNL A   1      45.844  28.238  34.719  1.00  0.00     0.134 A 
ATOM     60  F   UNL A   1      43.307  25.709  35.318  1.00  0.00    -0.206 F 
ATOM     61  C   UNL A   1      45.545  25.804  36.022  1.00  0.00     0.040 A 
ATOM     62  C   UNL A   1      46.926  27.677  35.400  1.00  0.00     0.040 A 
ATOM     63  F   UNL A   1      46.029  29.418  34.108  1.00  0.00    -0.206 F 
ATOM     64  C   UNL A   1      46.776  26.458  36.058  1.00  0.00     0.006 A 
ENDBRANCH  43  57
BRANCH  44  65
ATOM     65  C   UNL A   1      37.128  31.362  29.238  1.00  0.00     0.057 A 
ATOM     66  C   UNL A   1      37.161  32.672  28.747  1.00  0.00     0.134 A 
ATOM     67  C   UNL A   1      35.994  30.592  28.953  1.00  0.00     0.134 A 
ATOM     68  F   UNL A   1      38.210  33.464  29.008  1.00  0.00    -0.206 F 
ATOM     69  C   UNL A   1      36.102  33.200  28.008  1.00  0.00     0.040 A 
ATOM     70  C   UNL A   1      34.937  31.101  28.197  1.00  0.00     0.040 A 
ATOM     71  F   UNL A   1      35.903  29.330  29.396  1.00  0.00    -0.206 F 
ATOM     72  C   UNL A   1      34.988  32.411  27.726  1.00  0.00     0.006 A 
ENDBRANCH  44  65
BRANCH  56  73
ATOM     73  C   UNL A   1      39.054  32.037  35.886  1.00  0.00     0.057 A 
ATOM     74  C   UNL A   1      39.377  33.384  36.087  1.00  0.00     0.134 A 
ATOM     75  C   UNL A   1      38.145  31.448  36.774  1.00  0.00     0.134 A 
ATOM     76  F   UNL A   1      40.252  34.002  35.279  1.00  0.00    -0.206 F 
ATOM     77  C   UNL A   1      38.830  34.114  37.144  1.00  0.00     0.040 A 
ATOM     78  C   UNL A   1      37.577  32.171  37.822  1.00  0.00     0.040 A 
ATOM     79  F   UNL A   1      37.791  30.162  36.631  1.00  0.00    -0.206 F 
ATOM     80  C   UNL A   1      37.923  33.509  38.012  1.00  0.00     0.006 A 
ENDBRANCH  56  73
ENDBRANCH  30  31
ENDBRANCH  23  25
ENDBRANCH  22  23
ENDBRANCH  21  22
ENDBRANCH   1  21
TORSDOF 14
ENDMDL
MODEL 3
REMARK VINA RESULT:     -11.6      1.840      6.821
REMARK SMILES CCc1cccc(-c2ccc([C@@H](C)C(=O)OCCOC(=O)c3ccc(-c4c5nc(c(-c6c(F)cccc6F)c6ccc([nH]6)c(-c6c(F)cccc6F)c6nc(c(-c7c(F)cccc7F)c7ccc4[nH]7)C=C6)C=C5)cc3)cc2)c1
REMARK SMILES IDX 17 1 16 2 14 3 15 4 12 5 13 6 11 7 8 8 9 9 77 10 10 11 76 12
REMARK SMILES IDX 7 13 3 14 4 15 78 16 5 17 6 18 2 19 1 20 18 21 19 22 20 23
REMARK SMILES IDX 21 24 22 25 23 26 75 27 24 28 74 29 25 30 26 31 27 32 68 33
REMARK SMILES IDX 28 34 73 35 67 36 69 37 29 38 72 39 66 40 65 41 30 43 56 44
REMARK SMILES IDX 39 45 55 46 40 47 43 48 54 49 70 50 41 51 42 52 53 54 71 55
REMARK SMILES IDX 44 56 31 57 32 58 37 59 33 60 34 61 36 62 38 63 35 64 57 65
REMARK SMILES IDX 58 66 63 67 59 68 60 69 62 70 64 71 61 72 45 73 46 74 51 75
REMARK SMILES IDX 47 76 48 77 50 78 52 79 49 80
REMARK H PARENT 69 42 43 53
REMARK Flexibility Score: inf
ROOT
ATOM      1  C   UNL A   1      43.776  21.744  25.662  1.00  0.00     0.274 C 
ENDROOT
BRANCH   1   2
ATOM      2  O   UNL A   1      42.634  20.921  25.358  1.00  0.00    -0.462 OA
BRANCH   2   3
ATOM      3  C   UNL A   1      41.754  20.696  26.367  1.00  0.00     0.313 C 
ATOM      4  O   UNL A   1      41.408  19.582  26.749  1.00  0.00    -0.252 OA
BRANCH   3   5
ATOM      5  C   UNL A   1      41.171  21.971  26.966  1.00  0.00     0.126 C 
ATOM      6  C   UNL A   1      41.242  21.906  28.491  1.00  0.00     0.025 C 
BRANCH   5   7
ATOM      7  C   UNL A   1      39.795  22.373  26.457  1.00  0.00    -0.034 A 
ATOM      8  C   UNL A   1      37.232  23.094  25.455  1.00  0.00    -0.018 A 
ATOM      9  C   UNL A   1      37.986  23.985  26.233  1.00  0.00     0.009 A 
ATOM     10  C   UNL A   1      37.776  21.828  25.200  1.00  0.00     0.009 A 
ATOM     11  C   UNL A   1      39.247  23.634  26.725  1.00  0.00     0.005 A 
ATOM     12  C   UNL A   1      39.039  21.474  25.690  1.00  0.00     0.005 A 
BRANCH   8  13
ATOM     13  C   UNL A   1      35.927  23.492  24.902  1.00  0.00    -0.018 A 
ATOM     14  C   UNL A   1      33.900  24.869  24.977  1.00  0.00    -0.048 A 
ATOM     15  C   UNL A   1      33.448  24.250  23.805  1.00  0.00     0.004 A 
ATOM     16  C   UNL A   1      35.141  24.485  25.514  1.00  0.00     0.012 A 
ATOM     17  C   UNL A   1      34.208  23.257  23.192  1.00  0.00     0.001 A 
ATOM     18  C   UNL A   1      35.436  22.883  23.737  1.00  0.00     0.009 A 
BRANCH  14  19
ATOM     19  C   UNL A   1      33.080  25.952  25.634  1.00  0.00     0.032 C 
ATOM     20  C   UNL A   1      33.874  27.229  25.876  1.00  0.00     0.009 C 
ENDBRANCH  14  19
ENDBRANCH   8  13
ENDBRANCH   5   7
ENDBRANCH   3   5
ENDBRANCH   2   3
ENDBRANCH   1   2
BRANCH   1  21
ATOM     21  C   UNL A   1      44.021  22.782  24.565  1.00  0.00     0.275 C 
BRANCH  21  22
ATOM     22  O   UNL A   1      43.284  23.990  24.825  1.00  0.00    -0.458 OA
BRANCH  22  23
ATOM     23  C   UNL A   1      44.034  25.059  25.171  1.00  0.00     0.338 C 
ATOM     24  O   UNL A   1      45.081  25.431  24.670  1.00  0.00    -0.246 OA
BRANCH  23  25
ATOM     25  C   UNL A   1      43.346  25.816  26.223  1.00  0.00     0.060 A 
ATOM     26  C   UNL A   1      43.781  27.116  26.495  1.00  0.00     0.016 A 
ATOM     27  C   UNL A   1      42.355  25.219  27.002  1.00  0.00     0.016 A 
ATOM     28  C   UNL A   1      43.243  27.822  27.565  1.00  0.00     0.010 A 
ATOM     29  C   UNL A   1      41.807  25.932  28.073  1.00  0.00     0.010 A 
ATOM     30  C   UNL A   1      42.262  27.230  28.372  1.00  0.00    -0.014 A 
BRANCH  30  31
ATOM     31  C   UNL A   1      41.764  27.948  29.567  1.00  0.00     0.031 A 
ATOM     32  C   UNL A   1      40.527  28.792  29.467  1.00  0.00     0.074 A 
ATOM     33  C   UNL A   1      42.406  27.824  30.743  1.00  0.00     0.049 A 
ATOM     34  N   UNL A   1      39.967  29.551  30.373  1.00  0.00    -0.248 NA
ATOM     35  C   UNL A   1      39.826  28.780  28.173  1.00  0.00     0.031 C 
ATOM     36  C   UNL A   1      43.593  27.000  30.973  1.00  0.00     0.029 A 
ATOM     37  N   UNL A   1      42.148  28.393  31.963  1.00  0.00    -0.354 N 
ATOM     38  C   UNL A   1      38.862  30.123  29.757  1.00  0.00     0.074 A 
ATOM     39  C   UNL A   1      38.838  29.634  28.394  1.00  0.00     0.031 C 
ATOM     40  C   UNL A   1      43.960  27.117  32.260  1.00  0.00     0.029 A 
ATOM     41  C   UNL A   1      43.060  28.051  32.930  1.00  0.00     0.049 A 
ATOM     42  H   UNL A   1      41.382  28.989  32.129  1.00  0.00     0.167 HD
ATOM     43  C   UNL A   1      37.950  30.976  30.281  1.00  0.00     0.037 A 
ATOM     44  C   UNL A   1      43.168  28.464  34.207  1.00  0.00     0.037 A 
ATOM     45  C   UNL A   1      37.967  31.448  31.641  1.00  0.00     0.049 A 
ATOM     46  C   UNL A   1      42.168  29.444  34.753  1.00  0.00     0.074 A 
ATOM     47  C   UNL A   1      37.082  32.308  32.267  1.00  0.00     0.029 A 
ATOM     48  N   UNL A   1      38.919  31.097  32.585  1.00  0.00    -0.354 N 
ATOM     49  N   UNL A   1      41.133  29.985  34.159  1.00  0.00    -0.248 NA
ATOM     50  C   UNL A   1      42.355  29.873  36.146  1.00  0.00     0.031 C 
ATOM     51  C   UNL A   1      37.516  32.500  33.584  1.00  0.00     0.029 A 
ATOM     52  C   UNL A   1      38.652  31.732  33.786  1.00  0.00     0.049 A 
ATOM     53  H   UNL A   1      39.675  30.485  32.425  1.00  0.00     0.167 HD
ATOM     54  C   UNL A   1      40.535  30.805  35.107  1.00  0.00     0.074 A 
ATOM     55  C   UNL A   1      41.316  30.679  36.321  1.00  0.00     0.031 C 
ATOM     56  C   UNL A   1      39.439  31.592  34.984  1.00  0.00     0.037 A 
BRANCH  43  57
ATOM     57  C   UNL A   1      36.871  31.472  29.369  1.00  0.00     0.057 A 
ATOM     58  C   UNL A   1      36.892  32.767  28.835  1.00  0.00     0.134 A 
ATOM     59  C   UNL A   1      35.809  30.638  29.002  1.00  0.00     0.134 A 
ATOM     60  F   UNL A   1      37.874  33.621  29.160  1.00  0.00    -0.206 F 
ATOM     61  C   UNL A   1      35.882  33.220  27.983  1.00  0.00     0.040 A 
ATOM     62  C   UNL A   1      34.804  31.071  28.136  1.00  0.00     0.040 A 
ATOM     63  F   UNL A   1      35.732  29.385  29.478  1.00  0.00    -0.206 F 
ATOM     64  C   UNL A   1      34.838  32.368  27.627  1.00  0.00     0.006 A 
ENDBRANCH  43  57
BRANCH  44  65
ATOM     65  C   UNL A   1      44.275  27.960  35.053  1.00  0.00     0.057 A 
ATOM     66  C   UNL A   1      45.508  28.621  35.100  1.00  0.00     0.134 A 
ATOM     67  C   UNL A   1      44.129  26.806  35.831  1.00  0.00     0.134 A 
ATOM     68  F   UNL A   1      45.714  29.718  34.359  1.00  0.00    -0.206 F 
ATOM     69  C   UNL A   1      46.560  28.146  35.884  1.00  0.00     0.040 A 
ATOM     70  C   UNL A   1      45.166  26.331  36.635  1.00  0.00     0.040 A 
ATOM     71  F   UNL A   1      42.972  26.128  35.827  1.00  0.00    -0.206 F 
ATOM     72  C   UNL A   1      46.388  27.001  36.660  1.00  0.00     0.006 A 
ENDBRANCH  44  65
BRANCH  56  73
ATOM     73  C   UNL A   1      39.006  32.353  36.200  1.00  0.00     0.057 A 
ATOM     74  C   UNL A   1      38.163  31.784  37.161  1.00  0.00     0.134 A 
ATOM     75  C   UNL A   1      39.464  33.656  36.427  1.00  0.00     0.134 A 
ATOM     76  F   UNL A   1      37.679  30.543  36.994  1.00  0.00    -0.206 F 
ATOM     77  C   UNL A   1      37.774  32.493  38.299  1.00  0.00     0.040 A 
ATOM     78  C   UNL A   1      39.099  34.368  37.569  1.00  0.00     0.040 A 
ATOM     79  F   UNL A   1      40.280  34.255  35.546  1.00  0.00    -0.206 F 
ATOM     80  C   UNL A   1      38.248  33.787  38.508  1.00  0.00     0.006 A 
ENDBRANCH  56  73
ENDBRANCH  30  31
ENDBRANCH  23  25
ENDBRANCH  22  23
ENDBRANCH  21  22
ENDBRANCH   1  21
TORSDOF 14
ENDMDL
