MODEL 1
REMARK VINA RESULT:     -10.2      0.000      0.000
REMARK SMILES Cc1nc2sc3c(c2c2nc(CCC(=O)OCCOC(=O)c4ccc(-c5c6nc(c(-c7c(F)cccc7F)c7ccc([nH]7)c(-c7c(F)cccc7F)c7nc(c(-c8c(F)cccc8F)c8ccc5[nH]8)C=C7)C=C6)cc4)nn12)[C@@H](C)CCC3
REMARK SMILES IDX 17 1 16 2 14 3 15 4 13 5 12 6 11 7 1 8 2 9 3 10 77 11 4 12
REMARK SMILES IDX 9 13 76 14 5 15 8 16 10 17 6 18 7 19 82 20 78 21 81 22 79 23
REMARK SMILES IDX 80 24 18 25 19 26 20 27 21 28 22 29 23 30 75 31 24 32 74 33
REMARK SMILES IDX 25 34 26 35 27 36 68 37 28 38 73 39 67 40 69 41 29 42 72 43
REMARK SMILES IDX 66 44 65 45 30 47 56 48 39 49 55 50 40 51 43 52 54 53 70 54
REMARK SMILES IDX 41 55 42 56 53 58 71 59 44 60 31 61 32 62 37 63 33 64 34 65
REMARK SMILES IDX 36 66 38 67 35 68 57 69 58 70 63 71 59 72 60 73 62 74 64 75
REMARK SMILES IDX 61 76 45 77 46 78 51 79 47 80 48 81 50 82 52 83 49 84
REMARK H PARENT 69 46 43 57
REMARK Flexibility Score: inf
ROOT
ATOM      1  C   UNL A   1      33.827  34.338  29.509  1.00  0.00     0.274 C 
ENDROOT
BRANCH   1   2
ATOM      2  O   UNL A   1      35.107  33.979  30.060  1.00  0.00    -0.462 OA
BRANCH   2   3
ATOM      3  C   UNL A   1      35.157  33.763  31.398  1.00  0.00     0.306 C 
ATOM      4  O   UNL A   1      35.479  34.599  32.236  1.00  0.00    -0.252 OA
BRANCH   3   5
ATOM      5  C   UNL A   1      34.846  32.328  31.739  1.00  0.00     0.131 C 
BRANCH   5   6
ATOM      6  C   UNL A   1      36.075  31.451  31.930  1.00  0.00     0.091 C 
BRANCH   6   7
ATOM      7  C   UNL A   1      37.239  32.167  32.527  1.00  0.00     0.152 A 
ATOM      8  C   UNL A   1      38.266  33.365  36.347  1.00  0.00     0.090 C 
ATOM      9  C   UNL A   1      39.089  33.531  35.109  1.00  0.00     0.131 A 
ATOM     10  N   UNL A   1      40.254  34.128  35.114  1.00  0.00    -0.222 NA
ATOM     11  N   UNL A   1      38.498  33.037  33.940  1.00  0.00    -0.199 N 
ATOM     12  C   UNL A   1      40.856  34.272  33.887  1.00  0.00     0.129 A 
ATOM     13  C   UNL A   1      39.088  33.149  32.712  1.00  0.00     0.168 A 
ATOM     14  N   UNL A   1      37.293  32.436  33.845  1.00  0.00    -0.150 NA
ATOM     15  S   UNL A   1      42.362  35.062  33.721  1.00  0.00    -0.120 S 
ATOM     16  C   UNL A   1      40.383  33.865  32.646  1.00  0.00     0.060 A 
ATOM     17  N   UNL A   1      38.330  32.590  31.800  1.00  0.00    -0.211 NA
ATOM     18  C   UNL A   1      42.331  34.911  32.024  1.00  0.00     0.011 A 
ATOM     19  C   UNL A   1      41.196  34.274  31.551  1.00  0.00    -0.018 A 
ATOM     20  C   UNL A   1      43.418  35.473  31.164  1.00  0.00     0.047 C 
ATOM     21  C   UNL A   1      40.928  34.116  30.075  1.00  0.00     0.018 C 
ATOM     22  C   UNL A   1      43.427  34.750  29.813  1.00  0.00     0.006 C 
ATOM     23  C   UNL A   1      39.608  34.787  29.693  1.00  0.00     0.013 C 
ATOM     24  C   UNL A   1      42.032  34.751  29.186  1.00  0.00     0.008 C 
ENDBRANCH   6   7
ENDBRANCH   5   6
ENDBRANCH   3   5
ENDBRANCH   2   3
ENDBRANCH   1   2
BRANCH   1  25
ATOM     25  C   UNL A   1      33.561  33.653  28.174  1.00  0.00     0.275 C 
BRANCH  25  26
ATOM     26  O   UNL A   1      34.708  32.981  27.666  1.00  0.00    -0.458 OA
BRANCH  26  27
ATOM     27  C   UNL A   1      34.600  31.636  27.705  1.00  0.00     0.338 C 
ATOM     28  O   UNL A   1      33.600  30.949  27.628  1.00  0.00    -0.246 OA
BRANCH  27  29
ATOM     29  C   UNL A   1      35.894  31.081  28.058  1.00  0.00     0.060 A 
ATOM     30  C   UNL A   1      36.002  29.706  28.263  1.00  0.00     0.016 A 
ATOM     31  C   UNL A   1      36.944  31.969  28.319  1.00  0.00     0.016 A 
ATOM     32  C   UNL A   1      37.203  29.211  28.731  1.00  0.00     0.010 A 
ATOM     33  C   UNL A   1      38.139  31.474  28.789  1.00  0.00     0.010 A 
ATOM     34  C   UNL A   1      38.257  30.099  28.996  1.00  0.00    -0.014 A 
BRANCH  34  35
ATOM     35  C   UNL A   1      39.559  29.523  29.281  1.00  0.00     0.031 A 
ATOM     36  C   UNL A   1      39.897  29.514  30.727  1.00  0.00     0.074 A 
ATOM     37  C   UNL A   1      40.310  28.871  28.375  1.00  0.00     0.049 A 
ATOM     38  N   UNL A   1      40.897  30.084  31.313  1.00  0.00    -0.248 NA
ATOM     39  C   UNL A   1      38.949  28.864  31.649  1.00  0.00     0.031 C 
ATOM     40  C   UNL A   1      39.903  28.469  27.027  1.00  0.00     0.029 A 
ATOM     41  N   UNL A   1      41.550  28.316  28.515  1.00  0.00    -0.354 N 
ATOM     42  C   UNL A   1      40.822  29.685  32.644  1.00  0.00     0.074 A 
ATOM     43  C   UNL A   1      39.531  29.078  32.829  1.00  0.00     0.031 C 
ATOM     44  C   UNL A   1      40.778  27.554  26.561  1.00  0.00     0.029 A 
ATOM     45  C   UNL A   1      41.873  27.420  27.510  1.00  0.00     0.049 A 
ATOM     46  H   UNL A   1      42.157  28.534  29.259  1.00  0.00     0.167 HD
ATOM     47  C   UNL A   1      41.943  29.613  33.407  1.00  0.00     0.037 A 
ATOM     48  C   UNL A   1      42.933  26.580  27.481  1.00  0.00     0.037 A 
ATOM     49  C   UNL A   1      43.039  30.333  32.821  1.00  0.00     0.049 A 
ATOM     50  C   UNL A   1      43.980  27.103  28.391  1.00  0.00     0.074 A 
ATOM     51  C   UNL A   1      43.495  31.629  32.775  1.00  0.00     0.029 A 
ATOM     52  N   UNL A   1      43.705  29.629  31.860  1.00  0.00    -0.354 N 
ATOM     53  N   UNL A   1      44.626  28.222  28.203  1.00  0.00    -0.248 NA
ATOM     54  C   UNL A   1      44.157  26.494  29.707  1.00  0.00     0.031 C 
ATOM     55  C   UNL A   1      44.410  31.698  31.681  1.00  0.00     0.029 A 
ATOM     56  C   UNL A   1      44.486  30.442  31.087  1.00  0.00     0.049 A 
ATOM     57  H   UNL A   1      43.632  28.655  31.739  1.00  0.00     0.167 HD
ATOM     58  C   UNL A   1      44.949  28.647  29.474  1.00  0.00     0.074 A 
ATOM     59  C   UNL A   1      44.808  27.479  30.330  1.00  0.00     0.031 C 
ATOM     60  C   UNL A   1      44.947  29.969  29.803  1.00  0.00     0.037 A 
BRANCH  47  61
ATOM     61  C   UNL A   1      42.212  28.503  34.396  1.00  0.00     0.057 A 
ATOM     62  C   UNL A   1      42.410  27.197  33.915  1.00  0.00     0.134 A 
ATOM     63  C   UNL A   1      41.954  28.602  35.778  1.00  0.00     0.134 A 
ATOM     64  F   UNL A   1      42.631  26.970  32.611  1.00  0.00    -0.206 F 
ATOM     65  C   UNL A   1      42.308  26.071  34.741  1.00  0.00     0.040 A 
ATOM     66  C   UNL A   1      41.903  27.489  36.622  1.00  0.00     0.040 A 
ATOM     67  F   UNL A   1      41.630  29.762  36.364  1.00  0.00    -0.206 F 
ATOM     68  C   UNL A   1      42.051  26.214  36.099  1.00  0.00     0.006 A 
ENDBRANCH  47  61
BRANCH  48  69
ATOM     69  C   UNL A   1      43.021  25.235  26.871  1.00  0.00     0.057 A 
ATOM     70  C   UNL A   1      42.239  24.175  27.353  1.00  0.00     0.134 A 
ATOM     71  C   UNL A   1      43.671  25.015  25.644  1.00  0.00     0.134 A 
ATOM     72  F   UNL A   1      41.552  24.302  28.498  1.00  0.00    -0.206 F 
ATOM     73  C   UNL A   1      42.084  22.981  26.642  1.00  0.00     0.040 A 
ATOM     74  C   UNL A   1      43.538  23.819  24.930  1.00  0.00     0.040 A 
ATOM     75  F   UNL A   1      44.385  25.981  25.050  1.00  0.00    -0.206 F 
ATOM     76  C   UNL A   1      42.728  22.803  25.421  1.00  0.00     0.006 A 
ENDBRANCH  48  69
BRANCH  60  77
ATOM     77  C   UNL A   1      45.218  30.971  28.732  1.00  0.00     0.057 A 
ATOM     78  C   UNL A   1      46.496  31.325  28.284  1.00  0.00     0.134 A 
ATOM     79  C   UNL A   1      44.124  31.526  28.058  1.00  0.00     0.134 A 
ATOM     80  F   UNL A   1      47.595  30.789  28.831  1.00  0.00    -0.206 F 
ATOM     81  C   UNL A   1      46.672  32.214  27.219  1.00  0.00     0.040 A 
ATOM     82  C   UNL A   1      44.286  32.390  26.976  1.00  0.00     0.040 A 
ATOM     83  F   UNL A   1      42.872  31.199  28.419  1.00  0.00    -0.206 F 
ATOM     84  C   UNL A   1      45.565  32.742  26.556  1.00  0.00     0.006 A 
ENDBRANCH  60  77
ENDBRANCH  34  35
ENDBRANCH  27  29
ENDBRANCH  26  27
ENDBRANCH  25  26
ENDBRANCH   1  25
TORSDOF 13
ENDMDL
MODEL 2
REMARK VINA RESULT:     -10.2      5.563     10.895
REMARK SMILES Cc1nc2sc3c(c2c2nc(CCC(=O)OCCOC(=O)c4ccc(-c5c6nc(c(-c7c(F)cccc7F)c7ccc([nH]7)c(-c7c(F)cccc7F)c7nc(c(-c8c(F)cccc8F)c8ccc5[nH]8)C=C7)C=C6)cc4)nn12)[C@@H](C)CCC3
REMARK SMILES IDX 17 1 16 2 14 3 15 4 13 5 12 6 11 7 1 8 2 9 3 10 77 11 4 12
REMARK SMILES IDX 9 13 76 14 5 15 8 16 10 17 6 18 7 19 82 20 78 21 81 22 79 23
REMARK SMILES IDX 80 24 18 25 19 26 20 27 21 28 22 29 23 30 75 31 24 32 74 33
REMARK SMILES IDX 25 34 26 35 27 36 68 37 28 38 73 39 67 40 69 41 29 42 72 43
REMARK SMILES IDX 66 44 65 45 30 47 56 48 39 49 55 50 40 51 43 52 54 53 70 54
REMARK SMILES IDX 41 55 42 56 53 58 71 59 44 60 31 61 32 62 37 63 33 64 34 65
REMARK SMILES IDX 36 66 38 67 35 68 57 69 58 70 63 71 59 72 60 73 62 74 64 75
REMARK SMILES IDX 61 76 45 77 46 78 51 79 47 80 48 81 50 82 52 83 49 84
REMARK H PARENT 69 46 43 57
REMARK Flexibility Score: inf
ROOT
ATOM      1  C   UNL A   1      41.389  19.925  26.948  1.00  0.00     0.274 C 
ENDROOT
BRANCH   1   2
ATOM      2  O   UNL A   1      40.438  20.627  26.126  1.00  0.00    -0.462 OA
BRANCH   2   3
ATOM      3  C   UNL A   1      39.896  21.756  26.646  1.00  0.00     0.306 C 
ATOM      4  O   UNL A   1      40.308  22.342  27.642  1.00  0.00    -0.252 OA
BRANCH   3   5
ATOM      5  C   UNL A   1      38.657  22.171  25.897  1.00  0.00     0.131 C 
BRANCH   5   6
ATOM      6  C   UNL A   1      37.950  21.031  25.178  1.00  0.00     0.091 C 
BRANCH   6   7
ATOM      7  C   UNL A   1      36.462  21.113  25.236  1.00  0.00     0.152 A 
ATOM      8  C   UNL A   1      33.381  18.401  24.758  1.00  0.00     0.090 C 
ATOM      9  C   UNL A   1      33.248  19.848  25.110  1.00  0.00     0.131 A 
ATOM     10  N   UNL A   1      32.086  20.427  25.277  1.00  0.00    -0.222 NA
ATOM     11  N   UNL A   1      34.459  20.543  25.204  1.00  0.00    -0.199 N 
ATOM     12  C   UNL A   1      32.121  21.779  25.522  1.00  0.00     0.129 A 
ATOM     13  C   UNL A   1      34.521  21.884  25.470  1.00  0.00     0.168 A 
ATOM     14  N   UNL A   1      35.694  20.030  25.020  1.00  0.00    -0.150 NA
ATOM     15  S   UNL A   1      30.688  22.686  25.726  1.00  0.00    -0.120 S 
ATOM     16  C   UNL A   1      33.235  22.605  25.613  1.00  0.00     0.060 A 
ATOM     17  N   UNL A   1      35.772  22.272  25.517  1.00  0.00    -0.211 NA
ATOM     18  C   UNL A   1      31.553  24.148  25.865  1.00  0.00     0.011 A 
ATOM     19  C   UNL A   1      32.923  23.987  25.756  1.00  0.00    -0.018 A 
ATOM     20  C   UNL A   1      30.856  25.461  26.033  1.00  0.00     0.047 C 
ATOM     21  C   UNL A   1      33.867  25.164  25.762  1.00  0.00     0.018 C 
ATOM     22  C   UNL A   1      31.819  26.475  26.659  1.00  0.00     0.006 C 
ATOM     23  C   UNL A   1      34.682  25.207  24.470  1.00  0.00     0.013 C 
ATOM     24  C   UNL A   1      33.134  26.528  25.880  1.00  0.00     0.008 C 
ENDBRANCH   6   7
ENDBRANCH   5   6
ENDBRANCH   3   5
ENDBRANCH   2   3
ENDBRANCH   1   2
BRANCH   1  25
ATOM     25  C   UNL A   1      42.616  19.484  26.161  1.00  0.00     0.275 C 
BRANCH  25  26
ATOM     26  O   UNL A   1      42.917  20.359  25.080  1.00  0.00    -0.458 OA
BRANCH  26  27
ATOM     27  C   UNL A   1      44.108  20.982  25.211  1.00  0.00     0.338 C 
ATOM     28  O   UNL A   1      45.224  20.540  25.019  1.00  0.00    -0.246 OA
BRANCH  27  29
ATOM     29  C   UNL A   1      43.884  22.277  25.828  1.00  0.00     0.060 A 
ATOM     30  C   UNL A   1      44.425  22.523  27.088  1.00  0.00     0.016 A 
ATOM     31  C   UNL A   1      43.012  23.169  25.191  1.00  0.00     0.016 A 
ATOM     32  C   UNL A   1      44.089  23.704  27.720  1.00  0.00     0.010 A 
ATOM     33  C   UNL A   1      42.677  24.343  25.824  1.00  0.00     0.010 A 
ATOM     34  C   UNL A   1      43.214  24.600  27.086  1.00  0.00    -0.014 A 
BRANCH  34  35
ATOM     35  C   UNL A   1      43.056  25.914  27.683  1.00  0.00     0.031 A 
ATOM     36  C   UNL A   1      44.141  26.861  27.320  1.00  0.00     0.074 A 
ATOM     37  C   UNL A   1      41.949  26.320  28.329  1.00  0.00     0.049 A 
ATOM     38  N   UNL A   1      44.963  27.469  28.109  1.00  0.00    -0.248 NA
ATOM     39  C   UNL A   1      44.402  27.088  25.887  1.00  0.00     0.031 C 
ATOM     40  C   UNL A   1      40.668  25.615  28.400  1.00  0.00     0.029 A 
ATOM     41  N   UNL A   1      41.696  27.510  28.952  1.00  0.00    -0.354 N 
ATOM     42  C   UNL A   1      45.701  28.318  27.291  1.00  0.00     0.074 A 
ATOM     43  C   UNL A   1      45.434  27.931  25.932  1.00  0.00     0.031 C 
ATOM     44  C   UNL A   1      39.719  26.474  28.828  1.00  0.00     0.029 A 
ATOM     45  C   UNL A   1      40.351  27.732  29.196  1.00  0.00     0.049 A 
ATOM     46  H   UNL A   1      42.402  28.148  29.203  1.00  0.00     0.167 HD
ATOM     47  C   UNL A   1      46.235  29.464  27.788  1.00  0.00     0.037 A 
ATOM     48  C   UNL A   1      39.782  28.886  29.614  1.00  0.00     0.037 A 
ATOM     49  C   UNL A   1      46.273  29.460  29.224  1.00  0.00     0.049 A 
ATOM     50  C   UNL A   1      40.817  29.713  30.279  1.00  0.00     0.074 A 
ATOM     51  C   UNL A   1      47.094  28.981  30.217  1.00  0.00     0.029 A 
ATOM     52  N   UNL A   1      45.090  29.814  29.805  1.00  0.00    -0.354 N 
ATOM     53  N   UNL A   1      41.415  29.389  31.393  1.00  0.00    -0.248 NA
ATOM     54  C   UNL A   1      41.408  30.839  29.558  1.00  0.00     0.031 C 
ATOM     55  C   UNL A   1      46.321  28.982  31.418  1.00  0.00     0.029 A 
ATOM     56  C   UNL A   1      45.047  29.460  31.124  1.00  0.00     0.049 A 
ATOM     57  H   UNL A   1      44.357  30.270  29.331  1.00  0.00     0.167 HD
ATOM     58  C   UNL A   1      42.654  29.988  31.302  1.00  0.00     0.074 A 
ATOM     59  C   UNL A   1      42.528  31.001  30.265  1.00  0.00     0.031 C 
ATOM     60  C   UNL A   1      43.772  29.387  31.797  1.00  0.00     0.037 A 
BRANCH  47  61
ATOM     61  C   UNL A   1      46.249  30.775  27.037  1.00  0.00     0.057 A 
ATOM     62  C   UNL A   1      47.448  31.505  26.966  1.00  0.00     0.134 A 
ATOM     63  C   UNL A   1      45.087  31.490  26.682  1.00  0.00     0.134 A 
ATOM     64  F   UNL A   1      48.618  30.944  27.311  1.00  0.00    -0.206 F 
ATOM     65  C   UNL A   1      47.480  32.861  26.618  1.00  0.00     0.040 A 
ATOM     66  C   UNL A   1      45.114  32.829  26.281  1.00  0.00     0.040 A 
ATOM     67  F   UNL A   1      43.860  30.970  26.810  1.00  0.00    -0.206 F 
ATOM     68  C   UNL A   1      46.310  33.528  26.276  1.00  0.00     0.006 A 
ENDBRANCH  47  61
BRANCH  48  69
ATOM     69  C   UNL A   1      38.438  29.415  29.293  1.00  0.00     0.057 A 
ATOM     70  C   UNL A   1      38.064  29.667  27.966  1.00  0.00     0.134 A 
ATOM     71  C   UNL A   1      37.401  29.439  30.243  1.00  0.00     0.134 A 
ATOM     72  F   UNL A   1      38.974  29.631  26.982  1.00  0.00    -0.206 F 
ATOM     73  C   UNL A   1      36.733  29.897  27.598  1.00  0.00     0.040 A 
ATOM     74  C   UNL A   1      36.070  29.684  29.891  1.00  0.00     0.040 A 
ATOM     75  F   UNL A   1      37.628  29.141  31.530  1.00  0.00    -0.206 F 
ATOM     76  C   UNL A   1      35.730  29.897  28.562  1.00  0.00     0.006 A 
ENDBRANCH  48  69
BRANCH  60  77
ATOM     77  C   UNL A   1      43.626  28.445  32.945  1.00  0.00     0.057 A 
ATOM     78  C   UNL A   1      43.539  27.055  32.821  1.00  0.00     0.134 A 
ATOM     79  C   UNL A   1      43.679  28.974  34.240  1.00  0.00     0.134 A 
ATOM     80  F   UNL A   1      43.549  26.463  31.619  1.00  0.00    -0.206 F 
ATOM     81  C   UNL A   1      43.485  26.227  33.947  1.00  0.00     0.040 A 
ATOM     82  C   UNL A   1      43.655  28.157  35.370  1.00  0.00     0.040 A 
ATOM     83  F   UNL A   1      43.797  30.299  34.425  1.00  0.00    -0.206 F 
ATOM     84  C   UNL A   1      43.552  26.777  35.226  1.00  0.00     0.006 A 
ENDBRANCH  60  77
ENDBRANCH  34  35
ENDBRANCH  27  29
ENDBRANCH  26  27
ENDBRANCH  25  26
ENDBRANCH   1  25
TORSDOF 13
ENDMDL
MODEL 3
REMARK VINA RESULT:      -9.7      3.842      9.819
REMARK SMILES Cc1nc2sc3c(c2c2nc(CCC(=O)OCCOC(=O)c4ccc(-c5c6nc(c(-c7c(F)cccc7F)c7ccc([nH]7)c(-c7c(F)cccc7F)c7nc(c(-c8c(F)cccc8F)c8ccc5[nH]8)C=C7)C=C6)cc4)nn12)[C@@H](C)CCC3
REMARK SMILES IDX 17 1 16 2 14 3 15 4 13 5 12 6 11 7 1 8 2 9 3 10 77 11 4 12
REMARK SMILES IDX 9 13 76 14 5 15 8 16 10 17 6 18 7 19 82 20 78 21 81 22 79 23
REMARK SMILES IDX 80 24 18 25 19 26 20 27 21 28 22 29 23 30 75 31 24 32 74 33
REMARK SMILES IDX 25 34 26 35 27 36 68 37 28 38 73 39 67 40 69 41 29 42 72 43
REMARK SMILES IDX 66 44 65 45 30 47 56 48 39 49 55 50 40 51 43 52 54 53 70 54
REMARK SMILES IDX 41 55 42 56 53 58 71 59 44 60 31 61 32 62 37 63 33 64 34 65
REMARK SMILES IDX 36 66 38 67 35 68 57 69 58 70 63 71 59 72 60 73 62 74 64 75
REMARK SMILES IDX 61 76 45 77 46 78 51 79 47 80 48 81 50 82 52 83 49 84
REMARK H PARENT 69 46 43 57
REMARK Flexibility Score: inf
ROOT
ATOM      1  C   UNL A   1      43.654  21.246  25.718  1.00  0.00     0.274 C 
ENDROOT
BRANCH   1   2
ATOM      2  O   UNL A   1      43.756  21.858  24.419  1.00  0.00    -0.462 OA
BRANCH   2   3
ATOM      3  C   UNL A   1      44.411  23.043  24.351  1.00  0.00     0.306 C 
ATOM      4  O   UNL A   1      45.452  23.238  23.733  1.00  0.00    -0.252 OA
BRANCH   3   5
ATOM      5  C   UNL A   1      43.747  24.092  25.205  1.00  0.00     0.131 C 
BRANCH   5   6
ATOM      6  C   UNL A   1      44.444  25.445  25.187  1.00  0.00     0.091 C 
BRANCH   6   7
ATOM      7  C   UNL A   1      45.508  25.589  26.222  1.00  0.00     0.152 A 
ATOM      8  C   UNL A   1      49.620  25.991  26.127  1.00  0.00     0.090 C 
ATOM      9  C   UNL A   1      48.751  25.998  27.344  1.00  0.00     0.131 A 
ATOM     10  N   UNL A   1      49.238  26.106  28.555  1.00  0.00    -0.222 NA
ATOM     11  N   UNL A   1      47.384  25.838  27.091  1.00  0.00    -0.199 N 
ATOM     12  C   UNL A   1      48.323  26.021  29.576  1.00  0.00     0.129 A 
ATOM     13  C   UNL A   1      46.452  25.772  28.091  1.00  0.00     0.168 A 
ATOM     14  N   UNL A   1      46.805  25.692  25.880  1.00  0.00    -0.150 NA
ATOM     15  S   UNL A   1      48.805  26.106  31.213  1.00  0.00    -0.120 S 
ATOM     16  C   UNL A   1      46.950  25.833  29.484  1.00  0.00     0.060 A 
ATOM     17  N   UNL A   1      45.254  25.636  27.576  1.00  0.00    -0.211 NA
ATOM     18  C   UNL A   1      47.216  25.831  31.765  1.00  0.00     0.011 A 
ATOM     19  C   UNL A   1      46.300  25.665  30.741  1.00  0.00    -0.018 A 
ATOM     20  C   UNL A   1      46.896  25.732  33.223  1.00  0.00     0.047 C 
ATOM     21  C   UNL A   1      44.856  25.324  31.010  1.00  0.00     0.018 C 
ATOM     22  C   UNL A   1      45.409  26.029  33.442  1.00  0.00     0.006 C 
ATOM     23  C   UNL A   1      44.481  24.003  30.338  1.00  0.00     0.013 C 
ATOM     24  C   UNL A   1      44.542  25.167  32.523  1.00  0.00     0.008 C 
ENDBRANCH   6   7
ENDBRANCH   5   6
ENDBRANCH   3   5
ENDBRANCH   2   3
ENDBRANCH   1   2
BRANCH   1  25
ATOM     25  C   UNL A   1      42.209  20.978  26.119  1.00  0.00     0.275 C 
BRANCH  25  26
ATOM     26  O   UNL A   1      41.308  21.950  25.600  1.00  0.00    -0.458 OA
BRANCH  26  27
ATOM     27  C   UNL A   1      40.269  22.207  26.423  1.00  0.00     0.338 C 
ATOM     28  O   UNL A   1      39.227  21.595  26.549  1.00  0.00    -0.246 OA
BRANCH  27  29
ATOM     29  C   UNL A   1      40.488  23.498  27.051  1.00  0.00     0.060 A 
ATOM     30  C   UNL A   1      39.821  24.612  26.547  1.00  0.00     0.016 A 
ATOM     31  C   UNL A   1      41.470  23.590  28.044  1.00  0.00     0.016 A 
ATOM     32  C   UNL A   1      40.143  25.852  27.063  1.00  0.00     0.010 A 
ATOM     33  C   UNL A   1      41.792  24.827  28.555  1.00  0.00     0.010 A 
ATOM     34  C   UNL A   1      41.129  25.949  28.057  1.00  0.00    -0.014 A 
BRANCH  34  35
ATOM     35  C   UNL A   1      41.285  27.231  28.719  1.00  0.00     0.031 A 
ATOM     36  C   UNL A   1      42.490  27.979  28.280  1.00  0.00     0.074 A 
ATOM     37  C   UNL A   1      40.346  27.798  29.497  1.00  0.00     0.049 A 
ATOM     38  N   UNL A   1      43.487  28.375  29.000  1.00  0.00    -0.248 NA
ATOM     39  C   UNL A   1      42.648  28.239  26.837  1.00  0.00     0.031 C 
ATOM     40  C   UNL A   1      38.966  27.341  29.677  1.00  0.00     0.029 A 
ATOM     41  N   UNL A   1      40.387  28.974  30.190  1.00  0.00    -0.354 N 
ATOM     42  C   UNL A   1      44.290  29.119  28.142  1.00  0.00     0.074 A 
ATOM     43  C   UNL A   1      43.822  28.870  26.805  1.00  0.00     0.031 C 
ATOM     44  C   UNL A   1      38.246  28.335  30.238  1.00  0.00     0.029 A 
ATOM     45  C   UNL A   1      39.141  29.429  30.586  1.00  0.00     0.049 A 
ATOM     46  H   UNL A   1      41.224  29.453  30.389  1.00  0.00     0.167 HD
ATOM     47  C   UNL A   1      45.080  30.113  28.624  1.00  0.00     0.037 A 
ATOM     48  C   UNL A   1      38.847  30.641  31.109  1.00  0.00     0.037 A 
ATOM     49  C   UNL A   1      45.258  30.016  30.045  1.00  0.00     0.049 A 
ATOM     50  C   UNL A   1      40.082  31.220  31.691  1.00  0.00     0.074 A 
ATOM     51  C   UNL A   1      46.065  29.334  30.925  1.00  0.00     0.029 A 
ATOM     52  N   UNL A   1      44.228  30.550  30.764  1.00  0.00    -0.354 N 
ATOM     53  N   UNL A   1      40.713  30.724  32.720  1.00  0.00    -0.248 NA
ATOM     54  C   UNL A   1      40.804  32.256  30.957  1.00  0.00     0.031 C 
ATOM     55  C   UNL A   1      45.428  29.408  32.201  1.00  0.00     0.029 A 
ATOM     56  C   UNL A   1      44.247  30.132  32.065  1.00  0.00     0.049 A 
ATOM     57  H   UNL A   1      43.553  31.161  30.390  1.00  0.00     0.167 HD
ATOM     58  C   UNL A   1      42.029  31.085  32.520  1.00  0.00     0.074 A 
ATOM     59  C   UNL A   1      41.999  32.164  31.544  1.00  0.00     0.031 C 
ATOM     60  C   UNL A   1      43.053  30.258  32.868  1.00  0.00     0.037 A 
BRANCH  47  61
ATOM     61  C   UNL A   1      45.272  31.440  27.928  1.00  0.00     0.057 A 
ATOM     62  C   UNL A   1      46.562  31.807  27.506  1.00  0.00     0.134 A 
ATOM     63  C   UNL A   1      44.329  32.488  27.960  1.00  0.00     0.134 A 
ATOM     64  F   UNL A   1      47.555  30.905  27.465  1.00  0.00    -0.206 F 
ATOM     65  C   UNL A   1      46.899  33.129  27.189  1.00  0.00     0.040 A 
ATOM     66  C   UNL A   1      44.641  33.800  27.595  1.00  0.00     0.040 A 
ATOM     67  F   UNL A   1      43.094  32.324  28.449  1.00  0.00    -0.206 F 
ATOM     68  C   UNL A   1      45.938  34.131  27.235  1.00  0.00     0.006 A 
ENDBRANCH  47  61
BRANCH  48  69
ATOM     69  C   UNL A   1      37.605  31.430  30.956  1.00  0.00     0.057 A 
ATOM     70  C   UNL A   1      37.195  31.888  29.695  1.00  0.00     0.134 A 
ATOM     71  C   UNL A   1      36.656  31.533  31.989  1.00  0.00     0.134 A 
ATOM     72  F   UNL A   1      38.016  31.799  28.638  1.00  0.00    -0.206 F 
ATOM     73  C   UNL A   1      35.908  32.386  29.466  1.00  0.00     0.040 A 
ATOM     74  C   UNL A   1      35.372  32.045  31.777  1.00  0.00     0.040 A 
ATOM     75  F   UNL A   1      36.910  31.061  33.217  1.00  0.00    -0.206 F 
ATOM     76  C   UNL A   1      34.988  32.457  30.508  1.00  0.00     0.006 A 
ENDBRANCH  48  69
BRANCH  60  77
ATOM     77  C   UNL A   1      42.844  29.293  33.986  1.00  0.00     0.057 A 
ATOM     78  C   UNL A   1      42.987  29.609  35.341  1.00  0.00     0.134 A 
ATOM     79  C   UNL A   1      42.377  28.012  33.670  1.00  0.00     0.134 A 
ATOM     80  F   UNL A   1      43.366  30.834  35.732  1.00  0.00    -0.206 F 
ATOM     81  C   UNL A   1      42.696  28.674  36.340  1.00  0.00     0.040 A 
ATOM     82  C   UNL A   1      42.055  27.081  34.658  1.00  0.00     0.040 A 
ATOM     83  F   UNL A   1      42.186  27.659  32.388  1.00  0.00    -0.206 F 
ATOM     84  C   UNL A   1      42.220  27.410  36.000  1.00  0.00     0.006 A 
ENDBRANCH  60  77
ENDBRANCH  34  35
ENDBRANCH  27  29
ENDBRANCH  26  27
ENDBRANCH  25  26
ENDBRANCH   1  25
TORSDOF 13
ENDMDL
