MODEL 1
REMARK VINA RESULT:     -11.9      0.000      0.000
REMARK SMILES CC(=O)N1CCC(C(=O)Nc2sccc2C(=O)OCCOC(=O)c2ccc(-c3c4nc(c(-c5c(F)cccc5F)c5ccc([nH]5)c(-c5c(F)cccc5F)c5nc(c(-c6c(F)cccc6F)c6ccc3[nH]6)C=C5)C=C4)cc2)CC1
REMARK SMILES IDX 19 1 18 2 16 3 17 4 15 5 11 6 12 7 13 8 14 9 10 10 8 11 9 12
REMARK SMILES IDX 7 14 1 15 2 16 3 17 4 18 5 19 79 20 6 21 78 22 20 23 21 24
REMARK SMILES IDX 22 25 23 26 24 27 25 28 77 29 26 30 76 31 27 32 28 33 29 34
REMARK SMILES IDX 70 35 30 36 75 37 69 38 71 39 31 40 74 41 68 42 67 43 32 45
REMARK SMILES IDX 58 46 41 47 57 48 42 49 45 50 56 51 72 52 43 53 44 54 55 56
REMARK SMILES IDX 73 57 46 58 33 59 34 60 39 61 35 62 36 63 38 64 40 65 37 66
REMARK SMILES IDX 59 67 60 68 65 69 61 70 62 71 64 72 66 73 63 74 47 75 48 76
REMARK SMILES IDX 53 77 49 78 50 79 52 80 54 81 51 82
REMARK H PARENT 10 13 71 44 45 55
REMARK Flexibility Score: inf
ROOT
ATOM      1  C   UNL A   1      35.368  21.791  25.749  1.00  0.00     0.275 C 
ENDROOT
BRANCH   1   2
ATOM      2  O   UNL A   1      34.761  22.708  24.811  1.00  0.00    -0.458 OA
BRANCH   2   3
ATOM      3  C   UNL A   1      34.046  23.744  25.336  1.00  0.00     0.341 C 
ATOM      4  O   UNL A   1      34.518  24.853  25.574  1.00  0.00    -0.246 OA
BRANCH   3   5
ATOM      5  C   UNL A   1      32.648  23.429  25.587  1.00  0.00     0.094 A 
ATOM      6  C   UNL A   1      31.771  24.159  26.363  1.00  0.00     0.110 A 
ATOM      7  S   UNL A   1      30.375  23.270  26.783  1.00  0.00    -0.126 S 
ATOM      8  C   UNL A   1      30.715  22.090  25.597  1.00  0.00     0.068 A 
ATOM      9  C   UNL A   1      31.948  22.303  25.022  1.00  0.00     0.029 A 
BRANCH   6  10
ATOM     10  N   UNL A   1      31.762  25.421  26.894  1.00  0.00    -0.317 N 
ATOM     11  C   UNL A   1      31.431  26.611  26.318  1.00  0.00     0.228 C 
ATOM     12  O   UNL A   1      31.607  27.625  27.010  1.00  0.00    -0.274 OA
ATOM     13  H   UNL A   1      32.037  25.477  27.838  1.00  0.00     0.170 HD
BRANCH  11  14
ATOM     14  C   UNL A   1      30.811  26.788  24.921  1.00  0.00     0.082 C 
ATOM     15  C   UNL A   1      28.117  30.049  21.864  1.00  0.00     0.114 C 
ATOM     16  C   UNL A   1      27.806  28.931  22.829  1.00  0.00     0.219 C 
ATOM     17  O   UNL A   1      26.631  28.751  23.157  1.00  0.00    -0.275 OA
ATOM     18  N   UNL A   1      28.834  28.078  23.218  1.00  0.00    -0.343 N 
ATOM     19  C   UNL A   1      28.472  26.779  23.769  1.00  0.00     0.120 C 
ATOM     20  C   UNL A   1      30.254  28.267  22.953  1.00  0.00     0.120 C 
ATOM     21  C   UNL A   1      29.385  26.248  24.872  1.00  0.00     0.035 C 
ATOM     22  C   UNL A   1      31.034  28.148  24.257  1.00  0.00     0.035 C 
ENDBRANCH  11  14
ENDBRANCH   6  10
ENDBRANCH   3   5
ENDBRANCH   2   3
ENDBRANCH   1   2
BRANCH   1  23
ATOM     23  C   UNL A   1      36.452  20.891  25.149  1.00  0.00     0.275 C 
BRANCH  23  24
ATOM     24  O   UNL A   1      37.689  21.603  24.981  1.00  0.00    -0.458 OA
BRANCH  24  25
ATOM     25  C   UNL A   1      38.708  21.166  25.754  1.00  0.00     0.338 C 
ATOM     26  O   UNL A   1      39.155  20.033  25.815  1.00  0.00    -0.246 OA
BRANCH  25  27
ATOM     27  C   UNL A   1      39.376  22.316  26.382  1.00  0.00     0.060 A 
ATOM     28  C   UNL A   1      38.917  23.576  25.996  1.00  0.00     0.016 A 
ATOM     29  C   UNL A   1      40.453  22.192  27.257  1.00  0.00     0.016 A 
ATOM     30  C   UNL A   1      39.500  24.729  26.494  1.00  0.00     0.010 A 
ATOM     31  C   UNL A   1      41.079  23.355  27.726  1.00  0.00     0.010 A 
ATOM     32  C   UNL A   1      40.608  24.624  27.335  1.00  0.00    -0.014 A 
BRANCH  32  33
ATOM     33  C   UNL A   1      41.366  25.852  27.650  1.00  0.00     0.031 A 
ATOM     34  C   UNL A   1      40.703  26.904  28.488  1.00  0.00     0.074 A 
ATOM     35  C   UNL A   1      42.650  25.983  27.279  1.00  0.00     0.049 A 
ATOM     36  N   UNL A   1      41.120  28.102  28.803  1.00  0.00    -0.248 NA
ATOM     37  C   UNL A   1      39.395  26.547  29.064  1.00  0.00     0.031 C 
ATOM     38  C   UNL A   1      43.438  24.969  26.581  1.00  0.00     0.029 A 
ATOM     39  N   UNL A   1      43.517  27.033  27.446  1.00  0.00    -0.354 N 
ATOM     40  C   UNL A   1      40.115  28.652  29.588  1.00  0.00     0.074 A 
ATOM     41  C   UNL A   1      39.072  27.658  29.708  1.00  0.00     0.031 C 
ATOM     42  C   UNL A   1      44.674  25.453  26.366  1.00  0.00     0.029 A 
ATOM     43  C   UNL A   1      44.741  26.826  26.861  1.00  0.00     0.049 A 
ATOM     44  H   UNL A   1      43.284  27.853  27.938  1.00  0.00     0.167 HD
ATOM     45  C   UNL A   1      40.068  29.883  30.149  1.00  0.00     0.037 A 
ATOM     46  C   UNL A   1      45.776  27.674  26.705  1.00  0.00     0.037 A 
ATOM     47  C   UNL A   1      41.113  30.862  30.022  1.00  0.00     0.049 A 
ATOM     48  C   UNL A   1      45.650  29.081  27.224  1.00  0.00     0.074 A 
ATOM     49  C   UNL A   1      41.159  32.151  30.520  1.00  0.00     0.029 A 
ATOM     50  N   UNL A   1      42.304  30.651  29.341  1.00  0.00    -0.354 N 
ATOM     51  N   UNL A   1      44.672  29.629  27.905  1.00  0.00    -0.248 NA
ATOM     52  C   UNL A   1      46.761  29.997  26.928  1.00  0.00     0.031 C 
ATOM     53  C   UNL A   1      42.361  32.735  30.105  1.00  0.00     0.029 A 
ATOM     54  C   UNL A   1      43.081  31.796  29.383  1.00  0.00     0.049 A 
ATOM     55  H   UNL A   1      42.558  29.812  28.895  1.00  0.00     0.167 HD
ATOM     56  C   UNL A   1      45.050  30.946  28.126  1.00  0.00     0.074 A 
ATOM     57  C   UNL A   1      46.357  31.112  27.522  1.00  0.00     0.031 C 
ATOM     58  C   UNL A   1      44.376  31.934  28.767  1.00  0.00     0.037 A 
BRANCH  45  59
ATOM     59  C   UNL A   1      38.815  30.246  30.884  1.00  0.00     0.057 A 
ATOM     60  C   UNL A   1      38.647  29.980  32.248  1.00  0.00     0.134 A 
ATOM     61  C   UNL A   1      37.748  30.848  30.205  1.00  0.00     0.134 A 
ATOM     62  F   UNL A   1      39.621  29.382  32.950  1.00  0.00    -0.206 F 
ATOM     63  C   UNL A   1      37.451  30.278  32.906  1.00  0.00     0.040 A 
ATOM     64  C   UNL A   1      36.556  31.169  30.856  1.00  0.00     0.040 A 
ATOM     65  F   UNL A   1      37.843  31.125  28.896  1.00  0.00    -0.206 F 
ATOM     66  C   UNL A   1      36.403  30.876  32.210  1.00  0.00     0.006 A 
ENDBRANCH  45  59
BRANCH  46  67
ATOM     67  C   UNL A   1      46.988  27.237  25.970  1.00  0.00     0.057 A 
ATOM     68  C   UNL A   1      48.071  26.654  26.637  1.00  0.00     0.134 A 
ATOM     69  C   UNL A   1      47.098  27.402  24.584  1.00  0.00     0.134 A 
ATOM     70  F   UNL A   1      48.038  26.495  27.967  1.00  0.00    -0.206 F 
ATOM     71  C   UNL A   1      49.221  26.253  25.951  1.00  0.00     0.040 A 
ATOM     72  C   UNL A   1      48.230  26.986  23.883  1.00  0.00     0.040 A 
ATOM     73  F   UNL A   1      46.099  27.966  23.887  1.00  0.00    -0.206 F 
ATOM     74  C   UNL A   1      49.298  26.413  24.570  1.00  0.00     0.006 A 
ENDBRANCH  46  67
BRANCH  58  75
ATOM     75  C   UNL A   1      45.048  33.271  28.853  1.00  0.00     0.057 A 
ATOM     76  C   UNL A   1      45.944  33.576  29.885  1.00  0.00     0.134 A 
ATOM     77  C   UNL A   1      44.829  34.245  27.872  1.00  0.00     0.134 A 
ATOM     78  F   UNL A   1      46.185  32.688  30.861  1.00  0.00    -0.206 F 
ATOM     79  C   UNL A   1      46.589  34.813  29.945  1.00  0.00     0.040 A 
ATOM     80  C   UNL A   1      45.485  35.476  27.910  1.00  0.00     0.040 A 
ATOM     81  F   UNL A   1      43.987  34.010  26.854  1.00  0.00    -0.206 F 
ATOM     82  C   UNL A   1      46.365  35.764  28.951  1.00  0.00     0.006 A 
ENDBRANCH  58  75
ENDBRANCH  32  33
ENDBRANCH  25  27
ENDBRANCH  24  25
ENDBRANCH  23  24
ENDBRANCH   1  23
TORSDOF 13
ENDMDL
MODEL 2
REMARK VINA RESULT:     -11.9      1.484      2.360
REMARK SMILES CC(=O)N1CCC(C(=O)Nc2sccc2C(=O)OCCOC(=O)c2ccc(-c3c4nc(c(-c5c(F)cccc5F)c5ccc([nH]5)c(-c5c(F)cccc5F)c5nc(c(-c6c(F)cccc6F)c6ccc3[nH]6)C=C5)C=C4)cc2)CC1
REMARK SMILES IDX 19 1 18 2 16 3 17 4 15 5 11 6 12 7 13 8 14 9 10 10 8 11 9 12
REMARK SMILES IDX 7 14 1 15 2 16 3 17 4 18 5 19 79 20 6 21 78 22 20 23 21 24
REMARK SMILES IDX 22 25 23 26 24 27 25 28 77 29 26 30 76 31 27 32 28 33 29 34
REMARK SMILES IDX 70 35 30 36 75 37 69 38 71 39 31 40 74 41 68 42 67 43 32 45
REMARK SMILES IDX 58 46 41 47 57 48 42 49 45 50 56 51 72 52 43 53 44 54 55 56
REMARK SMILES IDX 73 57 46 58 33 59 34 60 39 61 35 62 36 63 38 64 40 65 37 66
REMARK SMILES IDX 59 67 60 68 65 69 61 70 62 71 64 72 66 73 63 74 47 75 48 76
REMARK SMILES IDX 53 77 49 78 50 79 52 80 54 81 51 82
REMARK H PARENT 10 13 71 44 45 55
REMARK Flexibility Score: inf
ROOT
ATOM      1  C   UNL A   1      35.495  21.353  25.980  1.00  0.00     0.275 C 
ENDROOT
BRANCH   1   2
ATOM      2  O   UNL A   1      35.378  22.792  25.908  1.00  0.00    -0.458 OA
BRANCH   2   3
ATOM      3  C   UNL A   1      34.119  23.313  25.987  1.00  0.00     0.341 C 
ATOM      4  O   UNL A   1      33.516  23.493  27.042  1.00  0.00    -0.246 OA
BRANCH   3   5
ATOM      5  C   UNL A   1      33.540  23.656  24.698  1.00  0.00     0.094 A 
ATOM      6  C   UNL A   1      32.268  24.142  24.475  1.00  0.00     0.110 A 
ATOM      7  S   UNL A   1      31.794  24.008  22.839  1.00  0.00    -0.126 S 
ATOM      8  C   UNL A   1      33.404  23.720  22.350  1.00  0.00     0.068 A 
ATOM      9  C   UNL A   1      34.236  23.572  23.438  1.00  0.00     0.029 A 
BRANCH   6  10
ATOM     10  N   UNL A   1      31.284  24.686  25.257  1.00  0.00    -0.317 N 
ATOM     11  C   UNL A   1      31.189  25.931  25.802  1.00  0.00     0.228 C 
ATOM     12  O   UNL A   1      30.225  26.129  26.557  1.00  0.00    -0.274 OA
ATOM     13  H   UNL A   1      30.530  24.085  25.456  1.00  0.00     0.170 HD
BRANCH  11  14
ATOM     14  C   UNL A   1      32.134  27.110  25.514  1.00  0.00     0.082 C 
ATOM     15  C   UNL A   1      34.906  30.952  27.703  1.00  0.00     0.114 C 
ATOM     16  C   UNL A   1      33.518  30.778  27.136  1.00  0.00     0.219 C 
ATOM     17  O   UNL A   1      32.697  31.681  27.310  1.00  0.00    -0.275 OA
ATOM     18  N   UNL A   1      33.254  29.666  26.343  1.00  0.00    -0.343 N 
ATOM     19  C   UNL A   1      32.100  29.717  25.456  1.00  0.00     0.120 C 
ATOM     20  C   UNL A   1      34.129  28.515  26.159  1.00  0.00     0.120 C 
ATOM     21  C   UNL A   1      31.356  28.398  25.258  1.00  0.00     0.035 C 
ATOM     22  C   UNL A   1      33.349  27.235  26.435  1.00  0.00     0.035 C 
ENDBRANCH  11  14
ENDBRANCH   6  10
ENDBRANCH   3   5
ENDBRANCH   2   3
ENDBRANCH   1   2
BRANCH   1  23
ATOM     23  C   UNL A   1      36.569  20.756  25.066  1.00  0.00     0.275 C 
BRANCH  23  24
ATOM     24  O   UNL A   1      37.744  21.582  25.031  1.00  0.00    -0.458 OA
BRANCH  24  25
ATOM     25  C   UNL A   1      38.765  21.155  25.807  1.00  0.00     0.338 C 
ATOM     26  O   UNL A   1      39.217  20.024  25.876  1.00  0.00    -0.246 OA
BRANCH  25  27
ATOM     27  C   UNL A   1      39.428  22.312  26.427  1.00  0.00     0.060 A 
ATOM     28  C   UNL A   1      38.985  23.567  26.010  1.00  0.00     0.016 A 
ATOM     29  C   UNL A   1      40.487  22.197  27.325  1.00  0.00     0.016 A 
ATOM     30  C   UNL A   1      39.565  24.725  26.499  1.00  0.00     0.010 A 
ATOM     31  C   UNL A   1      41.112  23.365  27.784  1.00  0.00     0.010 A 
ATOM     32  C   UNL A   1      40.656  24.630  27.363  1.00  0.00    -0.014 A 
BRANCH  32  33
ATOM     33  C   UNL A   1      41.417  25.858  27.670  1.00  0.00     0.031 A 
ATOM     34  C   UNL A   1      40.762  26.908  28.517  1.00  0.00     0.074 A 
ATOM     35  C   UNL A   1      42.695  25.992  27.283  1.00  0.00     0.049 A 
ATOM     36  N   UNL A   1      41.181  28.106  28.829  1.00  0.00    -0.248 NA
ATOM     37  C   UNL A   1      39.462  26.548  29.108  1.00  0.00     0.031 C 
ATOM     38  C   UNL A   1      43.477  24.980  26.575  1.00  0.00     0.029 A 
ATOM     39  N   UNL A   1      43.563  27.043  27.441  1.00  0.00    -0.354 N 
ATOM     40  C   UNL A   1      40.184  28.653  29.627  1.00  0.00     0.074 A 
ATOM     41  C   UNL A   1      39.144  27.657  29.758  1.00  0.00     0.031 C 
ATOM     42  C   UNL A   1      44.709  25.466  26.345  1.00  0.00     0.029 A 
ATOM     43  C   UNL A   1      44.780  26.839  26.842  1.00  0.00     0.049 A 
ATOM     44  H   UNL A   1      43.334  27.862  27.937  1.00  0.00     0.167 HD
ATOM     45  C   UNL A   1      40.142  29.883  30.190  1.00  0.00     0.037 A 
ATOM     46  C   UNL A   1      45.811  27.689  26.674  1.00  0.00     0.037 A 
ATOM     47  C   UNL A   1      41.184  30.865  30.052  1.00  0.00     0.049 A 
ATOM     48  C   UNL A   1      45.689  29.095  27.196  1.00  0.00     0.074 A 
ATOM     49  C   UNL A   1      41.233  32.153  30.550  1.00  0.00     0.029 A 
ATOM     50  N   UNL A   1      42.366  30.657  29.356  1.00  0.00    -0.354 N 
ATOM     51  N   UNL A   1      44.719  29.640  27.890  1.00  0.00    -0.248 NA
ATOM     52  C   UNL A   1      46.795  30.013  26.889  1.00  0.00     0.031 C 
ATOM     53  C   UNL A   1      42.429  32.740  30.122  1.00  0.00     0.029 A 
ATOM     54  C   UNL A   1      43.142  31.802  29.390  1.00  0.00     0.049 A 
ATOM     55  H   UNL A   1      42.617  29.818  28.906  1.00  0.00     0.167 HD
ATOM     56  C   UNL A   1      45.097  30.958  28.108  1.00  0.00     0.074 A 
ATOM     57  C   UNL A   1      46.397  31.127  27.489  1.00  0.00     0.031 C 
ATOM     58  C   UNL A   1      44.429  31.944  28.759  1.00  0.00     0.037 A 
BRANCH  45  59
ATOM     59  C   UNL A   1      38.897  30.243  30.940  1.00  0.00     0.057 A 
ATOM     60  C   UNL A   1      38.710  29.898  32.285  1.00  0.00     0.134 A 
ATOM     61  C   UNL A   1      37.856  30.924  30.296  1.00  0.00     0.134 A 
ATOM     62  F   UNL A   1      39.658  29.223  32.951  1.00  0.00    -0.206 F 
ATOM     63  C   UNL A   1      37.520  30.195  32.954  1.00  0.00     0.040 A 
ATOM     64  C   UNL A   1      36.672  31.245  30.960  1.00  0.00     0.040 A 
ATOM     65  F   UNL A   1      37.970  31.279  29.007  1.00  0.00    -0.206 F 
ATOM     66  C   UNL A   1      36.499  30.873  32.292  1.00  0.00     0.006 A 
ENDBRANCH  45  59
BRANCH  46  67
ATOM     67  C   UNL A   1      47.015  27.255  25.924  1.00  0.00     0.057 A 
ATOM     68  C   UNL A   1      48.092  26.640  26.572  1.00  0.00     0.134 A 
ATOM     69  C   UNL A   1      47.123  27.455  24.542  1.00  0.00     0.134 A 
ATOM     70  F   UNL A   1      48.061  26.447  27.898  1.00  0.00    -0.206 F 
ATOM     71  C   UNL A   1      49.234  26.242  25.872  1.00  0.00     0.040 A 
ATOM     72  C   UNL A   1      48.247  27.042  23.827  1.00  0.00     0.040 A 
ATOM     73  F   UNL A   1      46.130  28.051  23.864  1.00  0.00    -0.206 F 
ATOM     74  C   UNL A   1      49.310  26.437  24.495  1.00  0.00     0.006 A 
ENDBRANCH  46  67
BRANCH  58  75
ATOM     75  C   UNL A   1      45.100  33.282  28.839  1.00  0.00     0.057 A 
ATOM     76  C   UNL A   1      44.845  34.287  27.897  1.00  0.00     0.134 A 
ATOM     77  C   UNL A   1      45.973  33.582  29.891  1.00  0.00     0.134 A 
ATOM     78  F   UNL A   1      44.027  34.055  26.859  1.00  0.00    -0.206 F 
ATOM     79  C   UNL A   1      45.450  35.541  27.993  1.00  0.00     0.040 A 
ATOM     80  C   UNL A   1      46.566  34.839  30.008  1.00  0.00     0.040 A 
ATOM     81  F   UNL A   1      46.251  32.663  30.828  1.00  0.00    -0.206 F 
ATOM     82  C   UNL A   1      46.308  35.822  29.054  1.00  0.00     0.006 A 
ENDBRANCH  58  75
ENDBRANCH  32  33
ENDBRANCH  25  27
ENDBRANCH  24  25
ENDBRANCH  23  24
ENDBRANCH   1  23
TORSDOF 13
ENDMDL
MODEL 3
REMARK VINA RESULT:     -11.7      3.799      9.184
REMARK SMILES CC(=O)N1CCC(C(=O)Nc2sccc2C(=O)OCCOC(=O)c2ccc(-c3c4nc(c(-c5c(F)cccc5F)c5ccc([nH]5)c(-c5c(F)cccc5F)c5nc(c(-c6c(F)cccc6F)c6ccc3[nH]6)C=C5)C=C4)cc2)CC1
REMARK SMILES IDX 19 1 18 2 16 3 17 4 15 5 11 6 12 7 13 8 14 9 10 10 8 11 9 12
REMARK SMILES IDX 7 14 1 15 2 16 3 17 4 18 5 19 79 20 6 21 78 22 20 23 21 24
REMARK SMILES IDX 22 25 23 26 24 27 25 28 77 29 26 30 76 31 27 32 28 33 29 34
REMARK SMILES IDX 70 35 30 36 75 37 69 38 71 39 31 40 74 41 68 42 67 43 32 45
REMARK SMILES IDX 58 46 41 47 57 48 42 49 45 50 56 51 72 52 43 53 44 54 55 56
REMARK SMILES IDX 73 57 46 58 33 59 34 60 39 61 35 62 36 63 38 64 40 65 37 66
REMARK SMILES IDX 59 67 60 68 65 69 61 70 62 71 64 72 66 73 63 74 47 75 48 76
REMARK SMILES IDX 53 77 49 78 50 79 52 80 54 81 51 82
REMARK H PARENT 10 13 71 44 45 55
REMARK Flexibility Score: inf
ROOT
ATOM      1  C   UNL A   1      31.294  29.432  24.510  1.00  0.00     0.275 C 
ENDROOT
BRANCH   1   2
ATOM      2  O   UNL A   1      30.901  28.081  24.176  1.00  0.00    -0.458 OA
BRANCH   2   3
ATOM      3  C   UNL A   1      31.901  27.163  24.041  1.00  0.00     0.341 C 
ATOM      4  O   UNL A   1      32.956  27.380  23.450  1.00  0.00    -0.246 OA
BRANCH   3   5
ATOM      5  C   UNL A   1      31.618  25.885  24.675  1.00  0.00     0.094 A 
ATOM      6  C   UNL A   1      31.884  24.636  24.153  1.00  0.00     0.110 A 
ATOM      7  S   UNL A   1      31.028  23.396  24.958  1.00  0.00    -0.126 S 
ATOM      8  C   UNL A   1      30.652  24.437  26.257  1.00  0.00     0.068 A 
ATOM      9  C   UNL A   1      31.038  25.731  25.986  1.00  0.00     0.029 A 
BRANCH   6  10
ATOM     10  N   UNL A   1      32.655  24.154  23.129  1.00  0.00    -0.317 N 
ATOM     11  C   UNL A   1      33.889  23.577  23.160  1.00  0.00     0.228 C 
ATOM     12  O   UNL A   1      34.402  23.317  22.061  1.00  0.00    -0.274 OA
ATOM     13  H   UNL A   1      32.256  24.237  22.233  1.00  0.00     0.170 HD
BRANCH  11  14
ATOM     14  C   UNL A   1      34.659  23.174  24.429  1.00  0.00     0.082 C 
ATOM     15  C   UNL A   1      39.415  22.605  26.501  1.00  0.00     0.114 C 
ATOM     16  C   UNL A   1      38.422  21.740  25.762  1.00  0.00     0.219 C 
ATOM     17  O   UNL A   1      38.789  20.629  25.375  1.00  0.00    -0.275 OA
ATOM     18  N   UNL A   1      37.107  22.179  25.649  1.00  0.00    -0.343 N 
ATOM     19  C   UNL A   1      36.081  21.190  25.347  1.00  0.00     0.120 C 
ATOM     20  C   UNL A   1      36.611  23.505  25.994  1.00  0.00     0.120 C 
ATOM     21  C   UNL A   1      34.934  21.674  24.462  1.00  0.00     0.035 C 
ATOM     22  C   UNL A   1      35.831  24.078  24.818  1.00  0.00     0.035 C 
ENDBRANCH  11  14
ENDBRANCH   6  10
ENDBRANCH   3   5
ENDBRANCH   2   3
ENDBRANCH   1   2
BRANCH   1  23
ATOM     23  C   UNL A   1      31.777  29.615  25.952  1.00  0.00     0.275 C 
BRANCH  23  24
ATOM     24  O   UNL A   1      33.130  30.098  25.993  1.00  0.00    -0.458 OA
BRANCH  24  25
ATOM     25  C   UNL A   1      33.352  31.097  26.876  1.00  0.00     0.338 C 
ATOM     26  O   UNL A   1      32.550  31.929  27.266  1.00  0.00    -0.246 OA
BRANCH  25  27
ATOM     27  C   UNL A   1      34.675  30.921  27.494  1.00  0.00     0.060 A 
ATOM     28  C   UNL A   1      35.046  29.608  27.784  1.00  0.00     0.016 A 
ATOM     29  C   UNL A   1      35.502  31.984  27.849  1.00  0.00     0.016 A 
ATOM     30  C   UNL A   1      36.253  29.328  28.402  1.00  0.00     0.010 A 
ATOM     31  C   UNL A   1      36.702  31.712  28.519  1.00  0.00     0.010 A 
ATOM     32  C   UNL A   1      37.073  30.383  28.805  1.00  0.00    -0.014 A 
BRANCH  32  33
ATOM     33  C   UNL A   1      38.223  30.080  29.680  1.00  0.00     0.031 A 
ATOM     34  C   UNL A   1      39.323  29.217  29.138  1.00  0.00     0.074 A 
ATOM     35  C   UNL A   1      38.331  30.641  30.895  1.00  0.00     0.049 A 
ATOM     36  N   UNL A   1      40.372  28.728  29.745  1.00  0.00    -0.248 NA
ATOM     37  C   UNL A   1      39.235  28.873  27.709  1.00  0.00     0.031 C 
ATOM     38  C   UNL A   1      37.392  31.603  31.471  1.00  0.00     0.029 A 
ATOM     39  N   UNL A   1      39.290  30.480  31.863  1.00  0.00    -0.354 N 
ATOM     40  C   UNL A   1      41.052  27.995  28.781  1.00  0.00     0.074 A 
ATOM     41  C   UNL A   1      40.304  28.109  27.549  1.00  0.00     0.031 C 
ATOM     42  C   UNL A   1      37.815  31.937  32.702  1.00  0.00     0.029 A 
ATOM     43  C   UNL A   1      39.020  31.171  33.017  1.00  0.00     0.049 A 
ATOM     44  H   UNL A   1      40.093  29.924  31.740  1.00  0.00     0.167 HD
ATOM     45  C   UNL A   1      42.196  27.284  28.920  1.00  0.00     0.037 A 
ATOM     46  C   UNL A   1      39.652  31.144  34.206  1.00  0.00     0.037 A 
ATOM     47  C   UNL A   1      42.931  27.180  30.151  1.00  0.00     0.049 A 
ATOM     48  C   UNL A   1      40.847  30.245  34.376  1.00  0.00     0.074 A 
ATOM     49  C   UNL A   1      44.082  26.462  30.415  1.00  0.00     0.029 A 
ATOM     50  N   UNL A   1      42.575  27.820  31.330  1.00  0.00    -0.354 N 
ATOM     51  N   UNL A   1      41.453  29.495  33.486  1.00  0.00    -0.248 NA
ATOM     52  C   UNL A   1      41.431  30.169  35.722  1.00  0.00     0.031 C 
ATOM     53  C   UNL A   1      44.402  26.636  31.767  1.00  0.00     0.029 A 
ATOM     54  C   UNL A   1      43.471  27.493  32.333  1.00  0.00     0.049 A 
ATOM     55  H   UNL A   1      41.802  28.419  31.437  1.00  0.00     0.167 HD
ATOM     56  C   UNL A   1      42.490  28.864  34.160  1.00  0.00     0.074 A 
ATOM     57  C   UNL A   1      42.444  29.334  35.530  1.00  0.00     0.031 C 
ATOM     58  C   UNL A   1      43.397  27.972  33.690  1.00  0.00     0.037 A 
BRANCH  45  59
ATOM     59  C   UNL A   1      42.666  26.516  27.723  1.00  0.00     0.057 A 
ATOM     60  C   UNL A   1      42.273  25.193  27.484  1.00  0.00     0.134 A 
ATOM     61  C   UNL A   1      43.550  27.103  26.809  1.00  0.00     0.134 A 
ATOM     62  F   UNL A   1      41.448  24.565  28.335  1.00  0.00    -0.206 F 
ATOM     63  C   UNL A   1      42.763  24.474  26.392  1.00  0.00     0.040 A 
ATOM     64  C   UNL A   1      44.030  26.402  25.703  1.00  0.00     0.040 A 
ATOM     65  F   UNL A   1      43.970  28.366  26.983  1.00  0.00    -0.206 F 
ATOM     66  C   UNL A   1      43.642  25.079  25.497  1.00  0.00     0.006 A 
ENDBRANCH  45  59
BRANCH  46  67
ATOM     67  C   UNL A   1      39.129  31.940  35.343  1.00  0.00     0.057 A 
ATOM     68  C   UNL A   1      39.468  33.288  35.504  1.00  0.00     0.134 A 
ATOM     69  C   UNL A   1      38.283  31.369  36.303  1.00  0.00     0.134 A 
ATOM     70  F   UNL A   1      40.296  33.884  34.635  1.00  0.00    -0.206 F 
ATOM     71  C   UNL A   1      38.989  34.038  36.581  1.00  0.00     0.040 A 
ATOM     72  C   UNL A   1      37.778  32.112  37.370  1.00  0.00     0.040 A 
ATOM     73  F   UNL A   1      37.929  30.078  36.211  1.00  0.00    -0.206 F 
ATOM     74  C   UNL A   1      38.135  33.451  37.513  1.00  0.00     0.006 A 
ENDBRANCH  46  67
BRANCH  58  75
ATOM     75  C   UNL A   1      44.415  27.459  34.664  1.00  0.00     0.057 A 
ATOM     76  C   UNL A   1      44.218  26.265  35.369  1.00  0.00     0.134 A 
ATOM     77  C   UNL A   1      45.619  28.143  34.866  1.00  0.00     0.134 A 
ATOM     78  F   UNL A   1      43.078  25.571  35.227  1.00  0.00    -0.206 F 
ATOM     79  C   UNL A   1      45.182  25.776  36.253  1.00  0.00     0.040 A 
ATOM     80  C   UNL A   1      46.598  27.653  35.731  1.00  0.00     0.040 A 
ATOM     81  F   UNL A   1      45.869  29.289  34.215  1.00  0.00    -0.206 F 
ATOM     82  C   UNL A   1      46.378  26.468  36.431  1.00  0.00     0.006 A 
ENDBRANCH  58  75
ENDBRANCH  32  33
ENDBRANCH  25  27
ENDBRANCH  24  25
ENDBRANCH  23  24
ENDBRANCH   1  23
TORSDOF 13
ENDMDL
