MODEL 1
REMARK VINA RESULT:     -10.9      0.000      0.000
REMARK SMILES O=C(OCCOC(=O)[C@H]1CSC2(CCCCC2)[NH2+]1)c1ccc(-c2c3nc(c(-c4c(F)cccc4F)c4ccc([nH]4)c(-c4c(F)cccc4F)c4nc(c(-c5c(F)cccc5F)c5ccc2[nH]5)C=C4)C=C3)cc1
REMARK SMILES IDX 4 1 3 2 2 3 1 4 19 5 20 6 72 7 21 8 71 9 22 10 23 11 24 12
REMARK SMILES IDX 65 13 25 14 70 15 64 16 66 17 26 18 69 19 63 20 62 21 27 23
REMARK SMILES IDX 53 24 36 25 52 26 37 27 40 28 51 29 67 30 38 31 39 32 50 34
REMARK SMILES IDX 68 35 41 36 28 37 29 38 34 39 30 40 31 41 33 42 35 43 32 44
REMARK SMILES IDX 54 45 55 46 60 47 56 48 57 49 59 50 61 51 58 52 42 53 43 54
REMARK SMILES IDX 48 55 44 56 45 57 47 58 49 59 46 60 5 61 6 62 7 63 8 64 9 65
REMARK SMILES IDX 10 66 18 67 11 68 12 69 13 72 17 73 14 74 16 75 15 76
REMARK H PARENT 66 22 40 33 18 70 18 71
REMARK Flexibility Score: inf
ROOT
ATOM      1  C   UNL A   1      31.312  32.195  26.877  1.00  0.00     0.275 C 
ENDROOT
BRANCH   1   2
ATOM      2  O   UNL A   1      32.331  33.198  26.880  1.00  0.00    -0.458 OA
BRANCH   2   3
ATOM      3  C   UNL A   1      33.039  33.684  27.924  1.00  0.00     0.338 C 
ATOM      4  O   UNL A   1      32.592  34.672  28.508  1.00  0.00    -0.246 OA
BRANCH   3   5
ATOM      5  C   UNL A   1      34.376  33.156  28.369  1.00  0.00     0.060 A 
ATOM      6  C   UNL A   1      35.603  33.825  28.426  1.00  0.00     0.016 A 
ATOM      7  C   UNL A   1      34.356  31.841  28.848  1.00  0.00     0.016 A 
ATOM      8  C   UNL A   1      36.730  33.249  29.027  1.00  0.00     0.010 A 
ATOM      9  C   UNL A   1      35.446  31.292  29.523  1.00  0.00     0.010 A 
ATOM     10  C   UNL A   1      36.651  31.989  29.614  1.00  0.00    -0.014 A 
BRANCH  10  11
ATOM     11  C   UNL A   1      37.849  31.338  30.191  1.00  0.00     0.031 A 
ATOM     12  C   UNL A   1      38.207  31.653  31.618  1.00  0.00     0.074 A 
ATOM     13  C   UNL A   1      38.602  30.493  29.459  1.00  0.00     0.049 A 
ATOM     14  N   UNL A   1      39.217  31.236  32.333  1.00  0.00    -0.248 NA
ATOM     15  C   UNL A   1      37.333  32.610  32.322  1.00  0.00     0.031 C 
ATOM     16  C   UNL A   1      38.379  30.147  28.052  1.00  0.00     0.029 A 
ATOM     17  N   UNL A   1      39.706  29.756  29.806  1.00  0.00    -0.354 N 
ATOM     18  C   UNL A   1      39.101  31.897  33.549  1.00  0.00     0.074 A 
ATOM     19  C   UNL A   1      38.011  32.833  33.432  1.00  0.00     0.031 C 
ATOM     20  C   UNL A   1      39.290  29.233  27.672  1.00  0.00     0.029 A 
ATOM     21  C   UNL A   1      40.170  28.942  28.799  1.00  0.00     0.049 A 
ATOM     22  H   UNL A   1      40.128  29.805  30.694  1.00  0.00     0.167 HD
ATOM     23  C   UNL A   1      39.789  31.692  34.695  1.00  0.00     0.037 A 
ATOM     24  C   UNL A   1      41.178  28.045  28.808  1.00  0.00     0.037 A 
ATOM     25  C   UNL A   1      40.828  30.714  34.823  1.00  0.00     0.049 A 
ATOM     26  C   UNL A   1      41.942  27.838  30.092  1.00  0.00     0.074 A 
ATOM     27  C   UNL A   1      41.574  30.384  35.936  1.00  0.00     0.029 A 
ATOM     28  N   UNL A   1      41.256  29.898  33.786  1.00  0.00    -0.354 N 
ATOM     29  N   UNL A   1      41.772  28.414  31.259  1.00  0.00    -0.248 NA
ATOM     30  C   UNL A   1      43.026  26.845  30.066  1.00  0.00     0.031 C 
ATOM     31  C   UNL A   1      42.481  29.387  35.562  1.00  0.00     0.029 A 
ATOM     32  C   UNL A   1      42.266  29.067  34.229  1.00  0.00     0.049 A 
ATOM     33  H   UNL A   1      40.894  29.910  32.870  1.00  0.00     0.167 HD
ATOM     34  C   UNL A   1      42.697  27.827  32.114  1.00  0.00     0.074 A 
ATOM     35  C   UNL A   1      43.417  26.841  31.333  1.00  0.00     0.031 C 
ATOM     36  C   UNL A   1      42.936  28.077  33.425  1.00  0.00     0.037 A 
BRANCH  23  37
ATOM     37  C   UNL A   1      39.393  32.529  35.876  1.00  0.00     0.057 A 
ATOM     38  C   UNL A   1      38.388  32.117  36.766  1.00  0.00     0.134 A 
ATOM     39  C   UNL A   1      39.968  33.786  36.089  1.00  0.00     0.134 A 
ATOM     40  F   UNL A   1      37.778  30.933  36.601  1.00  0.00    -0.206 F 
ATOM     41  C   UNL A   1      37.929  32.950  37.787  1.00  0.00     0.040 A 
ATOM     42  C   UNL A   1      39.540  34.614  37.130  1.00  0.00     0.040 A 
ATOM     43  F   UNL A   1      40.932  34.242  35.277  1.00  0.00    -0.206 F 
ATOM     44  C   UNL A   1      38.509  34.202  37.972  1.00  0.00     0.006 A 
ENDBRANCH  23  37
BRANCH  24  45
ATOM     45  C   UNL A   1      41.494  27.235  27.600  1.00  0.00     0.057 A 
ATOM     46  C   UNL A   1      40.971  25.944  27.438  1.00  0.00     0.134 A 
ATOM     47  C   UNL A   1      42.357  27.703  26.602  1.00  0.00     0.134 A 
ATOM     48  F   UNL A   1      40.148  25.430  28.363  1.00  0.00    -0.206 F 
ATOM     49  C   UNL A   1      41.321  25.138  26.352  1.00  0.00     0.040 A 
ATOM     50  C   UNL A   1      42.697  26.916  25.497  1.00  0.00     0.040 A 
ATOM     51  F   UNL A   1      42.885  28.932  26.685  1.00  0.00    -0.206 F 
ATOM     52  C   UNL A   1      42.187  25.625  25.376  1.00  0.00     0.006 A 
ENDBRANCH  24  45
BRANCH  36  53
ATOM     53  C   UNL A   1      43.979  27.244  34.107  1.00  0.00     0.057 A 
ATOM     54  C   UNL A   1      43.671  26.013  34.698  1.00  0.00     0.134 A 
ATOM     55  C   UNL A   1      45.322  27.643  34.095  1.00  0.00     0.134 A 
ATOM     56  F   UNL A   1      42.401  25.582  34.749  1.00  0.00    -0.206 F 
ATOM     57  C   UNL A   1      44.662  25.213  35.266  1.00  0.00     0.040 A 
ATOM     58  C   UNL A   1      46.325  26.838  34.633  1.00  0.00     0.040 A 
ATOM     59  F   UNL A   1      45.682  28.806  33.532  1.00  0.00    -0.206 F 
ATOM     60  C   UNL A   1      45.994  25.620  35.224  1.00  0.00     0.006 A 
ENDBRANCH  36  53
ENDBRANCH  10  11
ENDBRANCH   3   5
ENDBRANCH   2   3
ENDBRANCH   1   2
BRANCH   1  61
ATOM     61  C   UNL A   1      31.776  30.848  26.315  1.00  0.00     0.274 C 
BRANCH  61  62
ATOM     62  O   UNL A   1      32.187  29.885  27.310  1.00  0.00    -0.458 OA
BRANCH  62  63
ATOM     63  C   UNL A   1      31.779  28.592  27.095  1.00  0.00     0.365 C 
ATOM     64  O   UNL A   1      31.362  27.862  27.989  1.00  0.00    -0.245 OA
BRANCH  63  65
ATOM     65  C   UNL A   1      32.046  28.143  25.639  1.00  0.00     0.304 C 
ATOM     66  C   UNL A   1      33.451  27.562  25.508  1.00  0.00     0.153 C 
ATOM     67  N   UNL A   1      31.027  27.187  25.140  1.00  0.00    -0.320 N 
ATOM     68  S   UNL A   1      33.211  25.786  25.658  1.00  0.00    -0.089 SA
ATOM     69  C   UNL A   1      31.596  25.860  24.828  1.00  0.00     0.143 C 
ATOM     70  H   UNL A   1      30.607  27.570  24.292  1.00  0.00     0.348 HD
ATOM     71  H   UNL A   1      30.333  27.061  25.877  1.00  0.00     0.348 HD
ATOM     72  C   UNL A   1      30.650  24.758  25.334  1.00  0.00     0.081 C 
ATOM     73  C   UNL A   1      31.776  25.676  23.300  1.00  0.00     0.081 C 
ATOM     74  C   UNL A   1      31.046  23.332  24.962  1.00  0.00     0.007 C 
ATOM     75  C   UNL A   1      32.207  24.254  22.911  1.00  0.00     0.007 C 
ATOM     76  C   UNL A   1      31.258  23.192  23.459  1.00  0.00     0.001 C 
ENDBRANCH  63  65
ENDBRANCH  62  63
ENDBRANCH  61  62
ENDBRANCH   1  61
TORSDOF 11
ENDMDL
MODEL 2
REMARK VINA RESULT:     -10.9      5.092      9.732
REMARK SMILES O=C(OCCOC(=O)[C@H]1CSC2(CCCCC2)[NH2+]1)c1ccc(-c2c3nc(c(-c4c(F)cccc4F)c4ccc([nH]4)c(-c4c(F)cccc4F)c4nc(c(-c5c(F)cccc5F)c5ccc2[nH]5)C=C4)C=C3)cc1
REMARK SMILES IDX 4 1 3 2 2 3 1 4 19 5 20 6 72 7 21 8 71 9 22 10 23 11 24 12
REMARK SMILES IDX 65 13 25 14 70 15 64 16 66 17 26 18 69 19 63 20 62 21 27 23
REMARK SMILES IDX 53 24 36 25 52 26 37 27 40 28 51 29 67 30 38 31 39 32 50 34
REMARK SMILES IDX 68 35 41 36 28 37 29 38 34 39 30 40 31 41 33 42 35 43 32 44
REMARK SMILES IDX 54 45 55 46 60 47 56 48 57 49 59 50 61 51 58 52 42 53 43 54
REMARK SMILES IDX 48 55 44 56 45 57 47 58 49 59 46 60 5 61 6 62 7 63 8 64 9 65
REMARK SMILES IDX 10 66 18 67 11 68 12 69 13 72 17 73 14 74 16 75 15 76
REMARK H PARENT 66 22 40 33 18 70 18 71
REMARK Flexibility Score: inf
ROOT
ATOM      1  C   UNL A   1      37.402  20.976  24.429  1.00  0.00     0.275 C 
ENDROOT
BRANCH   1   2
ATOM      2  O   UNL A   1      37.925  21.058  25.757  1.00  0.00    -0.458 OA
BRANCH   2   3
ATOM      3  C   UNL A   1      39.211  21.159  26.158  1.00  0.00     0.338 C 
ATOM      4  O   UNL A   1      39.916  20.153  26.077  1.00  0.00    -0.246 OA
BRANCH   3   5
ATOM      5  C   UNL A   1      39.820  22.390  26.774  1.00  0.00     0.060 A 
ATOM      6  C   UNL A   1      40.850  22.474  27.718  1.00  0.00     0.016 A 
ATOM      7  C   UNL A   1      39.324  23.601  26.278  1.00  0.00     0.016 A 
ATOM      8  C   UNL A   1      41.428  23.701  28.070  1.00  0.00     0.010 A 
ATOM      9  C   UNL A   1      39.947  24.817  26.558  1.00  0.00     0.010 A 
ATOM     10  C   UNL A   1      41.005  24.882  27.465  1.00  0.00    -0.014 A 
BRANCH  10  11
ATOM     11  C   UNL A   1      41.556  26.192  27.877  1.00  0.00     0.031 A 
ATOM     12  C   UNL A   1      42.949  26.544  27.429  1.00  0.00     0.074 A 
ATOM     13  C   UNL A   1      40.837  27.043  28.635  1.00  0.00     0.049 A 
ATOM     14  N   UNL A   1      43.659  27.611  27.683  1.00  0.00    -0.248 NA
ATOM     15  C   UNL A   1      43.660  25.533  26.626  1.00  0.00     0.031 C 
ATOM     16  C   UNL A   1      39.494  26.790  29.166  1.00  0.00     0.029 A 
ATOM     17  N   UNL A   1      41.132  28.306  29.081  1.00  0.00    -0.354 N 
ATOM     18  C   UNL A   1      44.892  27.380  27.090  1.00  0.00     0.074 A 
ATOM     19  C   UNL A   1      44.882  26.031  26.580  1.00  0.00     0.031 C 
ATOM     20  C   UNL A   1      39.067  27.882  29.826  1.00  0.00     0.029 A 
ATOM     21  C   UNL A   1      40.109  28.903  29.781  1.00  0.00     0.049 A 
ATOM     22  H   UNL A   1      41.997  28.747  28.914  1.00  0.00     0.167 HD
ATOM     23  C   UNL A   1      45.922  28.237  26.910  1.00  0.00     0.037 A 
ATOM     24  C   UNL A   1      40.026  30.144  30.299  1.00  0.00     0.037 A 
ATOM     25  C   UNL A   1      45.900  29.597  27.362  1.00  0.00     0.049 A 
ATOM     26  C   UNL A   1      41.189  31.084  30.100  1.00  0.00     0.074 A 
ATOM     27  C   UNL A   1      46.861  30.576  27.211  1.00  0.00     0.029 A 
ATOM     28  N   UNL A   1      44.839  30.167  28.051  1.00  0.00    -0.354 N 
ATOM     29  N   UNL A   1      42.321  30.879  29.467  1.00  0.00    -0.248 NA
ATOM     30  C   UNL A   1      41.058  32.433  30.669  1.00  0.00     0.031 C 
ATOM     31  C   UNL A   1      46.394  31.734  27.841  1.00  0.00     0.029 A 
ATOM     32  C   UNL A   1      45.124  31.486  28.343  1.00  0.00     0.049 A 
ATOM     33  H   UNL A   1      44.007  29.700  28.296  1.00  0.00     0.167 HD
ATOM     34  C   UNL A   1      43.017  32.080  29.528  1.00  0.00     0.074 A 
ATOM     35  C   UNL A   1      42.174  33.012  30.249  1.00  0.00     0.031 C 
ATOM     36  C   UNL A   1      44.242  32.390  29.037  1.00  0.00     0.037 A 
BRANCH  23  37
ATOM     37  C   UNL A   1      47.116  27.710  26.169  1.00  0.00     0.057 A 
ATOM     38  C   UNL A   1      47.163  27.696  24.766  1.00  0.00     0.134 A 
ATOM     39  C   UNL A   1      48.195  27.148  26.858  1.00  0.00     0.134 A 
ATOM     40  F   UNL A   1      46.147  28.195  24.046  1.00  0.00    -0.206 F 
ATOM     41  C   UNL A   1      48.214  27.088  24.077  1.00  0.00     0.040 A 
ATOM     42  C   UNL A   1      49.269  26.569  26.177  1.00  0.00     0.040 A 
ATOM     43  F   UNL A   1      48.214  27.128  28.198  1.00  0.00    -0.206 F 
ATOM     44  C   UNL A   1      49.272  26.525  24.784  1.00  0.00     0.006 A 
ENDBRANCH  23  37
BRANCH  24  45
ATOM     45  C   UNL A   1      38.795  30.602  31.001  1.00  0.00     0.057 A 
ATOM     46  C   UNL A   1      38.610  30.358  32.369  1.00  0.00     0.134 A 
ATOM     47  C   UNL A   1      37.756  31.249  30.322  1.00  0.00     0.134 A 
ATOM     48  F   UNL A   1      39.561  29.731  33.076  1.00  0.00    -0.206 F 
ATOM     49  C   UNL A   1      37.428  30.708  33.027  1.00  0.00     0.040 A 
ATOM     50  C   UNL A   1      36.576  31.626  30.973  1.00  0.00     0.040 A 
ATOM     51  F   UNL A   1      37.869  31.525  29.015  1.00  0.00    -0.206 F 
ATOM     52  C   UNL A   1      36.406  31.345  32.327  1.00  0.00     0.006 A 
ENDBRANCH  24  45
BRANCH  36  53
ATOM     53  C   UNL A   1      44.722  33.799  29.217  1.00  0.00     0.057 A 
ATOM     54  C   UNL A   1      44.411  34.808  28.298  1.00  0.00     0.134 A 
ATOM     55  C   UNL A   1      45.430  34.162  30.370  1.00  0.00     0.134 A 
ATOM     56  F   UNL A   1      43.744  34.519  27.171  1.00  0.00    -0.206 F 
ATOM     57  C   UNL A   1      44.802  36.129  28.513  1.00  0.00     0.040 A 
ATOM     58  C   UNL A   1      45.799  35.485  30.610  1.00  0.00     0.040 A 
ATOM     59  F   UNL A   1      45.746  33.243  31.294  1.00  0.00    -0.206 F 
ATOM     60  C   UNL A   1      45.488  36.472  29.677  1.00  0.00     0.006 A 
ENDBRANCH  36  53
ENDBRANCH  10  11
ENDBRANCH   3   5
ENDBRANCH   2   3
ENDBRANCH   1   2
BRANCH   1  61
ATOM     61  C   UNL A   1      36.633  22.227  23.992  1.00  0.00     0.274 C 
BRANCH  61  62
ATOM     62  O   UNL A   1      35.465  22.529  24.784  1.00  0.00    -0.458 OA
BRANCH  62  63
ATOM     63  C   UNL A   1      34.257  22.228  24.207  1.00  0.00     0.365 C 
ATOM     64  O   UNL A   1      33.845  22.773  23.187  1.00  0.00    -0.245 OA
BRANCH  63  65
ATOM     65  C   UNL A   1      33.439  21.241  25.074  1.00  0.00     0.304 C 
ATOM     66  C   UNL A   1      32.110  20.912  24.400  1.00  0.00     0.153 C 
ATOM     67  N   UNL A   1      34.192  20.004  25.396  1.00  0.00    -0.320 N 
ATOM     68  S   UNL A   1      32.424  19.368  23.533  1.00  0.00    -0.089 SA
ATOM     69  C   UNL A   1      33.571  18.794  24.819  1.00  0.00     0.143 C 
ATOM     70  H   UNL A   1      34.231  19.900  26.410  1.00  0.00     0.348 HD
ATOM     71  H   UNL A   1      35.125  20.095  24.992  1.00  0.00     0.348 HD
ATOM     72  C   UNL A   1      34.662  17.879  24.236  1.00  0.00     0.081 C 
ATOM     73  C   UNL A   1      32.801  17.995  25.900  1.00  0.00     0.081 C 
ATOM     74  C   UNL A   1      34.177  16.525  23.725  1.00  0.00     0.007 C 
ATOM     75  C   UNL A   1      32.277  16.643  25.392  1.00  0.00     0.007 C 
ATOM     76  C   UNL A   1      33.385  15.781  24.794  1.00  0.00     0.001 C 
ENDBRANCH  63  65
ENDBRANCH  62  63
ENDBRANCH  61  62
ENDBRANCH   1  61
TORSDOF 11
ENDMDL
MODEL 3
REMARK VINA RESULT:     -10.9      5.763     10.681
REMARK SMILES O=C(OCCOC(=O)[C@H]1CSC2(CCCCC2)[NH2+]1)c1ccc(-c2c3nc(c(-c4c(F)cccc4F)c4ccc([nH]4)c(-c4c(F)cccc4F)c4nc(c(-c5c(F)cccc5F)c5ccc2[nH]5)C=C4)C=C3)cc1
REMARK SMILES IDX 4 1 3 2 2 3 1 4 19 5 20 6 72 7 21 8 71 9 22 10 23 11 24 12
REMARK SMILES IDX 65 13 25 14 70 15 64 16 66 17 26 18 69 19 63 20 62 21 27 23
REMARK SMILES IDX 53 24 36 25 52 26 37 27 40 28 51 29 67 30 38 31 39 32 50 34
REMARK SMILES IDX 68 35 41 36 28 37 29 38 34 39 30 40 31 41 33 42 35 43 32 44
REMARK SMILES IDX 54 45 55 46 60 47 56 48 57 49 59 50 61 51 58 52 42 53 43 54
REMARK SMILES IDX 48 55 44 56 45 57 47 58 49 59 46 60 5 61 6 62 7 63 8 64 9 65
REMARK SMILES IDX 10 66 18 67 11 68 12 69 13 72 17 73 14 74 16 75 15 76
REMARK H PARENT 66 22 40 33 18 70 18 71
REMARK Flexibility Score: inf
ROOT
ATOM      1  C   UNL A   1      40.616  19.965  26.561  1.00  0.00     0.275 C 
ENDROOT
BRANCH   1   2
ATOM      2  O   UNL A   1      40.564  21.270  27.142  1.00  0.00    -0.458 OA
BRANCH   2   3
ATOM      3  C   UNL A   1      39.824  22.337  26.768  1.00  0.00     0.338 C 
ATOM      4  O   UNL A   1      38.823  22.126  26.081  1.00  0.00    -0.246 OA
BRANCH   3   5
ATOM      5  C   UNL A   1      40.181  23.770  27.059  1.00  0.00     0.060 A 
ATOM      6  C   UNL A   1      39.831  24.918  26.341  1.00  0.00     0.016 A 
ATOM      7  C   UNL A   1      40.902  23.965  28.242  1.00  0.00     0.016 A 
ATOM      8  C   UNL A   1      40.095  26.204  26.832  1.00  0.00     0.010 A 
ATOM      9  C   UNL A   1      41.094  25.238  28.780  1.00  0.00     0.010 A 
ATOM     10  C   UNL A   1      40.698  26.375  28.076  1.00  0.00    -0.014 A 
BRANCH  10  11
ATOM     11  C   UNL A   1      41.046  27.723  28.577  1.00  0.00     0.031 A 
ATOM     12  C   UNL A   1      42.492  28.138  28.544  1.00  0.00     0.074 A 
ATOM     13  C   UNL A   1      40.099  28.554  29.057  1.00  0.00     0.049 A 
ATOM     14  N   UNL A   1      43.048  29.248  28.950  1.00  0.00    -0.248 NA
ATOM     15  C   UNL A   1      43.452  27.146  28.025  1.00  0.00     0.031 C 
ATOM     16  C   UNL A   1      38.672  28.243  29.181  1.00  0.00     0.029 A 
ATOM     17  N   UNL A   1      40.195  29.842  29.518  1.00  0.00    -0.354 N 
ATOM     18  C   UNL A   1      44.411  29.067  28.754  1.00  0.00     0.074 A 
ATOM     19  C   UNL A   1      44.610  27.707  28.319  1.00  0.00     0.031 C 
ATOM     20  C   UNL A   1      38.023  29.327  29.642  1.00  0.00     0.029 A 
ATOM     21  C   UNL A   1      38.986  30.401  29.863  1.00  0.00     0.049 A 
ATOM     22  H   UNL A   1      41.050  30.324  29.594  1.00  0.00     0.167 HD
ATOM     23  C   UNL A   1      45.410  29.973  28.849  1.00  0.00     0.037 A 
ATOM     24  C   UNL A   1      38.700  31.649  30.283  1.00  0.00     0.037 A 
ATOM     25  C   UNL A   1      45.196  31.341  29.219  1.00  0.00     0.049 A 
ATOM     26  C   UNL A   1      39.828  32.645  30.395  1.00  0.00     0.074 A 
ATOM     27  C   UNL A   1      46.115  32.366  29.316  1.00  0.00     0.029 A 
ATOM     28  N   UNL A   1      43.956  31.871  29.544  1.00  0.00    -0.354 N 
ATOM     29  N   UNL A   1      41.104  32.484  30.130  1.00  0.00    -0.248 NA
ATOM     30  C   UNL A   1      39.476  33.999  30.846  1.00  0.00     0.031 C 
ATOM     31  C   UNL A   1      45.433  33.513  29.735  1.00  0.00     0.029 A 
ATOM     32  C   UNL A   1      44.084  33.211  29.852  1.00  0.00     0.049 A 
ATOM     33  H   UNL A   1      43.110  31.368  29.553  1.00  0.00     0.167 HD
ATOM     34  C   UNL A   1      41.698  33.722  30.343  1.00  0.00     0.074 A 
ATOM     35  C   UNL A   1      40.640  34.626  30.748  1.00  0.00     0.031 C 
ATOM     36  C   UNL A   1      42.999  34.084  30.221  1.00  0.00     0.037 A 
BRANCH  23  37
ATOM     37  C   UNL A   1      46.790  29.492  28.512  1.00  0.00     0.057 A 
ATOM     38  C   UNL A   1      47.267  29.490  27.192  1.00  0.00     0.134 A 
ATOM     39  C   UNL A   1      47.625  28.960  29.500  1.00  0.00     0.134 A 
ATOM     40  F   UNL A   1      46.505  29.961  26.193  1.00  0.00    -0.206 F 
ATOM     41  C   UNL A   1      48.499  28.924  26.860  1.00  0.00     0.040 A 
ATOM     42  C   UNL A   1      48.875  28.423  29.184  1.00  0.00     0.040 A 
ATOM     43  F   UNL A   1      47.232  28.930  30.782  1.00  0.00    -0.206 F 
ATOM     44  C   UNL A   1      49.307  28.390  27.859  1.00  0.00     0.006 A 
ENDBRANCH  23  37
BRANCH  24  45
ATOM     45  C   UNL A   1      37.298  32.058  30.575  1.00  0.00     0.057 A 
ATOM     46  C   UNL A   1      36.744  31.879  31.850  1.00  0.00     0.134 A 
ATOM     47  C   UNL A   1      36.464  32.593  29.586  1.00  0.00     0.134 A 
ATOM     48  F   UNL A   1      37.484  31.361  32.840  1.00  0.00    -0.206 F 
ATOM     49  C   UNL A   1      35.407  32.182  32.121  1.00  0.00     0.040 A 
ATOM     50  C   UNL A   1      35.131  32.921  29.849  1.00  0.00     0.040 A 
ATOM     51  F   UNL A   1      36.931  32.802  28.346  1.00  0.00    -0.206 F 
ATOM     52  C   UNL A   1      34.595  32.705  31.117  1.00  0.00     0.006 A 
ENDBRANCH  24  45
BRANCH  36  53
ATOM     53  C   UNL A   1      43.342  35.521  30.476  1.00  0.00     0.057 A 
ATOM     54  C   UNL A   1      43.738  35.972  31.741  1.00  0.00     0.134 A 
ATOM     55  C   UNL A   1      43.357  36.442  29.421  1.00  0.00     0.134 A 
ATOM     56  F   UNL A   1      43.734  35.139  32.792  1.00  0.00    -0.206 F 
ATOM     57  C   UNL A   1      44.124  37.295  31.950  1.00  0.00     0.040 A 
ATOM     58  C   UNL A   1      43.770  37.760  29.612  1.00  0.00     0.040 A 
ATOM     59  F   UNL A   1      43.001  36.067  28.183  1.00  0.00    -0.206 F 
ATOM     60  C   UNL A   1      44.152  38.190  30.882  1.00  0.00     0.006 A 
ENDBRANCH  36  53
ENDBRANCH  10  11
ENDBRANCH   3   5
ENDBRANCH   2   3
ENDBRANCH   1   2
BRANCH   1  61
ATOM     61  C   UNL A   1      42.031  19.383  26.478  1.00  0.00     0.274 C 
BRANCH  61  62
ATOM     62  O   UNL A   1      42.829  19.883  25.383  1.00  0.00    -0.458 OA
BRANCH  62  63
ATOM     63  C   UNL A   1      44.075  19.323  25.248  1.00  0.00     0.365 C 
ATOM     64  O   UNL A   1      44.258  18.119  25.095  1.00  0.00    -0.245 OA
BRANCH  63  65
ATOM     65  C   UNL A   1      45.196  20.368  25.458  1.00  0.00     0.304 C 
ATOM     66  C   UNL A   1      45.812  20.768  24.120  1.00  0.00     0.153 C 
ATOM     67  N   UNL A   1      44.732  21.562  26.206  1.00  0.00    -0.320 N 
ATOM     68  S   UNL A   1      44.949  22.278  23.668  1.00  0.00    -0.089 SA
ATOM     69  C   UNL A   1      44.801  22.800  25.402  1.00  0.00     0.143 C 
ATOM     70  H   UNL A   1      45.317  21.678  27.034  1.00  0.00     0.348 HD
ATOM     71  H   UNL A   1      43.754  21.411  26.457  1.00  0.00     0.348 HD
ATOM     72  C   UNL A   1      43.533  23.640  25.633  1.00  0.00     0.081 C 
ATOM     73  C   UNL A   1      46.026  23.658  25.805  1.00  0.00     0.081 C 
ATOM     74  C   UNL A   1      43.527  25.013  24.968  1.00  0.00     0.007 C 
ATOM     75  C   UNL A   1      46.053  25.031  25.117  1.00  0.00     0.007 C 
ATOM     76  C   UNL A   1      44.765  25.818  25.347  1.00  0.00     0.001 C 
ENDBRANCH  63  65
ENDBRANCH  62  63
ENDBRANCH  61  62
ENDBRANCH   1  61
TORSDOF 11
ENDMDL
