MODEL 1
REMARK VINA RESULT:     -13.0      0.000      0.000
REMARK SMILES Cc1cc(C(=O)OCCOC(=O)c2ccc(-c3c4nc(c(-c5c(F)cccc5F)c5ccc([nH]5)c(-c5c(F)cccc5F)c5nc(c(-c6c(F)cccc6F)c6ccc3[nH]6)C=C5)C=C4)cc2)ccc1NC(=O)c1ccc(=O)n(CCOc2ccccc2)n1
REMARK SMILES IDX 5 1 6 2 4 3 1 4 2 5 3 6 69 7 68 8 67 9 70 10 71 11 72 13
REMARK SMILES IDX 73 14 74 15 88 16 75 17 78 18 76 19 77 20 79 21 80 22 81 23
REMARK SMILES IDX 82 24 83 25 87 26 84 27 86 28 85 29 7 30 8 31 9 32 10 33
REMARK SMILES IDX 11 34 12 35 13 36 14 37 66 38 15 39 65 40 16 41 17 42 18 43
REMARK SMILES IDX 59 44 19 45 64 46 58 47 60 48 20 49 63 50 57 51 56 52 21 54
REMARK SMILES IDX 47 55 30 56 46 57 31 58 34 59 45 60 61 61 32 62 33 63 44 65
REMARK SMILES IDX 62 66 35 67 22 68 23 69 28 70 24 71 25 72 27 73 29 74 26 75
REMARK SMILES IDX 48 76 49 77 54 78 50 79 51 80 53 81 55 82 52 83 36 84 37 85
REMARK SMILES IDX 42 86 38 87 39 88 41 89 43 90 40 91
REMARK H PARENT 70 12 60 53 34 64
REMARK Flexibility Score: inf
ROOT
ATOM      1  C   UNL A   1      32.323  28.127  26.854  1.00  0.00     0.338 C 
ATOM      2  O   UNL A   1      31.215  27.645  27.072  1.00  0.00    -0.246 OA
ENDROOT
BRANCH   1   3
ATOM      3  C   UNL A   1      33.149  27.513  25.806  1.00  0.00     0.060 A 
ATOM      4  C   UNL A   1      34.146  28.103  22.154  1.00  0.00     0.046 C 
ATOM      5  C   UNL A   1      33.659  27.394  23.387  1.00  0.00    -0.027 A 
ATOM      6  C   UNL A   1      33.598  28.126  24.620  1.00  0.00     0.021 A 
ATOM      7  C   UNL A   1      33.080  26.119  23.344  1.00  0.00     0.044 A 
ATOM      8  C   UNL A   1      32.548  25.683  24.535  1.00  0.00     0.027 A 
ATOM      9  C   UNL A   1      32.791  26.197  25.780  1.00  0.00     0.018 A 
BRANCH   7  10
ATOM     10  N   UNL A   1      32.960  25.289  22.195  1.00  0.00    -0.320 N 
ATOM     11  C   UNL A   1      33.466  23.996  21.950  1.00  0.00     0.276 C 
ATOM     12  H   UNL A   1      32.442  25.679  21.454  1.00  0.00     0.170 HD
ATOM     13  O   UNL A   1      33.386  23.473  20.843  1.00  0.00    -0.267 OA
BRANCH  11  14
ATOM     14  C   UNL A   1      34.199  23.229  23.061  1.00  0.00     0.149 A 
ATOM     15  C   UNL A   1      35.555  23.728  23.390  1.00  0.00     0.042 A 
ATOM     16  N   UNL A   1      33.543  22.344  23.763  1.00  0.00    -0.164 NA
ATOM     17  C   UNL A   1      35.902  23.617  24.675  1.00  0.00     0.076 A 
ATOM     18  N   UNL A   1      34.028  22.116  25.070  1.00  0.00    -0.226 N 
ATOM     19  C   UNL A   1      34.972  22.980  25.637  1.00  0.00     0.266 A 
ATOM     20  O   UNL A   1      35.049  23.284  26.825  1.00  0.00    -0.268 OA
BRANCH  18  21
ATOM     21  C   UNL A   1      33.171  21.308  25.954  1.00  0.00     0.190 C 
BRANCH  21  22
ATOM     22  C   UNL A   1      32.188  20.402  25.195  1.00  0.00     0.253 C 
BRANCH  22  23
ATOM     23  O   UNL A   1      32.077  19.068  25.744  1.00  0.00    -0.492 OA
BRANCH  23  24
ATOM     24  C   UNL A   1      32.671  18.133  24.945  1.00  0.00     0.119 A 
ATOM     25  C   UNL A   1      32.832  18.329  23.581  1.00  0.00     0.046 A 
ATOM     26  C   UNL A   1      33.062  16.929  25.511  1.00  0.00     0.046 A 
ATOM     27  C   UNL A   1      33.531  17.378  22.828  1.00  0.00     0.004 A 
ATOM     28  C   UNL A   1      33.847  16.028  24.796  1.00  0.00     0.004 A 
ATOM     29  C   UNL A   1      34.094  16.261  23.450  1.00  0.00     0.000 A 
ENDBRANCH  23  24
ENDBRANCH  22  23
ENDBRANCH  21  22
ENDBRANCH  18  21
ENDBRANCH  11  14
ENDBRANCH   7  10
ENDBRANCH   1   3
BRANCH   1  30
ATOM     30  O   UNL A   1      32.999  28.958  27.675  1.00  0.00    -0.458 OA
BRANCH  30  31
ATOM     31  C   UNL A   1      32.890  30.330  27.264  1.00  0.00     0.275 C 
BRANCH  31  32
ATOM     32  C   UNL A   1      34.156  31.129  27.579  1.00  0.00     0.275 C 
BRANCH  32  33
ATOM     33  O   UNL A   1      35.342  30.404  28.022  1.00  0.00    -0.458 OA
BRANCH  33  34
ATOM     34  C   UNL A   1      36.591  30.895  28.208  1.00  0.00     0.338 C 
ATOM     35  O   UNL A   1      36.829  32.102  28.219  1.00  0.00    -0.246 OA
BRANCH  34  36
ATOM     36  C   UNL A   1      37.676  29.930  28.420  1.00  0.00     0.060 A 
ATOM     37  C   UNL A   1      37.631  29.101  29.555  1.00  0.00     0.016 A 
ATOM     38  C   UNL A   1      38.650  29.770  27.441  1.00  0.00     0.016 A 
ATOM     39  C   UNL A   1      38.509  28.037  29.672  1.00  0.00     0.010 A 
ATOM     40  C   UNL A   1      39.422  28.642  27.470  1.00  0.00     0.010 A 
ATOM     41  C   UNL A   1      39.390  27.827  28.615  1.00  0.00    -0.014 A 
BRANCH  41  42
ATOM     42  C   UNL A   1      40.626  27.100  28.792  1.00  0.00     0.031 A 
ATOM     43  C   UNL A   1      40.711  25.668  28.497  1.00  0.00     0.074 A 
ATOM     44  C   UNL A   1      41.616  27.990  29.033  1.00  0.00     0.049 A 
ATOM     45  N   UNL A   1      41.682  24.925  28.882  1.00  0.00    -0.248 NA
ATOM     46  C   UNL A   1      39.684  24.916  27.778  1.00  0.00     0.031 C 
ATOM     47  C   UNL A   1      43.058  27.913  28.960  1.00  0.00     0.029 A 
ATOM     48  N   UNL A   1      41.385  29.273  29.571  1.00  0.00    -0.354 N 
ATOM     49  C   UNL A   1      41.609  23.739  28.177  1.00  0.00     0.074 A 
ATOM     50  C   UNL A   1      40.275  23.721  27.633  1.00  0.00     0.031 C 
ATOM     51  C   UNL A   1      43.569  28.905  29.723  1.00  0.00     0.029 A 
ATOM     52  C   UNL A   1      42.454  29.560  30.408  1.00  0.00     0.049 A 
ATOM     53  H   UNL A   1      40.612  29.854  29.388  1.00  0.00     0.167 HD
ATOM     54  C   UNL A   1      42.771  23.037  28.012  1.00  0.00     0.037 A 
ATOM     55  C   UNL A   1      42.198  29.519  31.749  1.00  0.00     0.037 A 
ATOM     56  C   UNL A   1      43.832  23.720  28.761  1.00  0.00     0.049 A 
ATOM     57  C   UNL A   1      42.901  28.321  32.343  1.00  0.00     0.074 A 
ATOM     58  C   UNL A   1      44.748  24.683  28.372  1.00  0.00     0.029 A 
ATOM     59  N   UNL A   1      43.745  23.789  30.148  1.00  0.00    -0.354 N 
ATOM     60  N   UNL A   1      43.036  27.163  31.747  1.00  0.00    -0.248 NA
ATOM     61  C   UNL A   1      43.646  28.421  33.590  1.00  0.00     0.031 C 
ATOM     62  C   UNL A   1      45.114  25.419  29.534  1.00  0.00     0.029 A 
ATOM     63  C   UNL A   1      44.424  24.901  30.620  1.00  0.00     0.049 A 
ATOM     64  H   UNL A   1      43.268  23.141  30.714  1.00  0.00     0.167 HD
ATOM     65  C   UNL A   1      43.948  26.416  32.446  1.00  0.00     0.074 A 
ATOM     66  C   UNL A   1      44.279  27.238  33.600  1.00  0.00     0.031 C 
ATOM     67  C   UNL A   1      44.442  25.207  32.042  1.00  0.00     0.037 A 
BRANCH  54  68
ATOM     68  C   UNL A   1      43.064  21.959  26.983  1.00  0.00     0.057 A 
ATOM     69  C   UNL A   1      42.382  20.721  27.047  1.00  0.00     0.134 A 
ATOM     70  C   UNL A   1      44.013  22.029  25.947  1.00  0.00     0.134 A 
ATOM     71  F   UNL A   1      41.402  20.503  27.936  1.00  0.00    -0.206 F 
ATOM     72  C   UNL A   1      42.664  19.635  26.206  1.00  0.00     0.040 A 
ATOM     73  C   UNL A   1      44.315  20.942  25.105  1.00  0.00     0.040 A 
ATOM     74  F   UNL A   1      44.678  23.151  25.665  1.00  0.00    -0.206 F 
ATOM     75  C   UNL A   1      43.647  19.735  25.237  1.00  0.00     0.006 A 
ENDBRANCH  54  68
BRANCH  55  76
ATOM     76  C   UNL A   1      40.851  30.062  32.156  1.00  0.00     0.057 A 
ATOM     77  C   UNL A   1      39.961  29.216  32.859  1.00  0.00     0.134 A 
ATOM     78  C   UNL A   1      40.485  31.411  32.101  1.00  0.00     0.134 A 
ATOM     79  F   UNL A   1      40.213  27.899  32.949  1.00  0.00    -0.206 F 
ATOM     80  C   UNL A   1      38.841  29.692  33.554  1.00  0.00     0.040 A 
ATOM     81  C   UNL A   1      39.344  31.899  32.772  1.00  0.00     0.040 A 
ATOM     82  F   UNL A   1      41.252  32.305  31.464  1.00  0.00    -0.206 F 
ATOM     83  C   UNL A   1      38.538  31.046  33.524  1.00  0.00     0.006 A 
ENDBRANCH  55  76
BRANCH  67  84
ATOM     84  C   UNL A   1      45.090  24.220  32.979  1.00  0.00     0.057 A 
ATOM     85  C   UNL A   1      46.374  24.400  33.516  1.00  0.00     0.134 A 
ATOM     86  C   UNL A   1      44.359  23.139  33.519  1.00  0.00     0.134 A 
ATOM     87  F   UNL A   1      47.125  25.466  33.207  1.00  0.00    -0.206 F 
ATOM     88  C   UNL A   1      46.926  23.520  34.448  1.00  0.00     0.040 A 
ATOM     89  C   UNL A   1      44.872  22.303  34.511  1.00  0.00     0.040 A 
ATOM     90  F   UNL A   1      43.103  22.867  33.137  1.00  0.00    -0.206 F 
ATOM     91  C   UNL A   1      46.170  22.476  34.960  1.00  0.00     0.006 A 
ENDBRANCH  67  84
ENDBRANCH  41  42
ENDBRANCH  34  36
ENDBRANCH  33  34
ENDBRANCH  32  33
ENDBRANCH  31  32
ENDBRANCH  30  31
ENDBRANCH   1  30
TORSDOF 17
ENDMDL
MODEL 2
REMARK VINA RESULT:     -12.8      3.992      9.838
REMARK SMILES Cc1cc(C(=O)OCCOC(=O)c2ccc(-c3c4nc(c(-c5c(F)cccc5F)c5ccc([nH]5)c(-c5c(F)cccc5F)c5nc(c(-c6c(F)cccc6F)c6ccc3[nH]6)C=C5)C=C4)cc2)ccc1NC(=O)c1ccc(=O)n(CCOc2ccccc2)n1
REMARK SMILES IDX 5 1 6 2 4 3 1 4 2 5 3 6 69 7 68 8 67 9 70 10 71 11 72 13
REMARK SMILES IDX 73 14 74 15 88 16 75 17 78 18 76 19 77 20 79 21 80 22 81 23
REMARK SMILES IDX 82 24 83 25 87 26 84 27 86 28 85 29 7 30 8 31 9 32 10 33
REMARK SMILES IDX 11 34 12 35 13 36 14 37 66 38 15 39 65 40 16 41 17 42 18 43
REMARK SMILES IDX 59 44 19 45 64 46 58 47 60 48 20 49 63 50 57 51 56 52 21 54
REMARK SMILES IDX 47 55 30 56 46 57 31 58 34 59 45 60 61 61 32 62 33 63 44 65
REMARK SMILES IDX 62 66 35 67 22 68 23 69 28 70 24 71 25 72 27 73 29 74 26 75
REMARK SMILES IDX 48 76 49 77 54 78 50 79 51 80 53 81 55 82 52 83 36 84 37 85
REMARK SMILES IDX 42 86 38 87 39 88 41 89 43 90 40 91
REMARK H PARENT 70 12 60 53 34 64
REMARK Flexibility Score: inf
ROOT
ATOM      1  C   UNL A   1      36.162  21.698  24.319  1.00  0.00     0.338 C 
ATOM      2  O   UNL A   1      36.572  22.429  23.422  1.00  0.00    -0.246 OA
ENDROOT
BRANCH   1   3
ATOM      3  C   UNL A   1      34.733  21.360  24.338  1.00  0.00     0.060 A 
ATOM      4  C   UNL A   1      31.371  22.842  23.252  1.00  0.00     0.046 C 
ATOM      5  C   UNL A   1      32.414  22.198  24.122  1.00  0.00    -0.027 A 
ATOM      6  C   UNL A   1      33.716  21.960  23.568  1.00  0.00     0.021 A 
ATOM      7  C   UNL A   1      32.233  22.003  25.497  1.00  0.00     0.044 A 
ATOM      8  C   UNL A   1      33.342  21.546  26.169  1.00  0.00     0.027 A 
ATOM      9  C   UNL A   1      34.461  20.982  25.619  1.00  0.00     0.018 A 
BRANCH   7  10
ATOM     10  N   UNL A   1      31.048  22.277  26.236  1.00  0.00    -0.320 N 
ATOM     11  C   UNL A   1      30.493  23.508  26.642  1.00  0.00     0.276 C 
ATOM     12  H   UNL A   1      30.536  21.481  26.507  1.00  0.00     0.170 HD
ATOM     13  O   UNL A   1      29.528  23.560  27.398  1.00  0.00    -0.267 OA
BRANCH  11  14
ATOM     14  C   UNL A   1      31.133  24.830  26.193  1.00  0.00     0.149 A 
ATOM     15  C   UNL A   1      32.538  25.034  26.620  1.00  0.00     0.042 A 
ATOM     16  N   UNL A   1      30.503  25.582  25.331  1.00  0.00    -0.164 NA
ATOM     17  C   UNL A   1      33.300  25.707  25.756  1.00  0.00     0.076 A 
ATOM     18  N   UNL A   1      31.318  26.416  24.533  1.00  0.00    -0.226 N 
ATOM     19  C   UNL A   1      32.706  26.233  24.503  1.00  0.00     0.266 A 
ATOM     20  O   UNL A   1      33.436  26.414  23.532  1.00  0.00    -0.268 OA
BRANCH  18  21
ATOM     21  C   UNL A   1      30.658  27.089  23.402  1.00  0.00     0.190 C 
BRANCH  21  22
ATOM     22  C   UNL A   1      30.066  28.460  23.765  1.00  0.00     0.253 C 
BRANCH  22  23
ATOM     23  O   UNL A   1      28.761  28.705  23.192  1.00  0.00    -0.492 OA
BRANCH  23  24
ATOM     24  C   UNL A   1      28.650  29.971  22.689  1.00  0.00     0.119 A 
ATOM     25  C   UNL A   1      28.341  30.206  21.357  1.00  0.00     0.046 A 
ATOM     26  C   UNL A   1      28.920  31.043  23.525  1.00  0.00     0.046 A 
ATOM     27  C   UNL A   1      28.148  31.521  20.919  1.00  0.00     0.004 A 
ATOM     28  C   UNL A   1      28.630  32.346  23.128  1.00  0.00     0.004 A 
ATOM     29  C   UNL A   1      28.229  32.584  21.821  1.00  0.00     0.000 A 
ENDBRANCH  23  24
ENDBRANCH  22  23
ENDBRANCH  21  22
ENDBRANCH  18  21
ENDBRANCH  11  14
ENDBRANCH   7  10
ENDBRANCH   1   3
BRANCH   1  30
ATOM     30  O   UNL A   1      36.811  21.421  25.471  1.00  0.00    -0.458 OA
BRANCH  30  31
ATOM     31  C   UNL A   1      38.006  22.206  25.619  1.00  0.00     0.275 C 
BRANCH  31  32
ATOM     32  C   UNL A   1      37.719  23.587  26.211  1.00  0.00     0.275 C 
BRANCH  32  33
ATOM     33  O   UNL A   1      38.593  24.084  27.268  1.00  0.00    -0.458 OA
BRANCH  33  34
ATOM     34  C   UNL A   1      39.735  24.798  27.130  1.00  0.00     0.338 C 
ATOM     35  O   UNL A   1      40.691  24.391  26.472  1.00  0.00    -0.246 OA
BRANCH  34  36
ATOM     36  C   UNL A   1      39.799  26.111  27.783  1.00  0.00     0.060 A 
ATOM     37  C   UNL A   1      39.381  26.221  29.122  1.00  0.00     0.016 A 
ATOM     38  C   UNL A   1      40.382  27.181  27.113  1.00  0.00     0.016 A 
ATOM     39  C   UNL A   1      39.632  27.382  29.834  1.00  0.00     0.010 A 
ATOM     40  C   UNL A   1      40.767  28.273  27.842  1.00  0.00     0.010 A 
ATOM     41  C   UNL A   1      40.329  28.389  29.173  1.00  0.00    -0.014 A 
BRANCH  41  42
ATOM     42  C   UNL A   1      40.246  29.769  29.592  1.00  0.00     0.031 A 
ATOM     43  C   UNL A   1      39.097  30.601  29.233  1.00  0.00     0.074 A 
ATOM     44  C   UNL A   1      41.238  30.008  30.481  1.00  0.00     0.049 A 
ATOM     45  N   UNL A   1      39.089  31.878  29.340  1.00  0.00    -0.248 NA
ATOM     46  C   UNL A   1      37.851  30.082  28.669  1.00  0.00     0.031 C 
ATOM     47  C   UNL A   1      41.462  31.045  31.463  1.00  0.00     0.029 A 
ATOM     48  N   UNL A   1      42.427  29.250  30.532  1.00  0.00    -0.354 N 
ATOM     49  C   UNL A   1      37.780  32.303  29.228  1.00  0.00     0.074 A 
ATOM     50  C   UNL A   1      37.081  31.179  28.657  1.00  0.00     0.031 C 
ATOM     51  C   UNL A   1      42.782  31.069  31.753  1.00  0.00     0.029 A 
ATOM     52  C   UNL A   1      43.452  30.127  30.857  1.00  0.00     0.049 A 
ATOM     53  H   UNL A   1      42.512  28.283  30.367  1.00  0.00     0.167 HD
ATOM     54  C   UNL A   1      37.455  33.494  29.817  1.00  0.00     0.037 A 
ATOM     55  C   UNL A   1      44.313  30.449  29.847  1.00  0.00     0.037 A 
ATOM     56  C   UNL A   1      38.682  34.091  30.356  1.00  0.00     0.049 A 
ATOM     57  C   UNL A   1      44.088  31.890  29.456  1.00  0.00     0.074 A 
ATOM     58  C   UNL A   1      39.262  34.007  31.612  1.00  0.00     0.029 A 
ATOM     59  N   UNL A   1      39.688  34.481  29.478  1.00  0.00    -0.354 N 
ATOM     60  N   UNL A   1      42.921  32.483  29.429  1.00  0.00    -0.248 NA
ATOM     61  C   UNL A   1      45.204  32.799  29.236  1.00  0.00     0.031 C 
ATOM     62  C   UNL A   1      40.659  34.228  31.453  1.00  0.00     0.029 A 
ATOM     63  C   UNL A   1      40.921  34.446  30.108  1.00  0.00     0.049 A 
ATOM     64  H   UNL A   1      39.545  34.744  28.540  1.00  0.00     0.167 HD
ATOM     65  C   UNL A   1      43.119  33.833  29.303  1.00  0.00     0.074 A 
ATOM     66  C   UNL A   1      44.560  33.975  29.162  1.00  0.00     0.031 C 
ATOM     67  C   UNL A   1      42.134  34.779  29.378  1.00  0.00     0.037 A 
BRANCH  54  68
ATOM     68  C   UNL A   1      36.071  33.994  30.194  1.00  0.00     0.057 A 
ATOM     69  C   UNL A   1      35.152  34.351  29.180  1.00  0.00     0.134 A 
ATOM     70  C   UNL A   1      35.584  34.199  31.497  1.00  0.00     0.134 A 
ATOM     71  F   UNL A   1      35.429  34.165  27.882  1.00  0.00    -0.206 F 
ATOM     72  C   UNL A   1      33.895  34.920  29.437  1.00  0.00     0.040 A 
ATOM     73  C   UNL A   1      34.331  34.782  31.768  1.00  0.00     0.040 A 
ATOM     74  F   UNL A   1      36.267  33.823  32.581  1.00  0.00    -0.206 F 
ATOM     75  C   UNL A   1      33.484  35.153  30.737  1.00  0.00     0.006 A 
ENDBRANCH  54  68
BRANCH  55  76
ATOM     76  C   UNL A   1      44.660  29.311  28.920  1.00  0.00     0.057 A 
ATOM     77  C   UNL A   1      45.389  28.213  29.435  1.00  0.00     0.134 A 
ATOM     78  C   UNL A   1      44.125  29.133  27.640  1.00  0.00     0.134 A 
ATOM     79  F   UNL A   1      45.962  28.294  30.648  1.00  0.00    -0.206 F 
ATOM     80  C   UNL A   1      45.488  26.982  28.773  1.00  0.00     0.040 A 
ATOM     81  C   UNL A   1      44.242  27.909  26.949  1.00  0.00     0.040 A 
ATOM     82  F   UNL A   1      43.413  30.104  27.052  1.00  0.00    -0.206 F 
ATOM     83  C   UNL A   1      44.898  26.822  27.527  1.00  0.00     0.006 A 
ENDBRANCH  55  76
BRANCH  67  84
ATOM     84  C   UNL A   1      42.280  36.175  28.828  1.00  0.00     0.057 A 
ATOM     85  C   UNL A   1      42.963  37.197  29.503  1.00  0.00     0.134 A 
ATOM     86  C   UNL A   1      41.891  36.482  27.506  1.00  0.00     0.134 A 
ATOM     87  F   UNL A   1      43.519  37.002  30.707  1.00  0.00    -0.206 F 
ATOM     88  C   UNL A   1      43.163  38.461  28.943  1.00  0.00     0.040 A 
ATOM     89  C   UNL A   1      42.159  37.714  26.909  1.00  0.00     0.040 A 
ATOM     90  F   UNL A   1      41.268  35.591  26.721  1.00  0.00    -0.206 F 
ATOM     91  C   UNL A   1      42.774  38.718  27.636  1.00  0.00     0.006 A 
ENDBRANCH  67  84
ENDBRANCH  41  42
ENDBRANCH  34  36
ENDBRANCH  33  34
ENDBRANCH  32  33
ENDBRANCH  31  32
ENDBRANCH  30  31
ENDBRANCH   1  30
TORSDOF 17
ENDMDL
MODEL 3
REMARK VINA RESULT:     -12.7      3.455      9.205
REMARK SMILES Cc1cc(C(=O)OCCOC(=O)c2ccc(-c3c4nc(c(-c5c(F)cccc5F)c5ccc([nH]5)c(-c5c(F)cccc5F)c5nc(c(-c6c(F)cccc6F)c6ccc3[nH]6)C=C5)C=C4)cc2)ccc1NC(=O)c1ccc(=O)n(CCOc2ccccc2)n1
REMARK SMILES IDX 5 1 6 2 4 3 1 4 2 5 3 6 69 7 68 8 67 9 70 10 71 11 72 13
REMARK SMILES IDX 73 14 74 15 88 16 75 17 78 18 76 19 77 20 79 21 80 22 81 23
REMARK SMILES IDX 82 24 83 25 87 26 84 27 86 28 85 29 7 30 8 31 9 32 10 33
REMARK SMILES IDX 11 34 12 35 13 36 14 37 66 38 15 39 65 40 16 41 17 42 18 43
REMARK SMILES IDX 59 44 19 45 64 46 58 47 60 48 20 49 63 50 57 51 56 52 21 54
REMARK SMILES IDX 47 55 30 56 46 57 31 58 34 59 45 60 61 61 32 62 33 63 44 65
REMARK SMILES IDX 62 66 35 67 22 68 23 69 28 70 24 71 25 72 27 73 29 74 26 75
REMARK SMILES IDX 48 76 49 77 54 78 50 79 51 80 53 81 55 82 52 83 36 84 37 85
REMARK SMILES IDX 42 86 38 87 39 88 41 89 43 90 40 91
REMARK H PARENT 70 12 60 53 34 64
REMARK Flexibility Score: inf
ROOT
ATOM      1  C   UNL A   1      35.250  21.859  24.319  1.00  0.00     0.338 C 
ATOM      2  O   UNL A   1      35.179  22.582  23.329  1.00  0.00    -0.246 OA
ENDROOT
BRANCH   1   3
ATOM      3  C   UNL A   1      34.342  22.133  25.441  1.00  0.00     0.060 A 
ATOM      4  C   UNL A   1      30.596  22.557  26.126  1.00  0.00     0.046 C 
ATOM      5  C   UNL A   1      32.072  22.841  26.130  1.00  0.00    -0.027 A 
ATOM      6  C   UNL A   1      32.950  21.917  25.469  1.00  0.00     0.021 A 
ATOM      7  C   UNL A   1      32.605  24.057  26.576  1.00  0.00     0.044 A 
ATOM      8  C   UNL A   1      33.955  24.211  26.367  1.00  0.00     0.027 A 
ATOM      9  C   UNL A   1      34.858  23.226  26.073  1.00  0.00     0.018 A 
BRANCH   7  10
ATOM     10  N   UNL A   1      31.876  25.128  27.163  1.00  0.00    -0.320 N 
ATOM     11  C   UNL A   1      31.107  26.144  26.560  1.00  0.00     0.276 C 
ATOM     12  H   UNL A   1      31.915  25.166  28.147  1.00  0.00     0.170 HD
ATOM     13  O   UNL A   1      30.652  27.079  27.211  1.00  0.00    -0.267 OA
BRANCH  11  14
ATOM     14  C   UNL A   1      30.874  26.139  25.042  1.00  0.00     0.149 A 
ATOM     15  C   UNL A   1      29.456  26.201  24.615  1.00  0.00     0.042 A 
ATOM     16  N   UNL A   1      31.897  26.275  24.240  1.00  0.00    -0.164 NA
ATOM     17  C   UNL A   1      29.235  26.874  23.483  1.00  0.00     0.076 A 
ATOM     18  N   UNL A   1      31.615  26.839  22.976  1.00  0.00    -0.226 N 
ATOM     19  C   UNL A   1      30.377  27.444  22.729  1.00  0.00     0.266 A 
ATOM     20  O   UNL A   1      30.181  28.415  22.003  1.00  0.00    -0.268 OA
BRANCH  18  21
ATOM     21  C   UNL A   1      32.777  27.220  22.156  1.00  0.00     0.190 C 
BRANCH  21  22
ATOM     22  C   UNL A   1      33.697  28.248  22.835  1.00  0.00     0.253 C 
BRANCH  22  23
ATOM     23  O   UNL A   1      32.988  29.327  23.488  1.00  0.00    -0.492 OA
BRANCH  23  24
ATOM     24  C   UNL A   1      33.142  29.295  24.845  1.00  0.00     0.119 A 
ATOM     25  C   UNL A   1      32.378  30.088  25.688  1.00  0.00     0.046 A 
ATOM     26  C   UNL A   1      34.139  28.493  25.380  1.00  0.00     0.046 A 
ATOM     27  C   UNL A   1      32.514  29.946  27.074  1.00  0.00     0.004 A 
ATOM     28  C   UNL A   1      34.210  28.268  26.753  1.00  0.00     0.004 A 
ATOM     29  C   UNL A   1      33.383  28.989  27.604  1.00  0.00     0.000 A 
ENDBRANCH  23  24
ENDBRANCH  22  23
ENDBRANCH  21  22
ENDBRANCH  18  21
ENDBRANCH  11  14
ENDBRANCH   7  10
ENDBRANCH   1   3
BRANCH   1  30
ATOM     30  O   UNL A   1      36.277  21.039  24.627  1.00  0.00    -0.458 OA
BRANCH  30  31
ATOM     31  C   UNL A   1      37.550  21.688  24.475  1.00  0.00     0.275 C 
BRANCH  31  32
ATOM     32  C   UNL A   1      38.460  21.461  25.684  1.00  0.00     0.275 C 
BRANCH  32  33
ATOM     33  O   UNL A   1      38.815  22.609  26.512  1.00  0.00    -0.458 OA
BRANCH  33  34
ATOM     34  C   UNL A   1      40.004  23.256  26.565  1.00  0.00     0.338 C 
ATOM     35  O   UNL A   1      41.041  22.763  26.126  1.00  0.00    -0.246 OA
BRANCH  34  36
ATOM     36  C   UNL A   1      40.021  24.598  27.156  1.00  0.00     0.060 A 
ATOM     37  C   UNL A   1      40.569  25.659  26.411  1.00  0.00     0.016 A 
ATOM     38  C   UNL A   1      39.389  24.818  28.375  1.00  0.00     0.016 A 
ATOM     39  C   UNL A   1      40.404  26.965  26.838  1.00  0.00     0.010 A 
ATOM     40  C   UNL A   1      39.090  26.104  28.731  1.00  0.00     0.010 A 
ATOM     41  C   UNL A   1      39.657  27.160  27.997  1.00  0.00    -0.014 A 
BRANCH  41  42
ATOM     42  C   UNL A   1      39.798  28.355  28.796  1.00  0.00     0.031 A 
ATOM     43  C   UNL A   1      38.806  29.430  28.732  1.00  0.00     0.074 A 
ATOM     44  C   UNL A   1      40.806  28.165  29.679  1.00  0.00     0.049 A 
ATOM     45  N   UNL A   1      39.008  30.605  29.201  1.00  0.00    -0.248 NA
ATOM     46  C   UNL A   1      37.498  29.303  28.090  1.00  0.00     0.031 C 
ATOM     47  C   UNL A   1      41.186  28.824  30.909  1.00  0.00     0.029 A 
ATOM     48  N   UNL A   1      41.852  27.243  29.467  1.00  0.00    -0.354 N 
ATOM     49  C   UNL A   1      37.787  31.250  29.264  1.00  0.00     0.074 A 
ATOM     50  C   UNL A   1      36.920  30.466  28.421  1.00  0.00     0.031 C 
ATOM     51  C   UNL A   1      42.488  28.550  31.144  1.00  0.00     0.029 A 
ATOM     52  C   UNL A   1      43.004  27.811  29.992  1.00  0.00     0.049 A 
ATOM     53  H   UNL A   1      41.779  26.364  29.029  1.00  0.00     0.167 HD
ATOM     54  C   UNL A   1      37.657  32.256  30.181  1.00  0.00     0.037 A 
ATOM     55  C   UNL A   1      43.918  28.268  29.086  1.00  0.00     0.037 A 
ATOM     56  C   UNL A   1      38.960  32.466  30.822  1.00  0.00     0.049 A 
ATOM     57  C   UNL A   1      43.938  29.778  29.133  1.00  0.00     0.074 A 
ATOM     58  C   UNL A   1      39.503  31.931  31.980  1.00  0.00     0.029 A 
ATOM     59  N   UNL A   1      40.026  32.926  30.057  1.00  0.00    -0.354 N 
ATOM     60  N   UNL A   1      42.885  30.533  29.319  1.00  0.00    -0.248 NA
ATOM     61  C   UNL A   1      45.191  30.519  29.141  1.00  0.00     0.031 C 
ATOM     62  C   UNL A   1      40.919  31.961  31.840  1.00  0.00     0.029 A 
ATOM     63  C   UNL A   1      41.229  32.512  30.605  1.00  0.00     0.049 A 
ATOM     64  H   UNL A   1      39.939  33.467  29.240  1.00  0.00     0.167 HD
ATOM     65  C   UNL A   1      43.305  31.811  29.578  1.00  0.00     0.074 A 
ATOM     66  C   UNL A   1      44.751  31.754  29.430  1.00  0.00     0.031 C 
ATOM     67  C   UNL A   1      42.489  32.841  29.957  1.00  0.00     0.037 A 
BRANCH  54  68
ATOM     68  C   UNL A   1      36.370  32.842  30.736  1.00  0.00     0.057 A 
ATOM     69  C   UNL A   1      35.674  33.831  30.002  1.00  0.00     0.134 A 
ATOM     70  C   UNL A   1      35.781  32.538  31.976  1.00  0.00     0.134 A 
ATOM     71  F   UNL A   1      36.062  34.199  28.773  1.00  0.00    -0.206 F 
ATOM     72  C   UNL A   1      34.539  34.501  30.485  1.00  0.00     0.040 A 
ATOM     73  C   UNL A   1      34.652  33.212  32.478  1.00  0.00     0.040 A 
ATOM     74  F   UNL A   1      36.236  31.558  32.760  1.00  0.00    -0.206 F 
ATOM     75  C   UNL A   1      34.031  34.205  31.737  1.00  0.00     0.006 A 
ENDBRANCH  54  68
BRANCH  55  76
ATOM     76  C   UNL A   1      44.083  27.406  27.859  1.00  0.00     0.057 A 
ATOM     77  C   UNL A   1      43.688  27.927  26.604  1.00  0.00     0.134 A 
ATOM     78  C   UNL A   1      44.808  26.211  27.816  1.00  0.00     0.134 A 
ATOM     79  F   UNL A   1      42.968  29.060  26.542  1.00  0.00    -0.206 F 
ATOM     80  C   UNL A   1      44.081  27.362  25.383  1.00  0.00     0.040 A 
ATOM     81  C   UNL A   1      45.185  25.614  26.594  1.00  0.00     0.040 A 
ATOM     82  F   UNL A   1      45.237  25.626  28.942  1.00  0.00    -0.206 F 
ATOM     83  C   UNL A   1      44.848  26.205  25.376  1.00  0.00     0.006 A 
ENDBRANCH  55  76
BRANCH  67  84
ATOM     84  C   UNL A   1      42.869  34.294  29.825  1.00  0.00     0.057 A 
ATOM     85  C   UNL A   1      43.137  35.120  30.927  1.00  0.00     0.134 A 
ATOM     86  C   UNL A   1      43.159  34.860  28.564  1.00  0.00     0.134 A 
ATOM     87  F   UNL A   1      43.048  34.670  32.186  1.00  0.00    -0.206 F 
ATOM     88  C   UNL A   1      43.571  36.440  30.785  1.00  0.00     0.040 A 
ATOM     89  C   UNL A   1      43.671  36.149  28.417  1.00  0.00     0.040 A 
ATOM     90  F   UNL A   1      42.997  34.177  27.422  1.00  0.00    -0.206 F 
ATOM     91  C   UNL A   1      43.853  36.954  29.528  1.00  0.00     0.006 A 
ENDBRANCH  67  84
ENDBRANCH  41  42
ENDBRANCH  34  36
ENDBRANCH  33  34
ENDBRANCH  32  33
ENDBRANCH  31  32
ENDBRANCH  30  31
ENDBRANCH   1  30
TORSDOF 17
ENDMDL
