MODEL 1
REMARK VINA RESULT:      -9.8      0.000      0.000
REMARK SMILES CCCC1(CCC)CN(c2cncc(C(=O)OCCOC(=O)c3ccc(-c4c5nc(c(-c6c(F)cccc6F)c6ccc([nH]6)c(-c6c(F)cccc6F)c6nc(c(-c7c(F)cccc7F)c7ccc4[nH]7)C=C6)C=C5)cc3)c2)C1
REMARK SMILES IDX 18 1 17 2 15 3 16 4 14 5 10 6 11 7 77 8 12 9 13 10 9 11 4 12
REMARK SMILES IDX 8 13 78 14 3 15 2 16 1 17 5 18 6 19 7 20 19 21 20 22 21 23
REMARK SMILES IDX 22 24 23 25 24 26 76 27 25 28 75 29 26 30 27 31 28 32 69 33
REMARK SMILES IDX 29 34 74 35 68 36 70 37 30 38 73 39 67 40 66 41 31 43 57 44
REMARK SMILES IDX 40 45 56 46 41 47 44 48 55 49 71 50 42 51 43 52 54 54 72 55
REMARK SMILES IDX 45 56 32 57 33 58 38 59 34 60 35 61 37 62 39 63 36 64 58 65
REMARK SMILES IDX 59 66 64 67 60 68 61 69 63 70 65 71 62 72 46 73 47 74 52 75
REMARK SMILES IDX 48 76 49 77 51 78 53 79 50 80
REMARK H PARENT 70 42 44 53
REMARK Flexibility Score: inf
ROOT
ATOM      1  C   UNL A   1      33.507  33.894  28.020  1.00  0.00     0.275 C 
ENDROOT
BRANCH   1   2
ATOM      2  O   UNL A   1      32.902  34.306  29.262  1.00  0.00    -0.458 OA
BRANCH   2   3
ATOM      3  C   UNL A   1      32.841  35.636  29.512  1.00  0.00     0.339 C 
ATOM      4  O   UNL A   1      32.346  36.496  28.800  1.00  0.00    -0.246 OA
BRANCH   3   5
ATOM      5  C   UNL A   1      33.369  35.908  30.861  1.00  0.00     0.080 A 
ATOM      6  C   UNL A   1      34.686  35.300  32.787  1.00  0.00     0.056 A 
ATOM      7  C   UNL A   1      34.129  36.396  33.440  1.00  0.00     0.136 A 
ATOM      8  C   UNL A   1      34.270  35.052  31.480  1.00  0.00     0.044 A 
ATOM      9  N   UNL A   1      33.294  37.285  32.850  1.00  0.00    -0.262 NA
ATOM     10  C   UNL A   1      32.961  37.035  31.561  1.00  0.00     0.126 A 
BRANCH   6  11
ATOM     11  N   UNL A   1      35.651  34.464  33.347  1.00  0.00    -0.369 N 
ATOM     12  C   UNL A   1      37.022  33.018  33.907  1.00  0.00     0.005 C 
ATOM     13  C   UNL A   1      37.070  34.454  33.275  1.00  0.00     0.125 C 
ATOM     14  C   UNL A   1      35.538  33.041  33.456  1.00  0.00     0.125 C 
BRANCH  12  15
ATOM     15  C   UNL A   1      37.997  32.143  33.102  1.00  0.00     0.010 C 
BRANCH  15  16
ATOM     16  C   UNL A   1      37.935  30.644  33.355  1.00  0.00    -0.003 C 
ATOM     17  C   UNL A   1      39.255  30.012  33.762  1.00  0.00     0.004 C 
ENDBRANCH  15  16
ENDBRANCH  12  15
BRANCH  12  18
ATOM     18  C   UNL A   1      37.264  33.084  35.436  1.00  0.00     0.010 C 
BRANCH  18  19
ATOM     19  C   UNL A   1      38.713  33.348  35.881  1.00  0.00    -0.003 C 
ATOM     20  C   UNL A   1      39.339  32.254  36.733  1.00  0.00     0.004 C 
ENDBRANCH  18  19
ENDBRANCH  12  18
ENDBRANCH   6  11
ENDBRANCH   3   5
ENDBRANCH   2   3
ENDBRANCH   1   2
BRANCH   1  21
ATOM     21  C   UNL A   1      34.849  33.205  28.267  1.00  0.00     0.275 C 
BRANCH  21  22
ATOM     22  O   UNL A   1      34.646  32.000  29.027  1.00  0.00    -0.458 OA
BRANCH  22  23
ATOM     23  C   UNL A   1      34.652  30.849  28.318  1.00  0.00     0.338 C 
ATOM     24  O   UNL A   1      33.767  30.399  27.612  1.00  0.00    -0.246 OA
BRANCH  23  25
ATOM     25  C   UNL A   1      35.974  30.217  28.431  1.00  0.00     0.060 A 
ATOM     26  C   UNL A   1      36.349  29.723  29.674  1.00  0.00     0.016 A 
ATOM     27  C   UNL A   1      36.890  30.240  27.385  1.00  0.00     0.016 A 
ATOM     28  C   UNL A   1      37.659  29.324  29.915  1.00  0.00     0.010 A 
ATOM     29  C   UNL A   1      38.186  29.748  27.598  1.00  0.00     0.010 A 
ATOM     30  C   UNL A   1      38.596  29.314  28.875  1.00  0.00    -0.014 A 
BRANCH  30  31
ATOM     31  C   UNL A   1      39.999  28.887  29.146  1.00  0.00     0.031 A 
ATOM     32  C   UNL A   1      40.947  29.807  29.872  1.00  0.00     0.074 A 
ATOM     33  C   UNL A   1      40.423  27.664  28.770  1.00  0.00     0.049 A 
ATOM     34  N   UNL A   1      42.237  29.685  30.060  1.00  0.00    -0.248 NA
ATOM     35  C   UNL A   1      40.372  31.032  30.450  1.00  0.00     0.031 C 
ATOM     36  C   UNL A   1      39.606  26.649  28.100  1.00  0.00     0.029 A 
ATOM     37  N   UNL A   1      41.651  27.059  28.903  1.00  0.00    -0.354 N 
ATOM     38  C   UNL A   1      42.636  30.841  30.721  1.00  0.00     0.074 A 
ATOM     39  C   UNL A   1      41.452  31.653  30.902  1.00  0.00     0.031 C 
ATOM     40  C   UNL A   1      40.340  25.542  27.913  1.00  0.00     0.029 A 
ATOM     41  C   UNL A   1      41.704  25.796  28.363  1.00  0.00     0.049 A 
ATOM     42  H   UNL A   1      42.419  27.490  29.344  1.00  0.00     0.167 HD
ATOM     43  C   UNL A   1      43.877  31.192  31.138  1.00  0.00     0.037 A 
ATOM     44  C   UNL A   1      42.740  24.950  28.200  1.00  0.00     0.037 A 
ATOM     45  C   UNL A   1      45.041  30.351  31.018  1.00  0.00     0.049 A 
ATOM     46  C   UNL A   1      44.107  25.371  28.653  1.00  0.00     0.074 A 
ATOM     47  C   UNL A   1      46.334  30.606  31.444  1.00  0.00     0.029 A 
ATOM     48  N   UNL A   1      45.051  29.088  30.445  1.00  0.00    -0.354 N 
ATOM     49  N   UNL A   1      44.479  26.483  29.239  1.00  0.00    -0.248 NA
ATOM     50  C   UNL A   1      45.207  24.427  28.405  1.00  0.00     0.031 C 
ATOM     51  C   UNL A   1      47.135  29.516  31.090  1.00  0.00     0.029 A 
ATOM     52  C   UNL A   1      46.332  28.561  30.488  1.00  0.00     0.049 A 
ATOM     53  H   UNL A   1      44.265  28.635  30.064  1.00  0.00     0.167 HD
ATOM     54  C   UNL A   1      45.847  26.369  29.440  1.00  0.00     0.074 A 
ATOM     55  C   UNL A   1      46.237  25.068  28.935  1.00  0.00     0.031 C 
ATOM     56  C   UNL A   1      46.705  27.265  29.985  1.00  0.00     0.037 A 
BRANCH  43  57
ATOM     57  C   UNL A   1      44.057  32.559  31.733  1.00  0.00     0.057 A 
ATOM     58  C   UNL A   1      44.310  33.690  30.949  1.00  0.00     0.134 A 
ATOM     59  C   UNL A   1      43.916  32.747  33.115  1.00  0.00     0.134 A 
ATOM     60  F   UNL A   1      44.466  33.578  29.622  1.00  0.00    -0.206 F 
ATOM     61  C   UNL A   1      44.432  34.959  31.520  1.00  0.00     0.040 A 
ATOM     62  C   UNL A   1      44.011  34.014  33.693  1.00  0.00     0.040 A 
ATOM     63  F   UNL A   1      43.666  31.706  33.922  1.00  0.00    -0.206 F 
ATOM     64  C   UNL A   1      44.275  35.124  32.896  1.00  0.00     0.006 A 
ENDBRANCH  43  57
BRANCH  44  65
ATOM     65  C   UNL A   1      42.532  23.644  27.523  1.00  0.00     0.057 A 
ATOM     66  C   UNL A   1      42.203  22.492  28.245  1.00  0.00     0.134 A 
ATOM     67  C   UNL A   1      42.668  23.516  26.134  1.00  0.00     0.134 A 
ATOM     68  F   UNL A   1      42.086  22.543  29.580  1.00  0.00    -0.206 F 
ATOM     69  C   UNL A   1      42.031  21.258  27.615  1.00  0.00     0.040 A 
ATOM     70  C   UNL A   1      42.467  22.296  25.487  1.00  0.00     0.040 A 
ATOM     71  F   UNL A   1      42.982  24.582  25.382  1.00  0.00    -0.206 F 
ATOM     72  C   UNL A   1      42.155  21.160  26.230  1.00  0.00     0.006 A 
ENDBRANCH  44  65
BRANCH  56  73
ATOM     73  C   UNL A   1      48.144  26.854  30.089  1.00  0.00     0.057 A 
ATOM     74  C   UNL A   1      48.624  26.120  31.182  1.00  0.00     0.134 A 
ATOM     75  C   UNL A   1      49.054  27.175  29.074  1.00  0.00     0.134 A 
ATOM     76  F   UNL A   1      47.806  25.795  32.194  1.00  0.00    -0.206 F 
ATOM     77  C   UNL A   1      49.965  25.742  31.273  1.00  0.00     0.040 A 
ATOM     78  C   UNL A   1      50.390  26.781  29.142  1.00  0.00     0.040 A 
ATOM     79  F   UNL A   1      48.655  27.869  27.997  1.00  0.00    -0.206 F 
ATOM     80  C   UNL A   1      50.850  26.069  30.247  1.00  0.00     0.006 A 
ENDBRANCH  56  73
ENDBRANCH  30  31
ENDBRANCH  23  25
ENDBRANCH  22  23
ENDBRANCH  21  22
ENDBRANCH   1  21
TORSDOF 16
ENDMDL
MODEL 2
REMARK VINA RESULT:      -9.7      6.071     11.152
REMARK SMILES CCCC1(CCC)CN(c2cncc(C(=O)OCCOC(=O)c3ccc(-c4c5nc(c(-c6c(F)cccc6F)c6ccc([nH]6)c(-c6c(F)cccc6F)c6nc(c(-c7c(F)cccc7F)c7ccc4[nH]7)C=C6)C=C5)cc3)c2)C1
REMARK SMILES IDX 18 1 17 2 15 3 16 4 14 5 10 6 11 7 77 8 12 9 13 10 9 11 4 12
REMARK SMILES IDX 8 13 78 14 3 15 2 16 1 17 5 18 6 19 7 20 19 21 20 22 21 23
REMARK SMILES IDX 22 24 23 25 24 26 76 27 25 28 75 29 26 30 27 31 28 32 69 33
REMARK SMILES IDX 29 34 74 35 68 36 70 37 30 38 73 39 67 40 66 41 31 43 57 44
REMARK SMILES IDX 40 45 56 46 41 47 44 48 55 49 71 50 42 51 43 52 54 54 72 55
REMARK SMILES IDX 45 56 32 57 33 58 38 59 34 60 35 61 37 62 39 63 36 64 58 65
REMARK SMILES IDX 59 66 64 67 60 68 61 69 63 70 65 71 62 72 46 73 47 74 52 75
REMARK SMILES IDX 48 76 49 77 51 78 53 79 50 80
REMARK H PARENT 70 42 44 53
REMARK Flexibility Score: inf
ROOT
ATOM      1  C   UNL A   1      42.409  19.358  26.860  1.00  0.00     0.275 C 
ENDROOT
BRANCH   1   2
ATOM      2  O   UNL A   1      41.684  20.438  26.239  1.00  0.00    -0.458 OA
BRANCH   2   3
ATOM      3  C   UNL A   1      40.372  20.230  25.970  1.00  0.00     0.339 C 
ATOM      4  O   UNL A   1      39.838  19.169  25.689  1.00  0.00    -0.246 OA
BRANCH   3   5
ATOM      5  C   UNL A   1      39.623  21.482  26.181  1.00  0.00     0.080 A 
ATOM      6  C   UNL A   1      37.684  22.878  25.846  1.00  0.00     0.056 A 
ATOM      7  C   UNL A   1      38.398  23.911  26.448  1.00  0.00     0.136 A 
ATOM      8  C   UNL A   1      38.333  21.652  25.696  1.00  0.00     0.044 A 
ATOM      9  N   UNL A   1      39.633  23.765  26.985  1.00  0.00    -0.262 NA
ATOM     10  C   UNL A   1      40.202  22.541  26.866  1.00  0.00     0.126 A 
BRANCH   6  11
ATOM     11  N   UNL A   1      36.362  22.987  25.418  1.00  0.00    -0.369 N 
ATOM     12  C   UNL A   1      34.320  23.138  25.117  1.00  0.00     0.005 C 
ATOM     13  C   UNL A   1      35.557  24.104  25.069  1.00  0.00     0.125 C 
ATOM     14  C   UNL A   1      35.269  22.221  25.934  1.00  0.00     0.125 C 
BRANCH  12  15
ATOM     15  C   UNL A   1      33.209  23.874  25.884  1.00  0.00     0.010 C 
BRANCH  15  16
ATOM     16  C   UNL A   1      32.443  23.064  26.920  1.00  0.00    -0.003 C 
ATOM     17  C   UNL A   1      30.932  23.103  26.769  1.00  0.00     0.004 C 
ENDBRANCH  15  16
ENDBRANCH  12  15
BRANCH  12  18
ATOM     18  C   UNL A   1      33.957  22.640  23.696  1.00  0.00     0.010 C 
BRANCH  18  19
ATOM     19  C   UNL A   1      32.457  22.457  23.406  1.00  0.00    -0.003 C 
ATOM     20  C   UNL A   1      32.116  21.329  22.445  1.00  0.00     0.004 C 
ENDBRANCH  18  19
ENDBRANCH  12  18
ENDBRANCH   6  11
ENDBRANCH   3   5
ENDBRANCH   2   3
ENDBRANCH   1   2
BRANCH   1  21
ATOM     21  C   UNL A   1      43.104  18.490  25.811  1.00  0.00     0.275 C 
BRANCH  21  22
ATOM     22  O   UNL A   1      43.384  19.273  24.637  1.00  0.00    -0.458 OA
BRANCH  22  23
ATOM     23  C   UNL A   1      44.693  19.485  24.370  1.00  0.00     0.338 C 
ATOM     24  O   UNL A   1      45.501  18.699  23.909  1.00  0.00    -0.246 OA
BRANCH  23  25
ATOM     25  C   UNL A   1      45.017  20.895  24.628  1.00  0.00     0.060 A 
ATOM     26  C   UNL A   1      45.585  21.213  25.856  1.00  0.00     0.016 A 
ATOM     27  C   UNL A   1      44.638  21.908  23.753  1.00  0.00     0.016 A 
ATOM     28  C   UNL A   1      45.705  22.537  26.262  1.00  0.00     0.010 A 
ATOM     29  C   UNL A   1      44.848  23.245  24.120  1.00  0.00     0.010 A 
ATOM     30  C   UNL A   1      45.355  23.576  25.393  1.00  0.00    -0.014 A 
BRANCH  30  31
ATOM     31  C   UNL A   1      45.486  24.993  25.840  1.00  0.00     0.031 A 
ATOM     32  C   UNL A   1      46.806  25.708  25.721  1.00  0.00     0.074 A 
ATOM     33  C   UNL A   1      44.418  25.655  26.329  1.00  0.00     0.049 A 
ATOM     34  N   UNL A   1      47.162  26.876  26.196  1.00  0.00    -0.248 NA
ATOM     35  C   UNL A   1      47.874  25.015  24.982  1.00  0.00     0.031 C 
ATOM     36  C   UNL A   1      43.065  25.107  26.462  1.00  0.00     0.029 A 
ATOM     37  N   UNL A   1      44.297  26.941  26.801  1.00  0.00    -0.354 N 
ATOM     38  C   UNL A   1      48.504  27.028  25.868  1.00  0.00     0.074 A 
ATOM     39  C   UNL A   1      48.902  25.834  25.154  1.00  0.00     0.031 C 
ATOM     40  C   UNL A   1      42.249  26.054  26.946  1.00  0.00     0.029 A 
ATOM     41  C   UNL A   1      43.033  27.247  27.246  1.00  0.00     0.049 A 
ATOM     42  H   UNL A   1      45.045  27.580  26.820  1.00  0.00     0.167 HD
ATOM     43  C   UNL A   1      49.328  28.069  26.140  1.00  0.00     0.037 A 
ATOM     44  C   UNL A   1      42.560  28.344  27.869  1.00  0.00     0.037 A 
ATOM     45  C   UNL A   1      48.913  29.285  26.790  1.00  0.00     0.049 A 
ATOM     46  C   UNL A   1      43.499  29.474  28.175  1.00  0.00     0.074 A 
ATOM     47  C   UNL A   1      49.668  30.410  27.076  1.00  0.00     0.029 A 
ATOM     48  N   UNL A   1      47.627  29.543  27.241  1.00  0.00    -0.354 N 
ATOM     49  N   UNL A   1      44.774  29.589  27.897  1.00  0.00    -0.248 NA
ATOM     50  C   UNL A   1      42.937  30.623  28.901  1.00  0.00     0.031 C 
ATOM     51  C   UNL A   1      48.850  31.332  27.738  1.00  0.00     0.029 A 
ATOM     52  C   UNL A   1      47.574  30.801  27.821  1.00  0.00     0.049 A 
ATOM     53  H   UNL A   1      46.866  28.925  27.162  1.00  0.00     0.167 HD
ATOM     54  C   UNL A   1      45.165  30.821  28.400  1.00  0.00     0.074 A 
ATOM     55  C   UNL A   1      43.985  31.430  28.980  1.00  0.00     0.031 C 
ATOM     56  C   UNL A   1      46.392  31.394  28.392  1.00  0.00     0.037 A 
BRANCH  43  57
ATOM     57  C   UNL A   1      50.777  27.932  25.769  1.00  0.00     0.057 A 
ATOM     58  C   UNL A   1      51.247  28.187  24.476  1.00  0.00     0.134 A 
ATOM     59  C   UNL A   1      51.723  27.593  26.746  1.00  0.00     0.134 A 
ATOM     60  F   UNL A   1      50.394  28.506  23.491  1.00  0.00    -0.206 F 
ATOM     61  C   UNL A   1      52.606  28.095  24.163  1.00  0.00     0.040 A 
ATOM     62  C   UNL A   1      53.085  27.522  26.452  1.00  0.00     0.040 A 
ATOM     63  F   UNL A   1      51.340  27.344  28.007  1.00  0.00    -0.206 F 
ATOM     64  C   UNL A   1      53.530  27.769  25.155  1.00  0.00     0.006 A 
ENDBRANCH  43  57
BRANCH  44  65
ATOM     65  C   UNL A   1      41.139  28.398  28.301  1.00  0.00     0.057 A 
ATOM     66  C   UNL A   1      40.134  28.862  27.445  1.00  0.00     0.134 A 
ATOM     67  C   UNL A   1      40.754  27.994  29.586  1.00  0.00     0.134 A 
ATOM     68  F   UNL A   1      40.442  29.288  26.211  1.00  0.00    -0.206 F 
ATOM     69  C   UNL A   1      38.801  28.937  27.855  1.00  0.00     0.040 A 
ATOM     70  C   UNL A   1      39.421  28.033  29.998  1.00  0.00     0.040 A 
ATOM     71  F   UNL A   1      41.668  27.539  30.457  1.00  0.00    -0.206 F 
ATOM     72  C   UNL A   1      38.441  28.513  29.133  1.00  0.00     0.006 A 
ENDBRANCH  44  65
BRANCH  56  73
ATOM     73  C   UNL A   1      46.512  32.760  29.002  1.00  0.00     0.057 A 
ATOM     74  C   UNL A   1      46.292  33.923  28.254  1.00  0.00     0.134 A 
ATOM     75  C   UNL A   1      46.826  32.910  30.358  1.00  0.00     0.134 A 
ATOM     76  F   UNL A   1      46.002  33.846  26.947  1.00  0.00    -0.206 F 
ATOM     77  C   UNL A   1      46.407  35.190  28.829  1.00  0.00     0.040 A 
ATOM     78  C   UNL A   1      46.918  34.170  30.950  1.00  0.00     0.040 A 
ATOM     79  F   UNL A   1      47.041  31.834  31.131  1.00  0.00    -0.206 F 
ATOM     80  C   UNL A   1      46.715  35.315  30.182  1.00  0.00     0.006 A 
ENDBRANCH  56  73
ENDBRANCH  30  31
ENDBRANCH  23  25
ENDBRANCH  22  23
ENDBRANCH  21  22
ENDBRANCH   1  21
TORSDOF 16
ENDMDL
MODEL 3
REMARK VINA RESULT:      -9.7      5.135     11.437
REMARK SMILES CCCC1(CCC)CN(c2cncc(C(=O)OCCOC(=O)c3ccc(-c4c5nc(c(-c6c(F)cccc6F)c6ccc([nH]6)c(-c6c(F)cccc6F)c6nc(c(-c7c(F)cccc7F)c7ccc4[nH]7)C=C6)C=C5)cc3)c2)C1
REMARK SMILES IDX 18 1 17 2 15 3 16 4 14 5 10 6 11 7 77 8 12 9 13 10 9 11 4 12
REMARK SMILES IDX 8 13 78 14 3 15 2 16 1 17 5 18 6 19 7 20 19 21 20 22 21 23
REMARK SMILES IDX 22 24 23 25 24 26 76 27 25 28 75 29 26 30 27 31 28 32 69 33
REMARK SMILES IDX 29 34 74 35 68 36 70 37 30 38 73 39 67 40 66 41 31 43 57 44
REMARK SMILES IDX 40 45 56 46 41 47 44 48 55 49 71 50 42 51 43 52 54 54 72 55
REMARK SMILES IDX 45 56 32 57 33 58 38 59 34 60 35 61 37 62 39 63 36 64 58 65
REMARK SMILES IDX 59 66 64 67 60 68 61 69 63 70 65 71 62 72 46 73 47 74 52 75
REMARK SMILES IDX 48 76 49 77 51 78 53 79 50 80
REMARK H PARENT 70 42 44 53
REMARK Flexibility Score: inf
ROOT
ATOM      1  C   UNL A   1      43.050  20.483  25.763  1.00  0.00     0.275 C 
ENDROOT
BRANCH   1   2
ATOM      2  O   UNL A   1      41.897  20.961  26.483  1.00  0.00    -0.458 OA
BRANCH   2   3
ATOM      3  C   UNL A   1      40.687  20.480  26.107  1.00  0.00     0.339 C 
ATOM      4  O   UNL A   1      40.415  19.328  25.808  1.00  0.00    -0.246 OA
BRANCH   3   5
ATOM      5  C   UNL A   1      39.676  21.546  26.221  1.00  0.00     0.080 A 
ATOM      6  C   UNL A   1      37.493  22.461  25.755  1.00  0.00     0.056 A 
ATOM      7  C   UNL A   1      37.943  23.658  26.306  1.00  0.00     0.136 A 
ATOM      8  C   UNL A   1      38.398  21.401  25.698  1.00  0.00     0.044 A 
ATOM      9  N   UNL A   1      39.161  23.818  26.877  1.00  0.00    -0.262 NA
ATOM     10  C   UNL A   1      39.986  22.745  26.849  1.00  0.00     0.126 A 
BRANCH   6  11
ATOM     11  N   UNL A   1      36.195  22.252  25.292  1.00  0.00    -0.369 N 
ATOM     12  C   UNL A   1      34.302  21.626  24.740  1.00  0.00     0.005 C 
ATOM     13  C   UNL A   1      34.921  22.560  25.840  1.00  0.00     0.125 C 
ATOM     14  C   UNL A   1      35.744  21.068  24.626  1.00  0.00     0.125 C 
BRANCH  12  15
ATOM     15  C   UNL A   1      33.251  20.748  25.442  1.00  0.00     0.010 C 
BRANCH  15  16
ATOM     16  C   UNL A   1      32.477  19.778  24.561  1.00  0.00    -0.003 C 
ATOM     17  C   UNL A   1      33.211  18.487  24.238  1.00  0.00     0.004 C 
ENDBRANCH  15  16
ENDBRANCH  12  15
BRANCH  12  18
ATOM     18  C   UNL A   1      33.801  22.458  23.533  1.00  0.00     0.010 C 
BRANCH  18  19
ATOM     19  C   UNL A   1      32.654  23.444  23.818  1.00  0.00    -0.003 C 
ATOM     20  C   UNL A   1      31.319  23.084  23.183  1.00  0.00     0.004 C 
ENDBRANCH  18  19
ENDBRANCH  12  18
ENDBRANCH   6  11
ENDBRANCH   3   5
ENDBRANCH   2   3
ENDBRANCH   1   2
BRANCH   1  21
ATOM     21  C   UNL A   1      43.929  21.645  25.301  1.00  0.00     0.275 C 
BRANCH  21  22
ATOM     22  O   UNL A   1      43.131  22.836  25.166  1.00  0.00    -0.458 OA
BRANCH  22  23
ATOM     23  C   UNL A   1      43.800  24.006  25.274  1.00  0.00     0.338 C 
ATOM     24  O   UNL A   1      44.745  24.394  24.611  1.00  0.00    -0.246 OA
BRANCH  23  25
ATOM     25  C   UNL A   1      43.145  24.845  26.288  1.00  0.00     0.060 A 
ATOM     26  C   UNL A   1      43.186  26.223  26.111  1.00  0.00     0.016 A 
ATOM     27  C   UNL A   1      42.634  24.309  27.465  1.00  0.00     0.016 A 
ATOM     28  C   UNL A   1      42.796  27.082  27.131  1.00  0.00     0.010 A 
ATOM     29  C   UNL A   1      42.150  25.173  28.459  1.00  0.00     0.010 A 
ATOM     30  C   UNL A   1      42.255  26.571  28.317  1.00  0.00    -0.014 A 
BRANCH  30  31
ATOM     31  C   UNL A   1      41.844  27.503  29.406  1.00  0.00     0.031 A 
ATOM     32  C   UNL A   1      42.611  27.544  30.702  1.00  0.00     0.074 A 
ATOM     33  C   UNL A   1      40.800  28.339  29.230  1.00  0.00     0.049 A 
ATOM     34  N   UNL A   1      42.320  28.164  31.818  1.00  0.00    -0.248 NA
ATOM     35  C   UNL A   1      43.865  26.776  30.756  1.00  0.00     0.031 C 
ATOM     36  C   UNL A   1      39.991  28.443  28.013  1.00  0.00     0.029 A 
ATOM     37  N   UNL A   1      40.240  29.267  30.075  1.00  0.00    -0.354 N 
ATOM     38  C   UNL A   1      43.316  27.812  32.721  1.00  0.00     0.074 A 
ATOM     39  C   UNL A   1      44.221  26.924  32.025  1.00  0.00     0.031 C 
ATOM     40  C   UNL A   1      39.067  29.401  28.176  1.00  0.00     0.029 A 
ATOM     41  C   UNL A   1      39.153  29.916  29.539  1.00  0.00     0.049 A 
ATOM     42  H   UNL A   1      40.585  29.450  30.979  1.00  0.00     0.167 HD
ATOM     43  C   UNL A   1      43.460  28.194  34.013  1.00  0.00     0.037 A 
ATOM     44  C   UNL A   1      38.289  30.790  30.089  1.00  0.00     0.037 A 
ATOM     45  C   UNL A   1      42.595  29.132  34.683  1.00  0.00     0.049 A 
ATOM     46  C   UNL A   1      38.460  31.182  31.528  1.00  0.00     0.074 A 
ATOM     47  C   UNL A   1      42.683  29.608  35.981  1.00  0.00     0.029 A 
ATOM     48  N   UNL A   1      41.494  29.747  34.106  1.00  0.00    -0.354 N 
ATOM     49  N   UNL A   1      39.382  30.811  32.382  1.00  0.00    -0.248 NA
ATOM     50  C   UNL A   1      37.458  32.102  32.087  1.00  0.00     0.031 C 
ATOM     51  C   UNL A   1      41.612  30.479  36.202  1.00  0.00     0.029 A 
ATOM     52  C   UNL A   1      40.884  30.583  35.028  1.00  0.00     0.049 A 
ATOM     53  H   UNL A   1      41.192  29.611  33.180  1.00  0.00     0.167 HD
ATOM     54  C   UNL A   1      39.081  31.457  33.572  1.00  0.00     0.074 A 
ATOM     55  C   UNL A   1      37.903  32.265  33.324  1.00  0.00     0.031 C 
ATOM     56  C   UNL A   1      39.715  31.382  34.767  1.00  0.00     0.037 A 
BRANCH  43  57
ATOM     57  C   UNL A   1      44.573  27.575  34.808  1.00  0.00     0.057 A 
ATOM     58  C   UNL A   1      45.835  28.170  34.921  1.00  0.00     0.134 A 
ATOM     59  C   UNL A   1      44.352  26.387  35.520  1.00  0.00     0.134 A 
ATOM     60  F   UNL A   1      46.116  29.302  34.258  1.00  0.00    -0.206 F 
ATOM     61  C   UNL A   1      46.843  27.598  35.701  1.00  0.00     0.040 A 
ATOM     62  C   UNL A   1      45.344  25.820  36.321  1.00  0.00     0.040 A 
ATOM     63  F   UNL A   1      43.163  25.770  35.460  1.00  0.00    -0.206 F 
ATOM     64  C   UNL A   1      46.595  26.423  36.410  1.00  0.00     0.006 A 
ENDBRANCH  43  57
BRANCH  44  65
ATOM     65  C   UNL A   1      37.147  31.307  29.291  1.00  0.00     0.057 A 
ATOM     66  C   UNL A   1      37.168  32.589  28.733  1.00  0.00     0.134 A 
ATOM     67  C   UNL A   1      36.000  30.531  29.076  1.00  0.00     0.134 A 
ATOM     68  F   UNL A   1      38.226  33.392  28.925  1.00  0.00    -0.206 F 
ATOM     69  C   UNL A   1      36.087  33.088  28.003  1.00  0.00     0.040 A 
ATOM     70  C   UNL A   1      34.926  31.003  28.321  1.00  0.00     0.040 A 
ATOM     71  F   UNL A   1      35.914  29.292  29.584  1.00  0.00    -0.206 F 
ATOM     72  C   UNL A   1      34.964  32.290  27.789  1.00  0.00     0.006 A 
ENDBRANCH  44  65
BRANCH  56  73
ATOM     73  C   UNL A   1      39.166  32.218  35.884  1.00  0.00     0.057 A 
ATOM     74  C   UNL A   1      38.236  31.707  36.798  1.00  0.00     0.134 A 
ATOM     75  C   UNL A   1      39.591  33.540  36.062  1.00  0.00     0.134 A 
ATOM     76  F   UNL A   1      37.778  30.453  36.674  1.00  0.00    -0.206 F 
ATOM     77  C   UNL A   1      37.728  32.492  37.836  1.00  0.00     0.040 A 
ATOM     78  C   UNL A   1      39.110  34.326  37.110  1.00  0.00     0.040 A 
ATOM     79  F   UNL A   1      40.486  34.086  35.225  1.00  0.00    -0.206 F 
ATOM     80  C   UNL A   1      38.170  33.804  37.996  1.00  0.00     0.006 A 
ENDBRANCH  56  73
ENDBRANCH  30  31
ENDBRANCH  23  25
ENDBRANCH  22  23
ENDBRANCH  21  22
ENDBRANCH   1  21
TORSDOF 16
ENDMDL
