MODEL 1
REMARK VINA RESULT:     -11.1      0.000      0.000
REMARK SMILES C[C@H]([C@@H](C)C(=O)OCCOC(=O)c1ccc(-c2c3nc(c(-c4c(F)cccc4F)c4ccc([nH]4)c(-c4c(F)cccc4F)c4nc(c(-c5c(F)cccc5F)c5ccc2[nH]5)C=C4)C=C3)cc1)n1c(CC#N)nc2ccccc21
REMARK SMILES IDX 8 1 7 2 5 3 6 4 3 5 4 6 2 7 1 8 67 9 68 10 78 11 72 12 73 13
REMARK SMILES IDX 77 14 74 15 76 16 75 17 69 18 70 19 71 20 9 21 10 22 11 23
REMARK SMILES IDX 12 24 13 25 14 26 66 27 15 28 65 29 16 30 17 31 18 32 59 33
REMARK SMILES IDX 19 34 64 35 58 36 60 37 20 38 63 39 57 40 56 41 21 43 47 44
REMARK SMILES IDX 30 45 46 46 31 47 34 48 45 49 61 50 32 51 33 52 44 54 62 55
REMARK SMILES IDX 35 56 22 57 23 58 28 59 24 60 25 61 27 62 29 63 26 64 48 65
REMARK SMILES IDX 49 66 54 67 50 68 51 69 53 70 55 71 52 72 36 73 37 74 42 75
REMARK SMILES IDX 38 76 39 77 41 78 43 79 40 80
REMARK H PARENT 60 42 34 53
REMARK Flexibility Score: inf
ROOT
ATOM      1  C   UNL A   1      38.576  20.185  25.267  1.00  0.00     0.274 C 
ENDROOT
BRANCH   1   2
ATOM      2  O   UNL A   1      38.333  21.393  26.026  1.00  0.00    -0.462 OA
BRANCH   2   3
ATOM      3  C   UNL A   1      37.481  22.293  25.475  1.00  0.00     0.310 C 
ATOM      4  O   UNL A   1      37.535  23.501  25.683  1.00  0.00    -0.252 OA
BRANCH   3   5
ATOM      5  C   UNL A   1      36.342  21.669  24.671  1.00  0.00     0.119 C 
ATOM      6  C   UNL A   1      36.140  22.587  23.470  1.00  0.00     0.022 C 
BRANCH   5   7
ATOM      7  C   UNL A   1      35.059  21.277  25.458  1.00  0.00     0.100 C 
ATOM      8  C   UNL A   1      34.237  22.485  25.951  1.00  0.00     0.032 C 
BRANCH   7   9
ATOM      9  N   UNL A   1      34.194  20.353  24.669  1.00  0.00    -0.323 N 
ATOM     10  C   UNL A   1      32.856  20.619  24.379  1.00  0.00     0.124 A 
ATOM     11  C   UNL A   1      34.172  18.964  24.737  1.00  0.00     0.068 A 
ATOM     12  N   UNL A   1      32.140  19.864  25.202  1.00  0.00    -0.232 NA
ATOM     13  C   UNL A   1      32.881  18.709  25.214  1.00  0.00     0.089 A 
ATOM     14  C   UNL A   1      35.009  17.945  24.276  1.00  0.00     0.028 A 
ATOM     15  C   UNL A   1      32.451  17.397  25.442  1.00  0.00     0.030 A 
ATOM     16  C   UNL A   1      34.479  16.643  24.328  1.00  0.00     0.002 A 
ATOM     17  C   UNL A   1      33.248  16.366  24.937  1.00  0.00     0.002 A 
BRANCH  10  18
ATOM     18  C   UNL A   1      32.389  21.024  23.007  1.00  0.00     0.195 C 
BRANCH  18  19
ATOM     19  C   UNL A   1      32.555  22.475  22.775  1.00  0.00     0.070 C 
ATOM     20  N   UNL A   1      32.731  23.597  22.563  1.00  0.00    -0.198 NA
ENDBRANCH  18  19
ENDBRANCH  10  18
ENDBRANCH   7   9
ENDBRANCH   5   7
ENDBRANCH   3   5
ENDBRANCH   2   3
ENDBRANCH   1   2
BRANCH   1  21
ATOM     21  C   UNL A   1      39.511  19.198  25.975  1.00  0.00     0.275 C 
BRANCH  21  22
ATOM     22  O   UNL A   1      40.845  19.235  25.441  1.00  0.00    -0.458 OA
BRANCH  22  23
ATOM     23  C   UNL A   1      41.813  19.393  26.372  1.00  0.00     0.338 C 
ATOM     24  O   UNL A   1      42.611  18.555  26.761  1.00  0.00    -0.246 OA
BRANCH  23  25
ATOM     25  C   UNL A   1      41.922  20.809  26.740  1.00  0.00     0.060 A 
ATOM     26  C   UNL A   1      41.774  21.746  25.714  1.00  0.00     0.016 A 
ATOM     27  C   UNL A   1      42.263  21.215  28.028  1.00  0.00     0.016 A 
ATOM     28  C   UNL A   1      41.964  23.095  25.958  1.00  0.00     0.010 A 
ATOM     29  C   UNL A   1      42.460  22.577  28.277  1.00  0.00     0.010 A 
ATOM     30  C   UNL A   1      42.323  23.518  27.239  1.00  0.00    -0.014 A 
BRANCH  30  31
ATOM     31  C   UNL A   1      42.638  24.946  27.446  1.00  0.00     0.031 A 
ATOM     32  C   UNL A   1      43.953  25.485  26.968  1.00  0.00     0.074 A 
ATOM     33  C   UNL A   1      41.720  25.759  27.999  1.00  0.00     0.049 A 
ATOM     34  N   UNL A   1      44.463  26.678  27.120  1.00  0.00    -0.248 NA
ATOM     35  C   UNL A   1      44.808  24.554  26.213  1.00  0.00     0.031 C 
ATOM     36  C   UNL A   1      40.377  25.353  28.420  1.00  0.00     0.029 A 
ATOM     37  N   UNL A   1      41.775  27.095  28.295  1.00  0.00    -0.354 N 
ATOM     38  C   UNL A   1      45.710  26.633  26.514  1.00  0.00     0.074 A 
ATOM     39  C   UNL A   1      45.885  25.293  25.998  1.00  0.00     0.031 C 
ATOM     40  C   UNL A   1      39.736  26.420  28.921  1.00  0.00     0.029 A 
ATOM     41  C   UNL A   1      40.640  27.566  28.908  1.00  0.00     0.049 A 
ATOM     42  H   UNL A   1      42.552  27.663  28.090  1.00  0.00     0.167 HD
ATOM     43  C   UNL A   1      46.624  27.626  26.404  1.00  0.00     0.037 A 
ATOM     44  C   UNL A   1      40.379  28.777  29.433  1.00  0.00     0.037 A 
ATOM     45  C   UNL A   1      46.421  28.960  26.904  1.00  0.00     0.049 A 
ATOM     46  C   UNL A   1      41.441  29.840  29.362  1.00  0.00     0.074 A 
ATOM     47  C   UNL A   1      47.276  30.046  26.839  1.00  0.00     0.029 A 
ATOM     48  N   UNL A   1      45.278  29.389  27.563  1.00  0.00    -0.354 N 
ATOM     49  N   UNL A   1      42.630  29.786  28.810  1.00  0.00    -0.248 NA
ATOM     50  C   UNL A   1      41.130  31.127  29.996  1.00  0.00     0.031 C 
ATOM     51  C   UNL A   1      46.671  31.118  27.502  1.00  0.00     0.029 A 
ATOM     52  C   UNL A   1      45.415  30.717  27.932  1.00  0.00     0.049 A 
ATOM     53  H   UNL A   1      44.486  28.833  27.741  1.00  0.00     0.167 HD
ATOM     54  C   UNL A   1      43.198  31.038  29.004  1.00  0.00     0.074 A 
ATOM     55  C   UNL A   1      42.216  31.833  29.714  1.00  0.00     0.031 C 
ATOM     56  C   UNL A   1      44.419  31.490  28.631  1.00  0.00     0.037 A 
BRANCH  43  57
ATOM     57  C   UNL A   1      47.938  27.292  25.760  1.00  0.00     0.057 A 
ATOM     58  C   UNL A   1      48.154  27.433  24.383  1.00  0.00     0.134 A 
ATOM     59  C   UNL A   1      49.011  26.841  26.539  1.00  0.00     0.134 A 
ATOM     60  F   UNL A   1      47.162  27.842  23.577  1.00  0.00    -0.206 F 
ATOM     61  C   UNL A   1      49.384  27.117  23.801  1.00  0.00     0.040 A 
ATOM     62  C   UNL A   1      50.253  26.550  25.974  1.00  0.00     0.040 A 
ATOM     63  F   UNL A   1      48.873  26.686  27.864  1.00  0.00    -0.206 F 
ATOM     64  C   UNL A   1      50.440  26.681  24.600  1.00  0.00     0.006 A 
ENDBRANCH  43  57
BRANCH  44  65
ATOM     65  C   UNL A   1      39.077  29.038  30.098  1.00  0.00     0.057 A 
ATOM     66  C   UNL A   1      37.997  29.577  29.392  1.00  0.00     0.134 A 
ATOM     67  C   UNL A   1      38.887  28.769  31.460  1.00  0.00     0.134 A 
ATOM     68  F   UNL A   1      38.123  29.878  28.091  1.00  0.00    -0.206 F 
ATOM     69  C   UNL A   1      36.780  29.855  30.017  1.00  0.00     0.040 A 
ATOM     70  C   UNL A   1      37.668  29.014  32.091  1.00  0.00     0.040 A 
ATOM     71  F   UNL A   1      39.883  28.251  32.194  1.00  0.00    -0.206 F 
ATOM     72  C   UNL A   1      36.611  29.567  31.370  1.00  0.00     0.006 A 
ENDBRANCH  44  65
BRANCH  56  73
ATOM     73  C   UNL A   1      44.742  32.921  28.946  1.00  0.00     0.057 A 
ATOM     74  C   UNL A   1      44.397  33.966  28.081  1.00  0.00     0.134 A 
ATOM     75  C   UNL A   1      45.376  33.258  30.149  1.00  0.00     0.134 A 
ATOM     76  F   UNL A   1      43.801  33.709  26.906  1.00  0.00    -0.206 F 
ATOM     77  C   UNL A   1      44.694  35.295  28.389  1.00  0.00     0.040 A 
ATOM     78  C   UNL A   1      45.652  34.584  30.481  1.00  0.00     0.040 A 
ATOM     79  F   UNL A   1      45.725  32.304  31.026  1.00  0.00    -0.206 F 
ATOM     80  C   UNL A   1      45.316  35.607  29.596  1.00  0.00     0.006 A 
ENDBRANCH  56  73
ENDBRANCH  30  31
ENDBRANCH  23  25
ENDBRANCH  22  23
ENDBRANCH  21  22
ENDBRANCH   1  21
TORSDOF 15
ENDMDL
MODEL 2
REMARK VINA RESULT:     -10.9      4.726      8.401
REMARK SMILES C[C@H]([C@@H](C)C(=O)OCCOC(=O)c1ccc(-c2c3nc(c(-c4c(F)cccc4F)c4ccc([nH]4)c(-c4c(F)cccc4F)c4nc(c(-c5c(F)cccc5F)c5ccc2[nH]5)C=C4)C=C3)cc1)n1c(CC#N)nc2ccccc21
REMARK SMILES IDX 8 1 7 2 5 3 6 4 3 5 4 6 2 7 1 8 67 9 68 10 78 11 72 12 73 13
REMARK SMILES IDX 77 14 74 15 76 16 75 17 69 18 70 19 71 20 9 21 10 22 11 23
REMARK SMILES IDX 12 24 13 25 14 26 66 27 15 28 65 29 16 30 17 31 18 32 59 33
REMARK SMILES IDX 19 34 64 35 58 36 60 37 20 38 63 39 57 40 56 41 21 43 47 44
REMARK SMILES IDX 30 45 46 46 31 47 34 48 45 49 61 50 32 51 33 52 44 54 62 55
REMARK SMILES IDX 35 56 22 57 23 58 28 59 24 60 25 61 27 62 29 63 26 64 48 65
REMARK SMILES IDX 49 66 54 67 50 68 51 69 53 70 55 71 52 72 36 73 37 74 42 75
REMARK SMILES IDX 38 76 39 77 41 78 43 79 40 80
REMARK H PARENT 60 42 34 53
REMARK Flexibility Score: inf
ROOT
ATOM      1  C   UNL A   1      39.735  21.725  26.126  1.00  0.00     0.274 C 
ENDROOT
BRANCH   1   2
ATOM      2  O   UNL A   1      38.415  22.118  25.683  1.00  0.00    -0.462 OA
BRANCH   2   3
ATOM      3  C   UNL A   1      37.638  21.141  25.152  1.00  0.00     0.310 C 
ATOM      4  O   UNL A   1      38.030  19.999  24.936  1.00  0.00    -0.252 OA
BRANCH   3   5
ATOM      5  C   UNL A   1      36.256  21.612  24.706  1.00  0.00     0.119 C 
ATOM      6  C   UNL A   1      36.367  23.127  24.565  1.00  0.00     0.022 C 
BRANCH   5   7
ATOM      7  C   UNL A   1      35.038  21.087  25.518  1.00  0.00     0.100 C 
ATOM      8  C   UNL A   1      34.207  22.200  26.186  1.00  0.00     0.032 C 
BRANCH   7   9
ATOM      9  N   UNL A   1      34.158  20.217  24.684  1.00  0.00    -0.323 N 
ATOM     10  C   UNL A   1      32.828  20.524  24.399  1.00  0.00     0.124 A 
ATOM     11  C   UNL A   1      34.106  18.827  24.691  1.00  0.00     0.068 A 
ATOM     12  N   UNL A   1      32.091  19.749  25.184  1.00  0.00    -0.232 NA
ATOM     13  C   UNL A   1      32.806  18.580  25.149  1.00  0.00     0.089 A 
ATOM     14  C   UNL A   1      34.924  17.811  24.190  1.00  0.00     0.028 A 
ATOM     15  C   UNL A   1      32.347  17.268  25.316  1.00  0.00     0.030 A 
ATOM     16  C   UNL A   1      34.365  16.520  24.182  1.00  0.00     0.002 A 
ATOM     17  C   UNL A   1      33.124  16.244  24.772  1.00  0.00     0.002 A 
BRANCH  10  18
ATOM     18  C   UNL A   1      32.379  20.999  23.044  1.00  0.00     0.195 C 
BRANCH  18  19
ATOM     19  C   UNL A   1      32.785  22.398  22.787  1.00  0.00     0.070 C 
ATOM     20  N   UNL A   1      33.153  23.479  22.610  1.00  0.00    -0.198 NA
ENDBRANCH  18  19
ENDBRANCH  10  18
ENDBRANCH   7   9
ENDBRANCH   5   7
ENDBRANCH   3   5
ENDBRANCH   2   3
ENDBRANCH   1   2
BRANCH   1  21
ATOM     21  C   UNL A   1      40.653  22.913  26.437  1.00  0.00     0.275 C 
BRANCH  21  22
ATOM     22  O   UNL A   1      39.926  24.148  26.548  1.00  0.00    -0.458 OA
BRANCH  22  23
ATOM     23  C   UNL A   1      40.655  25.250  26.261  1.00  0.00     0.338 C 
ATOM     24  O   UNL A   1      41.066  25.603  25.168  1.00  0.00    -0.246 OA
BRANCH  23  25
ATOM     25  C   UNL A   1      40.733  26.115  27.444  1.00  0.00     0.060 A 
ATOM     26  C   UNL A   1      39.782  25.909  28.446  1.00  0.00     0.016 A 
ATOM     27  C   UNL A   1      41.642  27.167  27.533  1.00  0.00     0.016 A 
ATOM     28  C   UNL A   1      39.724  26.748  29.546  1.00  0.00     0.010 A 
ATOM     29  C   UNL A   1      41.583  28.019  28.640  1.00  0.00     0.010 A 
ATOM     30  C   UNL A   1      40.615  27.818  29.643  1.00  0.00    -0.014 A 
BRANCH  30  31
ATOM     31  C   UNL A   1      40.456  28.768  30.762  1.00  0.00     0.031 A 
ATOM     32  C   UNL A   1      39.391  29.821  30.685  1.00  0.00     0.074 A 
ATOM     33  C   UNL A   1      41.219  28.638  31.862  1.00  0.00     0.049 A 
ATOM     34  N   UNL A   1      39.135  30.800  31.510  1.00  0.00    -0.248 NA
ATOM     35  C   UNL A   1      38.492  29.761  29.521  1.00  0.00     0.031 C 
ATOM     36  C   UNL A   1      42.225  27.595  32.074  1.00  0.00     0.029 A 
ATOM     37  N   UNL A   1      41.262  29.385  33.010  1.00  0.00    -0.354 N 
ATOM     38  C   UNL A   1      38.071  31.494  30.952  1.00  0.00     0.074 A 
ATOM     39  C   UNL A   1      37.733  30.830  29.712  1.00  0.00     0.031 C 
ATOM     40  C   UNL A   1      42.786  27.769  33.281  1.00  0.00     0.029 A 
ATOM     41  C   UNL A   1      42.222  28.965  33.898  1.00  0.00     0.049 A 
ATOM     42  H   UNL A   1      40.665  30.148  33.181  1.00  0.00     0.167 HD
ATOM     43  C   UNL A   1      37.438  32.589  31.436  1.00  0.00     0.037 A 
ATOM     44  C   UNL A   1      42.622  29.510  35.061  1.00  0.00     0.037 A 
ATOM     45  C   UNL A   1      37.774  33.221  32.683  1.00  0.00     0.049 A 
ATOM     46  C   UNL A   1      41.951  30.769  35.538  1.00  0.00     0.074 A 
ATOM     47  C   UNL A   1      37.192  34.330  33.273  1.00  0.00     0.029 A 
ATOM     48  N   UNL A   1      38.784  32.798  33.535  1.00  0.00    -0.354 N 
ATOM     49  N   UNL A   1      40.962  31.437  34.994  1.00  0.00    -0.248 NA
ATOM     50  C   UNL A   1      42.460  31.356  36.784  1.00  0.00     0.031 C 
ATOM     51  C   UNL A   1      37.883  34.607  34.457  1.00  0.00     0.029 A 
ATOM     52  C   UNL A   1      38.859  33.637  34.634  1.00  0.00     0.049 A 
ATOM     53  H   UNL A   1      39.361  32.016  33.382  1.00  0.00     0.167 HD
ATOM     54  C   UNL A   1      40.710  32.505  35.843  1.00  0.00     0.074 A 
ATOM     55  C   UNL A   1      41.643  32.388  36.946  1.00  0.00     0.031 C 
ATOM     56  C   UNL A   1      39.792  33.494  35.724  1.00  0.00     0.037 A 
BRANCH  43  57
ATOM     57  C   UNL A   1      36.355  33.194  30.591  1.00  0.00     0.057 A 
ATOM     58  C   UNL A   1      34.995  33.011  30.873  1.00  0.00     0.134 A 
ATOM     59  C   UNL A   1      36.683  33.993  29.488  1.00  0.00     0.134 A 
ATOM     60  F   UNL A   1      34.612  32.242  31.903  1.00  0.00    -0.206 F 
ATOM     61  C   UNL A   1      34.001  33.583  30.075  1.00  0.00     0.040 A 
ATOM     62  C   UNL A   1      35.700  34.593  28.700  1.00  0.00     0.040 A 
ATOM     63  F   UNL A   1      37.967  34.211  29.163  1.00  0.00    -0.206 F 
ATOM     64  C   UNL A   1      34.354  34.382  28.990  1.00  0.00     0.006 A 
ENDBRANCH  43  57
BRANCH  44  65
ATOM     65  C   UNL A   1      43.729  28.892  35.833  1.00  0.00     0.057 A 
ATOM     66  C   UNL A   1      45.054  29.308  35.661  1.00  0.00     0.134 A 
ATOM     67  C   UNL A   1      43.493  27.858  36.749  1.00  0.00     0.134 A 
ATOM     68  F   UNL A   1      45.349  30.277  34.783  1.00  0.00    -0.206 F 
ATOM     69  C   UNL A   1      46.105  28.711  36.360  1.00  0.00     0.040 A 
ATOM     70  C   UNL A   1      44.529  27.272  37.475  1.00  0.00     0.040 A 
ATOM     71  F   UNL A   1      42.245  27.413  36.961  1.00  0.00    -0.206 F 
ATOM     72  C   UNL A   1      45.842  27.692  37.275  1.00  0.00     0.006 A 
ENDBRANCH  44  65
BRANCH  56  73
ATOM     73  C   UNL A   1      39.724  34.500  36.835  1.00  0.00     0.057 A 
ATOM     74  C   UNL A   1      40.383  35.733  36.759  1.00  0.00     0.134 A 
ATOM     75  C   UNL A   1      38.960  34.243  37.980  1.00  0.00     0.134 A 
ATOM     76  F   UNL A   1      41.144  36.035  35.695  1.00  0.00    -0.206 F 
ATOM     77  C   UNL A   1      40.305  36.666  37.795  1.00  0.00     0.040 A 
ATOM     78  C   UNL A   1      38.850  35.179  39.009  1.00  0.00     0.040 A 
ATOM     79  F   UNL A   1      38.296  33.085  38.111  1.00  0.00    -0.206 F 
ATOM     80  C   UNL A   1      39.530  36.392  38.921  1.00  0.00     0.006 A 
ENDBRANCH  56  73
ENDBRANCH  30  31
ENDBRANCH  23  25
ENDBRANCH  22  23
ENDBRANCH  21  22
ENDBRANCH   1  21
TORSDOF 15
ENDMDL
MODEL 3
REMARK VINA RESULT:     -10.8      1.157      6.347
REMARK SMILES C[C@H]([C@@H](C)C(=O)OCCOC(=O)c1ccc(-c2c3nc(c(-c4c(F)cccc4F)c4ccc([nH]4)c(-c4c(F)cccc4F)c4nc(c(-c5c(F)cccc5F)c5ccc2[nH]5)C=C4)C=C3)cc1)n1c(CC#N)nc2ccccc21
REMARK SMILES IDX 8 1 7 2 5 3 6 4 3 5 4 6 2 7 1 8 67 9 68 10 78 11 72 12 73 13
REMARK SMILES IDX 77 14 74 15 76 16 75 17 69 18 70 19 71 20 9 21 10 22 11 23
REMARK SMILES IDX 12 24 13 25 14 26 66 27 15 28 65 29 16 30 17 31 18 32 59 33
REMARK SMILES IDX 19 34 64 35 58 36 60 37 20 38 63 39 57 40 56 41 21 43 47 44
REMARK SMILES IDX 30 45 46 46 31 47 34 48 45 49 61 50 32 51 33 52 44 54 62 55
REMARK SMILES IDX 35 56 22 57 23 58 28 59 24 60 25 61 27 62 29 63 26 64 48 65
REMARK SMILES IDX 49 66 54 67 50 68 51 69 53 70 55 71 52 72 36 73 37 74 42 75
REMARK SMILES IDX 38 76 39 77 41 78 43 79 40 80
REMARK H PARENT 60 42 34 53
REMARK Flexibility Score: inf
ROOT
ATOM      1  C   UNL A   1      38.151  20.213  24.994  1.00  0.00     0.274 C 
ENDROOT
BRANCH   1   2
ATOM      2  O   UNL A   1      38.327  21.517  25.594  1.00  0.00    -0.462 OA
BRANCH   2   3
ATOM      3  C   UNL A   1      37.343  22.424  25.373  1.00  0.00     0.310 C 
ATOM      4  O   UNL A   1      37.337  23.555  25.847  1.00  0.00    -0.252 OA
BRANCH   3   5
ATOM      5  C   UNL A   1      36.151  21.877  24.591  1.00  0.00     0.119 C 
ATOM      6  C   UNL A   1      35.869  22.909  23.503  1.00  0.00     0.022 C 
BRANCH   5   7
ATOM      7  C   UNL A   1      34.924  21.402  25.420  1.00  0.00     0.100 C 
ATOM      8  C   UNL A   1      34.042  22.553  25.944  1.00  0.00     0.032 C 
BRANCH   7   9
ATOM      9  N   UNL A   1      34.094  20.423  24.658  1.00  0.00    -0.323 N 
ATOM     10  C   UNL A   1      32.744  20.623  24.374  1.00  0.00     0.124 A 
ATOM     11  C   UNL A   1      34.135  19.037  24.756  1.00  0.00     0.068 A 
ATOM     12  N   UNL A   1      32.069  19.855  25.219  1.00  0.00    -0.232 NA
ATOM     13  C   UNL A   1      32.860  18.735  25.250  1.00  0.00     0.089 A 
ATOM     14  C   UNL A   1      35.013  18.045  24.310  1.00  0.00     0.028 A 
ATOM     15  C   UNL A   1      32.490  17.411  25.509  1.00  0.00     0.030 A 
ATOM     16  C   UNL A   1      34.541  16.722  24.395  1.00  0.00     0.002 A 
ATOM     17  C   UNL A   1      33.328  16.405  25.020  1.00  0.00     0.002 A 
BRANCH  10  18
ATOM     18  C   UNL A   1      32.249  20.977  22.997  1.00  0.00     0.195 C 
BRANCH  18  19
ATOM     19  C   UNL A   1      32.330  22.431  22.740  1.00  0.00     0.070 C 
ATOM     20  N   UNL A   1      32.400  23.575  22.594  1.00  0.00    -0.198 NA
ENDBRANCH  18  19
ENDBRANCH  10  18
ENDBRANCH   7   9
ENDBRANCH   5   7
ENDBRANCH   3   5
ENDBRANCH   2   3
ENDBRANCH   1   2
BRANCH   1  21
ATOM     21  C   UNL A   1      39.222  19.199  25.413  1.00  0.00     0.275 C 
BRANCH  21  22
ATOM     22  O   UNL A   1      40.060  19.697  26.469  1.00  0.00    -0.458 OA
BRANCH  22  23
ATOM     23  C   UNL A   1      41.386  19.574  26.232  1.00  0.00     0.338 C 
ATOM     24  O   UNL A   1      41.960  18.632  25.710  1.00  0.00    -0.246 OA
BRANCH  23  25
ATOM     25  C   UNL A   1      42.061  20.846  26.513  1.00  0.00     0.060 A 
ATOM     26  C   UNL A   1      42.216  21.200  27.855  1.00  0.00     0.016 A 
ATOM     27  C   UNL A   1      42.440  21.722  25.499  1.00  0.00     0.016 A 
ATOM     28  C   UNL A   1      42.749  22.429  28.202  1.00  0.00     0.010 A 
ATOM     29  C   UNL A   1      42.975  22.967  25.846  1.00  0.00     0.010 A 
ATOM     30  C   UNL A   1      43.119  23.327  27.200  1.00  0.00    -0.014 A 
BRANCH  30  31
ATOM     31  C   UNL A   1      43.571  24.676  27.594  1.00  0.00     0.031 A 
ATOM     32  C   UNL A   1      42.563  25.681  28.064  1.00  0.00     0.074 A 
ATOM     33  C   UNL A   1      44.885  24.967  27.592  1.00  0.00     0.049 A 
ATOM     34  N   UNL A   1      42.730  26.938  28.376  1.00  0.00    -0.248 NA
ATOM     35  C   UNL A   1      41.177  25.203  28.203  1.00  0.00     0.031 C 
ATOM     36  C   UNL A   1      45.955  24.034  27.235  1.00  0.00     0.029 A 
ATOM     37  N   UNL A   1      45.541  26.128  27.905  1.00  0.00    -0.354 N 
ATOM     38  C   UNL A   1      41.471  27.413  28.714  1.00  0.00     0.074 A 
ATOM     39  C   UNL A   1      40.545  26.312  28.561  1.00  0.00     0.031 C 
ATOM     40  C   UNL A   1      47.137  24.661  27.350  1.00  0.00     0.029 A 
ATOM     41  C   UNL A   1      46.901  26.050  27.731  1.00  0.00     0.049 A 
ATOM     42  H   UNL A   1      45.083  26.939  28.222  1.00  0.00     0.167 HD
ATOM     43  C   UNL A   1      41.125  28.659  29.113  1.00  0.00     0.037 A 
ATOM     44  C   UNL A   1      47.842  27.007  27.832  1.00  0.00     0.037 A 
ATOM     45  C   UNL A   1      42.065  29.736  29.281  1.00  0.00     0.049 A 
ATOM     46  C   UNL A   1      47.419  28.401  28.205  1.00  0.00     0.074 A 
ATOM     47  C   UNL A   1      41.824  31.036  29.689  1.00  0.00     0.029 A 
ATOM     48  N   UNL A   1      43.429  29.635  29.050  1.00  0.00    -0.354 N 
ATOM     49  N   UNL A   1      46.223  28.852  28.500  1.00  0.00    -0.248 NA
ATOM     50  C   UNL A   1      48.474  29.421  28.250  1.00  0.00     0.031 C 
ATOM     51  C   UNL A   1      43.035  31.735  29.657  1.00  0.00     0.029 A 
ATOM     52  C   UNL A   1      44.040  30.856  29.282  1.00  0.00     0.049 A 
ATOM     53  H   UNL A   1      43.894  28.817  28.763  1.00  0.00     0.167 HD
ATOM     54  C   UNL A   1      46.385  30.199  28.792  1.00  0.00     0.074 A 
ATOM     55  C   UNL A   1      47.798  30.488  28.651  1.00  0.00     0.031 C 
ATOM     56  C   UNL A   1      45.451  31.116  29.144  1.00  0.00     0.037 A 
BRANCH  43  57
ATOM     57  C   UNL A   1      39.668  28.933  29.348  1.00  0.00     0.057 A 
ATOM     58  C   UNL A   1      38.803  29.316  28.316  1.00  0.00     0.134 A 
ATOM     59  C   UNL A   1      39.120  28.789  30.630  1.00  0.00     0.134 A 
ATOM     60  F   UNL A   1      39.266  29.491  27.069  1.00  0.00    -0.206 F 
ATOM     61  C   UNL A   1      37.449  29.567  28.553  1.00  0.00     0.040 A 
ATOM     62  C   UNL A   1      37.764  29.009  30.874  1.00  0.00     0.040 A 
ATOM     63  F   UNL A   1      39.893  28.424  31.664  1.00  0.00    -0.206 F 
ATOM     64  C   UNL A   1      36.926  29.406  29.835  1.00  0.00     0.006 A 
ENDBRANCH  43  57
BRANCH  44  65
ATOM     65  C   UNL A   1      49.264  26.688  27.545  1.00  0.00     0.057 A 
ATOM     66  C   UNL A   1      50.129  26.254  28.554  1.00  0.00     0.134 A 
ATOM     67  C   UNL A   1      49.796  26.826  26.256  1.00  0.00     0.134 A 
ATOM     68  F   UNL A   1      49.686  26.124  29.813  1.00  0.00    -0.206 F 
ATOM     69  C   UNL A   1      51.474  25.982  28.299  1.00  0.00     0.040 A 
ATOM     70  C   UNL A   1      51.131  26.531  25.979  1.00  0.00     0.040 A 
ATOM     71  F   UNL A   1      49.019  27.238  25.242  1.00  0.00    -0.206 F 
ATOM     72  C   UNL A   1      51.977  26.116  27.005  1.00  0.00     0.006 A 
ENDBRANCH  44  65
BRANCH  56  73
ATOM     73  C   UNL A   1      45.937  32.504  29.443  1.00  0.00     0.057 A 
ATOM     74  C   UNL A   1      46.001  33.494  28.456  1.00  0.00     0.134 A 
ATOM     75  C   UNL A   1      46.310  32.860  30.745  1.00  0.00     0.134 A 
ATOM     76  F   UNL A   1      45.670  33.214  27.186  1.00  0.00    -0.206 F 
ATOM     77  C   UNL A   1      46.444  34.785  28.749  1.00  0.00     0.040 A 
ATOM     78  C   UNL A   1      46.727  34.154  31.055  1.00  0.00     0.040 A 
ATOM     79  F   UNL A   1      46.263  31.959  31.738  1.00  0.00    -0.206 F 
ATOM     80  C   UNL A   1      46.802  35.120  30.053  1.00  0.00     0.006 A 
ENDBRANCH  56  73
ENDBRANCH  30  31
ENDBRANCH  23  25
ENDBRANCH  22  23
ENDBRANCH  21  22
ENDBRANCH   1  21
TORSDOF 15
ENDMDL
