MODEL 1
REMARK VINA RESULT:     -10.1      0.000      0.000
REMARK SMILES CN(c1ccccc1)c1nc(OCC(=O)OCCOC(=O)c2ccc(-c3c4nc(c(-c5c(F)cccc5F)c5ccc([nH]5)c(-c5c(F)cccc5F)c5nc(c(-c6c(F)cccc6F)c6ccc3[nH]6)C=C5)C=C4)cc2)cc(-c2ccncc2)n1
REMARK SMILES IDX 17 1 16 2 14 3 15 4 13 5 12 6 11 7 9 8 10 9 84 10 77 11
REMARK SMILES IDX 76 12 2 13 1 14 3 15 4 16 8 17 5 18 7 19 6 20 78 21 79 22
REMARK SMILES IDX 83 23 80 24 82 25 81 26 18 27 19 28 20 29 21 30 22 31 23 32
REMARK SMILES IDX 75 33 24 34 74 35 25 36 26 37 27 38 68 39 28 40 73 41 67 42
REMARK SMILES IDX 69 43 29 44 72 45 66 46 65 47 30 49 56 50 39 51 55 52 40 53
REMARK SMILES IDX 43 54 54 55 70 56 41 57 42 58 53 60 71 61 44 62 31 63 32 64
REMARK SMILES IDX 37 65 33 66 34 67 36 68 38 69 35 70 57 71 58 72 63 73 59 74
REMARK SMILES IDX 60 75 62 76 64 77 61 78 45 79 46 80 51 81 47 82 48 83 50 84
REMARK SMILES IDX 52 85 49 86
REMARK H PARENT 69 48 43 59
REMARK Flexibility Score: inf
ROOT
ATOM      1  C   UNL A   1      44.607  18.811  24.638  1.00  0.00     0.274 C 
ENDROOT
BRANCH   1   2
ATOM      2  O   UNL A   1      44.750  20.155  24.137  1.00  0.00    -0.460 OA
BRANCH   2   3
ATOM      3  C   UNL A   1      45.800  20.860  24.641  1.00  0.00     0.344 C 
ATOM      4  O   UNL A   1      46.750  20.369  25.242  1.00  0.00    -0.248 OA
BRANCH   3   5
ATOM      5  C   UNL A   1      45.718  22.348  24.328  1.00  0.00     0.353 C 
BRANCH   5   6
ATOM      6  O   UNL A   1      46.547  23.178  25.117  1.00  0.00    -0.466 OA
BRANCH   6   7
ATOM      7  C   UNL A   1      46.404  24.526  24.982  1.00  0.00     0.219 A 
ATOM      8  C   UNL A   1      47.556  26.454  24.478  1.00  0.00     0.233 A 
ATOM      9  N   UNL A   1      47.512  25.113  24.524  1.00  0.00    -0.177 NA
ATOM     10  N   UNL A   1      46.527  27.227  24.856  1.00  0.00    -0.212 NA
ATOM     11  C   UNL A   1      45.408  26.615  25.279  1.00  0.00     0.080 A 
ATOM     12  C   UNL A   1      45.300  25.241  25.362  1.00  0.00     0.097 A 
BRANCH   8  13
ATOM     13  N   UNL A   1      48.729  27.052  24.001  1.00  0.00    -0.314 N 
ATOM     14  C   UNL A   1      48.816  27.122  22.549  1.00  0.00     0.153 C 
BRANCH  13  15
ATOM     15  C   UNL A   1      49.890  27.250  24.764  1.00  0.00     0.043 A 
ATOM     16  C   UNL A   1      50.906  26.276  24.787  1.00  0.00     0.026 A 
ATOM     17  C   UNL A   1      50.078  28.397  25.546  1.00  0.00     0.026 A 
ATOM     18  C   UNL A   1      52.067  26.445  25.542  1.00  0.00     0.002 A 
ATOM     19  C   UNL A   1      51.234  28.567  26.314  1.00  0.00     0.002 A 
ATOM     20  C   UNL A   1      52.230  27.594  26.308  1.00  0.00     0.000 A 
ENDBRANCH  13  15
ENDBRANCH   8  13
BRANCH  11  21
ATOM     21  C   UNL A   1      44.330  27.518  25.683  1.00  0.00     0.004 A 
ATOM     22  C   UNL A   1      43.019  27.307  25.248  1.00  0.00     0.030 A 
ATOM     23  C   UNL A   1      44.565  28.598  26.541  1.00  0.00     0.030 A 
ATOM     24  C   UNL A   1      42.029  28.197  25.628  1.00  0.00     0.111 A 
ATOM     25  C   UNL A   1      43.505  29.429  26.877  1.00  0.00     0.111 A 
ATOM     26  N   UNL A   1      42.248  29.265  26.421  1.00  0.00    -0.265 NA
ENDBRANCH  11  21
ENDBRANCH   6   7
ENDBRANCH   5   6
ENDBRANCH   3   5
ENDBRANCH   2   3
ENDBRANCH   1   2
BRANCH   1  27
ATOM     27  C   UNL A   1      43.391  18.688  25.552  1.00  0.00     0.275 C 
BRANCH  27  28
ATOM     28  O   UNL A   1      42.229  19.261  24.922  1.00  0.00    -0.458 OA
BRANCH  28  29
ATOM     29  C   UNL A   1      41.252  19.630  25.781  1.00  0.00     0.338 C 
ATOM     30  O   UNL A   1      40.220  19.024  26.007  1.00  0.00    -0.246 OA
BRANCH  29  31
ATOM     31  C   UNL A   1      41.587  20.880  26.495  1.00  0.00     0.060 A 
ATOM     32  C   UNL A   1      41.336  21.038  27.861  1.00  0.00     0.016 A 
ATOM     33  C   UNL A   1      42.030  21.966  25.736  1.00  0.00     0.016 A 
ATOM     34  C   UNL A   1      41.495  22.292  28.456  1.00  0.00     0.010 A 
ATOM     35  C   UNL A   1      42.253  23.202  26.346  1.00  0.00     0.010 A 
ATOM     36  C   UNL A   1      41.983  23.377  27.710  1.00  0.00    -0.014 A 
BRANCH  36  37
ATOM     37  C   UNL A   1      42.336  24.658  28.369  1.00  0.00     0.031 A 
ATOM     38  C   UNL A   1      41.329  25.751  28.566  1.00  0.00     0.074 A 
ATOM     39  C   UNL A   1      43.617  24.858  28.726  1.00  0.00     0.049 A 
ATOM     40  N   UNL A   1      41.509  26.989  28.955  1.00  0.00    -0.248 NA
ATOM     41  C   UNL A   1      39.932  25.411  28.279  1.00  0.00     0.031 C 
ATOM     42  C   UNL A   1      44.696  23.880  28.573  1.00  0.00     0.029 A 
ATOM     43  N   UNL A   1      44.232  25.956  29.268  1.00  0.00    -0.354 N 
ATOM     44  C   UNL A   1      40.256  27.587  28.918  1.00  0.00     0.074 A 
ATOM     45  C   UNL A   1      39.321  26.573  28.471  1.00  0.00     0.031 C 
ATOM     46  C   UNL A   1      45.841  24.420  29.010  1.00  0.00     0.029 A 
ATOM     47  C   UNL A   1      45.585  25.796  29.422  1.00  0.00     0.049 A 
ATOM     48  H   UNL A   1      43.751  26.776  29.523  1.00  0.00     0.167 HD
ATOM     49  C   UNL A   1      39.921  28.864  29.229  1.00  0.00     0.037 A 
ATOM     50  C   UNL A   1      46.530  26.670  29.812  1.00  0.00     0.037 A 
ATOM     51  C   UNL A   1      40.852  29.853  29.713  1.00  0.00     0.049 A 
ATOM     52  C   UNL A   1      46.137  28.066  30.175  1.00  0.00     0.074 A 
ATOM     53  C   UNL A   1      40.600  31.157  30.108  1.00  0.00     0.029 A 
ATOM     54  N   UNL A   1      42.213  29.644  29.877  1.00  0.00    -0.354 N 
ATOM     55  N   UNL A   1      44.953  28.624  30.125  1.00  0.00    -0.248 NA
ATOM     56  C   UNL A   1      47.208  28.951  30.646  1.00  0.00     0.031 C 
ATOM     57  C   UNL A   1      41.814  31.743  30.489  1.00  0.00     0.029 A 
ATOM     58  C   UNL A   1      42.815  30.794  30.359  1.00  0.00     0.049 A 
ATOM     59  H   UNL A   1      42.681  28.800  29.681  1.00  0.00     0.167 HD
ATOM     60  C   UNL A   1      45.134  29.931  30.549  1.00  0.00     0.074 A 
ATOM     61  C   UNL A   1      46.539  30.074  30.877  1.00  0.00     0.031 C 
ATOM     62  C   UNL A   1      44.219  30.926  30.653  1.00  0.00     0.037 A 
BRANCH  49  63
ATOM     63  C   UNL A   1      38.491  29.277  29.040  1.00  0.00     0.057 A 
ATOM     64  C   UNL A   1      37.582  29.312  30.104  1.00  0.00     0.134 A 
ATOM     65  C   UNL A   1      38.034  29.700  27.784  1.00  0.00     0.134 A 
ATOM     66  F   UNL A   1      37.954  28.907  31.328  1.00  0.00    -0.206 F 
ATOM     67  C   UNL A   1      36.264  29.740  29.924  1.00  0.00     0.040 A 
ATOM     68  C   UNL A   1      36.724  30.148  27.597  1.00  0.00     0.040 A 
ATOM     69  F   UNL A   1      38.856  29.699  26.725  1.00  0.00    -0.206 F 
ATOM     70  C   UNL A   1      35.835  30.166  28.669  1.00  0.00     0.006 A 
ENDBRANCH  49  63
BRANCH  50  71
ATOM     71  C   UNL A   1      47.937  26.218  29.850  1.00  0.00     0.057 A 
ATOM     72  C   UNL A   1      48.754  26.316  28.721  1.00  0.00     0.134 A 
ATOM     73  C   UNL A   1      48.522  25.782  31.045  1.00  0.00     0.134 A 
ATOM     74  F   UNL A   1      48.241  26.722  27.550  1.00  0.00    -0.206 F 
ATOM     75  C   UNL A   1      50.112  26.003  28.779  1.00  0.00     0.040 A 
ATOM     76  C   UNL A   1      49.881  25.483  31.122  1.00  0.00     0.040 A 
ATOM     77  F   UNL A   1      47.787  25.688  32.163  1.00  0.00    -0.206 F 
ATOM     78  C   UNL A   1      50.681  25.597  29.987  1.00  0.00     0.006 A 
ENDBRANCH  50  71
BRANCH  62  79
ATOM     79  C   UNL A   1      44.724  32.250  31.131  1.00  0.00     0.057 A 
ATOM     80  C   UNL A   1      44.760  32.567  32.495  1.00  0.00     0.134 A 
ATOM     81  C   UNL A   1      45.172  33.217  30.225  1.00  0.00     0.134 A 
ATOM     82  F   UNL A   1      44.327  31.685  33.408  1.00  0.00    -0.206 F 
ATOM     83  C   UNL A   1      45.206  33.811  32.940  1.00  0.00     0.040 A 
ATOM     84  C   UNL A   1      45.635  34.461  30.659  1.00  0.00     0.040 A 
ATOM     85  F   UNL A   1      45.162  32.972  28.906  1.00  0.00    -0.206 F 
ATOM     86  C   UNL A   1      45.646  34.762  32.020  1.00  0.00     0.006 A 
ENDBRANCH  62  79
ENDBRANCH  36  37
ENDBRANCH  29  31
ENDBRANCH  28  29
ENDBRANCH  27  28
ENDBRANCH   1  27
TORSDOF 16
ENDMDL
MODEL 2
REMARK VINA RESULT:      -9.6      0.715      6.047
REMARK SMILES CN(c1ccccc1)c1nc(OCC(=O)OCCOC(=O)c2ccc(-c3c4nc(c(-c5c(F)cccc5F)c5ccc([nH]5)c(-c5c(F)cccc5F)c5nc(c(-c6c(F)cccc6F)c6ccc3[nH]6)C=C5)C=C4)cc2)cc(-c2ccncc2)n1
REMARK SMILES IDX 17 1 16 2 14 3 15 4 13 5 12 6 11 7 9 8 10 9 84 10 77 11
REMARK SMILES IDX 76 12 2 13 1 14 3 15 4 16 8 17 5 18 7 19 6 20 78 21 79 22
REMARK SMILES IDX 83 23 80 24 82 25 81 26 18 27 19 28 20 29 21 30 22 31 23 32
REMARK SMILES IDX 75 33 24 34 74 35 25 36 26 37 27 38 68 39 28 40 73 41 67 42
REMARK SMILES IDX 69 43 29 44 72 45 66 46 65 47 30 49 56 50 39 51 55 52 40 53
REMARK SMILES IDX 43 54 54 55 70 56 41 57 42 58 53 60 71 61 44 62 31 63 32 64
REMARK SMILES IDX 37 65 33 66 34 67 36 68 38 69 35 70 57 71 58 72 63 73 59 74
REMARK SMILES IDX 60 75 62 76 64 77 61 78 45 79 46 80 51 81 47 82 48 83 50 84
REMARK SMILES IDX 52 85 49 86
REMARK H PARENT 69 48 43 59
REMARK Flexibility Score: inf
ROOT
ATOM      1  C   UNL A   1      44.959  19.632  25.342  1.00  0.00     0.274 C 
ENDROOT
BRANCH   1   2
ATOM      2  O   UNL A   1      44.900  20.229  24.033  1.00  0.00    -0.460 OA
BRANCH   2   3
ATOM      3  C   UNL A   1      44.898  21.591  24.009  1.00  0.00     0.344 C 
ATOM      4  O   UNL A   1      44.375  22.276  23.136  1.00  0.00    -0.248 OA
BRANCH   3   5
ATOM      5  C   UNL A   1      45.570  22.205  25.229  1.00  0.00     0.353 C 
BRANCH   5   6
ATOM      6  O   UNL A   1      46.738  22.954  24.964  1.00  0.00    -0.466 OA
BRANCH   6   7
ATOM      7  C   UNL A   1      46.619  24.310  24.895  1.00  0.00     0.219 A 
ATOM      8  C   UNL A   1      47.830  26.248  24.627  1.00  0.00     0.233 A 
ATOM      9  N   UNL A   1      47.773  24.908  24.589  1.00  0.00    -0.177 NA
ATOM     10  N   UNL A   1      46.773  27.011  24.941  1.00  0.00    -0.212 NA
ATOM     11  C   UNL A   1      45.612  26.390  25.209  1.00  0.00     0.080 A 
ATOM     12  C   UNL A   1      45.486  25.015  25.200  1.00  0.00     0.097 A 
BRANCH   8  13
ATOM     13  N   UNL A   1      49.050  26.859  24.310  1.00  0.00    -0.314 N 
ATOM     14  C   UNL A   1      49.292  27.004  22.882  1.00  0.00     0.153 C 
BRANCH  13  15
ATOM     15  C   UNL A   1      50.124  27.003  25.201  1.00  0.00     0.043 A 
ATOM     16  C   UNL A   1      50.379  28.242  25.820  1.00  0.00     0.026 A 
ATOM     17  C   UNL A   1      50.994  25.945  25.493  1.00  0.00     0.026 A 
ATOM     18  C   UNL A   1      51.444  28.414  26.705  1.00  0.00     0.002 A 
ATOM     19  C   UNL A   1      52.070  26.114  26.370  1.00  0.00     0.002 A 
ATOM     20  C   UNL A   1      52.292  27.347  26.979  1.00  0.00     0.000 A 
ENDBRANCH  13  15
ENDBRANCH   8  13
BRANCH  11  21
ATOM     21  C   UNL A   1      44.503  27.282  25.552  1.00  0.00     0.004 A 
ATOM     22  C   UNL A   1      43.236  27.094  24.996  1.00  0.00     0.030 A 
ATOM     23  C   UNL A   1      44.663  28.327  26.469  1.00  0.00     0.030 A 
ATOM     24  C   UNL A   1      42.217  27.973  25.322  1.00  0.00     0.111 A 
ATOM     25  C   UNL A   1      43.579  29.149  26.743  1.00  0.00     0.111 A 
ATOM     26  N   UNL A   1      42.366  29.009  26.172  1.00  0.00    -0.265 NA
ENDBRANCH  11  21
ENDBRANCH   6   7
ENDBRANCH   5   6
ENDBRANCH   3   5
ENDBRANCH   2   3
ENDBRANCH   1   2
BRANCH   1  27
ATOM     27  C   UNL A   1      43.732  18.764  25.611  1.00  0.00     0.275 C 
BRANCH  27  28
ATOM     28  O   UNL A   1      42.566  19.337  24.990  1.00  0.00    -0.458 OA
BRANCH  28  29
ATOM     29  C   UNL A   1      41.619  19.757  25.858  1.00  0.00     0.338 C 
ATOM     30  O   UNL A   1      40.603  19.160  26.166  1.00  0.00    -0.246 OA
BRANCH  29  31
ATOM     31  C   UNL A   1      41.968  21.055  26.471  1.00  0.00     0.060 A 
ATOM     32  C   UNL A   1      42.120  21.201  27.853  1.00  0.00     0.016 A 
ATOM     33  C   UNL A   1      42.000  22.180  25.643  1.00  0.00     0.016 A 
ATOM     34  C   UNL A   1      42.267  22.476  28.406  1.00  0.00     0.010 A 
ATOM     35  C   UNL A   1      42.214  23.447  26.190  1.00  0.00     0.010 A 
ATOM     36  C   UNL A   1      42.345  23.606  27.576  1.00  0.00    -0.014 A 
BRANCH  36  37
ATOM     37  C   UNL A   1      42.690  24.937  28.132  1.00  0.00     0.031 A 
ATOM     38  C   UNL A   1      44.061  25.247  28.653  1.00  0.00     0.074 A 
ATOM     39  C   UNL A   1      41.712  25.856  28.235  1.00  0.00     0.049 A 
ATOM     40  N   UNL A   1      44.479  26.288  29.330  1.00  0.00    -0.248 NA
ATOM     41  C   UNL A   1      45.102  24.251  28.383  1.00  0.00     0.031 C 
ATOM     42  C   UNL A   1      40.333  25.671  27.781  1.00  0.00     0.029 A 
ATOM     43  N   UNL A   1      41.724  27.116  28.775  1.00  0.00    -0.354 N 
ATOM     44  C   UNL A   1      45.819  26.051  29.605  1.00  0.00     0.074 A 
ATOM     45  C   UNL A   1      46.148  24.767  29.017  1.00  0.00     0.031 C 
ATOM     46  C   UNL A   1      39.629  26.777  28.061  1.00  0.00     0.029 A 
ATOM     47  C   UNL A   1      40.495  27.721  28.759  1.00  0.00     0.049 A 
ATOM     48  H   UNL A   1      42.534  27.543  29.135  1.00  0.00     0.167 HD
ATOM     49  C   UNL A   1      46.692  26.834  30.286  1.00  0.00     0.037 A 
ATOM     50  C   UNL A   1      40.090  28.891  29.284  1.00  0.00     0.037 A 
ATOM     51  C   UNL A   1      46.367  28.129  30.831  1.00  0.00     0.049 A 
ATOM     52  C   UNL A   1      41.073  29.753  30.009  1.00  0.00     0.074 A 
ATOM     53  C   UNL A   1      47.197  29.023  31.488  1.00  0.00     0.029 A 
ATOM     54  N   UNL A   1      45.113  28.718  30.773  1.00  0.00    -0.354 N 
ATOM     55  N   UNL A   1      42.334  29.515  30.274  1.00  0.00    -0.248 NA
ATOM     56  C   UNL A   1      40.580  31.041  30.508  1.00  0.00     0.031 C 
ATOM     57  C   UNL A   1      46.436  30.144  31.849  1.00  0.00     0.029 A 
ATOM     58  C   UNL A   1      45.143  29.959  31.389  1.00  0.00     0.049 A 
ATOM     59  H   UNL A   1      44.319  28.314  30.355  1.00  0.00     0.167 HD
ATOM     60  C   UNL A   1      42.786  30.618  30.979  1.00  0.00     0.074 A 
ATOM     61  C   UNL A   1      41.670  31.538  31.078  1.00  0.00     0.031 C 
ATOM     62  C   UNL A   1      44.015  30.847  31.502  1.00  0.00     0.037 A 
BRANCH  49  63
ATOM     63  C   UNL A   1      48.082  26.310  30.499  1.00  0.00     0.057 A 
ATOM     64  C   UNL A   1      48.470  25.701  31.699  1.00  0.00     0.134 A 
ATOM     65  C   UNL A   1      49.028  26.365  29.467  1.00  0.00     0.134 A 
ATOM     66  F   UNL A   1      47.614  25.627  32.730  1.00  0.00    -0.206 F 
ATOM     67  C   UNL A   1      49.753  25.177  31.870  1.00  0.00     0.040 A 
ATOM     68  C   UNL A   1      50.309  25.829  29.620  1.00  0.00     0.040 A 
ATOM     69  F   UNL A   1      48.719  26.929  28.290  1.00  0.00    -0.206 F 
ATOM     70  C   UNL A   1      50.674  25.235  30.826  1.00  0.00     0.006 A 
ENDBRANCH  49  63
BRANCH  50  71
ATOM     71  C   UNL A   1      38.670  29.277  29.139  1.00  0.00     0.057 A 
ATOM     72  C   UNL A   1      38.151  29.659  27.899  1.00  0.00     0.134 A 
ATOM     73  C   UNL A   1      37.780  29.167  30.215  1.00  0.00     0.134 A 
ATOM     74  F   UNL A   1      38.962  29.785  26.839  1.00  0.00    -0.206 F 
ATOM     75  C   UNL A   1      36.790  29.910  27.729  1.00  0.00     0.040 A 
ATOM     76  C   UNL A   1      36.415  29.398  30.055  1.00  0.00     0.040 A 
ATOM     77  F   UNL A   1      38.222  28.786  31.422  1.00  0.00    -0.206 F 
ATOM     78  C   UNL A   1      35.916  29.767  28.807  1.00  0.00     0.006 A 
ENDBRANCH  50  71
BRANCH  62  79
ATOM     79  C   UNL A   1      44.199  32.139  32.234  1.00  0.00     0.057 A 
ATOM     80  C   UNL A   1      43.976  32.233  33.613  1.00  0.00     0.134 A 
ATOM     81  C   UNL A   1      44.597  33.298  31.558  1.00  0.00     0.134 A 
ATOM     82  F   UNL A   1      43.577  31.160  34.311  1.00  0.00    -0.206 F 
ATOM     83  C   UNL A   1      44.121  33.443  34.292  1.00  0.00     0.040 A 
ATOM     84  C   UNL A   1      44.760  34.511  32.228  1.00  0.00     0.040 A 
ATOM     85  F   UNL A   1      44.826  33.270  30.236  1.00  0.00    -0.206 F 
ATOM     86  C   UNL A   1      44.516  34.586  33.599  1.00  0.00     0.006 A 
ENDBRANCH  62  79
ENDBRANCH  36  37
ENDBRANCH  29  31
ENDBRANCH  28  29
ENDBRANCH  27  28
ENDBRANCH   1  27
TORSDOF 16
ENDMDL
MODEL 3
REMARK VINA RESULT:      -9.4      5.114     10.526
REMARK SMILES CN(c1ccccc1)c1nc(OCC(=O)OCCOC(=O)c2ccc(-c3c4nc(c(-c5c(F)cccc5F)c5ccc([nH]5)c(-c5c(F)cccc5F)c5nc(c(-c6c(F)cccc6F)c6ccc3[nH]6)C=C5)C=C4)cc2)cc(-c2ccncc2)n1
REMARK SMILES IDX 17 1 16 2 14 3 15 4 13 5 12 6 11 7 9 8 10 9 84 10 77 11
REMARK SMILES IDX 76 12 2 13 1 14 3 15 4 16 8 17 5 18 7 19 6 20 78 21 79 22
REMARK SMILES IDX 83 23 80 24 82 25 81 26 18 27 19 28 20 29 21 30 22 31 23 32
REMARK SMILES IDX 75 33 24 34 74 35 25 36 26 37 27 38 68 39 28 40 73 41 67 42
REMARK SMILES IDX 69 43 29 44 72 45 66 46 65 47 30 49 56 50 39 51 55 52 40 53
REMARK SMILES IDX 43 54 54 55 70 56 41 57 42 58 53 60 71 61 44 62 31 63 32 64
REMARK SMILES IDX 37 65 33 66 34 67 36 68 38 69 35 70 57 71 58 72 63 73 59 74
REMARK SMILES IDX 60 75 62 76 64 77 61 78 45 79 46 80 51 81 47 82 48 83 50 84
REMARK SMILES IDX 52 85 49 86
REMARK H PARENT 69 48 43 59
REMARK Flexibility Score: inf
ROOT
ATOM      1  C   UNL A   1      42.579  20.953  26.348  1.00  0.00     0.274 C 
ENDROOT
BRANCH   1   2
ATOM      2  O   UNL A   1      41.298  20.684  25.746  1.00  0.00    -0.460 OA
BRANCH   2   3
ATOM      3  C   UNL A   1      40.216  21.116  26.451  1.00  0.00     0.344 C 
ATOM      4  O   UNL A   1      40.270  21.708  27.525  1.00  0.00    -0.248 OA
BRANCH   3   5
ATOM      5  C   UNL A   1      38.898  20.846  25.738  1.00  0.00     0.353 C 
BRANCH   5   6
ATOM      6  O   UNL A   1      37.955  21.897  25.792  1.00  0.00    -0.466 OA
BRANCH   6   7
ATOM      7  C   UNL A   1      36.644  21.582  25.593  1.00  0.00     0.219 A 
ATOM      8  C   UNL A   1      34.503  22.163  26.204  1.00  0.00     0.233 A 
ATOM      9  N   UNL A   1      35.817  22.436  26.201  1.00  0.00    -0.177 NA
ATOM     10  N   UNL A   1      33.985  21.079  25.608  1.00  0.00    -0.212 NA
ATOM     11  C   UNL A   1      34.832  20.252  24.972  1.00  0.00     0.080 A 
ATOM     12  C   UNL A   1      36.195  20.466  24.939  1.00  0.00     0.097 A 
BRANCH   8  13
ATOM     13  N   UNL A   1      33.651  23.066  26.851  1.00  0.00    -0.314 N 
ATOM     14  C   UNL A   1      32.845  22.475  27.911  1.00  0.00     0.153 C 
BRANCH  13  15
ATOM     15  C   UNL A   1      33.292  24.325  26.346  1.00  0.00     0.043 A 
ATOM     16  C   UNL A   1      31.996  24.836  26.550  1.00  0.00     0.026 A 
ATOM     17  C   UNL A   1      34.187  25.109  25.605  1.00  0.00     0.026 A 
ATOM     18  C   UNL A   1      31.613  26.083  26.053  1.00  0.00     0.002 A 
ATOM     19  C   UNL A   1      33.804  26.354  25.095  1.00  0.00     0.002 A 
ATOM     20  C   UNL A   1      32.520  26.842  25.323  1.00  0.00     0.000 A 
ENDBRANCH  13  15
ENDBRANCH   8  13
BRANCH  11  21
ATOM     21  C   UNL A   1      34.201  19.085  24.352  1.00  0.00     0.004 A 
ATOM     22  C   UNL A   1      34.814  17.831  24.400  1.00  0.00     0.030 A 
ATOM     23  C   UNL A   1      32.954  19.177  23.725  1.00  0.00     0.030 A 
ATOM     24  C   UNL A   1      34.201  16.755  23.780  1.00  0.00     0.111 A 
ATOM     25  C   UNL A   1      32.412  18.040  23.141  1.00  0.00     0.111 A 
ATOM     26  N   UNL A   1      33.019  16.837  23.136  1.00  0.00    -0.265 NA
ENDBRANCH  11  21
ENDBRANCH   6   7
ENDBRANCH   5   6
ENDBRANCH   3   5
ENDBRANCH   2   3
ENDBRANCH   1   2
BRANCH   1  27
ATOM     27  C   UNL A   1      43.476  21.753  25.406  1.00  0.00     0.275 C 
BRANCH  27  28
ATOM     28  O   UNL A   1      42.849  23.003  25.057  1.00  0.00    -0.458 OA
BRANCH  28  29
ATOM     29  C   UNL A   1      43.655  24.082  25.166  1.00  0.00     0.338 C 
ATOM     30  O   UNL A   1      44.583  24.370  24.431  1.00  0.00    -0.246 OA
BRANCH  29  31
ATOM     31  C   UNL A   1      43.262  24.955  26.291  1.00  0.00     0.060 A 
ATOM     32  C   UNL A   1      42.331  24.546  27.251  1.00  0.00     0.016 A 
ATOM     33  C   UNL A   1      43.734  26.270  26.293  1.00  0.00     0.016 A 
ATOM     34  C   UNL A   1      41.850  25.464  28.188  1.00  0.00     0.010 A 
ATOM     35  C   UNL A   1      43.304  27.168  27.271  1.00  0.00     0.010 A 
ATOM     36  C   UNL A   1      42.355  26.774  28.224  1.00  0.00    -0.014 A 
BRANCH  36  37
ATOM     37  C   UNL A   1      41.995  27.699  29.327  1.00  0.00     0.031 A 
ATOM     38  C   UNL A   1      42.712  27.677  30.644  1.00  0.00     0.074 A 
ATOM     39  C   UNL A   1      40.945  28.521  29.151  1.00  0.00     0.049 A 
ATOM     40  N   UNL A   1      42.411  28.285  31.765  1.00  0.00    -0.248 NA
ATOM     41  C   UNL A   1      43.925  26.857  30.714  1.00  0.00     0.031 C 
ATOM     42  C   UNL A   1      40.155  28.625  27.923  1.00  0.00     0.029 A 
ATOM     43  N   UNL A   1      40.349  29.405  30.011  1.00  0.00    -0.354 N 
ATOM     44  C   UNL A   1      43.372  27.886  32.685  1.00  0.00     0.074 A 
ATOM     45  C   UNL A   1      44.271  26.985  31.989  1.00  0.00     0.031 C 
ATOM     46  C   UNL A   1      39.177  29.522  28.107  1.00  0.00     0.029 A 
ATOM     47  C   UNL A   1      39.241  30.012  29.480  1.00  0.00     0.049 A 
ATOM     48  H   UNL A   1      40.684  29.587  30.919  1.00  0.00     0.167 HD
ATOM     49  C   UNL A   1      43.491  28.240  33.988  1.00  0.00     0.037 A 
ATOM     50  C   UNL A   1      38.346  30.843  30.042  1.00  0.00     0.037 A 
ATOM     51  C   UNL A   1      42.617  29.170  34.660  1.00  0.00     0.049 A 
ATOM     52  C   UNL A   1      38.508  31.243  31.473  1.00  0.00     0.074 A 
ATOM     53  C   UNL A   1      42.688  29.635  35.963  1.00  0.00     0.029 A 
ATOM     54  N   UNL A   1      41.518  29.782  34.079  1.00  0.00    -0.354 N 
ATOM     55  N   UNL A   1      39.412  30.851  32.337  1.00  0.00    -0.248 NA
ATOM     56  C   UNL A   1      37.529  32.195  32.008  1.00  0.00     0.031 C 
ATOM     57  C   UNL A   1      41.616  30.512  36.175  1.00  0.00     0.029 A 
ATOM     58  C   UNL A   1      40.897  30.615  34.996  1.00  0.00     0.049 A 
ATOM     59  H   UNL A   1      41.222  29.645  33.149  1.00  0.00     0.167 HD
ATOM     60  C   UNL A   1      39.108  31.500  33.522  1.00  0.00     0.074 A 
ATOM     61  C   UNL A   1      37.950  32.332  33.259  1.00  0.00     0.031 C 
ATOM     62  C   UNL A   1      39.730  31.412  34.724  1.00  0.00     0.037 A 
BRANCH  49  63
ATOM     63  C   UNL A   1      44.594  27.610  34.786  1.00  0.00     0.057 A 
ATOM     64  C   UNL A   1      44.422  26.395  35.462  1.00  0.00     0.134 A 
ATOM     65  C   UNL A   1      45.865  28.198  34.830  1.00  0.00     0.134 A 
ATOM     66  F   UNL A   1      43.226  25.786  35.469  1.00  0.00    -0.206 F 
ATOM     67  C   UNL A   1      45.469  25.796  36.165  1.00  0.00     0.040 A 
ATOM     68  C   UNL A   1      46.925  27.599  35.514  1.00  0.00     0.040 A 
ATOM     69  F   UNL A   1      46.100  29.358  34.198  1.00  0.00    -0.206 F 
ATOM     70  C   UNL A   1      46.727  26.395  36.186  1.00  0.00     0.006 A 
ENDBRANCH  49  63
BRANCH  50  71
ATOM     71  C   UNL A   1      37.213  31.321  29.221  1.00  0.00     0.057 A 
ATOM     72  C   UNL A   1      36.072  30.534  29.043  1.00  0.00     0.134 A 
ATOM     73  C   UNL A   1      37.205  32.616  28.688  1.00  0.00     0.134 A 
ATOM     74  F   UNL A   1      36.032  29.285  29.528  1.00  0.00    -0.206 F 
ATOM     75  C   UNL A   1      34.952  31.022  28.370  1.00  0.00     0.040 A 
ATOM     76  C   UNL A   1      36.086  33.122  28.028  1.00  0.00     0.040 A 
ATOM     77  F   UNL A   1      38.267  33.419  28.845  1.00  0.00    -0.206 F 
ATOM     78  C   UNL A   1      34.954  32.325  27.871  1.00  0.00     0.006 A 
ENDBRANCH  50  71
BRANCH  62  79
ATOM     79  C   UNL A   1      39.154  32.231  35.835  1.00  0.00     0.057 A 
ATOM     80  C   UNL A   1      38.240  31.685  36.744  1.00  0.00     0.134 A 
ATOM     81  C   UNL A   1      39.509  33.575  35.996  1.00  0.00     0.134 A 
ATOM     82  F   UNL A   1      37.849  30.407  36.629  1.00  0.00    -0.206 F 
ATOM     83  C   UNL A   1      37.682  32.455  37.765  1.00  0.00     0.040 A 
ATOM     84  C   UNL A   1      38.969  34.351  37.023  1.00  0.00     0.040 A 
ATOM     85  F   UNL A   1      40.381  34.155  35.156  1.00  0.00    -0.206 F 
ATOM     86  C   UNL A   1      38.048  33.792  37.907  1.00  0.00     0.006 A 
ENDBRANCH  62  79
ENDBRANCH  36  37
ENDBRANCH  29  31
ENDBRANCH  28  29
ENDBRANCH  27  28
ENDBRANCH   1  27
TORSDOF 16
ENDMDL
