MODEL 1
REMARK VINA RESULT:     -14.4      0.000      0.000
REMARK SMILES O=C(OCCOC(=O)c1ccc(-c2c3nc(c(-c4c(F)cccc4F)c4ccc([nH]4)c(-c4c(F)cccc4F)c4nc(c(-c5c(F)cccc5F)c5ccc2[nH]5)C=C4)C=C3)cc1)C1=Cc2cc(Cl)cc(-c3ccccc3)c2O[C@@H]1C(F)(F)F
REMARK SMILES IDX 5 1 4 2 3 3 2 4 1 5 63 6 64 7 79 8 65 9 78 10 66 11 77 12
REMARK SMILES IDX 67 13 70 14 68 15 69 16 80 17 81 18 82 19 83 20 71 21 72 22
REMARK SMILES IDX 76 23 73 24 75 25 74 26 6 27 7 28 8 29 9 30 10 31 62 32
REMARK SMILES IDX 11 33 61 34 12 35 13 36 14 37 55 38 15 39 60 40 54 41 56 42
REMARK SMILES IDX 16 43 59 44 53 45 52 46 17 48 43 49 26 50 42 51 27 52 30 53
REMARK SMILES IDX 41 54 57 55 28 56 29 57 40 59 58 60 31 61 18 62 19 63 24 64
REMARK SMILES IDX 20 65 21 66 23 67 25 68 22 69 44 70 45 71 50 72 46 73 47 74
REMARK SMILES IDX 49 75 51 76 48 77 32 78 33 79 38 80 34 81 35 82 37 83 39 84
REMARK SMILES IDX 36 85
REMARK H PARENT 56 47 30 58
REMARK Flexibility Score: inf
ROOT
ATOM      1  C   UNL A   1      32.495  30.242  26.921  1.00  0.00     0.275 C 
ENDROOT
BRANCH   1   2
ATOM      2  C   UNL A   1      31.968  28.159  26.729  1.00  0.00     0.275 C 
BRANCH   2   3
ATOM      3  O   UNL A   1      32.926  26.999  26.273  1.00  0.00    -0.459 OA
BRANCH   3   4
ATOM      4  C   UNL A   1      32.314  25.815  26.162  1.00  0.00     0.338 C 
ATOM      5  O   UNL A   1      31.694  25.164  26.964  1.00  0.00    -0.246 OA
BRANCH   4   6
ATOM      6  C   UNL A   1      32.919  25.485  24.902  1.00  0.00     0.087 C 
ATOM      7  C   UNL A   1      34.375  25.298  25.068  1.00  0.00     0.027 C 
ATOM      8  C   UNL A   1      31.672  24.102  24.383  1.00  0.00     0.316 C 
ATOM      9  C   UNL A   1      35.183  23.685  24.942  1.00  0.00     0.019 A 
ATOM     10  O   UNL A   1      32.515  22.372  24.278  1.00  0.00    -0.475 OA
ATOM     11  C   UNL A   1      36.496  23.626  25.332  1.00  0.00     0.032 A 
ATOM     12  C   UNL A   1      34.292  22.209  24.653  1.00  0.00     0.135 A 
ATOM     13  C   UNL A   1      37.007  22.335  25.469  1.00  0.00     0.042 A 
ATOM     14  C   UNL A   1      34.881  20.980  24.852  1.00  0.00     0.026 A 
ATOM     15  Cl  UNL A   1      38.644  22.191  26.024  1.00  0.00    -0.084 Cl
ATOM     16  C   UNL A   1      36.259  21.116  25.245  1.00  0.00     0.033 A 
BRANCH   8  17
ATOM     17  C   UNL A   1      30.788  24.930  23.389  1.00  0.00     0.430 C 
ATOM     18  F   UNL A   1      31.474  25.327  22.309  1.00  0.00    -0.167 F 
ATOM     19  F   UNL A   1      29.823  24.097  22.888  1.00  0.00    -0.167 F 
ATOM     20  F   UNL A   1      30.064  25.938  23.906  1.00  0.00    -0.167 F 
ENDBRANCH   8  17
BRANCH  14  21
ATOM     21  C   UNL A   1      34.330  19.634  24.848  1.00  0.00    -0.015 A 
ATOM     22  C   UNL A   1      35.185  18.547  24.566  1.00  0.00     0.009 A 
ATOM     23  C   UNL A   1      32.950  19.409  24.843  1.00  0.00     0.009 A 
ATOM     24  C   UNL A   1      34.676  17.282  24.270  1.00  0.00     0.001 A 
ATOM     25  C   UNL A   1      32.440  18.139  24.546  1.00  0.00     0.001 A 
ATOM     26  C   UNL A   1      33.301  17.080  24.255  1.00  0.00     0.000 A 
ENDBRANCH  14  21
ENDBRANCH   4   6
ENDBRANCH   3   4
ENDBRANCH   2   3
ENDBRANCH   1   2
BRANCH   1  27
ATOM     27  O   UNL A   1      34.011  30.874  27.358  1.00  0.00    -0.458 OA
BRANCH  27  28
ATOM     28  C   UNL A   1      34.802  31.219  28.418  1.00  0.00     0.338 C 
ATOM     29  O   UNL A   1      34.595  31.996  29.327  1.00  0.00    -0.246 OA
BRANCH  28  30
ATOM     30  C   UNL A   1      35.882  30.179  28.441  1.00  0.00     0.060 A 
ATOM     31  C   UNL A   1      36.752  30.085  27.342  1.00  0.00     0.016 A 
ATOM     32  C   UNL A   1      36.251  29.613  29.663  1.00  0.00     0.016 A 
ATOM     33  C   UNL A   1      38.078  29.655  27.537  1.00  0.00     0.010 A 
ATOM     34  C   UNL A   1      37.558  29.149  29.842  1.00  0.00     0.010 A 
ATOM     35  C   UNL A   1      38.506  29.241  28.807  1.00  0.00    -0.014 A 
BRANCH  35  36
ATOM     36  C   UNL A   1      39.872  28.697  29.033  1.00  0.00     0.031 A 
ATOM     37  C   UNL A   1      40.868  29.640  29.635  1.00  0.00     0.074 A 
ATOM     38  C   UNL A   1      40.262  27.465  28.642  1.00  0.00     0.049 A 
ATOM     39  N   UNL A   1      42.150  29.491  29.836  1.00  0.00    -0.248 NA
ATOM     40  C   UNL A   1      40.335  30.952  30.036  1.00  0.00     0.031 C 
ATOM     41  C   UNL A   1      39.411  26.440  28.040  1.00  0.00     0.029 A 
ATOM     42  N   UNL A   1      41.508  26.873  28.678  1.00  0.00    -0.354 N 
ATOM     43  C   UNL A   1      42.574  30.692  30.386  1.00  0.00     0.074 A 
ATOM     44  C   UNL A   1      41.430  31.573  30.434  1.00  0.00     0.031 C 
ATOM     45  C   UNL A   1      40.159  25.357  27.747  1.00  0.00     0.029 A 
ATOM     46  C   UNL A   1      41.550  25.611  28.124  1.00  0.00     0.049 A 
ATOM     47  H   UNL A   1      42.299  27.313  29.065  1.00  0.00     0.167 HD
ATOM     48  C   UNL A   1      43.803  31.033  30.833  1.00  0.00     0.037 A 
ATOM     49  C   UNL A   1      42.594  24.773  27.939  1.00  0.00     0.037 A 
ATOM     50  C   UNL A   1      44.953  30.183  30.755  1.00  0.00     0.049 A 
ATOM     51  C   UNL A   1      43.977  25.202  28.384  1.00  0.00     0.074 A 
ATOM     52  C   UNL A   1      46.245  30.439  31.170  1.00  0.00     0.029 A 
ATOM     53  N   UNL A   1      44.946  28.908  30.208  1.00  0.00    -0.354 N 
ATOM     54  N   UNL A   1      44.353  26.313  28.970  1.00  0.00    -0.248 NA
ATOM     55  C   UNL A   1      45.081  24.256  28.145  1.00  0.00     0.031 C 
ATOM     56  C   UNL A   1      47.032  29.330  30.841  1.00  0.00     0.029 A 
ATOM     57  C   UNL A   1      46.218  28.368  30.264  1.00  0.00     0.049 A 
ATOM     58  H   UNL A   1      44.155  28.456  29.836  1.00  0.00     0.167 HD
ATOM     59  C   UNL A   1      45.718  26.179  29.209  1.00  0.00     0.074 A 
ATOM     60  C   UNL A   1      46.106  24.879  28.709  1.00  0.00     0.031 C 
ATOM     61  C   UNL A   1      46.574  27.055  29.793  1.00  0.00     0.037 A 
BRANCH  48  62
ATOM     62  C   UNL A   1      43.930  32.405  31.419  1.00  0.00     0.057 A 
ATOM     63  C   UNL A   1      43.713  32.636  32.785  1.00  0.00     0.134 A 
ATOM     64  C   UNL A   1      44.182  33.512  30.603  1.00  0.00     0.134 A 
ATOM     65  F   UNL A   1      43.432  31.615  33.611  1.00  0.00    -0.206 F 
ATOM     66  C   UNL A   1      43.696  33.927  33.310  1.00  0.00     0.040 A 
ATOM     67  C   UNL A   1      44.196  34.806  31.124  1.00  0.00     0.040 A 
ATOM     68  F   UNL A   1      44.386  33.358  29.286  1.00  0.00    -0.206 F 
ATOM     69  C   UNL A   1      43.939  35.017  32.477  1.00  0.00     0.006 A 
ENDBRANCH  48  62
BRANCH  49  70
ATOM     70  C   UNL A   1      42.416  23.429  27.313  1.00  0.00     0.057 A 
ATOM     71  C   UNL A   1      42.127  22.302  28.095  1.00  0.00     0.134 A 
ATOM     72  C   UNL A   1      42.633  23.216  25.946  1.00  0.00     0.134 A 
ATOM     73  F   UNL A   1      41.948  22.428  29.418  1.00  0.00    -0.206 F 
ATOM     74  C   UNL A   1      42.092  21.014  27.551  1.00  0.00     0.040 A 
ATOM     75  C   UNL A   1      42.576  21.935  25.384  1.00  0.00     0.040 A 
ATOM     76  F   UNL A   1      42.929  24.244  25.138  1.00  0.00    -0.206 F 
ATOM     77  C   UNL A   1      42.316  20.829  26.190  1.00  0.00     0.006 A 
ENDBRANCH  49  70
BRANCH  61  78
ATOM     78  C   UNL A   1      47.999  26.622  29.986  1.00  0.00     0.057 A 
ATOM     79  C   UNL A   1      49.001  26.926  29.057  1.00  0.00     0.134 A 
ATOM     80  C   UNL A   1      48.385  25.973  31.167  1.00  0.00     0.134 A 
ATOM     81  F   UNL A   1      48.697  27.538  27.903  1.00  0.00    -0.206 F 
ATOM     82  C   UNL A   1      50.336  26.592  29.292  1.00  0.00     0.040 A 
ATOM     83  C   UNL A   1      49.719  25.660  31.425  1.00  0.00     0.040 A 
ATOM     84  F   UNL A   1      47.475  25.665  32.103  1.00  0.00    -0.206 F 
ATOM     85  C   UNL A   1      50.700  25.968  30.484  1.00  0.00     0.006 A 
ENDBRANCH  61  78
ENDBRANCH  35  36
ENDBRANCH  28  30
ENDBRANCH  27  28
ENDBRANCH   1  27
TORSDOF 13
ENDMDL
MODEL 2
REMARK VINA RESULT:     -14.4      3.202      7.435
REMARK SMILES O=C(OCCOC(=O)c1ccc(-c2c3nc(c(-c4c(F)cccc4F)c4ccc([nH]4)c(-c4c(F)cccc4F)c4nc(c(-c5c(F)cccc5F)c5ccc2[nH]5)C=C4)C=C3)cc1)C1=Cc2cc(Cl)cc(-c3ccccc3)c2O[C@@H]1C(F)(F)F
REMARK SMILES IDX 5 1 4 2 3 3 2 4 1 5 63 6 64 7 79 8 65 9 78 10 66 11 77 12
REMARK SMILES IDX 67 13 70 14 68 15 69 16 80 17 81 18 82 19 83 20 71 21 72 22
REMARK SMILES IDX 76 23 73 24 75 25 74 26 6 27 7 28 8 29 9 30 10 31 62 32
REMARK SMILES IDX 11 33 61 34 12 35 13 36 14 37 55 38 15 39 60 40 54 41 56 42
REMARK SMILES IDX 16 43 59 44 53 45 52 46 17 48 43 49 26 50 42 51 27 52 30 53
REMARK SMILES IDX 41 54 57 55 28 56 29 57 40 59 58 60 31 61 18 62 19 63 24 64
REMARK SMILES IDX 20 65 21 66 23 67 25 68 22 69 44 70 45 71 50 72 46 73 47 74
REMARK SMILES IDX 49 75 51 76 48 77 32 78 33 79 38 80 34 81 35 82 37 83 39 84
REMARK SMILES IDX 36 85
REMARK H PARENT 56 47 30 58
REMARK Flexibility Score: inf
ROOT
ATOM      1  C   UNL A   1      36.170  20.848  24.988  1.00  0.00     0.275 C 
ENDROOT
BRANCH   1   2
ATOM      2  C   UNL A   1      34.839  22.368  24.232  1.00  0.00     0.275 C 
BRANCH   2   3
ATOM      3  O   UNL A   1      35.053  23.922  24.334  1.00  0.00    -0.459 OA
BRANCH   3   4
ATOM      4  C   UNL A   1      34.206  24.627  23.577  1.00  0.00     0.338 C 
ATOM      5  O   UNL A   1      34.358  25.173  22.514  1.00  0.00    -0.246 OA
BRANCH   4   6
ATOM      6  C   UNL A   1      33.208  24.757  24.602  1.00  0.00     0.087 C 
ATOM      7  C   UNL A   1      33.617  25.781  25.585  1.00  0.00     0.027 C 
ATOM      8  C   UNL A   1      31.672  24.886  23.437  1.00  0.00     0.316 C 
ATOM      9  C   UNL A   1      32.798  27.387  25.737  1.00  0.00     0.019 A 
ATOM     10  O   UNL A   1      30.810  26.605  23.565  1.00  0.00    -0.475 OA
ATOM     11  C   UNL A   1      33.416  28.315  26.534  1.00  0.00     0.032 A 
ATOM     12  C   UNL A   1      31.479  27.868  24.696  1.00  0.00     0.135 A 
ATOM     13  C   UNL A   1      32.907  29.609  26.424  1.00  0.00     0.042 A 
ATOM     14  C   UNL A   1      31.075  29.184  24.635  1.00  0.00     0.026 A 
ATOM     15  Cl  UNL A   1      33.688  30.845  27.356  1.00  0.00    -0.084 Cl
ATOM     16  C   UNL A   1      31.825  30.007  25.546  1.00  0.00     0.033 A 
BRANCH   8  17
ATOM     17  C   UNL A   1      31.153  23.411  23.552  1.00  0.00     0.430 C 
ATOM     18  F   UNL A   1      30.924  23.052  24.823  1.00  0.00    -0.167 F 
ATOM     19  F   UNL A   1      29.921  23.349  22.957  1.00  0.00    -0.167 F 
ATOM     20  F   UNL A   1      31.843  22.465  22.894  1.00  0.00    -0.167 F 
ENDBRANCH   8  17
BRANCH  14  21
ATOM     21  C   UNL A   1      30.141  29.866  23.753  1.00  0.00    -0.015 A 
ATOM     22  C   UNL A   1      29.588  31.097  24.165  1.00  0.00     0.009 A 
ATOM     23  C   UNL A   1      29.571  29.220  22.651  1.00  0.00     0.009 A 
ATOM     24  C   UNL A   1      28.490  31.654  23.509  1.00  0.00     0.001 A 
ATOM     25  C   UNL A   1      28.470  29.780  21.993  1.00  0.00     0.001 A 
ATOM     26  C   UNL A   1      27.928  30.991  22.424  1.00  0.00     0.000 A 
ENDBRANCH  14  21
ENDBRANCH   4   6
ENDBRANCH   3   4
ENDBRANCH   2   3
ENDBRANCH   1   2
BRANCH   1  27
ATOM     27  O   UNL A   1      37.868  20.906  25.023  1.00  0.00    -0.458 OA
BRANCH  27  28
ATOM     28  C   UNL A   1      38.976  20.491  25.708  1.00  0.00     0.338 C 
ATOM     29  O   UNL A   1      39.671  19.508  25.546  1.00  0.00    -0.246 OA
BRANCH  28  30
ATOM     30  C   UNL A   1      39.395  21.683  26.514  1.00  0.00     0.060 A 
ATOM     31  C   UNL A   1      40.524  21.572  27.344  1.00  0.00     0.016 A 
ATOM     32  C   UNL A   1      38.931  22.947  26.147  1.00  0.00     0.016 A 
ATOM     33  C   UNL A   1      41.323  22.705  27.589  1.00  0.00     0.010 A 
ATOM     34  C   UNL A   1      39.707  24.076  26.428  1.00  0.00     0.010 A 
ATOM     35  C   UNL A   1      40.948  23.957  27.078  1.00  0.00    -0.014 A 
BRANCH  35  36
ATOM     36  C   UNL A   1      41.717  25.191  27.390  1.00  0.00     0.031 A 
ATOM     37  C   UNL A   1      40.988  26.246  28.164  1.00  0.00     0.074 A 
ATOM     38  C   UNL A   1      42.966  25.432  26.936  1.00  0.00     0.049 A 
ATOM     39  N   UNL A   1      41.352  27.460  28.476  1.00  0.00    -0.248 NA
ATOM     40  C   UNL A   1      39.638  25.876  28.621  1.00  0.00     0.031 C 
ATOM     41  C   UNL A   1      43.799  24.507  26.169  1.00  0.00     0.029 A 
ATOM     42  N   UNL A   1      43.750  26.562  27.044  1.00  0.00    -0.354 N 
ATOM     43  C   UNL A   1      40.274  27.997  29.166  1.00  0.00     0.074 A 
ATOM     44  C   UNL A   1      39.228  27.002  29.176  1.00  0.00     0.031 C 
ATOM     45  C   UNL A   1      44.964  25.111  25.860  1.00  0.00     0.029 A 
ATOM     46  C   UNL A   1      44.960  26.474  26.392  1.00  0.00     0.049 A 
ATOM     47  H   UNL A   1      43.468  27.363  27.543  1.00  0.00     0.167 HD
ATOM     48  C   UNL A   1      40.164  29.207  29.758  1.00  0.00     0.037 A 
ATOM     49  C   UNL A   1      45.940  27.394  26.239  1.00  0.00     0.037 A 
ATOM     50  C   UNL A   1      41.179  30.217  29.721  1.00  0.00     0.049 A 
ATOM     51  C   UNL A   1      45.768  28.768  26.853  1.00  0.00     0.074 A 
ATOM     52  C   UNL A   1      41.161  31.480  30.282  1.00  0.00     0.029 A 
ATOM     53  N   UNL A   1      42.396  30.078  29.071  1.00  0.00    -0.354 N 
ATOM     54  N   UNL A   1      44.773  29.241  27.565  1.00  0.00    -0.248 NA
ATOM     55  C   UNL A   1      46.858  29.736  26.644  1.00  0.00     0.031 C 
ATOM     56  C   UNL A   1      42.355  32.122  29.939  1.00  0.00     0.029 A 
ATOM     57  C   UNL A   1      43.134  31.240  29.205  1.00  0.00     0.049 A 
ATOM     58  H   UNL A   1      42.690  29.274  28.586  1.00  0.00     0.167 HD
ATOM     59  C   UNL A   1      45.138  30.535  27.924  1.00  0.00     0.074 A 
ATOM     60  C   UNL A   1      46.446  30.775  27.357  1.00  0.00     0.031 C 
ATOM     61  C   UNL A   1      44.452  31.444  28.662  1.00  0.00     0.037 A 
BRANCH  48  62
ATOM     62  C   UNL A   1      38.873  29.475  30.468  1.00  0.00     0.057 A 
ATOM     63  C   UNL A   1      37.827  30.167  29.840  1.00  0.00     0.134 A 
ATOM     64  C   UNL A   1      38.707  29.120  31.810  1.00  0.00     0.134 A 
ATOM     65  F   UNL A   1      37.945  30.564  28.563  1.00  0.00    -0.206 F 
ATOM     66  C   UNL A   1      36.679  30.537  30.538  1.00  0.00     0.040 A 
ATOM     67  C   UNL A   1      37.549  29.461  32.510  1.00  0.00     0.040 A 
ATOM     68  F   UNL A   1      39.676  28.468  32.469  1.00  0.00    -0.206 F 
ATOM     69  C   UNL A   1      36.539  30.184  31.878  1.00  0.00     0.006 A 
ENDBRANCH  48  62
BRANCH  49  70
ATOM     70  C   UNL A   1      47.192  27.085  25.488  1.00  0.00     0.057 A 
ATOM     71  C   UNL A   1      48.278  26.462  26.120  1.00  0.00     0.134 A 
ATOM     72  C   UNL A   1      47.378  27.495  24.162  1.00  0.00     0.134 A 
ATOM     73  F   UNL A   1      48.182  26.081  27.402  1.00  0.00    -0.206 F 
ATOM     74  C   UNL A   1      49.507  26.287  25.476  1.00  0.00     0.040 A 
ATOM     75  C   UNL A   1      48.595  27.304  23.497  1.00  0.00     0.040 A 
ATOM     76  F   UNL A   1      46.390  28.110  23.498  1.00  0.00    -0.206 F 
ATOM     77  C   UNL A   1      49.667  26.709  24.159  1.00  0.00     0.006 A 
ENDBRANCH  49  70
BRANCH  61  78
ATOM     78  C   UNL A   1      45.117  32.757  28.956  1.00  0.00     0.057 A 
ATOM     79  C   UNL A   1      44.919  33.889  28.156  1.00  0.00     0.134 A 
ATOM     80  C   UNL A   1      45.894  32.911  30.114  1.00  0.00     0.134 A 
ATOM     81  F   UNL A   1      44.193  33.807  27.031  1.00  0.00    -0.206 F 
ATOM     82  C   UNL A   1      45.476  35.124  28.491  1.00  0.00     0.040 A 
ATOM     83  C   UNL A   1      46.432  34.146  30.473  1.00  0.00     0.040 A 
ATOM     84  F   UNL A   1      46.112  31.869  30.930  1.00  0.00    -0.206 F 
ATOM     85  C   UNL A   1      46.225  35.257  29.659  1.00  0.00     0.006 A 
ENDBRANCH  61  78
ENDBRANCH  35  36
ENDBRANCH  28  30
ENDBRANCH  27  28
ENDBRANCH   1  27
TORSDOF 13
ENDMDL
MODEL 3
REMARK VINA RESULT:     -14.3      3.177      6.716
REMARK SMILES O=C(OCCOC(=O)c1ccc(-c2c3nc(c(-c4c(F)cccc4F)c4ccc([nH]4)c(-c4c(F)cccc4F)c4nc(c(-c5c(F)cccc5F)c5ccc2[nH]5)C=C4)C=C3)cc1)C1=Cc2cc(Cl)cc(-c3ccccc3)c2O[C@@H]1C(F)(F)F
REMARK SMILES IDX 5 1 4 2 3 3 2 4 1 5 63 6 64 7 79 8 65 9 78 10 66 11 77 12
REMARK SMILES IDX 67 13 70 14 68 15 69 16 80 17 81 18 82 19 83 20 71 21 72 22
REMARK SMILES IDX 76 23 73 24 75 25 74 26 6 27 7 28 8 29 9 30 10 31 62 32
REMARK SMILES IDX 11 33 61 34 12 35 13 36 14 37 55 38 15 39 60 40 54 41 56 42
REMARK SMILES IDX 16 43 59 44 53 45 52 46 17 48 43 49 26 50 42 51 27 52 30 53
REMARK SMILES IDX 41 54 57 55 28 56 29 57 40 59 58 60 31 61 18 62 19 63 24 64
REMARK SMILES IDX 20 65 21 66 23 67 25 68 22 69 44 70 45 71 50 72 46 73 47 74
REMARK SMILES IDX 49 75 51 76 48 77 32 78 33 79 38 80 34 81 35 82 37 83 39 84
REMARK SMILES IDX 36 85
REMARK H PARENT 56 47 30 58
REMARK Flexibility Score: inf
ROOT
ATOM      1  C   UNL A   1      31.707  30.100  25.852  1.00  0.00     0.275 C 
ENDROOT
BRANCH   1   2
ATOM      2  C   UNL A   1      31.448  27.963  25.986  1.00  0.00     0.275 C 
BRANCH   2   3
ATOM      3  O   UNL A   1      32.540  26.923  26.428  1.00  0.00    -0.459 OA
BRANCH   3   4
ATOM      4  C   UNL A   1      32.130  25.652  26.348  1.00  0.00     0.338 C 
ATOM      5  O   UNL A   1      31.656  24.917  27.176  1.00  0.00    -0.246 OA
BRANCH   4   6
ATOM      6  C   UNL A   1      32.737  25.412  25.068  1.00  0.00     0.087 C 
ATOM      7  C   UNL A   1      34.195  25.230  25.220  1.00  0.00     0.027 C 
ATOM      8  C   UNL A   1      31.504  24.051  24.462  1.00  0.00     0.316 C 
ATOM      9  C   UNL A   1      35.020  23.637  24.989  1.00  0.00     0.019 A 
ATOM     10  O   UNL A   1      32.365  22.341  24.244  1.00  0.00    -0.475 OA
ATOM     11  C   UNL A   1      36.334  23.568  25.373  1.00  0.00     0.032 A 
ATOM     12  C   UNL A   1      34.144  22.174  24.606  1.00  0.00     0.135 A 
ATOM     13  C   UNL A   1      36.860  22.276  25.426  1.00  0.00     0.042 A 
ATOM     14  C   UNL A   1      34.747  20.941  24.724  1.00  0.00     0.026 A 
ATOM     15  Cl  UNL A   1      38.498  22.113  25.969  1.00  0.00    -0.084 Cl
ATOM     16  C   UNL A   1      36.124  21.065  25.124  1.00  0.00     0.033 A 
BRANCH   8  17
ATOM     17  C   UNL A   1      30.609  24.933  23.525  1.00  0.00     0.430 C 
ATOM     18  F   UNL A   1      31.322  25.540  22.566  1.00  0.00    -0.167 F 
ATOM     19  F   UNL A   1      29.766  24.098  22.839  1.00  0.00    -0.167 F 
ATOM     20  F   UNL A   1      29.758  25.787  24.116  1.00  0.00    -0.167 F 
ENDBRANCH   8  17
BRANCH  14  21
ATOM     21  C   UNL A   1      34.211  19.592  24.633  1.00  0.00    -0.015 A 
ATOM     22  C   UNL A   1      35.106  18.500  24.618  1.00  0.00     0.009 A 
ATOM     23  C   UNL A   1      32.876  19.358  24.288  1.00  0.00     0.009 A 
ATOM     24  C   UNL A   1      34.684  17.222  24.253  1.00  0.00     0.001 A 
ATOM     25  C   UNL A   1      32.453  18.074  23.922  1.00  0.00     0.001 A 
ATOM     26  C   UNL A   1      33.356  17.011  23.899  1.00  0.00     0.000 A 
ENDBRANCH  14  21
ENDBRANCH   4   6
ENDBRANCH   3   4
ENDBRANCH   2   3
ENDBRANCH   1   2
BRANCH   1  27
ATOM     27  O   UNL A   1      32.251  31.139  27.082  1.00  0.00    -0.458 OA
BRANCH  27  28
ATOM     28  C   UNL A   1      32.873  32.331  27.330  1.00  0.00     0.338 C 
ATOM     29  O   UNL A   1      32.401  33.424  27.571  1.00  0.00    -0.246 OA
BRANCH  28  30
ATOM     30  C   UNL A   1      34.304  31.967  27.590  1.00  0.00     0.060 A 
ATOM     31  C   UNL A   1      35.204  32.985  27.948  1.00  0.00     0.016 A 
ATOM     32  C   UNL A   1      34.627  30.636  27.857  1.00  0.00     0.016 A 
ATOM     33  C   UNL A   1      36.292  32.688  28.792  1.00  0.00     0.010 A 
ATOM     34  C   UNL A   1      35.732  30.341  28.662  1.00  0.00     0.010 A 
ATOM     35  C   UNL A   1      36.526  31.368  29.204  1.00  0.00    -0.014 A 
BRANCH  35  36
ATOM     36  C   UNL A   1      37.714  31.003  30.021  1.00  0.00     0.031 A 
ATOM     37  C   UNL A   1      38.683  30.050  29.389  1.00  0.00     0.074 A 
ATOM     38  C   UNL A   1      37.899  31.403  31.297  1.00  0.00     0.049 A 
ATOM     39  N   UNL A   1      39.734  29.463  29.894  1.00  0.00    -0.248 NA
ATOM     40  C   UNL A   1      38.394  29.689  27.991  1.00  0.00     0.031 C 
ATOM     41  C   UNL A   1      37.043  32.321  32.046  1.00  0.00     0.029 A 
ATOM     42  N   UNL A   1      38.877  31.056  32.205  1.00  0.00    -0.354 N 
ATOM     43  C   UNL A   1      40.230  28.664  28.875  1.00  0.00     0.074 A 
ATOM     44  C   UNL A   1      39.336  28.796  27.747  1.00  0.00     0.031 C 
ATOM     45  C   UNL A   1      37.522  32.450  33.300  1.00  0.00     0.029 A 
ATOM     46  C   UNL A   1      38.710  31.611  33.455  1.00  0.00     0.049 A 
ATOM     47  H   UNL A   1      39.630  30.461  31.981  1.00  0.00     0.167 HD
ATOM     48  C   UNL A   1      41.342  27.897  28.863  1.00  0.00     0.037 A 
ATOM     49  C   UNL A   1      39.432  31.449  34.587  1.00  0.00     0.037 A 
ATOM     50  C   UNL A   1      42.214  27.726  29.988  1.00  0.00     0.049 A 
ATOM     51  C   UNL A   1      40.636  30.531  34.573  1.00  0.00     0.074 A 
ATOM     52  C   UNL A   1      43.362  26.963  30.081  1.00  0.00     0.029 A 
ATOM     53  N   UNL A   1      42.021  28.324  31.223  1.00  0.00    -0.354 N 
ATOM     54  N   UNL A   1      41.138  29.834  33.581  1.00  0.00    -0.248 NA
ATOM     55  C   UNL A   1      41.378  30.379  35.837  1.00  0.00     0.031 C 
ATOM     56  C   UNL A   1      43.845  27.069  31.389  1.00  0.00     0.029 A 
ATOM     57  C   UNL A   1      43.024  27.936  32.094  1.00  0.00     0.049 A 
ATOM     58  H   UNL A   1      41.281  28.933  31.449  1.00  0.00     0.167 HD
ATOM     59  C   UNL A   1      42.271  29.205  34.087  1.00  0.00     0.074 A 
ATOM     60  C   UNL A   1      42.388  29.602  35.473  1.00  0.00     0.031 C 
ATOM     61  C   UNL A   1      43.141  28.374  33.460  1.00  0.00     0.037 A 
BRANCH  48  62
ATOM     62  C   UNL A   1      41.632  27.180  27.582  1.00  0.00     0.057 A 
ATOM     63  C   UNL A   1      41.210  25.859  27.375  1.00  0.00     0.134 A 
ATOM     64  C   UNL A   1      42.411  27.778  26.587  1.00  0.00     0.134 A 
ATOM     65  F   UNL A   1      40.490  25.221  28.312  1.00  0.00    -0.206 F 
ATOM     66  C   UNL A   1      41.593  25.142  26.243  1.00  0.00     0.040 A 
ATOM     67  C   UNL A   1      42.775  27.079  25.435  1.00  0.00     0.040 A 
ATOM     68  F   UNL A   1      42.855  29.036  26.730  1.00  0.00    -0.206 F 
ATOM     69  C   UNL A   1      42.379  25.754  25.269  1.00  0.00     0.006 A 
ENDBRANCH  48  62
BRANCH  49  70
ATOM     70  C   UNL A   1      39.075  32.160  35.851  1.00  0.00     0.057 A 
ATOM     71  C   UNL A   1      38.216  31.573  36.791  1.00  0.00     0.134 A 
ATOM     72  C   UNL A   1      39.491  33.473  36.102  1.00  0.00     0.134 A 
ATOM     73  F   UNL A   1      37.748  30.332  36.592  1.00  0.00    -0.206 F 
ATOM     74  C   UNL A   1      37.760  32.272  37.913  1.00  0.00     0.040 A 
ATOM     75  C   UNL A   1      39.062  34.175  37.234  1.00  0.00     0.040 A 
ATOM     76  F   UNL A   1      40.300  34.105  35.241  1.00  0.00    -0.206 F 
ATOM     77  C   UNL A   1      38.184  33.578  38.137  1.00  0.00     0.006 A 
ENDBRANCH  49  70
BRANCH  61  78
ATOM     78  C   UNL A   1      44.330  27.883  34.236  1.00  0.00     0.057 A 
ATOM     79  C   UNL A   1      45.511  28.628  34.337  1.00  0.00     0.134 A 
ATOM     80  C   UNL A   1      44.251  26.690  34.966  1.00  0.00     0.134 A 
ATOM     81  F   UNL A   1      45.653  29.775  33.656  1.00  0.00    -0.206 F 
ATOM     82  C   UNL A   1      46.575  28.199  35.132  1.00  0.00     0.040 A 
ATOM     83  C   UNL A   1      45.297  26.265  35.785  1.00  0.00     0.040 A 
ATOM     84  F   UNL A   1      43.143  25.935  34.922  1.00  0.00    -0.206 F 
ATOM     85  C   UNL A   1      46.465  27.020  35.868  1.00  0.00     0.006 A 
ENDBRANCH  61  78
ENDBRANCH  35  36
ENDBRANCH  28  30
ENDBRANCH  27  28
ENDBRANCH   1  27
TORSDOF 13
ENDMDL
