MODEL 1
REMARK VINA RESULT:     -12.6      0.000      0.000
REMARK SMILES COC(=O)c1ccc(NC(=O)[C@@H]2CC=CC[C@@H]2C(=O)OCCOC(=O)c2ccc(-c3c4nc(c(-c5c(F)cccc5F)c5ccc([nH]5)c(-c5c(F)cccc5F)c5nc(c(-c6c(F)cccc6F)c6ccc3[nH]6)C=C5)C=C4)cc2)c(C)c1
REMARK SMILES IDX 21 1 20 2 18 3 19 4 17 5 12 6 13 7 14 8 16 9 15 10 10 11
REMARK SMILES IDX 9 12 11 14 8 15 5 16 6 17 82 18 7 19 80 20 81 21 3 22 4 23
REMARK SMILES IDX 2 24 1 25 22 26 23 27 24 28 25 29 26 30 27 31 79 32 28 33
REMARK SMILES IDX 78 34 29 35 30 36 31 37 72 38 32 39 77 40 71 41 73 42 33 43
REMARK SMILES IDX 76 44 70 45 69 46 34 48 60 49 43 50 59 51 44 52 47 53 58 54
REMARK SMILES IDX 74 55 45 56 46 57 57 59 75 60 48 61 35 62 36 63 41 64 37 65
REMARK SMILES IDX 38 66 40 67 42 68 39 69 61 70 62 71 67 72 63 73 64 74 66 75
REMARK SMILES IDX 68 76 65 77 49 78 50 79 55 80 51 81 52 82 54 83 56 84 53 85
REMARK H PARENT 9 13 73 47 47 58
REMARK Flexibility Score: inf
ROOT
ATOM      1  C   UNL A   1      33.788  28.192  25.991  1.00  0.00     0.274 C 
ENDROOT
BRANCH   1   2
ATOM      2  O   UNL A   1      32.962  27.031  26.118  1.00  0.00    -0.462 OA
BRANCH   2   3
ATOM      3  C   UNL A   1      33.422  25.931  25.459  1.00  0.00     0.310 C 
ATOM      4  O   UNL A   1      34.566  25.831  25.076  1.00  0.00    -0.252 OA
BRANCH   3   5
ATOM      5  C   UNL A   1      32.323  24.919  25.102  1.00  0.00     0.116 C 
ATOM      6  C   UNL A   1      31.979  25.046  23.600  1.00  0.00     0.097 C 
ATOM      7  C   UNL A   1      31.206  26.375  23.369  1.00  0.00     0.041 C 
ATOM      8  C   UNL A   1      30.200  26.706  24.440  1.00  0.00    -0.030 C 
ATOM      9  C   UNL A   1      31.056  24.939  25.958  1.00  0.00     0.043 C 
ATOM     10  C   UNL A   1      30.099  26.028  25.589  1.00  0.00    -0.030 C 
BRANCH   6  11
ATOM     11  C   UNL A   1      33.288  24.787  22.815  1.00  0.00     0.228 C 
ATOM     12  N   UNL A   1      33.913  23.583  22.774  1.00  0.00    -0.326 N 
ATOM     13  H   UNL A   1      34.657  23.513  22.134  1.00  0.00     0.169 HD
ATOM     14  O   UNL A   1      33.839  25.689  22.177  1.00  0.00    -0.274 OA
BRANCH  12  15
ATOM     15  C   UNL A   1      33.644  22.437  23.511  1.00  0.00     0.044 A 
ATOM     16  C   UNL A   1      33.365  19.894  24.558  1.00  0.00     0.060 A 
ATOM     17  C   UNL A   1      32.337  20.427  23.783  1.00  0.00     0.018 A 
ATOM     18  C   UNL A   1      34.484  20.670  24.895  1.00  0.00     0.021 A 
ATOM     19  C   UNL A   1      32.470  21.714  23.277  1.00  0.00     0.027 A 
ATOM     20  C   UNL A   1      34.611  21.979  24.417  1.00  0.00    -0.027 A 
ATOM     21  C   UNL A   1      35.842  22.776  24.756  1.00  0.00     0.046 C 
BRANCH  16  22
ATOM     22  C   UNL A   1      33.286  18.468  24.941  1.00  0.00     0.337 C 
ATOM     23  O   UNL A   1      32.340  18.041  25.586  1.00  0.00    -0.246 OA
BRANCH  22  24
ATOM     24  O   UNL A   1      34.282  17.682  24.466  1.00  0.00    -0.465 OA
ATOM     25  C   UNL A   1      34.065  17.004  23.222  1.00  0.00     0.282 C 
ENDBRANCH  22  24
ENDBRANCH  16  22
ENDBRANCH  12  15
ENDBRANCH   6  11
ENDBRANCH   3   5
ENDBRANCH   2   3
ENDBRANCH   1   2
BRANCH   1  26
ATOM     26  C   UNL A   1      34.279  28.718  27.346  1.00  0.00     0.275 C 
BRANCH  26  27
ATOM     27  O   UNL A   1      34.916  30.026  27.409  1.00  0.00    -0.458 OA
BRANCH  27  28
ATOM     28  C   UNL A   1      35.927  30.465  28.198  1.00  0.00     0.338 C 
ATOM     29  O   UNL A   1      35.841  31.483  28.873  1.00  0.00    -0.246 OA
BRANCH  28  30
ATOM     30  C   UNL A   1      37.129  29.626  28.291  1.00  0.00     0.060 A 
ATOM     31  C   UNL A   1      38.076  29.692  27.260  1.00  0.00     0.016 A 
ATOM     32  C   UNL A   1      37.364  28.872  29.432  1.00  0.00     0.016 A 
ATOM     33  C   UNL A   1      39.333  29.115  27.434  1.00  0.00     0.010 A 
ATOM     34  C   UNL A   1      38.639  28.393  29.650  1.00  0.00     0.010 A 
ATOM     35  C   UNL A   1      39.626  28.504  28.652  1.00  0.00    -0.014 A 
BRANCH  35  36
ATOM     36  C   UNL A   1      40.755  27.599  28.829  1.00  0.00     0.031 A 
ATOM     37  C   UNL A   1      40.785  26.150  28.534  1.00  0.00     0.074 A 
ATOM     38  C   UNL A   1      41.855  28.290  29.197  1.00  0.00     0.049 A 
ATOM     39  N   UNL A   1      41.773  25.391  28.872  1.00  0.00    -0.248 NA
ATOM     40  C   UNL A   1      39.736  25.395  27.864  1.00  0.00     0.031 C 
ATOM     41  C   UNL A   1      43.253  27.913  29.195  1.00  0.00     0.029 A 
ATOM     42  N   UNL A   1      41.830  29.532  29.851  1.00  0.00    -0.354 N 
ATOM     43  C   UNL A   1      41.626  24.167  28.251  1.00  0.00     0.074 A 
ATOM     44  C   UNL A   1      40.313  24.203  27.668  1.00  0.00     0.031 C 
ATOM     45  C   UNL A   1      43.907  28.725  30.046  1.00  0.00     0.029 A 
ATOM     46  C   UNL A   1      42.901  29.524  30.739  1.00  0.00     0.049 A 
ATOM     47  H   UNL A   1      41.185  30.262  29.709  1.00  0.00     0.167 HD
ATOM     48  C   UNL A   1      42.696  23.323  28.213  1.00  0.00     0.037 A 
ATOM     49  C   UNL A   1      42.639  29.479  32.078  1.00  0.00     0.037 A 
ATOM     50  C   UNL A   1      43.765  23.840  29.058  1.00  0.00     0.049 A 
ATOM     51  C   UNL A   1      43.226  28.239  32.699  1.00  0.00     0.074 A 
ATOM     52  C   UNL A   1      44.869  24.629  28.781  1.00  0.00     0.029 A 
ATOM     53  N   UNL A   1      43.567  23.899  30.433  1.00  0.00    -0.354 N 
ATOM     54  N   UNL A   1      43.320  27.087  32.091  1.00  0.00    -0.248 NA
ATOM     55  C   UNL A   1      43.830  28.239  34.025  1.00  0.00     0.031 C 
ATOM     56  C   UNL A   1      45.281  25.237  29.993  1.00  0.00     0.029 A 
ATOM     57  C   UNL A   1      44.450  24.790  31.006  1.00  0.00     0.049 A 
ATOM     58  H   UNL A   1      42.891  23.380  30.927  1.00  0.00     0.167 HD
ATOM     59  C   UNL A   1      44.068  26.239  32.867  1.00  0.00     0.074 A 
ATOM     60  C   UNL A   1      44.334  26.994  34.079  1.00  0.00     0.031 C 
ATOM     61  C   UNL A   1      44.469  25.004  32.443  1.00  0.00     0.037 A 
BRANCH  48  62
ATOM     62  C   UNL A   1      42.881  22.215  27.199  1.00  0.00     0.057 A 
ATOM     63  C   UNL A   1      42.101  21.040  27.277  1.00  0.00     0.134 A 
ATOM     64  C   UNL A   1      43.839  22.203  26.173  1.00  0.00     0.134 A 
ATOM     65  F   UNL A   1      41.090  20.918  28.147  1.00  0.00    -0.206 F 
ATOM     66  C   UNL A   1      42.324  19.913  26.474  1.00  0.00     0.040 A 
ATOM     67  C   UNL A   1      44.097  21.069  25.383  1.00  0.00     0.040 A 
ATOM     68  F   UNL A   1      44.539  23.300  25.860  1.00  0.00    -0.206 F 
ATOM     69  C   UNL A   1      43.348  19.910  25.542  1.00  0.00     0.006 A 
ENDBRANCH  48  62
BRANCH  49  70
ATOM     70  C   UNL A   1      41.362  30.142  32.500  1.00  0.00     0.057 A 
ATOM     71  C   UNL A   1      41.276  31.551  32.476  1.00  0.00     0.134 A 
ATOM     72  C   UNL A   1      40.157  29.455  32.681  1.00  0.00     0.134 A 
ATOM     73  F   UNL A   1      42.385  32.291  32.306  1.00  0.00    -0.206 F 
ATOM     74  C   UNL A   1      40.057  32.234  32.540  1.00  0.00     0.040 A 
ATOM     75  C   UNL A   1      38.928  30.131  32.768  1.00  0.00     0.040 A 
ATOM     76  F   UNL A   1      40.130  28.116  32.711  1.00  0.00    -0.206 F 
ATOM     77  C   UNL A   1      38.872  31.520  32.671  1.00  0.00     0.006 A 
ENDBRANCH  49  70
BRANCH  61  78
ATOM     78  C   UNL A   1      45.044  23.912  33.311  1.00  0.00     0.057 A 
ATOM     79  C   UNL A   1      46.364  23.900  33.778  1.00  0.00     0.134 A 
ATOM     80  C   UNL A   1      44.208  22.909  33.855  1.00  0.00     0.134 A 
ATOM     81  F   UNL A   1      47.241  24.854  33.439  1.00  0.00    -0.206 F 
ATOM     82  C   UNL A   1      46.833  22.932  34.676  1.00  0.00     0.040 A 
ATOM     83  C   UNL A   1      44.648  21.978  34.797  1.00  0.00     0.040 A 
ATOM     84  F   UNL A   1      42.911  22.804  33.525  1.00  0.00    -0.206 F 
ATOM     85  C   UNL A   1      45.971  21.978  35.201  1.00  0.00     0.006 A 
ENDBRANCH  61  78
ENDBRANCH  35  36
ENDBRANCH  28  30
ENDBRANCH  27  28
ENDBRANCH  26  27
ENDBRANCH   1  26
TORSDOF 15
ENDMDL
MODEL 2
REMARK VINA RESULT:     -12.4      3.823      9.379
REMARK SMILES COC(=O)c1ccc(NC(=O)[C@@H]2CC=CC[C@@H]2C(=O)OCCOC(=O)c2ccc(-c3c4nc(c(-c5c(F)cccc5F)c5ccc([nH]5)c(-c5c(F)cccc5F)c5nc(c(-c6c(F)cccc6F)c6ccc3[nH]6)C=C5)C=C4)cc2)c(C)c1
REMARK SMILES IDX 21 1 20 2 18 3 19 4 17 5 12 6 13 7 14 8 16 9 15 10 10 11
REMARK SMILES IDX 9 12 11 14 8 15 5 16 6 17 82 18 7 19 80 20 81 21 3 22 4 23
REMARK SMILES IDX 2 24 1 25 22 26 23 27 24 28 25 29 26 30 27 31 79 32 28 33
REMARK SMILES IDX 78 34 29 35 30 36 31 37 72 38 32 39 77 40 71 41 73 42 33 43
REMARK SMILES IDX 76 44 70 45 69 46 34 48 60 49 43 50 59 51 44 52 47 53 58 54
REMARK SMILES IDX 74 55 45 56 46 57 57 59 75 60 48 61 35 62 36 63 41 64 37 65
REMARK SMILES IDX 38 66 40 67 42 68 39 69 61 70 62 71 67 72 63 73 64 74 66 75
REMARK SMILES IDX 68 76 65 77 49 78 50 79 55 80 51 81 52 82 54 83 56 84 53 85
REMARK H PARENT 9 13 73 47 47 58
REMARK Flexibility Score: inf
ROOT
ATOM      1  C   UNL A   1      36.421  23.733  25.038  1.00  0.00     0.274 C 
ENDROOT
BRANCH   1   2
ATOM      2  O   UNL A   1      35.137  24.347  25.180  1.00  0.00    -0.462 OA
BRANCH   2   3
ATOM      3  C   UNL A   1      34.121  23.486  25.465  1.00  0.00     0.310 C 
ATOM      4  O   UNL A   1      34.231  22.597  26.280  1.00  0.00    -0.252 OA
BRANCH   3   5
ATOM      5  C   UNL A   1      32.902  23.639  24.544  1.00  0.00     0.116 C 
ATOM      6  C   UNL A   1      31.634  23.165  25.290  1.00  0.00     0.097 C 
ATOM      7  C   UNL A   1      31.677  21.616  25.424  1.00  0.00     0.041 C 
ATOM      8  C   UNL A   1      32.190  20.898  24.203  1.00  0.00    -0.030 C 
ATOM      9  C   UNL A   1      32.995  23.000  23.157  1.00  0.00     0.043 C 
ATOM     10  C   UNL A   1      32.742  21.526  23.158  1.00  0.00    -0.030 C 
BRANCH   6  11
ATOM     11  C   UNL A   1      31.513  24.030  26.567  1.00  0.00     0.228 C 
ATOM     12  N   UNL A   1      31.121  25.329  26.559  1.00  0.00    -0.326 N 
ATOM     13  H   UNL A   1      30.953  25.727  27.443  1.00  0.00     0.169 HD
ATOM     14  O   UNL A   1      31.778  23.566  27.681  1.00  0.00    -0.274 OA
BRANCH  12  15
ATOM     15  C   UNL A   1      30.923  26.173  25.473  1.00  0.00     0.044 A 
ATOM     16  C   UNL A   1      30.269  28.174  23.682  1.00  0.00     0.060 A 
ATOM     17  C   UNL A   1      29.413  27.084  23.828  1.00  0.00     0.018 A 
ATOM     18  C   UNL A   1      31.500  28.212  24.355  1.00  0.00     0.021 A 
ATOM     19  C   UNL A   1      29.755  26.069  24.711  1.00  0.00     0.027 A 
ATOM     20  C   UNL A   1      31.868  27.176  25.222  1.00  0.00    -0.027 A 
ATOM     21  C   UNL A   1      33.174  27.262  25.966  1.00  0.00     0.046 C 
BRANCH  16  22
ATOM     22  C   UNL A   1      29.809  29.324  22.874  1.00  0.00     0.337 C 
ATOM     23  O   UNL A   1      30.118  29.428  21.697  1.00  0.00    -0.246 OA
BRANCH  22  24
ATOM     24  O   UNL A   1      28.981  30.187  23.510  1.00  0.00    -0.465 OA
ATOM     25  C   UNL A   1      27.686  30.416  22.938  1.00  0.00     0.282 C 
ENDBRANCH  22  24
ENDBRANCH  16  22
ENDBRANCH  12  15
ENDBRANCH   6  11
ENDBRANCH   3   5
ENDBRANCH   2   3
ENDBRANCH   1   2
BRANCH   1  26
ATOM     26  C   UNL A   1      37.363  24.057  26.204  1.00  0.00     0.275 C 
BRANCH  26  27
ATOM     27  O   UNL A   1      38.757  23.642  26.124  1.00  0.00    -0.458 OA
BRANCH  27  28
ATOM     28  C   UNL A   1      39.840  24.093  26.804  1.00  0.00     0.338 C 
ATOM     29  O   UNL A   1      40.889  23.464  26.863  1.00  0.00    -0.246 OA
BRANCH  28  30
ATOM     30  C   UNL A   1      39.751  25.425  27.416  1.00  0.00     0.060 A 
ATOM     31  C   UNL A   1      39.263  25.533  28.725  1.00  0.00     0.016 A 
ATOM     32  C   UNL A   1      40.247  26.533  26.743  1.00  0.00     0.016 A 
ATOM     33  C   UNL A   1      39.404  26.731  29.423  1.00  0.00     0.010 A 
ATOM     34  C   UNL A   1      40.484  27.685  27.464  1.00  0.00     0.010 A 
ATOM     35  C   UNL A   1      40.058  27.793  28.802  1.00  0.00    -0.014 A 
BRANCH  35  36
ATOM     36  C   UNL A   1      39.975  29.165  29.289  1.00  0.00     0.031 A 
ATOM     37  C   UNL A   1      38.903  30.143  29.008  1.00  0.00     0.074 A 
ATOM     38  C   UNL A   1      40.974  29.411  30.164  1.00  0.00     0.049 A 
ATOM     39  N   UNL A   1      38.988  31.386  29.345  1.00  0.00    -0.248 NA
ATOM     40  C   UNL A   1      37.653  29.862  28.316  1.00  0.00     0.031 C 
ATOM     41  C   UNL A   1      41.145  30.478  31.128  1.00  0.00     0.029 A 
ATOM     42  N   UNL A   1      42.196  28.720  30.189  1.00  0.00    -0.354 N 
ATOM     43  C   UNL A   1      37.753  31.979  29.175  1.00  0.00     0.074 A 
ATOM     44  C   UNL A   1      36.962  30.996  28.486  1.00  0.00     0.031 C 
ATOM     45  C   UNL A   1      42.453  30.561  31.434  1.00  0.00     0.029 A 
ATOM     46  C   UNL A   1      43.164  29.657  30.534  1.00  0.00     0.049 A 
ATOM     47  H   UNL A   1      42.338  27.765  30.000  1.00  0.00     0.167 HD
ATOM     48  C   UNL A   1      37.527  33.192  29.755  1.00  0.00     0.037 A 
ATOM     49  C   UNL A   1      44.074  30.036  29.588  1.00  0.00     0.037 A 
ATOM     50  C   UNL A   1      38.773  33.725  30.291  1.00  0.00     0.049 A 
ATOM     51  C   UNL A   1      43.973  31.512  29.307  1.00  0.00     0.074 A 
ATOM     52  C   UNL A   1      39.345  33.664  31.551  1.00  0.00     0.029 A 
ATOM     53  N   UNL A   1      39.790  34.076  29.408  1.00  0.00    -0.354 N 
ATOM     54  N   UNL A   1      42.859  32.193  29.340  1.00  0.00    -0.248 NA
ATOM     55  C   UNL A   1      45.144  32.342  29.054  1.00  0.00     0.031 C 
ATOM     56  C   UNL A   1      40.736  33.893  31.407  1.00  0.00     0.029 A 
ATOM     57  C   UNL A   1      41.000  34.127  30.067  1.00  0.00     0.049 A 
ATOM     58  H   UNL A   1      39.663  34.261  28.449  1.00  0.00     0.167 HD
ATOM     59  C   UNL A   1      43.153  33.527  29.226  1.00  0.00     0.074 A 
ATOM     60  C   UNL A   1      44.590  33.565  29.016  1.00  0.00     0.031 C 
ATOM     61  C   UNL A   1      42.216  34.509  29.371  1.00  0.00     0.037 A 
BRANCH  48  62
ATOM     62  C   UNL A   1      36.159  33.742  30.093  1.00  0.00     0.057 A 
ATOM     63  C   UNL A   1      35.288  34.171  29.067  1.00  0.00     0.134 A 
ATOM     64  C   UNL A   1      35.659  33.940  31.391  1.00  0.00     0.134 A 
ATOM     65  F   UNL A   1      35.577  33.985  27.772  1.00  0.00    -0.206 F 
ATOM     66  C   UNL A   1      34.078  34.833  29.310  1.00  0.00     0.040 A 
ATOM     67  C   UNL A   1      34.463  34.631  31.650  1.00  0.00     0.040 A 
ATOM     68  F   UNL A   1      36.283  33.435  32.462  1.00  0.00    -0.206 F 
ATOM     69  C   UNL A   1      33.673  35.096  30.608  1.00  0.00     0.006 A 
ENDBRANCH  48  62
BRANCH  49  70
ATOM     70  C   UNL A   1      44.422  28.981  28.582  1.00  0.00     0.057 A 
ATOM     71  C   UNL A   1      45.216  27.883  28.981  1.00  0.00     0.134 A 
ATOM     72  C   UNL A   1      43.810  28.874  27.329  1.00  0.00     0.134 A 
ATOM     73  F   UNL A   1      45.841  27.901  30.171  1.00  0.00    -0.206 F 
ATOM     74  C   UNL A   1      45.324  26.714  28.221  1.00  0.00     0.040 A 
ATOM     75  C   UNL A   1      43.928  27.712  26.546  1.00  0.00     0.040 A 
ATOM     76  F   UNL A   1      43.030  29.858  26.862  1.00  0.00    -0.206 F 
ATOM     77  C   UNL A   1      44.663  26.620  27.002  1.00  0.00     0.006 A 
ENDBRANCH  49  70
BRANCH  61  78
ATOM     78  C   UNL A   1      42.386  35.960  28.993  1.00  0.00     0.057 A 
ATOM     79  C   UNL A   1      43.172  36.867  29.715  1.00  0.00     0.134 A 
ATOM     80  C   UNL A   1      41.889  36.448  27.761  1.00  0.00     0.134 A 
ATOM     81  F   UNL A   1      43.801  36.513  30.843  1.00  0.00    -0.206 F 
ATOM     82  C   UNL A   1      43.402  38.177  29.275  1.00  0.00     0.040 A 
ATOM     83  C   UNL A   1      42.163  37.729  27.283  1.00  0.00     0.040 A 
ATOM     84  F   UNL A   1      41.140  35.691  26.945  1.00  0.00    -0.206 F 
ATOM     85  C   UNL A   1      42.911  38.607  28.048  1.00  0.00     0.006 A 
ENDBRANCH  61  78
ENDBRANCH  35  36
ENDBRANCH  28  30
ENDBRANCH  27  28
ENDBRANCH  26  27
ENDBRANCH   1  26
TORSDOF 15
ENDMDL
MODEL 3
REMARK VINA RESULT:     -12.1      3.748      9.216
REMARK SMILES COC(=O)c1ccc(NC(=O)[C@@H]2CC=CC[C@@H]2C(=O)OCCOC(=O)c2ccc(-c3c4nc(c(-c5c(F)cccc5F)c5ccc([nH]5)c(-c5c(F)cccc5F)c5nc(c(-c6c(F)cccc6F)c6ccc3[nH]6)C=C5)C=C4)cc2)c(C)c1
REMARK SMILES IDX 21 1 20 2 18 3 19 4 17 5 12 6 13 7 14 8 16 9 15 10 10 11
REMARK SMILES IDX 9 12 11 14 8 15 5 16 6 17 82 18 7 19 80 20 81 21 3 22 4 23
REMARK SMILES IDX 2 24 1 25 22 26 23 27 24 28 25 29 26 30 27 31 79 32 28 33
REMARK SMILES IDX 78 34 29 35 30 36 31 37 72 38 32 39 77 40 71 41 73 42 33 43
REMARK SMILES IDX 76 44 70 45 69 46 34 48 60 49 43 50 59 51 44 52 47 53 58 54
REMARK SMILES IDX 74 55 45 56 46 57 57 59 75 60 48 61 35 62 36 63 41 64 37 65
REMARK SMILES IDX 38 66 40 67 42 68 39 69 61 70 62 71 67 72 63 73 64 74 66 75
REMARK SMILES IDX 68 76 65 77 49 78 50 79 55 80 51 81 52 82 54 83 56 84 53 85
REMARK H PARENT 9 13 73 47 47 58
REMARK Flexibility Score: inf
ROOT
ATOM      1  C   UNL A   1      36.181  23.250  25.972  1.00  0.00     0.274 C 
ENDROOT
BRANCH   1   2
ATOM      2  O   UNL A   1      35.520  23.074  24.715  1.00  0.00    -0.462 OA
BRANCH   2   3
ATOM      3  C   UNL A   1      34.801  21.923  24.606  1.00  0.00     0.310 C 
ATOM      4  O   UNL A   1      35.323  20.832  24.540  1.00  0.00    -0.252 OA
BRANCH   3   5
ATOM      5  C   UNL A   1      33.296  22.151  24.402  1.00  0.00     0.116 C 
ATOM      6  C   UNL A   1      32.512  21.413  25.511  1.00  0.00     0.097 C 
ATOM      7  C   UNL A   1      32.589  19.882  25.251  1.00  0.00     0.041 C 
ATOM      8  C   UNL A   1      32.468  19.487  23.802  1.00  0.00    -0.030 C 
ATOM      9  C   UNL A   1      32.726  21.829  23.020  1.00  0.00     0.043 C 
ATOM     10  C   UNL A   1      32.481  20.370  22.797  1.00  0.00    -0.030 C 
BRANCH   6  11
ATOM     11  C   UNL A   1      33.010  21.975  26.864  1.00  0.00     0.228 C 
ATOM     12  N   UNL A   1      32.773  23.244  27.282  1.00  0.00    -0.326 N 
ATOM     13  H   UNL A   1      33.022  23.438  28.214  1.00  0.00     0.169 HD
ATOM     14  O   UNL A   1      33.664  21.277  27.644  1.00  0.00    -0.274 OA
BRANCH  12  15
ATOM     15  C   UNL A   1      32.226  24.307  26.573  1.00  0.00     0.044 A 
ATOM     16  C   UNL A   1      31.228  26.098  24.719  1.00  0.00     0.060 A 
ATOM     17  C   UNL A   1      32.566  26.185  25.097  1.00  0.00     0.018 A 
ATOM     18  C   UNL A   1      30.365  25.184  25.343  1.00  0.00     0.021 A 
ATOM     19  C   UNL A   1      33.060  25.299  26.047  1.00  0.00     0.027 A 
ATOM     20  C   UNL A   1      30.847  24.309  26.325  1.00  0.00    -0.027 A 
ATOM     21  C   UNL A   1      29.912  23.307  26.947  1.00  0.00     0.046 C 
BRANCH  16  22
ATOM     22  C   UNL A   1      30.764  26.928  23.587  1.00  0.00     0.337 C 
ATOM     23  O   UNL A   1      30.974  26.590  22.432  1.00  0.00    -0.246 OA
BRANCH  22  24
ATOM     24  O   UNL A   1      30.043  28.023  23.926  1.00  0.00    -0.465 OA
ATOM     25  C   UNL A   1      30.702  29.296  23.890  1.00  0.00     0.282 C 
ENDBRANCH  22  24
ENDBRANCH  16  22
ENDBRANCH  12  15
ENDBRANCH   6  11
ENDBRANCH   3   5
ENDBRANCH   2   3
ENDBRANCH   1   2
BRANCH   1  26
ATOM     26  C   UNL A   1      37.493  24.033  25.846  1.00  0.00     0.275 C 
BRANCH  26  27
ATOM     27  O   UNL A   1      38.721  23.447  26.365  1.00  0.00    -0.458 OA
BRANCH  27  28
ATOM     28  C   UNL A   1      39.874  24.043  26.754  1.00  0.00     0.338 C 
ATOM     29  O   UNL A   1      40.974  23.545  26.551  1.00  0.00    -0.246 OA
BRANCH  28  30
ATOM     30  C   UNL A   1      39.777  25.373  27.368  1.00  0.00     0.060 A 
ATOM     31  C   UNL A   1      39.269  25.478  28.670  1.00  0.00     0.016 A 
ATOM     32  C   UNL A   1      40.283  26.483  26.705  1.00  0.00     0.016 A 
ATOM     33  C   UNL A   1      39.400  26.675  29.373  1.00  0.00     0.010 A 
ATOM     34  C   UNL A   1      40.510  27.633  27.432  1.00  0.00     0.010 A 
ATOM     35  C   UNL A   1      40.064  27.738  28.765  1.00  0.00    -0.014 A 
BRANCH  35  36
ATOM     36  C   UNL A   1      39.973  29.108  29.254  1.00  0.00     0.031 A 
ATOM     37  C   UNL A   1      38.908  30.089  28.957  1.00  0.00     0.074 A 
ATOM     38  C   UNL A   1      40.958  29.352  30.146  1.00  0.00     0.049 A 
ATOM     39  N   UNL A   1      38.988  31.331  29.299  1.00  0.00    -0.248 NA
ATOM     40  C   UNL A   1      37.669  29.811  28.243  1.00  0.00     0.031 C 
ATOM     41  C   UNL A   1      41.113  30.415  31.116  1.00  0.00     0.029 A 
ATOM     42  N   UNL A   1      42.178  28.659  30.190  1.00  0.00    -0.354 N 
ATOM     43  C   UNL A   1      37.756  31.925  29.110  1.00  0.00     0.074 A 
ATOM     44  C   UNL A   1      36.977  30.945  28.405  1.00  0.00     0.031 C 
ATOM     45  C   UNL A   1      42.416  30.496  31.444  1.00  0.00     0.029 A 
ATOM     46  C   UNL A   1      43.142  29.595  30.554  1.00  0.00     0.049 A 
ATOM     47  H   UNL A   1      42.323  27.704  30.001  1.00  0.00     0.167 HD
ATOM     48  C   UNL A   1      37.522  33.137  29.689  1.00  0.00     0.037 A 
ATOM     49  C   UNL A   1      44.067  29.975  29.625  1.00  0.00     0.037 A 
ATOM     50  C   UNL A   1      38.760  33.667  30.247  1.00  0.00     0.049 A 
ATOM     51  C   UNL A   1      43.973  31.452  29.346  1.00  0.00     0.074 A 
ATOM     52  C   UNL A   1      39.310  33.602  31.516  1.00  0.00     0.029 A 
ATOM     53  N   UNL A   1      39.791  34.020  29.383  1.00  0.00    -0.354 N 
ATOM     54  N   UNL A   1      42.859  32.133  29.362  1.00  0.00    -0.248 NA
ATOM     55  C   UNL A   1      45.149  32.281  29.116  1.00  0.00     0.031 C 
ATOM     56  C   UNL A   1      40.703  33.830  31.397  1.00  0.00     0.029 A 
ATOM     57  C   UNL A   1      40.990  34.068  30.063  1.00  0.00     0.049 A 
ATOM     58  H   UNL A   1      39.681  34.207  28.422  1.00  0.00     0.167 HD
ATOM     59  C   UNL A   1      43.157  33.468  29.257  1.00  0.00     0.074 A 
ATOM     60  C   UNL A   1      44.597  33.505  29.071  1.00  0.00     0.031 C 
ATOM     61  C   UNL A   1      42.218  34.450  29.388  1.00  0.00     0.037 A 
BRANCH  48  62
ATOM     62  C   UNL A   1      36.149  33.687  30.005  1.00  0.00     0.057 A 
ATOM     63  C   UNL A   1      35.297  34.122  28.965  1.00  0.00     0.134 A 
ATOM     64  C   UNL A   1      35.627  33.881  31.295  1.00  0.00     0.134 A 
ATOM     65  F   UNL A   1      35.607  33.939  27.675  1.00  0.00    -0.206 F 
ATOM     66  C   UNL A   1      34.083  34.784  29.190  1.00  0.00     0.040 A 
ATOM     67  C   UNL A   1      34.427  34.573  31.536  1.00  0.00     0.040 A 
ATOM     68  F   UNL A   1      36.232  33.372  32.375  1.00  0.00    -0.206 F 
ATOM     69  C   UNL A   1      33.656  35.042  30.481  1.00  0.00     0.006 A 
ENDBRANCH  48  62
BRANCH  49  70
ATOM     70  C   UNL A   1      44.432  28.922  28.622  1.00  0.00     0.057 A 
ATOM     71  C   UNL A   1      45.226  27.828  29.029  1.00  0.00     0.134 A 
ATOM     72  C   UNL A   1      43.834  28.814  27.362  1.00  0.00     0.134 A 
ATOM     73  F   UNL A   1      45.838  27.847  30.226  1.00  0.00    -0.206 F 
ATOM     74  C   UNL A   1      45.348  26.659  28.269  1.00  0.00     0.040 A 
ATOM     75  C   UNL A   1      43.966  27.653  26.580  1.00  0.00     0.040 A 
ATOM     76  F   UNL A   1      43.055  29.794  26.887  1.00  0.00    -0.206 F 
ATOM     77  C   UNL A   1      44.701  26.563  27.043  1.00  0.00     0.006 A 
ENDBRANCH  49  70
BRANCH  61  78
ATOM     78  C   UNL A   1      42.395  35.902  29.017  1.00  0.00     0.057 A 
ATOM     79  C   UNL A   1      43.176  36.805  29.750  1.00  0.00     0.134 A 
ATOM     80  C   UNL A   1      41.913  36.395  27.782  1.00  0.00     0.134 A 
ATOM     81  F   UNL A   1      43.793  36.445  30.884  1.00  0.00    -0.206 F 
ATOM     82  C   UNL A   1      43.414  38.115  29.317  1.00  0.00     0.040 A 
ATOM     83  C   UNL A   1      42.196  37.678  27.311  1.00  0.00     0.040 A 
ATOM     84  F   UNL A   1      41.171  35.643  26.954  1.00  0.00    -0.206 F 
ATOM     85  C   UNL A   1      42.938  38.550  28.087  1.00  0.00     0.006 A 
ENDBRANCH  61  78
ENDBRANCH  35  36
ENDBRANCH  28  30
ENDBRANCH  27  28
ENDBRANCH  26  27
ENDBRANCH   1  26
TORSDOF 15
ENDMDL
