MODEL 1
REMARK VINA RESULT:     -11.5      0.000      0.000
REMARK SMILES O=C(Cc1ccccc1C(=O)OCCOC(=O)c1ccc(-c2c3nc(c(-c4c(F)cccc4F)c4ccc([nH]4)c(-c4c(F)cccc4F)c4nc(c(-c5c(F)cccc5F)c5ccc2[nH]5)C=C4)C=C3)cc1)Nc1cccc(OC[C@@H]2CCCO2)c1
REMARK SMILES IDX 10 1 11 2 9 3 4 4 5 5 6 6 8 7 7 8 3 9 2 10 1 11 72 12 73 14
REMARK SMILES IDX 74 15 85 16 75 17 77 18 76 19 78 20 79 21 80 22 81 23 84 24
REMARK SMILES IDX 82 25 83 26 12 27 13 28 14 29 15 30 16 31 17 32 18 33 19 34
REMARK SMILES IDX 71 35 20 36 70 37 21 38 22 39 23 40 64 41 24 42 69 43 63 44
REMARK SMILES IDX 65 45 25 46 68 47 62 48 61 49 26 51 52 52 35 53 51 54 36 55
REMARK SMILES IDX 39 56 50 57 66 58 37 59 38 60 49 62 67 63 40 64 27 65 28 66
REMARK SMILES IDX 33 67 29 68 30 69 32 70 34 71 31 72 53 73 54 74 59 75 55 76
REMARK SMILES IDX 56 77 58 78 60 79 57 80 41 81 42 82 47 83 43 84 44 85 46 86
REMARK SMILES IDX 48 87 45 88
REMARK H PARENT 72 13 65 50 39 61
REMARK Flexibility Score: inf
ROOT
ATOM      1  C   UNL A   1      34.892  33.321  27.981  1.00  0.00     0.338 C 
ATOM      2  O   UNL A   1      35.287  34.222  27.261  1.00  0.00    -0.246 OA
ENDROOT
BRANCH   1   3
ATOM      3  C   UNL A   1      35.407  31.923  27.898  1.00  0.00     0.063 A 
ATOM      4  C   UNL A   1      34.588  30.811  27.624  1.00  0.00    -0.024 A 
ATOM      5  C   UNL A   1      35.148  29.522  27.726  1.00  0.00     0.005 A 
ATOM      6  C   UNL A   1      36.505  29.347  27.996  1.00  0.00     0.000 A 
ATOM      7  C   UNL A   1      36.783  31.736  28.119  1.00  0.00     0.016 A 
ATOM      8  C   UNL A   1      37.328  30.454  28.176  1.00  0.00     0.001 A 
BRANCH   4   9
ATOM      9  C   UNL A   1      33.137  31.002  27.248  1.00  0.00     0.136 C 
BRANCH   9  10
ATOM     10  C   UNL A   1      32.489  29.865  26.502  1.00  0.00     0.228 C 
ATOM     11  O   UNL A   1      31.825  29.034  27.118  1.00  0.00    -0.274 OA
ATOM     12  N   UNL A   1      32.713  29.869  25.128  1.00  0.00    -0.326 N 
ATOM     13  H   UNL A   1      33.300  30.563  24.749  1.00  0.00     0.169 HD
BRANCH  12  14
ATOM     14  C   UNL A   1      32.138  28.926  24.257  1.00  0.00     0.044 A 
ATOM     15  C   UNL A   1      32.560  27.599  24.307  1.00  0.00     0.026 A 
ATOM     16  C   UNL A   1      31.106  29.291  23.392  1.00  0.00     0.072 A 
ATOM     17  C   UNL A   1      31.859  26.631  23.585  1.00  0.00     0.006 A 
ATOM     18  C   UNL A   1      30.358  28.332  22.723  1.00  0.00     0.121 A 
ATOM     19  C   UNL A   1      30.746  26.995  22.820  1.00  0.00     0.046 A 
BRANCH  18  20
ATOM     20  O   UNL A   1      29.220  28.578  22.006  1.00  0.00    -0.491 OA
BRANCH  20  21
ATOM     21  C   UNL A   1      28.081  29.122  22.687  1.00  0.00     0.261 C 
BRANCH  21  22
ATOM     22  C   UNL A   1      27.762  30.586  22.361  1.00  0.00     0.156 C 
ATOM     23  C   UNL A   1      28.029  31.019  20.935  1.00  0.00     0.038 C 
ATOM     24  O   UNL A   1      28.541  31.479  23.180  1.00  0.00    -0.375 OA
ATOM     25  C   UNL A   1      28.031  32.521  21.098  1.00  0.00     0.031 C 
ATOM     26  C   UNL A   1      28.684  32.711  22.455  1.00  0.00     0.161 C 
ENDBRANCH  21  22
ENDBRANCH  20  21
ENDBRANCH  18  20
ENDBRANCH  12  14
ENDBRANCH   9  10
ENDBRANCH   4   9
ENDBRANCH   1   3
BRANCH   1  27
ATOM     27  O   UNL A   1      34.023  33.432  29.017  1.00  0.00    -0.458 OA
BRANCH  27  28
ATOM     28  C   UNL A   1      32.980  34.424  28.913  1.00  0.00     0.275 C 
BRANCH  28  29
ATOM     29  C   UNL A   1      33.209  35.536  29.934  1.00  0.00     0.275 C 
BRANCH  29  30
ATOM     30  O   UNL A   1      32.372  35.292  31.078  1.00  0.00    -0.458 OA
BRANCH  30  31
ATOM     31  C   UNL A   1      32.740  35.922  32.215  1.00  0.00     0.338 C 
ATOM     32  O   UNL A   1      32.216  36.882  32.751  1.00  0.00    -0.246 OA
BRANCH  31  33
ATOM     33  C   UNL A   1      33.846  35.173  32.826  1.00  0.00     0.060 A 
ATOM     34  C   UNL A   1      35.088  35.797  32.880  1.00  0.00     0.016 A 
ATOM     35  C   UNL A   1      33.708  33.843  33.209  1.00  0.00     0.016 A 
ATOM     36  C   UNL A   1      36.219  35.080  33.255  1.00  0.00     0.010 A 
ATOM     37  C   UNL A   1      34.835  33.139  33.656  1.00  0.00     0.010 A 
ATOM     38  C   UNL A   1      36.110  33.739  33.648  1.00  0.00    -0.014 A 
BRANCH  38  39
ATOM     39  C   UNL A   1      37.346  32.968  33.968  1.00  0.00     0.031 A 
ATOM     40  C   UNL A   1      38.070  33.196  35.271  1.00  0.00     0.074 A 
ATOM     41  C   UNL A   1      37.789  32.010  33.128  1.00  0.00     0.049 A 
ATOM     42  N   UNL A   1      39.201  32.686  35.692  1.00  0.00    -0.248 NA
ATOM     43  C   UNL A   1      37.445  34.128  36.222  1.00  0.00     0.031 C 
ATOM     44  C   UNL A   1      37.170  31.652  31.850  1.00  0.00     0.029 A 
ATOM     45  N   UNL A   1      38.851  31.146  33.234  1.00  0.00    -0.354 N 
ATOM     46  C   UNL A   1      39.450  33.277  36.925  1.00  0.00     0.074 A 
ATOM     47  C   UNL A   1      38.356  34.188  37.183  1.00  0.00     0.031 C 
ATOM     48  C   UNL A   1      37.826  30.608  31.321  1.00  0.00     0.029 A 
ATOM     49  C   UNL A   1      38.959  30.273  32.177  1.00  0.00     0.049 A 
ATOM     50  H   UNL A   1      39.475  31.149  33.996  1.00  0.00     0.167 HD
ATOM     51  C   UNL A   1      40.493  33.077  37.767  1.00  0.00     0.037 A 
ATOM     52  C   UNL A   1      39.880  29.327  31.909  1.00  0.00     0.037 A 
ATOM     53  C   UNL A   1      41.552  32.126  37.543  1.00  0.00     0.049 A 
ATOM     54  C   UNL A   1      41.026  29.126  32.859  1.00  0.00     0.074 A 
ATOM     55  C   UNL A   1      42.644  31.843  38.347  1.00  0.00     0.029 A 
ATOM     56  N   UNL A   1      41.641  31.286  36.443  1.00  0.00    -0.354 N 
ATOM     57  N   UNL A   1      41.276  29.732  33.993  1.00  0.00    -0.248 NA
ATOM     58  C   UNL A   1      42.028  28.120  32.479  1.00  0.00     0.031 C 
ATOM     59  C   UNL A   1      43.410  30.856  37.718  1.00  0.00     0.029 A 
ATOM     60  C   UNL A   1      42.772  30.492  36.543  1.00  0.00     0.049 A 
ATOM     61  H   UNL A   1      40.996  31.259  35.700  1.00  0.00     0.167 HD
ATOM     62  C   UNL A   1      42.461  29.180  34.465  1.00  0.00     0.074 A 
ATOM     63  C   UNL A   1      42.859  28.167  33.510  1.00  0.00     0.031 C 
ATOM     64  C   UNL A   1      43.162  29.492  35.582  1.00  0.00     0.037 A 
BRANCH  51  65
ATOM     65  C   UNL A   1      40.558  33.930  39.001  1.00  0.00     0.057 A 
ATOM     66  C   UNL A   1      41.233  35.157  39.029  1.00  0.00     0.134 A 
ATOM     67  C   UNL A   1      39.909  33.525  40.176  1.00  0.00     0.134 A 
ATOM     68  F   UNL A   1      41.888  35.596  37.943  1.00  0.00    -0.206 F 
ATOM     69  C   UNL A   1      41.281  35.938  40.186  1.00  0.00     0.040 A 
ATOM     70  C   UNL A   1      39.928  34.309  41.330  1.00  0.00     0.040 A 
ATOM     71  F   UNL A   1      39.239  32.363  40.217  1.00  0.00    -0.206 F 
ATOM     72  C   UNL A   1      40.620  35.517  41.339  1.00  0.00     0.006 A 
ENDBRANCH  51  65
BRANCH  52  73
ATOM     73  C   UNL A   1      39.774  28.517  30.669  1.00  0.00     0.057 A 
ATOM     74  C   UNL A   1      40.422  28.905  29.491  1.00  0.00     0.134 A 
ATOM     75  C   UNL A   1      39.015  27.341  30.630  1.00  0.00     0.134 A 
ATOM     76  F   UNL A   1      41.141  30.037  29.457  1.00  0.00    -0.206 F 
ATOM     77  C   UNL A   1      40.310  28.159  28.316  1.00  0.00     0.040 A 
ATOM     78  C   UNL A   1      38.920  26.569  29.471  1.00  0.00     0.040 A 
ATOM     79  F   UNL A   1      38.369  26.914  31.726  1.00  0.00    -0.206 F 
ATOM     80  C   UNL A   1      39.564  26.982  28.307  1.00  0.00     0.006 A 
ENDBRANCH  52  73
BRANCH  64  81
ATOM     81  C   UNL A   1      44.419  28.712  35.832  1.00  0.00     0.057 A 
ATOM     82  C   UNL A   1      45.662  29.142  35.348  1.00  0.00     0.134 A 
ATOM     83  C   UNL A   1      44.385  27.515  36.557  1.00  0.00     0.134 A 
ATOM     84  F   UNL A   1      45.758  30.273  34.633  1.00  0.00    -0.206 F 
ATOM     85  C   UNL A   1      46.820  28.390  35.546  1.00  0.00     0.040 A 
ATOM     86  C   UNL A   1      45.542  26.768  36.783  1.00  0.00     0.040 A 
ATOM     87  F   UNL A   1      43.229  27.051  37.054  1.00  0.00    -0.206 F 
ATOM     88  C   UNL A   1      46.762  27.199  36.267  1.00  0.00     0.006 A 
ENDBRANCH  64  81
ENDBRANCH  38  39
ENDBRANCH  31  33
ENDBRANCH  30  31
ENDBRANCH  29  30
ENDBRANCH  28  29
ENDBRANCH  27  28
ENDBRANCH   1  27
TORSDOF 17
ENDMDL
MODEL 2
REMARK VINA RESULT:     -11.4      3.270      6.508
REMARK SMILES O=C(Cc1ccccc1C(=O)OCCOC(=O)c1ccc(-c2c3nc(c(-c4c(F)cccc4F)c4ccc([nH]4)c(-c4c(F)cccc4F)c4nc(c(-c5c(F)cccc5F)c5ccc2[nH]5)C=C4)C=C3)cc1)Nc1cccc(OC[C@@H]2CCCO2)c1
REMARK SMILES IDX 10 1 11 2 9 3 4 4 5 5 6 6 8 7 7 8 3 9 2 10 1 11 72 12 73 14
REMARK SMILES IDX 74 15 85 16 75 17 77 18 76 19 78 20 79 21 80 22 81 23 84 24
REMARK SMILES IDX 82 25 83 26 12 27 13 28 14 29 15 30 16 31 17 32 18 33 19 34
REMARK SMILES IDX 71 35 20 36 70 37 21 38 22 39 23 40 64 41 24 42 69 43 63 44
REMARK SMILES IDX 65 45 25 46 68 47 62 48 61 49 26 51 52 52 35 53 51 54 36 55
REMARK SMILES IDX 39 56 50 57 66 58 37 59 38 60 49 62 67 63 40 64 27 65 28 66
REMARK SMILES IDX 33 67 29 68 30 69 32 70 34 71 31 72 53 73 54 74 59 75 55 76
REMARK SMILES IDX 56 77 58 78 60 79 57 80 41 81 42 82 47 83 43 84 44 85 46 86
REMARK SMILES IDX 48 87 45 88
REMARK H PARENT 72 13 65 50 39 61
REMARK Flexibility Score: inf
ROOT
ATOM      1  C   UNL A   1      32.280  29.328  24.722  1.00  0.00     0.338 C 
ATOM      2  O   UNL A   1      33.290  29.327  24.039  1.00  0.00    -0.246 OA
ENDROOT
BRANCH   1   3
ATOM      3  C   UNL A   1      31.139  28.394  24.495  1.00  0.00     0.063 A 
ATOM      4  C   UNL A   1      31.007  27.158  25.157  1.00  0.00    -0.024 A 
ATOM      5  C   UNL A   1      29.978  26.285  24.751  1.00  0.00     0.005 A 
ATOM      6  C   UNL A   1      29.049  26.669  23.784  1.00  0.00     0.000 A 
ATOM      7  C   UNL A   1      30.168  28.790  23.559  1.00  0.00     0.016 A 
ATOM      8  C   UNL A   1      29.133  27.928  23.199  1.00  0.00     0.001 A 
BRANCH   4   9
ATOM      9  C   UNL A   1      31.961  26.777  26.265  1.00  0.00     0.136 C 
BRANCH   9  10
ATOM     10  C   UNL A   1      32.761  25.518  26.047  1.00  0.00     0.228 C 
ATOM     11  O   UNL A   1      32.384  24.464  26.554  1.00  0.00    -0.274 OA
ATOM     12  N   UNL A   1      33.893  25.680  25.255  1.00  0.00    -0.326 N 
ATOM     13  H   UNL A   1      34.120  26.584  24.937  1.00  0.00     0.169 HD
BRANCH  12  14
ATOM     14  C   UNL A   1      34.729  24.609  24.888  1.00  0.00     0.044 A 
ATOM     15  C   UNL A   1      34.573  24.015  23.638  1.00  0.00     0.026 A 
ATOM     16  C   UNL A   1      35.753  24.181  25.734  1.00  0.00     0.072 A 
ATOM     17  C   UNL A   1      35.520  23.089  23.198  1.00  0.00     0.006 A 
ATOM     18  C   UNL A   1      36.739  23.314  25.285  1.00  0.00     0.121 A 
ATOM     19  C   UNL A   1      36.614  22.763  24.009  1.00  0.00     0.046 A 
BRANCH  18  20
ATOM     20  O   UNL A   1      37.874  22.986  25.972  1.00  0.00    -0.491 OA
BRANCH  20  21
ATOM     21  C   UNL A   1      38.484  21.711  25.727  1.00  0.00     0.261 C 
BRANCH  21  22
ATOM     22  C   UNL A   1      39.956  21.600  26.144  1.00  0.00     0.156 C 
ATOM     23  C   UNL A   1      40.500  20.194  26.282  1.00  0.00     0.038 C 
ATOM     24  O   UNL A   1      40.177  22.220  27.426  1.00  0.00    -0.375 OA
ATOM     25  C   UNL A   1      41.749  20.458  27.090  1.00  0.00     0.031 C 
ATOM     26  C   UNL A   1      41.316  21.577  28.022  1.00  0.00     0.161 C 
ENDBRANCH  21  22
ENDBRANCH  20  21
ENDBRANCH  18  20
ENDBRANCH  12  14
ENDBRANCH   9  10
ENDBRANCH   4   9
ENDBRANCH   1   3
BRANCH   1  27
ATOM     27  O   UNL A   1      32.052  30.075  25.832  1.00  0.00    -0.458 OA
BRANCH  27  28
ATOM     28  C   UNL A   1      31.003  31.063  25.771  1.00  0.00     0.275 C 
BRANCH  28  29
ATOM     29  C   UNL A   1      31.270  32.176  26.783  1.00  0.00     0.275 C 
BRANCH  29  30
ATOM     30  O   UNL A   1      32.630  32.621  26.630  1.00  0.00    -0.458 OA
BRANCH  30  31
ATOM     31  C   UNL A   1      33.122  33.352  27.654  1.00  0.00     0.338 C 
ATOM     32  O   UNL A   1      32.591  34.273  28.248  1.00  0.00    -0.246 OA
BRANCH  31  33
ATOM     33  C   UNL A   1      34.408  32.773  28.064  1.00  0.00     0.060 A 
ATOM     34  C   UNL A   1      34.434  31.415  28.359  1.00  0.00     0.016 A 
ATOM     35  C   UNL A   1      35.529  33.565  28.290  1.00  0.00     0.016 A 
ATOM     36  C   UNL A   1      35.557  30.844  28.945  1.00  0.00     0.010 A 
ATOM     37  C   UNL A   1      36.688  32.976  28.815  1.00  0.00     0.010 A 
ATOM     38  C   UNL A   1      36.703  31.616  29.183  1.00  0.00    -0.014 A 
BRANCH  38  39
ATOM     39  C   UNL A   1      37.866  31.002  29.886  1.00  0.00     0.031 A 
ATOM     40  C   UNL A   1      38.091  31.259  31.354  1.00  0.00     0.074 A 
ATOM     41  C   UNL A   1      38.687  30.154  29.233  1.00  0.00     0.049 A 
ATOM     42  N   UNL A   1      39.087  30.885  32.119  1.00  0.00    -0.248 NA
ATOM     43  C   UNL A   1      37.068  32.052  32.053  1.00  0.00     0.031 C 
ATOM     44  C   UNL A   1      38.570  29.780  27.822  1.00  0.00     0.029 A 
ATOM     45  N   UNL A   1      39.769  29.434  29.677  1.00  0.00    -0.354 N 
ATOM     46  C   UNL A   1      38.838  31.442  33.368  1.00  0.00     0.074 A 
ATOM     47  C   UNL A   1      37.602  32.186  33.258  1.00  0.00     0.031 C 
ATOM     48  C   UNL A   1      39.503  28.860  27.533  1.00  0.00     0.029 A 
ATOM     49  C   UNL A   1      40.335  28.637  28.710  1.00  0.00     0.049 A 
ATOM     50  H   UNL A   1      40.108  29.484  30.600  1.00  0.00     0.167 HD
ATOM     51  C   UNL A   1      39.571  31.342  34.503  1.00  0.00     0.037 A 
ATOM     52  C   UNL A   1      41.418  27.837  28.754  1.00  0.00     0.037 A 
ATOM     53  C   UNL A   1      40.770  30.552  34.634  1.00  0.00     0.049 A 
ATOM     54  C   UNL A   1      42.213  27.744  30.025  1.00  0.00     0.074 A 
ATOM     55  C   UNL A   1      41.573  30.379  35.749  1.00  0.00     0.029 A 
ATOM     56  N   UNL A   1      41.326  29.788  33.620  1.00  0.00    -0.354 N 
ATOM     57  N   UNL A   1      41.996  28.321  31.181  1.00  0.00    -0.248 NA
ATOM     58  C   UNL A   1      43.416  26.900  29.990  1.00  0.00     0.031 C 
ATOM     59  C   UNL A   1      42.633  29.534  35.401  1.00  0.00     0.029 A 
ATOM     60  C   UNL A   1      42.466  29.147  34.081  1.00  0.00     0.049 A 
ATOM     61  H   UNL A   1      40.966  29.711  32.708  1.00  0.00     0.167 HD
ATOM     62  C   UNL A   1      43.030  27.909  32.012  1.00  0.00     0.074 A 
ATOM     63  C   UNL A   1      43.855  27.006  31.236  1.00  0.00     0.031 C 
ATOM     64  C   UNL A   1      43.282  28.257  33.297  1.00  0.00     0.037 A 
BRANCH  51  65
ATOM     65  C   UNL A   1      39.114  32.134  35.694  1.00  0.00     0.057 A 
ATOM     66  C   UNL A   1      39.502  33.463  35.904  1.00  0.00     0.134 A 
ATOM     67  C   UNL A   1      38.245  31.561  36.633  1.00  0.00     0.134 A 
ATOM     68  F   UNL A   1      40.344  34.067  35.051  1.00  0.00    -0.206 F 
ATOM     69  C   UNL A   1      39.064  34.185  37.016  1.00  0.00     0.040 A 
ATOM     70  C   UNL A   1      37.779  32.281  37.735  1.00  0.00     0.040 A 
ATOM     71  F   UNL A   1      37.829  30.293  36.491  1.00  0.00    -0.206 F 
ATOM     72  C   UNL A   1      38.194  33.596  37.932  1.00  0.00     0.006 A 
ENDBRANCH  51  65
BRANCH  52  73
ATOM     73  C   UNL A   1      41.833  27.081  27.545  1.00  0.00     0.057 A 
ATOM     74  C   UNL A   1      41.447  25.749  27.353  1.00  0.00     0.134 A 
ATOM     75  C   UNL A   1      42.634  27.669  26.558  1.00  0.00     0.134 A 
ATOM     76  F   UNL A   1      40.704  25.122  28.276  1.00  0.00    -0.206 F 
ATOM     77  C   UNL A   1      41.851  25.026  26.229  1.00  0.00     0.040 A 
ATOM     78  C   UNL A   1      43.019  26.967  25.414  1.00  0.00     0.040 A 
ATOM     79  F   UNL A   1      43.038  28.942  26.682  1.00  0.00    -0.206 F 
ATOM     80  C   UNL A   1      42.633  25.639  25.251  1.00  0.00     0.006 A 
ENDBRANCH  52  73
BRANCH  64  81
ATOM     81  C   UNL A   1      44.489  27.639  33.941  1.00  0.00     0.057 A 
ATOM     82  C   UNL A   1      45.741  28.269  33.916  1.00  0.00     0.134 A 
ATOM     83  C   UNL A   1      44.401  26.400  34.585  1.00  0.00     0.134 A 
ATOM     84  F   UNL A   1      45.895  29.452  33.301  1.00  0.00    -0.206 F 
ATOM     85  C   UNL A   1      46.869  27.670  34.478  1.00  0.00     0.040 A 
ATOM     86  C   UNL A   1      45.517  25.803  35.172  1.00  0.00     0.040 A 
ATOM     87  F   UNL A   1      43.230  25.747  34.650  1.00  0.00    -0.206 F 
ATOM     88  C   UNL A   1      46.758  26.433  35.110  1.00  0.00     0.006 A 
ENDBRANCH  64  81
ENDBRANCH  38  39
ENDBRANCH  31  33
ENDBRANCH  30  31
ENDBRANCH  29  30
ENDBRANCH  28  29
ENDBRANCH  27  28
ENDBRANCH   1  27
TORSDOF 17
ENDMDL
MODEL 3
REMARK VINA RESULT:     -11.2      1.815      3.640
REMARK SMILES O=C(Cc1ccccc1C(=O)OCCOC(=O)c1ccc(-c2c3nc(c(-c4c(F)cccc4F)c4ccc([nH]4)c(-c4c(F)cccc4F)c4nc(c(-c5c(F)cccc5F)c5ccc2[nH]5)C=C4)C=C3)cc1)Nc1cccc(OC[C@@H]2CCCO2)c1
REMARK SMILES IDX 10 1 11 2 9 3 4 4 5 5 6 6 8 7 7 8 3 9 2 10 1 11 72 12 73 14
REMARK SMILES IDX 74 15 85 16 75 17 77 18 76 19 78 20 79 21 80 22 81 23 84 24
REMARK SMILES IDX 82 25 83 26 12 27 13 28 14 29 15 30 16 31 17 32 18 33 19 34
REMARK SMILES IDX 71 35 20 36 70 37 21 38 22 39 23 40 64 41 24 42 69 43 63 44
REMARK SMILES IDX 65 45 25 46 68 47 62 48 61 49 26 51 52 52 35 53 51 54 36 55
REMARK SMILES IDX 39 56 50 57 66 58 37 59 38 60 49 62 67 63 40 64 27 65 28 66
REMARK SMILES IDX 33 67 29 68 30 69 32 70 34 71 31 72 53 73 54 74 59 75 55 76
REMARK SMILES IDX 56 77 58 78 60 79 57 80 41 81 42 82 47 83 43 84 44 85 46 86
REMARK SMILES IDX 48 87 45 88
REMARK H PARENT 72 13 65 50 39 61
REMARK Flexibility Score: inf
ROOT
ATOM      1  C   UNL A   1      33.256  33.034  28.017  1.00  0.00     0.338 C 
ATOM      2  O   UNL A   1      32.339  33.317  27.265  1.00  0.00    -0.246 OA
ENDROOT
BRANCH   1   3
ATOM      3  C   UNL A   1      34.147  31.855  27.813  1.00  0.00     0.063 A 
ATOM      4  C   UNL A   1      33.670  30.578  27.459  1.00  0.00    -0.024 A 
ATOM      5  C   UNL A   1      34.579  29.501  27.448  1.00  0.00     0.005 A 
ATOM      6  C   UNL A   1      35.939  29.705  27.686  1.00  0.00     0.000 A 
ATOM      7  C   UNL A   1      35.525  32.056  28.001  1.00  0.00     0.016 A 
ATOM      8  C   UNL A   1      36.415  30.985  27.946  1.00  0.00     0.001 A 
BRANCH   4   9
ATOM      9  C   UNL A   1      32.213  30.371  27.118  1.00  0.00     0.136 C 
BRANCH   9  10
ATOM     10  C   UNL A   1      31.778  28.944  26.902  1.00  0.00     0.228 C 
ATOM     11  O   UNL A   1      31.401  28.272  27.859  1.00  0.00    -0.274 OA
ATOM     12  N   UNL A   1      31.845  28.511  25.581  1.00  0.00    -0.326 N 
ATOM     13  H   UNL A   1      32.205  29.126  24.901  1.00  0.00     0.169 HD
BRANCH  12  14
ATOM     14  C   UNL A   1      31.420  27.234  25.173  1.00  0.00     0.044 A 
ATOM     15  C   UNL A   1      30.226  27.100  24.467  1.00  0.00     0.026 A 
ATOM     16  C   UNL A   1      32.213  26.109  25.409  1.00  0.00     0.072 A 
ATOM     17  C   UNL A   1      29.903  25.868  23.897  1.00  0.00     0.006 A 
ATOM     18  C   UNL A   1      31.939  24.897  24.792  1.00  0.00     0.121 A 
ATOM     19  C   UNL A   1      30.772  24.780  24.036  1.00  0.00     0.046 A 
BRANCH  18  20
ATOM     20  O   UNL A   1      32.755  23.799  24.814  1.00  0.00    -0.491 OA
BRANCH  20  21
ATOM     21  C   UNL A   1      33.901  23.809  25.676  1.00  0.00     0.261 C 
BRANCH  21  22
ATOM     22  C   UNL A   1      35.256  23.731  24.962  1.00  0.00     0.156 C 
ATOM     23  C   UNL A   1      35.211  23.340  23.500  1.00  0.00     0.038 C 
ATOM     24  O   UNL A   1      36.114  22.757  25.589  1.00  0.00    -0.375 OA
ATOM     25  C   UNL A   1      36.653  22.948  23.274  1.00  0.00     0.031 C 
ATOM     26  C   UNL A   1      37.032  22.288  24.588  1.00  0.00     0.161 C 
ENDBRANCH  21  22
ENDBRANCH  20  21
ENDBRANCH  18  20
ENDBRANCH  12  14
ENDBRANCH   9  10
ENDBRANCH   4   9
ENDBRANCH   1   3
BRANCH   1  27
ATOM     27  O   UNL A   1      33.688  33.761  29.079  1.00  0.00    -0.458 OA
BRANCH  27  28
ATOM     28  C   UNL A   1      33.943  35.166  28.870  1.00  0.00     0.275 C 
BRANCH  28  29
ATOM     29  C   UNL A   1      32.903  36.004  29.610  1.00  0.00     0.275 C 
BRANCH  29  30
ATOM     30  O   UNL A   1      32.413  35.247  30.730  1.00  0.00    -0.458 OA
BRANCH  30  31
ATOM     31  C   UNL A   1      32.647  35.787  31.947  1.00  0.00     0.338 C 
ATOM     32  O   UNL A   1      32.001  36.637  32.533  1.00  0.00    -0.246 OA
BRANCH  31  33
ATOM     33  C   UNL A   1      33.779  35.081  32.560  1.00  0.00     0.060 A 
ATOM     34  C   UNL A   1      35.025  35.696  32.500  1.00  0.00     0.016 A 
ATOM     35  C   UNL A   1      33.654  33.789  33.058  1.00  0.00     0.016 A 
ATOM     36  C   UNL A   1      36.170  35.002  32.875  1.00  0.00     0.010 A 
ATOM     37  C   UNL A   1      34.799  33.114  33.504  1.00  0.00     0.010 A 
ATOM     38  C   UNL A   1      36.075  33.699  33.383  1.00  0.00    -0.014 A 
BRANCH  38  39
ATOM     39  C   UNL A   1      37.322  32.946  33.703  1.00  0.00     0.031 A 
ATOM     40  C   UNL A   1      38.023  33.158  35.020  1.00  0.00     0.074 A 
ATOM     41  C   UNL A   1      37.795  32.016  32.848  1.00  0.00     0.049 A 
ATOM     42  N   UNL A   1      39.159  32.662  35.445  1.00  0.00    -0.248 NA
ATOM     43  C   UNL A   1      37.368  34.057  35.983  1.00  0.00     0.031 C 
ATOM     44  C   UNL A   1      37.200  31.674  31.554  1.00  0.00     0.029 A 
ATOM     45  N   UNL A   1      38.872  31.170  32.949  1.00  0.00    -0.354 N 
ATOM     46  C   UNL A   1      39.380  33.229  36.694  1.00  0.00     0.074 A 
ATOM     47  C   UNL A   1      38.264  34.114  36.957  1.00  0.00     0.031 C 
ATOM     48  C   UNL A   1      37.884  30.656  31.011  1.00  0.00     0.029 A 
ATOM     49  C   UNL A   1      39.012  30.324  31.875  1.00  0.00     0.049 A 
ATOM     50  H   UNL A   1      39.486  31.169  33.719  1.00  0.00     0.167 HD
ATOM     51  C   UNL A   1      40.415  33.032  37.546  1.00  0.00     0.037 A 
ATOM     52  C   UNL A   1      39.955  29.403  31.599  1.00  0.00     0.037 A 
ATOM     53  C   UNL A   1      41.495  32.107  37.315  1.00  0.00     0.049 A 
ATOM     54  C   UNL A   1      41.092  29.203  32.559  1.00  0.00     0.074 A 
ATOM     55  C   UNL A   1      42.582  31.828  38.128  1.00  0.00     0.029 A 
ATOM     56  N   UNL A   1      41.616  31.294  36.198  1.00  0.00    -0.354 N 
ATOM     57  N   UNL A   1      41.315  29.788  33.710  1.00  0.00    -0.248 NA
ATOM     58  C   UNL A   1      42.120  28.226  32.172  1.00  0.00     0.031 C 
ATOM     59  C   UNL A   1      43.376  30.870  37.488  1.00  0.00     0.029 A 
ATOM     60  C   UNL A   1      42.762  30.520  36.297  1.00  0.00     0.049 A 
ATOM     61  H   UNL A   1      40.982  31.271  35.447  1.00  0.00     0.167 HD
ATOM     62  C   UNL A   1      42.504  29.249  34.186  1.00  0.00     0.074 A 
ATOM     63  C   UNL A   1      42.936  28.266  33.215  1.00  0.00     0.031 C 
ATOM     64  C   UNL A   1      43.184  29.550  35.319  1.00  0.00     0.037 A 
BRANCH  51  65
ATOM     65  C   UNL A   1      40.447  33.858  38.800  1.00  0.00     0.057 A 
ATOM     66  C   UNL A   1      39.797  33.461  39.975  1.00  0.00     0.134 A 
ATOM     67  C   UNL A   1      41.166  35.060  38.836  1.00  0.00     0.134 A 
ATOM     68  F   UNL A   1      39.078  32.328  40.005  1.00  0.00    -0.206 F 
ATOM     69  C   UNL A   1      39.841  34.241  41.132  1.00  0.00     0.040 A 
ATOM     70  C   UNL A   1      41.239  35.836  39.994  1.00  0.00     0.040 A 
ATOM     71  F   UNL A   1      41.817  35.497  37.746  1.00  0.00    -0.206 F 
ATOM     72  C   UNL A   1      40.569  35.430  41.146  1.00  0.00     0.006 A 
ENDBRANCH  51  65
BRANCH  52  73
ATOM     73  C   UNL A   1      39.882  28.618  30.340  1.00  0.00     0.057 A 
ATOM     74  C   UNL A   1      39.159  27.421  30.272  1.00  0.00     0.134 A 
ATOM     75  C   UNL A   1      40.540  29.041  29.179  1.00  0.00     0.134 A 
ATOM     76  F   UNL A   1      38.530  26.949  31.358  1.00  0.00    -0.206 F 
ATOM     77  C   UNL A   1      39.103  26.668  29.098  1.00  0.00     0.040 A 
ATOM     78  C   UNL A   1      40.467  28.313  27.990  1.00  0.00     0.040 A 
ATOM     79  F   UNL A   1      41.250  30.179  29.178  1.00  0.00    -0.206 F 
ATOM     80  C   UNL A   1      39.751  27.119  27.950  1.00  0.00     0.006 A 
ENDBRANCH  52  73
BRANCH  64  81
ATOM     81  C   UNL A   1      44.453  28.789  35.569  1.00  0.00     0.057 A 
ATOM     82  C   UNL A   1      44.461  27.583  36.283  1.00  0.00     0.134 A 
ATOM     83  C   UNL A   1      45.680  29.271  35.098  1.00  0.00     0.134 A 
ATOM     84  F   UNL A   1      43.320  27.076  36.773  1.00  0.00    -0.206 F 
ATOM     85  C   UNL A   1      45.650  26.903  36.549  1.00  0.00     0.040 A 
ATOM     86  C   UNL A   1      46.872  28.586  35.336  1.00  0.00     0.040 A 
ATOM     87  F   UNL A   1      45.741  30.417  34.402  1.00  0.00    -0.206 F 
ATOM     88  C   UNL A   1      46.861  27.404  36.073  1.00  0.00     0.006 A 
ENDBRANCH  64  81
ENDBRANCH  38  39
ENDBRANCH  31  33
ENDBRANCH  30  31
ENDBRANCH  29  30
ENDBRANCH  28  29
ENDBRANCH  27  28
ENDBRANCH   1  27
TORSDOF 17
ENDMDL
