MODEL 1
REMARK VINA RESULT:     -12.0      0.000      0.000
REMARK SMILES O=C(COc1ccccc1/C=C1/SC(=S)N(c2ccc(F)c(Cl)c2)C1=O)OCCOC(=O)c1ccc(-c2c3nc(c(-c4c(F)cccc4F)c4ccc([nH]4)c(-c4c(F)cccc4F)c4nc(c(-c5c(F)cccc5F)c5ccc2[nH]5)C=C4)C=C3)cc1
REMARK SMILES IDX 28 1 27 2 2 3 1 4 3 5 4 6 5 7 6 8 10 9 7 10 9 11 8 12 11 13
REMARK SMILES IDX 12 14 13 15 25 16 14 17 16 18 26 19 15 20 17 21 18 22 24 23
REMARK SMILES IDX 19 24 22 25 20 26 23 27 21 28 29 29 30 30 31 31 32 32 33 33
REMARK SMILES IDX 34 34 86 35 35 36 85 37 36 38 37 39 38 40 79 41 39 42 84 43
REMARK SMILES IDX 78 44 80 45 40 46 83 47 77 48 76 49 41 51 67 52 50 53 66 54
REMARK SMILES IDX 51 55 54 56 65 57 81 58 52 59 53 60 64 62 82 63 55 64 42 65
REMARK SMILES IDX 43 66 48 67 44 68 45 69 47 70 49 71 46 72 68 73 69 74 74 75
REMARK SMILES IDX 70 76 71 77 73 78 75 79 72 80 56 81 57 82 62 83 58 84 59 85
REMARK SMILES IDX 61 86 63 87 60 88
REMARK H PARENT 80 50 54 61
REMARK Flexibility Score: inf
ROOT
ATOM      1  C   UNL A   1      31.768  30.791  26.358  1.00  0.00     0.274 C 
ENDROOT
BRANCH   1   2
ATOM      2  O   UNL A   1      31.991  29.867  27.446  1.00  0.00    -0.460 OA
BRANCH   2   3
ATOM      3  C   UNL A   1      31.844  28.522  27.362  1.00  0.00     0.344 C 
ATOM      4  O   UNL A   1      31.052  27.937  28.098  1.00  0.00    -0.248 OA
BRANCH   3   5
ATOM      5  C   UNL A   1      32.630  27.775  26.302  1.00  0.00     0.352 C 
BRANCH   5   6
ATOM      6  O   UNL A   1      31.778  27.305  25.259  1.00  0.00    -0.481 OA
BRANCH   6   7
ATOM      7  C   UNL A   1      32.427  27.355  24.048  1.00  0.00     0.127 A 
ATOM      8  C   UNL A   1      32.920  28.597  23.637  1.00  0.00     0.047 A 
ATOM      9  C   UNL A   1      32.557  26.218  23.229  1.00  0.00     0.018 A 
ATOM     10  C   UNL A   1      33.609  28.703  22.433  1.00  0.00     0.004 A 
ATOM     11  C   UNL A   1      33.277  26.338  22.034  1.00  0.00     0.012 A 
ATOM     12  C   UNL A   1      33.799  27.573  21.639  1.00  0.00     0.001 A 
BRANCH   9  13
ATOM     13  C   UNL A   1      32.026  24.893  23.591  1.00  0.00     0.033 C 
ATOM     14  C   UNL A   1      32.705  23.907  24.195  1.00  0.00     0.081 C 
ATOM     15  S   UNL A   1      32.094  22.305  24.356  1.00  0.00    -0.054 SA
ATOM     16  C   UNL A   1      34.104  23.959  24.700  1.00  0.00     0.270 C 
ATOM     17  C   UNL A   1      33.695  21.633  24.682  1.00  0.00     0.152 C 
ATOM     18  N   UNL A   1      34.614  22.664  24.829  1.00  0.00    -0.261 N 
ATOM     19  O   UNL A   1      34.687  25.006  24.947  1.00  0.00    -0.268 OA
ATOM     20  S   UNL A   1      33.908  19.982  24.850  1.00  0.00    -0.051 S 
BRANCH  18  21
ATOM     21  C   UNL A   1      36.010  22.497  25.101  1.00  0.00     0.052 A 
ATOM     22  C   UNL A   1      36.652  21.296  24.754  1.00  0.00     0.030 A 
ATOM     23  C   UNL A   1      36.744  23.463  25.807  1.00  0.00     0.050 A 
ATOM     24  C   UNL A   1      37.980  21.058  25.110  1.00  0.00     0.043 A 
ATOM     25  C   UNL A   1      38.065  23.209  26.193  1.00  0.00     0.078 A 
ATOM     26  C   UNL A   1      38.676  22.010  25.841  1.00  0.00     0.141 A 
ATOM     27  Cl  UNL A   1      38.902  24.373  27.147  1.00  0.00    -0.081 Cl
ATOM     28  F   UNL A   1      39.938  21.746  26.212  1.00  0.00    -0.205 F 
ENDBRANCH  18  21
ENDBRANCH   9  13
ENDBRANCH   6   7
ENDBRANCH   5   6
ENDBRANCH   3   5
ENDBRANCH   2   3
ENDBRANCH   1   2
BRANCH   1  29
ATOM     29  C   UNL A   1      31.953  32.229  26.831  1.00  0.00     0.275 C 
BRANCH  29  30
ATOM     30  O   UNL A   1      32.846  32.219  27.950  1.00  0.00    -0.458 OA
BRANCH  30  31
ATOM     31  C   UNL A   1      33.810  33.171  27.919  1.00  0.00     0.338 C 
ATOM     32  O   UNL A   1      33.655  34.378  27.875  1.00  0.00    -0.246 OA
BRANCH  31  33
ATOM     33  C   UNL A   1      35.100  32.506  28.176  1.00  0.00     0.060 A 
ATOM     34  C   UNL A   1      35.115  31.109  28.272  1.00  0.00     0.016 A 
ATOM     35  C   UNL A   1      36.281  33.246  28.307  1.00  0.00     0.016 A 
ATOM     36  C   UNL A   1      36.301  30.451  28.574  1.00  0.00     0.010 A 
ATOM     37  C   UNL A   1      37.467  32.589  28.617  1.00  0.00     0.010 A 
ATOM     38  C   UNL A   1      37.460  31.200  28.813  1.00  0.00    -0.014 A 
BRANCH  38  39
ATOM     39  C   UNL A   1      38.565  30.577  29.566  1.00  0.00     0.031 A 
ATOM     40  C   UNL A   1      38.732  30.989  31.004  1.00  0.00     0.074 A 
ATOM     41  C   UNL A   1      39.376  29.669  29.001  1.00  0.00     0.049 A 
ATOM     42  N   UNL A   1      39.605  30.591  31.889  1.00  0.00    -0.248 NA
ATOM     43  C   UNL A   1      37.782  31.998  31.507  1.00  0.00     0.031 C 
ATOM     44  C   UNL A   1      39.285  29.191  27.624  1.00  0.00     0.029 A 
ATOM     45  N   UNL A   1      40.441  28.990  29.529  1.00  0.00    -0.354 N 
ATOM     46  C   UNL A   1      39.308  31.297  33.048  1.00  0.00     0.074 A 
ATOM     47  C   UNL A   1      38.206  32.180  32.746  1.00  0.00     0.031 C 
ATOM     48  C   UNL A   1      40.263  28.292  27.412  1.00  0.00     0.029 A 
ATOM     49  C   UNL A   1      41.050  28.146  28.635  1.00  0.00     0.049 A 
ATOM     50  H   UNL A   1      40.741  29.097  30.460  1.00  0.00     0.167 HD
ATOM     51  C   UNL A   1      39.892  31.204  34.265  1.00  0.00     0.037 A 
ATOM     52  C   UNL A   1      42.122  27.350  28.802  1.00  0.00     0.037 A 
ATOM     53  C   UNL A   1      40.994  30.329  34.550  1.00  0.00     0.049 A 
ATOM     54  C   UNL A   1      42.785  27.295  30.155  1.00  0.00     0.074 A 
ATOM     55  C   UNL A   1      41.665  30.144  35.744  1.00  0.00     0.029 A 
ATOM     56  N   UNL A   1      41.588  29.492  33.618  1.00  0.00    -0.354 N 
ATOM     57  N   UNL A   1      42.472  27.932  31.259  1.00  0.00    -0.248 NA
ATOM     58  C   UNL A   1      43.940  26.397  30.288  1.00  0.00     0.031 C 
ATOM     59  C   UNL A   1      42.696  29.225  35.523  1.00  0.00     0.029 A 
ATOM     60  C   UNL A   1      42.632  28.798  34.204  1.00  0.00     0.049 A 
ATOM     61  H   UNL A   1      41.309  29.405  32.678  1.00  0.00     0.167 HD
ATOM     62  C   UNL A   1      43.362  27.482  32.226  1.00  0.00     0.074 A 
ATOM     63  C   UNL A   1      44.224  26.514  31.577  1.00  0.00     0.031 C 
ATOM     64  C   UNL A   1      43.458  27.828  33.534  1.00  0.00     0.037 A 
BRANCH  51  65
ATOM     65  C   UNL A   1      39.360  32.094  35.348  1.00  0.00     0.057 A 
ATOM     66  C   UNL A   1      39.820  33.407  35.521  1.00  0.00     0.134 A 
ATOM     67  C   UNL A   1      38.388  31.628  36.241  1.00  0.00     0.134 A 
ATOM     68  F   UNL A   1      40.770  33.906  34.716  1.00  0.00    -0.206 F 
ATOM     69  C   UNL A   1      39.351  34.215  36.559  1.00  0.00     0.040 A 
ATOM     70  C   UNL A   1      37.891  32.436  37.266  1.00  0.00     0.040 A 
ATOM     71  F   UNL A   1      37.909  30.379  36.136  1.00  0.00    -0.206 F 
ATOM     72  C   UNL A   1      38.380  33.730  37.431  1.00  0.00     0.006 A 
ENDBRANCH  51  65
BRANCH  52  73
ATOM     73  C   UNL A   1      42.620  26.520  27.677  1.00  0.00     0.057 A 
ATOM     74  C   UNL A   1      42.327  25.153  27.600  1.00  0.00     0.134 A 
ATOM     75  C   UNL A   1      43.418  27.066  26.664  1.00  0.00     0.134 A 
ATOM     76  F   UNL A   1      41.583  24.569  28.551  1.00  0.00    -0.206 F 
ATOM     77  C   UNL A   1      42.827  24.354  26.571  1.00  0.00     0.040 A 
ATOM     78  C   UNL A   1      43.906  26.282  25.617  1.00  0.00     0.040 A 
ATOM     79  F   UNL A   1      43.730  28.369  26.676  1.00  0.00    -0.206 F 
ATOM     80  C   UNL A   1      43.617  24.920  25.573  1.00  0.00     0.006 A 
ENDBRANCH  52  73
BRANCH  64  81
ATOM     81  C   UNL A   1      44.489  27.114  34.357  1.00  0.00     0.057 A 
ATOM     82  C   UNL A   1      45.779  27.625  34.539  1.00  0.00     0.134 A 
ATOM     83  C   UNL A   1      44.168  25.915  35.007  1.00  0.00     0.134 A 
ATOM     84  F   UNL A   1      46.152  28.764  33.937  1.00  0.00    -0.206 F 
ATOM     85  C   UNL A   1      46.725  26.953  35.315  1.00  0.00     0.040 A 
ATOM     86  C   UNL A   1      45.094  25.249  35.807  1.00  0.00     0.040 A 
ATOM     87  F   UNL A   1      42.944  25.379  34.883  1.00  0.00    -0.206 F 
ATOM     88  C   UNL A   1      46.381  25.764  35.957  1.00  0.00     0.006 A 
ENDBRANCH  64  81
ENDBRANCH  38  39
ENDBRANCH  31  33
ENDBRANCH  30  31
ENDBRANCH  29  30
ENDBRANCH   1  29
TORSDOF 15
ENDMDL
MODEL 2
REMARK VINA RESULT:     -11.8      1.208      6.196
REMARK SMILES O=C(COc1ccccc1/C=C1/SC(=S)N(c2ccc(F)c(Cl)c2)C1=O)OCCOC(=O)c1ccc(-c2c3nc(c(-c4c(F)cccc4F)c4ccc([nH]4)c(-c4c(F)cccc4F)c4nc(c(-c5c(F)cccc5F)c5ccc2[nH]5)C=C4)C=C3)cc1
REMARK SMILES IDX 28 1 27 2 2 3 1 4 3 5 4 6 5 7 6 8 10 9 7 10 9 11 8 12 11 13
REMARK SMILES IDX 12 14 13 15 25 16 14 17 16 18 26 19 15 20 17 21 18 22 24 23
REMARK SMILES IDX 19 24 22 25 20 26 23 27 21 28 29 29 30 30 31 31 32 32 33 33
REMARK SMILES IDX 34 34 86 35 35 36 85 37 36 38 37 39 38 40 79 41 39 42 84 43
REMARK SMILES IDX 78 44 80 45 40 46 83 47 77 48 76 49 41 51 67 52 50 53 66 54
REMARK SMILES IDX 51 55 54 56 65 57 81 58 52 59 53 60 64 62 82 63 55 64 42 65
REMARK SMILES IDX 43 66 48 67 44 68 45 69 47 70 49 71 46 72 68 73 69 74 74 75
REMARK SMILES IDX 70 76 71 77 73 78 75 79 72 80 56 81 57 82 62 83 58 84 59 85
REMARK SMILES IDX 61 86 63 87 60 88
REMARK H PARENT 80 50 54 61
REMARK Flexibility Score: inf
ROOT
ATOM      1  C   UNL A   1      31.410  31.978  26.779  1.00  0.00     0.274 C 
ENDROOT
BRANCH   1   2
ATOM      2  O   UNL A   1      32.372  30.937  27.054  1.00  0.00    -0.460 OA
BRANCH   2   3
ATOM      3  C   UNL A   1      32.154  29.611  26.866  1.00  0.00     0.344 C 
ATOM      4  O   UNL A   1      32.496  28.799  27.724  1.00  0.00    -0.248 OA
BRANCH   3   5
ATOM      5  C   UNL A   1      31.428  29.170  25.612  1.00  0.00     0.352 C 
BRANCH   5   6
ATOM      6  O   UNL A   1      31.732  27.816  25.284  1.00  0.00    -0.481 OA
BRANCH   6   7
ATOM      7  C   UNL A   1      32.434  27.752  24.104  1.00  0.00     0.127 A 
ATOM      8  C   UNL A   1      33.048  28.926  23.660  1.00  0.00     0.047 A 
ATOM      9  C   UNL A   1      32.501  26.569  23.344  1.00  0.00     0.018 A 
ATOM     10  C   UNL A   1      33.794  28.916  22.486  1.00  0.00     0.004 A 
ATOM     11  C   UNL A   1      33.278  26.569  22.179  1.00  0.00     0.012 A 
ATOM     12  C   UNL A   1      33.921  27.736  21.754  1.00  0.00     0.001 A 
BRANCH   9  13
ATOM     13  C   UNL A   1      31.843  25.313  23.740  1.00  0.00     0.033 C 
ATOM     14  C   UNL A   1      32.418  24.289  24.388  1.00  0.00     0.081 C 
ATOM     15  S   UNL A   1      31.658  22.757  24.592  1.00  0.00    -0.054 SA
ATOM     16  C   UNL A   1      33.809  24.228  24.916  1.00  0.00     0.270 C 
ATOM     17  C   UNL A   1      33.185  21.951  24.967  1.00  0.00     0.152 C 
ATOM     18  N   UNL A   1      34.194  22.897  25.097  1.00  0.00    -0.261 N 
ATOM     19  O   UNL A   1      34.484  25.225  25.138  1.00  0.00    -0.268 OA
ATOM     20  S   UNL A   1      33.239  20.294  25.194  1.00  0.00    -0.051 S 
BRANCH  18  21
ATOM     21  C   UNL A   1      35.563  22.611  25.398  1.00  0.00     0.052 A 
ATOM     22  C   UNL A   1      36.419  23.644  25.819  1.00  0.00     0.030 A 
ATOM     23  C   UNL A   1      36.115  21.338  25.182  1.00  0.00     0.050 A 
ATOM     24  C   UNL A   1      37.784  23.420  26.007  1.00  0.00     0.043 A 
ATOM     25  C   UNL A   1      37.489  21.124  25.338  1.00  0.00     0.078 A 
ATOM     26  C   UNL A   1      38.315  22.164  25.751  1.00  0.00     0.141 A 
ATOM     27  Cl  UNL A   1      38.147  19.576  24.964  1.00  0.00    -0.081 Cl
ATOM     28  F   UNL A   1      39.635  21.978  25.895  1.00  0.00    -0.205 F 
ENDBRANCH  18  21
ENDBRANCH   9  13
ENDBRANCH   6   7
ENDBRANCH   5   6
ENDBRANCH   3   5
ENDBRANCH   2   3
ENDBRANCH   1   2
BRANCH   1  29
ATOM     29  C   UNL A   1      32.069  33.351  26.858  1.00  0.00     0.275 C 
BRANCH  29  30
ATOM     30  O   UNL A   1      32.240  33.684  28.240  1.00  0.00    -0.458 OA
BRANCH  30  31
ATOM     31  C   UNL A   1      33.271  34.523  28.502  1.00  0.00     0.338 C 
ATOM     32  O   UNL A   1      33.225  35.731  28.636  1.00  0.00    -0.246 OA
BRANCH  31  33
ATOM     33  C   UNL A   1      34.447  33.693  28.822  1.00  0.00     0.060 A 
ATOM     34  C   UNL A   1      34.230  32.390  29.285  1.00  0.00     0.016 A 
ATOM     35  C   UNL A   1      35.747  34.187  28.655  1.00  0.00     0.016 A 
ATOM     36  C   UNL A   1      35.312  31.600  29.655  1.00  0.00     0.010 A 
ATOM     37  C   UNL A   1      36.830  33.400  29.032  1.00  0.00     0.010 A 
ATOM     38  C   UNL A   1      36.605  32.133  29.590  1.00  0.00    -0.014 A 
BRANCH  38  39
ATOM     39  C   UNL A   1      37.673  31.504  30.391  1.00  0.00     0.031 A 
ATOM     40  C   UNL A   1      38.529  30.475  29.704  1.00  0.00     0.074 A 
ATOM     41  C   UNL A   1      37.883  31.845  31.672  1.00  0.00     0.049 A 
ATOM     42  N   UNL A   1      39.536  29.784  30.167  1.00  0.00    -0.248 NA
ATOM     43  C   UNL A   1      38.196  30.183  28.297  1.00  0.00     0.031 C 
ATOM     44  C   UNL A   1      37.121  32.841  32.421  1.00  0.00     0.029 A 
ATOM     45  N   UNL A   1      38.810  31.380  32.566  1.00  0.00    -0.354 N 
ATOM     46  C   UNL A   1      39.953  28.982  29.112  1.00  0.00     0.074 A 
ATOM     47  C   UNL A   1      39.068  29.235  28.000  1.00  0.00     0.031 C 
ATOM     48  C   UNL A   1      37.612  32.912  33.671  1.00  0.00     0.029 A 
ATOM     49  C   UNL A   1      38.710  31.957  33.807  1.00  0.00     0.049 A 
ATOM     50  H   UNL A   1      39.483  30.699  32.340  1.00  0.00     0.167 HD
ATOM     51  C   UNL A   1      40.996  28.122  29.069  1.00  0.00     0.037 A 
ATOM     52  C   UNL A   1      39.434  31.730  34.919  1.00  0.00     0.037 A 
ATOM     53  C   UNL A   1      41.864  27.871  30.185  1.00  0.00     0.049 A 
ATOM     54  C   UNL A   1      40.564  30.733  34.860  1.00  0.00     0.074 A 
ATOM     55  C   UNL A   1      42.954  27.026  30.260  1.00  0.00     0.029 A 
ATOM     56  N   UNL A   1      41.729  28.470  31.429  1.00  0.00    -0.354 N 
ATOM     57  N   UNL A   1      40.981  30.010  33.847  1.00  0.00    -0.248 NA
ATOM     58  C   UNL A   1      41.334  30.535  36.095  1.00  0.00     0.031 C 
ATOM     59  C   UNL A   1      43.455  27.081  31.566  1.00  0.00     0.029 A 
ATOM     60  C   UNL A   1      42.708  28.001  32.287  1.00  0.00     0.049 A 
ATOM     61  H   UNL A   1      41.039  29.130  31.666  1.00  0.00     0.167 HD
ATOM     62  C   UNL A   1      42.085  29.305  34.310  1.00  0.00     0.074 A 
ATOM     63  C   UNL A   1      42.274  29.692  35.694  1.00  0.00     0.031 C 
ATOM     64  C   UNL A   1      42.878  28.421  33.653  1.00  0.00     0.037 A 
BRANCH  51  65
ATOM     65  C   UNL A   1      41.219  27.381  27.785  1.00  0.00     0.057 A 
ATOM     66  C   UNL A   1      40.660  26.116  27.552  1.00  0.00     0.134 A 
ATOM     67  C   UNL A   1      42.014  27.931  26.773  1.00  0.00     0.134 A 
ATOM     68  F   UNL A   1      39.908  25.522  28.492  1.00  0.00    -0.206 F 
ATOM     69  C   UNL A   1      40.906  25.414  26.371  1.00  0.00     0.040 A 
ATOM     70  C   UNL A   1      42.247  27.250  25.576  1.00  0.00     0.040 A 
ATOM     71  F   UNL A   1      42.585  29.134  26.933  1.00  0.00    -0.206 F 
ATOM     72  C   UNL A   1      41.698  25.985  25.376  1.00  0.00     0.006 A 
ENDBRANCH  51  65
BRANCH  52  73
ATOM     73  C   UNL A   1      39.139  32.472  36.169  1.00  0.00     0.057 A 
ATOM     74  C   UNL A   1      39.732  33.712  36.432  1.00  0.00     0.134 A 
ATOM     75  C   UNL A   1      38.276  31.951  37.141  1.00  0.00     0.134 A 
ATOM     76  F   UNL A   1      40.583  34.254  35.548  1.00  0.00    -0.206 F 
ATOM     77  C   UNL A   1      39.497  34.398  37.625  1.00  0.00     0.040 A 
ATOM     78  C   UNL A   1      38.014  32.638  38.328  1.00  0.00     0.040 A 
ATOM     79  F   UNL A   1      37.671  30.771  36.948  1.00  0.00    -0.206 F 
ATOM     80  C   UNL A   1      38.632  33.862  38.576  1.00  0.00     0.006 A 
ENDBRANCH  52  73
BRANCH  64  81
ATOM     81  C   UNL A   1      44.051  27.864  34.405  1.00  0.00     0.057 A 
ATOM     82  C   UNL A   1      45.288  28.518  34.443  1.00  0.00     0.134 A 
ATOM     83  C   UNL A   1      43.922  26.674  35.133  1.00  0.00     0.134 A 
ATOM     84  F   UNL A   1      45.478  29.657  33.761  1.00  0.00    -0.206 F 
ATOM     85  C   UNL A   1      46.367  27.991  35.155  1.00  0.00     0.040 A 
ATOM     86  C   UNL A   1      44.984  26.152  35.871  1.00  0.00     0.040 A 
ATOM     87  F   UNL A   1      42.758  26.006  35.148  1.00  0.00    -0.206 F 
ATOM     88  C   UNL A   1      46.214  26.808  35.876  1.00  0.00     0.006 A 
ENDBRANCH  64  81
ENDBRANCH  38  39
ENDBRANCH  31  33
ENDBRANCH  30  31
ENDBRANCH  29  30
ENDBRANCH   1  29
TORSDOF 15
ENDMDL
MODEL 3
REMARK VINA RESULT:     -11.7      4.239      7.902
REMARK SMILES O=C(COc1ccccc1/C=C1/SC(=S)N(c2ccc(F)c(Cl)c2)C1=O)OCCOC(=O)c1ccc(-c2c3nc(c(-c4c(F)cccc4F)c4ccc([nH]4)c(-c4c(F)cccc4F)c4nc(c(-c5c(F)cccc5F)c5ccc2[nH]5)C=C4)C=C3)cc1
REMARK SMILES IDX 28 1 27 2 2 3 1 4 3 5 4 6 5 7 6 8 10 9 7 10 9 11 8 12 11 13
REMARK SMILES IDX 12 14 13 15 25 16 14 17 16 18 26 19 15 20 17 21 18 22 24 23
REMARK SMILES IDX 19 24 22 25 20 26 23 27 21 28 29 29 30 30 31 31 32 32 33 33
REMARK SMILES IDX 34 34 86 35 35 36 85 37 36 38 37 39 38 40 79 41 39 42 84 43
REMARK SMILES IDX 78 44 80 45 40 46 83 47 77 48 76 49 41 51 67 52 50 53 66 54
REMARK SMILES IDX 51 55 54 56 65 57 81 58 52 59 53 60 64 62 82 63 55 64 42 65
REMARK SMILES IDX 43 66 48 67 44 68 45 69 47 70 49 71 46 72 68 73 69 74 74 75
REMARK SMILES IDX 70 76 71 77 73 78 75 79 72 80 56 81 57 82 62 83 58 84 59 85
REMARK SMILES IDX 61 86 63 87 60 88
REMARK H PARENT 80 50 54 61
REMARK Flexibility Score: inf
ROOT
ATOM      1  C   UNL A   1      37.317  20.282  25.012  1.00  0.00     0.274 C 
ENDROOT
BRANCH   1   2
ATOM      2  O   UNL A   1      37.355  21.486  24.216  1.00  0.00    -0.460 OA
BRANCH   2   3
ATOM      3  C   UNL A   1      36.715  22.641  24.526  1.00  0.00     0.344 C 
ATOM      4  O   UNL A   1      37.218  23.435  25.319  1.00  0.00    -0.248 OA
BRANCH   3   5
ATOM      5  C   UNL A   1      35.408  22.952  23.825  1.00  0.00     0.352 C 
BRANCH   5   6
ATOM      6  O   UNL A   1      34.433  21.940  24.072  1.00  0.00    -0.481 OA
BRANCH   6   7
ATOM      7  C   UNL A   1      33.788  22.174  25.264  1.00  0.00     0.127 A 
ATOM      8  C   UNL A   1      34.249  21.483  26.387  1.00  0.00     0.047 A 
ATOM      9  C   UNL A   1      32.682  23.040  25.350  1.00  0.00     0.018 A 
ATOM     10  C   UNL A   1      33.652  21.699  27.626  1.00  0.00     0.004 A 
ATOM     11  C   UNL A   1      32.111  23.266  26.609  1.00  0.00     0.012 A 
ATOM     12  C   UNL A   1      32.594  22.600  27.739  1.00  0.00     0.001 A 
BRANCH   9  13
ATOM     13  C   UNL A   1      32.128  23.766  24.195  1.00  0.00     0.033 C 
ATOM     14  C   UNL A   1      32.216  25.086  23.975  1.00  0.00     0.081 C 
ATOM     15  S   UNL A   1      31.330  25.895  22.740  1.00  0.00    -0.054 SA
ATOM     16  C   UNL A   1      32.952  26.086  24.795  1.00  0.00     0.270 C 
ATOM     17  C   UNL A   1      31.566  27.479  23.486  1.00  0.00     0.152 C 
ATOM     18  N   UNL A   1      32.452  27.367  24.550  1.00  0.00    -0.261 N 
ATOM     19  O   UNL A   1      33.855  25.785  25.566  1.00  0.00    -0.268 OA
ATOM     20  S   UNL A   1      30.836  28.840  22.843  1.00  0.00    -0.051 S 
BRANCH  18  21
ATOM     21  C   UNL A   1      32.878  28.446  25.389  1.00  0.00     0.052 A 
ATOM     22  C   UNL A   1      34.065  28.328  26.133  1.00  0.00     0.030 A 
ATOM     23  C   UNL A   1      32.086  29.589  25.579  1.00  0.00     0.050 A 
ATOM     24  C   UNL A   1      34.445  29.312  27.048  1.00  0.00     0.043 A 
ATOM     25  C   UNL A   1      32.451  30.558  26.520  1.00  0.00     0.078 A 
ATOM     26  C   UNL A   1      33.628  30.416  27.248  1.00  0.00     0.141 A 
ATOM     27  Cl  UNL A   1      31.404  31.896  26.801  1.00  0.00    -0.081 Cl
ATOM     28  F   UNL A   1      33.988  31.329  28.161  1.00  0.00    -0.205 F 
ENDBRANCH  18  21
ENDBRANCH   9  13
ENDBRANCH   6   7
ENDBRANCH   5   6
ENDBRANCH   3   5
ENDBRANCH   2   3
ENDBRANCH   1   2
BRANCH   1  29
ATOM     29  C   UNL A   1      38.676  19.590  25.001  1.00  0.00     0.275 C 
BRANCH  29  30
ATOM     30  O   UNL A   1      39.270  19.755  26.292  1.00  0.00    -0.458 OA
BRANCH  30  31
ATOM     31  C   UNL A   1      40.607  19.978  26.281  1.00  0.00     0.338 C 
ATOM     32  O   UNL A   1      41.469  19.274  25.787  1.00  0.00    -0.246 OA
BRANCH  31  33
ATOM     33  C   UNL A   1      40.834  21.346  26.780  1.00  0.00     0.060 A 
ATOM     34  C   UNL A   1      40.190  22.403  26.126  1.00  0.00     0.016 A 
ATOM     35  C   UNL A   1      41.658  21.584  27.887  1.00  0.00     0.016 A 
ATOM     36  C   UNL A   1      40.428  23.711  26.529  1.00  0.00     0.010 A 
ATOM     37  C   UNL A   1      41.903  22.893  28.287  1.00  0.00     0.010 A 
ATOM     38  C   UNL A   1      41.336  23.956  27.567  1.00  0.00    -0.014 A 
BRANCH  38  39
ATOM     39  C   UNL A   1      41.933  25.300  27.685  1.00  0.00     0.031 A 
ATOM     40  C   UNL A   1      41.119  26.351  28.389  1.00  0.00     0.074 A 
ATOM     41  C   UNL A   1      43.156  25.570  27.202  1.00  0.00     0.049 A 
ATOM     42  N   UNL A   1      41.408  27.600  28.640  1.00  0.00    -0.248 NA
ATOM     43  C   UNL A   1      39.790  25.933  28.870  1.00  0.00     0.031 C 
ATOM     44  C   UNL A   1      44.029  24.616  26.522  1.00  0.00     0.029 A 
ATOM     45  N   UNL A   1      43.869  26.738  27.215  1.00  0.00    -0.354 N 
ATOM     46  C   UNL A   1      40.301  28.111  29.306  1.00  0.00     0.074 A 
ATOM     47  C   UNL A   1      39.318  27.057  29.383  1.00  0.00     0.031 C 
ATOM     48  C   UNL A   1      45.168  25.243  26.177  1.00  0.00     0.029 A 
ATOM     49  C   UNL A   1      45.093  26.639  26.601  1.00  0.00     0.049 A 
ATOM     50  H   UNL A   1      43.537  27.569  27.624  1.00  0.00     0.167 HD
ATOM     51  C   UNL A   1      40.128  29.348  29.825  1.00  0.00     0.037 A 
ATOM     52  C   UNL A   1      46.036  27.581  26.413  1.00  0.00     0.037 A 
ATOM     53  C   UNL A   1      41.110  30.391  29.734  1.00  0.00     0.049 A 
ATOM     54  C   UNL A   1      45.802  28.965  26.963  1.00  0.00     0.074 A 
ATOM     55  C   UNL A   1      41.049  31.682  30.225  1.00  0.00     0.029 A 
ATOM     56  N   UNL A   1      42.336  30.256  29.100  1.00  0.00    -0.354 N 
ATOM     57  N   UNL A   1      44.772  29.430  27.630  1.00  0.00    -0.248 NA
ATOM     58  C   UNL A   1      46.870  29.950  26.745  1.00  0.00     0.031 C 
ATOM     59  C   UNL A   1      42.224  32.343  29.849  1.00  0.00     0.029 A 
ATOM     60  C   UNL A   1      43.037  31.446  29.172  1.00  0.00     0.049 A 
ATOM     61  H   UNL A   1      42.659  29.435  28.664  1.00  0.00     0.167 HD
ATOM     62  C   UNL A   1      45.085  30.746  27.948  1.00  0.00     0.074 A 
ATOM     63  C   UNL A   1      46.404  31.001  27.404  1.00  0.00     0.031 C 
ATOM     64  C   UNL A   1      44.356  31.661  28.634  1.00  0.00     0.037 A 
BRANCH  51  65
ATOM     65  C   UNL A   1      38.819  29.628  30.502  1.00  0.00     0.057 A 
ATOM     66  C   UNL A   1      38.635  29.414  31.876  1.00  0.00     0.134 A 
ATOM     67  C   UNL A   1      37.725  30.102  29.770  1.00  0.00     0.134 A 
ATOM     68  F   UNL A   1      39.637  28.935  32.629  1.00  0.00    -0.206 F 
ATOM     69  C   UNL A   1      37.401  29.636  32.491  1.00  0.00     0.040 A 
ATOM     70  C   UNL A   1      36.493  30.354  30.380  1.00  0.00     0.040 A 
ATOM     71  F   UNL A   1      37.831  30.323  28.451  1.00  0.00    -0.206 F 
ATOM     72  C   UNL A   1      36.328  30.113  31.742  1.00  0.00     0.006 A 
ENDBRANCH  51  65
BRANCH  52  73
ATOM     73  C   UNL A   1      47.296  27.247  25.704  1.00  0.00     0.057 A 
ATOM     74  C   UNL A   1      47.425  27.449  24.325  1.00  0.00     0.134 A 
ATOM     75  C   UNL A   1      48.392  26.698  26.381  1.00  0.00     0.134 A 
ATOM     76  F   UNL A   1      46.403  27.954  23.618  1.00  0.00    -0.206 F 
ATOM     77  C   UNL A   1      48.589  27.096  23.640  1.00  0.00     0.040 A 
ATOM     78  C   UNL A   1      49.570  26.363  25.711  1.00  0.00     0.040 A 
ATOM     79  F   UNL A   1      48.334  26.485  27.702  1.00  0.00    -0.206 F 
ATOM     80  C   UNL A   1      49.667  26.554  24.334  1.00  0.00     0.006 A 
ENDBRANCH  52  73
BRANCH  64  81
ATOM     81  C   UNL A   1      44.993  32.997  28.883  1.00  0.00     0.057 A 
ATOM     82  C   UNL A   1      45.810  33.235  29.994  1.00  0.00     0.134 A 
ATOM     83  C   UNL A   1      44.814  34.045  27.971  1.00  0.00     0.134 A 
ATOM     84  F   UNL A   1      46.014  32.275  30.908  1.00  0.00    -0.206 F 
ATOM     85  C   UNL A   1      46.403  34.481  30.206  1.00  0.00     0.040 A 
ATOM     86  C   UNL A   1      45.423  35.285  28.157  1.00  0.00     0.040 A 
ATOM     87  F   UNL A   1      44.053  33.877  26.879  1.00  0.00    -0.206 F 
ATOM     88  C   UNL A   1      46.215  35.508  29.283  1.00  0.00     0.006 A 
ENDBRANCH  64  81
ENDBRANCH  38  39
ENDBRANCH  31  33
ENDBRANCH  30  31
ENDBRANCH  29  30
ENDBRANCH   1  29
TORSDOF 15
ENDMDL
