MODEL 1
REMARK VINA RESULT:     -13.3      0.000      0.000
REMARK SMILES CS(=O)(=O)c1ccc(-c2cc(Cl)cc3c2O[C@H](C(F)(F)F)C(C(=O)OCCOC(=O)c2ccc(-c4c5nc(c(-c6c(F)cccc6F)c6ccc([nH]6)c(-c6c(F)cccc6F)c6nc(c(-c7c(F)cccc7F)c7ccc4[nH]7)C=C6)C=C5)cc2)=C3)cc1
REMARK SMILES IDX 26 1 25 2 23 3 24 4 22 5 9 6 10 7 15 8 11 9 14 10 16 11
REMARK SMILES IDX 12 12 13 13 85 14 17 15 8 16 5 17 6 18 87 19 7 20 86 21 2 22
REMARK SMILES IDX 1 23 3 24 4 25 18 26 19 27 20 28 21 29 27 30 28 31 29 32
REMARK SMILES IDX 30 33 31 34 32 35 84 36 33 37 83 38 34 39 35 40 36 41 77 42
REMARK SMILES IDX 37 43 82 44 76 45 78 46 38 47 81 48 75 49 74 50 39 52 65 53
REMARK SMILES IDX 48 54 64 55 49 56 52 57 63 58 79 59 50 60 51 61 62 63 80 64
REMARK SMILES IDX 53 65 40 66 41 67 46 68 42 69 43 70 45 71 47 72 44 73 66 74
REMARK SMILES IDX 67 75 72 76 68 77 69 78 71 79 73 80 70 81 54 82 55 83 60 84
REMARK SMILES IDX 56 85 57 86 59 87 61 88 58 89
REMARK H PARENT 78 51 52 62
REMARK Flexibility Score: inf
ROOT
ATOM      1  C   UNL A   1      31.280  28.852  24.444  1.00  0.00     0.275 C 
ENDROOT
BRANCH   1   2
ATOM      2  O   UNL A   1      30.616  27.740  25.100  1.00  0.00    -0.459 OA
BRANCH   2   3
ATOM      3  C   UNL A   1      30.498  26.641  24.310  1.00  0.00     0.338 C 
ATOM      4  O   UNL A   1      29.429  26.198  23.904  1.00  0.00    -0.246 OA
BRANCH   3   5
ATOM      5  C   UNL A   1      31.790  26.003  23.935  1.00  0.00     0.087 C 
ATOM      6  C   UNL A   1      32.080  22.017  24.580  1.00  0.00     0.026 A 
ATOM      7  C   UNL A   1      31.106  21.876  25.597  1.00  0.00     0.033 A 
ATOM      8  C   UNL A   1      32.409  23.347  24.299  1.00  0.00     0.135 A 
ATOM      9  C   UNL A   1      30.655  22.933  26.398  1.00  0.00     0.042 A 
ATOM     10  C   UNL A   1      32.169  24.340  25.285  1.00  0.00     0.019 A 
ATOM     11  O   UNL A   1      32.735  23.828  23.034  1.00  0.00    -0.475 OA
ATOM     12  Cl  UNL A   1      29.286  22.857  27.428  1.00  0.00    -0.084 Cl
ATOM     13  C   UNL A   1      31.298  24.138  26.337  1.00  0.00     0.032 A 
ATOM     14  C   UNL A   1      32.565  25.728  24.998  1.00  0.00     0.027 C 
ATOM     15  C   UNL A   1      32.018  25.131  22.712  1.00  0.00     0.316 C 
BRANCH   6  16
ATOM     16  C   UNL A   1      32.726  20.729  24.152  1.00  0.00    -0.015 A 
ATOM     17  C   UNL A   1      33.466  17.953  24.137  1.00  0.00     0.067 A 
ATOM     18  C   UNL A   1      32.504  18.439  23.250  1.00  0.00     0.021 A 
ATOM     19  C   UNL A   1      34.127  18.848  24.973  1.00  0.00     0.021 A 
ATOM     20  C   UNL A   1      32.173  19.819  23.234  1.00  0.00     0.010 A 
ATOM     21  C   UNL A   1      33.750  20.208  24.981  1.00  0.00     0.010 A 
BRANCH  17  22
ATOM     22  S   UNL A   1      33.986  16.238  24.076  1.00  0.00     0.175 S 
ATOM     23  C   UNL A   1      35.365  16.097  25.169  1.00  0.00     0.163 C 
ATOM     24  O   UNL A   1      34.465  15.986  22.733  1.00  0.00    -0.224 OA
ATOM     25  O   UNL A   1      32.895  15.446  24.626  1.00  0.00    -0.224 OA
ENDBRANCH  17  22
ENDBRANCH   6  16
BRANCH  15  26
ATOM     26  C   UNL A   1      32.850  25.994  21.754  1.00  0.00     0.430 C 
ATOM     27  F   UNL A   1      34.172  25.932  22.044  1.00  0.00    -0.167 F 
ATOM     28  F   UNL A   1      32.693  25.629  20.465  1.00  0.00    -0.167 F 
ATOM     29  F   UNL A   1      32.491  27.302  21.842  1.00  0.00    -0.167 F 
ENDBRANCH  15  26
ENDBRANCH   3   5
ENDBRANCH   2   3
ENDBRANCH   1   2
BRANCH   1  30
ATOM     30  C   UNL A   1      31.329  30.130  25.289  1.00  0.00     0.275 C 
BRANCH  30  31
ATOM     31  O   UNL A   1      32.662  30.428  25.750  1.00  0.00    -0.458 OA
BRANCH  31  32
ATOM     32  C   UNL A   1      32.705  31.365  26.728  1.00  0.00     0.338 C 
ATOM     33  O   UNL A   1      31.869  32.238  26.917  1.00  0.00    -0.246 OA
BRANCH  32  34
ATOM     34  C   UNL A   1      33.842  31.149  27.660  1.00  0.00     0.060 A 
ATOM     35  C   UNL A   1      34.243  29.829  27.837  1.00  0.00     0.016 A 
ATOM     36  C   UNL A   1      34.511  32.155  28.375  1.00  0.00     0.016 A 
ATOM     37  C   UNL A   1      35.326  29.536  28.669  1.00  0.00     0.010 A 
ATOM     38  C   UNL A   1      35.618  31.840  29.209  1.00  0.00     0.010 A 
ATOM     39  C   UNL A   1      36.070  30.522  29.341  1.00  0.00    -0.014 A 
BRANCH  39  40
ATOM     40  C   UNL A   1      37.250  30.062  30.168  1.00  0.00     0.031 A 
ATOM     41  C   UNL A   1      38.399  29.384  29.475  1.00  0.00     0.074 A 
ATOM     42  C   UNL A   1      37.454  30.424  31.458  1.00  0.00     0.049 A 
ATOM     43  N   UNL A   1      39.565  29.041  29.963  1.00  0.00    -0.248 NA
ATOM     44  C   UNL A   1      38.217  29.062  28.053  1.00  0.00     0.031 C 
ATOM     45  C   UNL A   1      36.502  31.149  32.270  1.00  0.00     0.029 A 
ATOM     46  N   UNL A   1      38.550  30.327  32.296  1.00  0.00    -0.354 N 
ATOM     47  C   UNL A   1      40.256  28.470  28.907  1.00  0.00     0.074 A 
ATOM     48  C   UNL A   1      39.391  28.536  27.748  1.00  0.00     0.031 C 
ATOM     49  C   UNL A   1      37.091  31.623  33.378  1.00  0.00     0.029 A 
ATOM     50  C   UNL A   1      38.418  31.034  33.480  1.00  0.00     0.049 A 
ATOM     51  H   UNL A   1      39.352  29.802  32.072  1.00  0.00     0.167 HD
ATOM     52  C   UNL A   1      41.488  27.913  28.905  1.00  0.00     0.037 A 
ATOM     53  C   UNL A   1      39.224  31.155  34.559  1.00  0.00     0.037 A 
ATOM     54  C   UNL A   1      42.330  27.769  30.061  1.00  0.00     0.049 A 
ATOM     55  C   UNL A   1      40.478  30.327  34.613  1.00  0.00     0.074 A 
ATOM     56  C   UNL A   1      43.611  27.252  30.123  1.00  0.00     0.029 A 
ATOM     57  N   UNL A   1      41.973  28.103  31.359  1.00  0.00    -0.354 N 
ATOM     58  N   UNL A   1      40.980  29.544  33.689  1.00  0.00    -0.248 NA
ATOM     59  C   UNL A   1      41.266  30.367  35.854  1.00  0.00     0.031 C 
ATOM     60  C   UNL A   1      44.024  27.259  31.459  1.00  0.00     0.029 A 
ATOM     61  C   UNL A   1      43.044  27.882  32.214  1.00  0.00     0.049 A 
ATOM     62  H   UNL A   1      41.092  28.446  31.633  1.00  0.00     0.167 HD
ATOM     63  C   UNL A   1      42.163  29.044  34.213  1.00  0.00     0.074 A 
ATOM     64  C   UNL A   1      42.284  29.572  35.555  1.00  0.00     0.031 C 
ATOM     65  C   UNL A   1      43.100  28.284  33.599  1.00  0.00     0.037 A 
BRANCH  52  66
ATOM     66  C   UNL A   1      41.959  27.355  27.597  1.00  0.00     0.057 A 
ATOM     67  C   UNL A   1      42.568  28.158  26.623  1.00  0.00     0.134 A 
ATOM     68  C   UNL A   1      41.765  26.002  27.298  1.00  0.00     0.134 A 
ATOM     69  F   UNL A   1      42.749  29.469  26.840  1.00  0.00    -0.206 F 
ATOM     70  C   UNL A   1      42.939  27.638  25.383  1.00  0.00     0.040 A 
ATOM     71  C   UNL A   1      42.152  25.466  26.072  1.00  0.00     0.040 A 
ATOM     72  F   UNL A   1      41.179  25.187  28.188  1.00  0.00    -0.206 F 
ATOM     73  C   UNL A   1      42.732  26.287  25.106  1.00  0.00     0.006 A 
ENDBRANCH  52  66
BRANCH  53  74
ATOM     74  C   UNL A   1      38.862  32.024  35.721  1.00  0.00     0.057 A 
ATOM     75  C   UNL A   1      38.119  31.527  36.804  1.00  0.00     0.134 A 
ATOM     76  C   UNL A   1      39.190  33.385  35.757  1.00  0.00     0.134 A 
ATOM     77  F   UNL A   1      37.739  30.240  36.825  1.00  0.00    -0.206 F 
ATOM     78  C   UNL A   1      37.701  32.350  37.856  1.00  0.00     0.040 A 
ATOM     79  C   UNL A   1      38.817  34.210  36.822  1.00  0.00     0.040 A 
ATOM     80  F   UNL A   1      39.885  33.940  34.754  1.00  0.00    -0.206 F 
ATOM     81  C   UNL A   1      38.058  33.695  37.870  1.00  0.00     0.006 A 
ENDBRANCH  53  74
BRANCH  65  82
ATOM     82  C   UNL A   1      44.362  28.015  34.367  1.00  0.00     0.057 A 
ATOM     83  C   UNL A   1      44.549  26.865  35.140  1.00  0.00     0.134 A 
ATOM     84  C   UNL A   1      45.411  28.945  34.326  1.00  0.00     0.134 A 
ATOM     85  F   UNL A   1      43.571  25.953  35.253  1.00  0.00    -0.206 F 
ATOM     86  C   UNL A   1      45.732  26.653  35.852  1.00  0.00     0.040 A 
ATOM     87  C   UNL A   1      46.609  28.729  35.005  1.00  0.00     0.040 A 
ATOM     88  F   UNL A   1      45.285  30.079  33.619  1.00  0.00    -0.206 F 
ATOM     89  C   UNL A   1      46.770  27.582  35.776  1.00  0.00     0.006 A 
ENDBRANCH  65  82
ENDBRANCH  39  40
ENDBRANCH  32  34
ENDBRANCH  31  32
ENDBRANCH  30  31
ENDBRANCH   1  30
TORSDOF 14
ENDMDL
MODEL 2
REMARK VINA RESULT:     -13.1      0.827      5.934
REMARK SMILES CS(=O)(=O)c1ccc(-c2cc(Cl)cc3c2O[C@H](C(F)(F)F)C(C(=O)OCCOC(=O)c2ccc(-c4c5nc(c(-c6c(F)cccc6F)c6ccc([nH]6)c(-c6c(F)cccc6F)c6nc(c(-c7c(F)cccc7F)c7ccc4[nH]7)C=C6)C=C5)cc2)=C3)cc1
REMARK SMILES IDX 26 1 25 2 23 3 24 4 22 5 9 6 10 7 15 8 11 9 14 10 16 11
REMARK SMILES IDX 12 12 13 13 85 14 17 15 8 16 5 17 6 18 87 19 7 20 86 21 2 22
REMARK SMILES IDX 1 23 3 24 4 25 18 26 19 27 20 28 21 29 27 30 28 31 29 32
REMARK SMILES IDX 30 33 31 34 32 35 84 36 33 37 83 38 34 39 35 40 36 41 77 42
REMARK SMILES IDX 37 43 82 44 76 45 78 46 38 47 81 48 75 49 74 50 39 52 65 53
REMARK SMILES IDX 48 54 64 55 49 56 52 57 63 58 79 59 50 60 51 61 62 63 80 64
REMARK SMILES IDX 53 65 40 66 41 67 46 68 42 69 43 70 45 71 47 72 44 73 66 74
REMARK SMILES IDX 67 75 72 76 68 77 69 78 71 79 73 80 70 81 54 82 55 83 60 84
REMARK SMILES IDX 56 85 57 86 59 87 61 88 58 89
REMARK H PARENT 78 51 52 62
REMARK Flexibility Score: inf
ROOT
ATOM      1  C   UNL A   1      31.253  28.929  24.514  1.00  0.00     0.275 C 
ENDROOT
BRANCH   1   2
ATOM      2  O   UNL A   1      30.690  27.779  25.198  1.00  0.00    -0.459 OA
BRANCH   2   3
ATOM      3  C   UNL A   1      30.561  26.687  24.400  1.00  0.00     0.338 C 
ATOM      4  O   UNL A   1      29.487  26.257  23.991  1.00  0.00    -0.246 OA
BRANCH   3   5
ATOM      5  C   UNL A   1      31.846  26.041  24.018  1.00  0.00     0.087 C 
ATOM      6  C   UNL A   1      32.095  22.045  24.611  1.00  0.00     0.026 A 
ATOM      7  C   UNL A   1      31.118  21.901  25.626  1.00  0.00     0.033 A 
ATOM      8  C   UNL A   1      32.438  23.375  24.348  1.00  0.00     0.135 A 
ATOM      9  C   UNL A   1      30.678  22.951  26.439  1.00  0.00     0.042 A 
ATOM     10  C   UNL A   1      32.207  24.357  25.347  1.00  0.00     0.019 A 
ATOM     11  O   UNL A   1      32.770  23.869  23.090  1.00  0.00    -0.475 OA
ATOM     12  Cl  UNL A   1      29.306  22.876  27.467  1.00  0.00    -0.084 Cl
ATOM     13  C   UNL A   1      31.332  24.150  26.395  1.00  0.00     0.032 A 
ATOM     14  C   UNL A   1      32.617  25.745  25.077  1.00  0.00     0.027 C 
ATOM     15  C   UNL A   1      32.067  25.183  22.784  1.00  0.00     0.316 C 
BRANCH   6  16
ATOM     16  C   UNL A   1      32.728  20.755  24.167  1.00  0.00    -0.015 A 
ATOM     17  C   UNL A   1      33.460  17.977  24.132  1.00  0.00     0.067 A 
ATOM     18  C   UNL A   1      32.480  18.468  23.266  1.00  0.00     0.021 A 
ATOM     19  C   UNL A   1      34.142  18.870  24.954  1.00  0.00     0.021 A 
ATOM     20  C   UNL A   1      32.153  19.849  23.260  1.00  0.00     0.010 A 
ATOM     21  C   UNL A   1      33.769  20.230  24.973  1.00  0.00     0.010 A 
BRANCH  17  22
ATOM     22  S   UNL A   1      33.975  16.261  24.056  1.00  0.00     0.175 S 
ATOM     23  C   UNL A   1      35.366  16.112  25.133  1.00  0.00     0.163 C 
ATOM     24  O   UNL A   1      34.437  16.014  22.707  1.00  0.00    -0.224 OA
ATOM     25  O   UNL A   1      32.888  15.470  24.615  1.00  0.00    -0.224 OA
ENDBRANCH  17  22
ENDBRANCH   6  16
BRANCH  15  26
ATOM     26  C   UNL A   1      32.909  26.049  21.838  1.00  0.00     0.430 C 
ATOM     27  F   UNL A   1      34.235  25.909  22.077  1.00  0.00    -0.167 F 
ATOM     28  F   UNL A   1      32.691  25.755  20.539  1.00  0.00    -0.167 F 
ATOM     29  F   UNL A   1      32.619  27.368  22.000  1.00  0.00    -0.167 F 
ENDBRANCH  15  26
ENDBRANCH   3   5
ENDBRANCH   2   3
ENDBRANCH   1   2
BRANCH   1  30
ATOM     30  C   UNL A   1      31.415  30.163  25.409  1.00  0.00     0.275 C 
BRANCH  30  31
ATOM     31  O   UNL A   1      32.697  30.196  26.066  1.00  0.00    -0.458 OA
BRANCH  31  32
ATOM     32  C   UNL A   1      32.879  31.282  26.857  1.00  0.00     0.338 C 
ATOM     33  O   UNL A   1      32.040  32.139  27.096  1.00  0.00    -0.246 OA
BRANCH  32  34
ATOM     34  C   UNL A   1      34.203  31.267  27.531  1.00  0.00     0.060 A 
ATOM     35  C   UNL A   1      34.662  30.022  27.946  1.00  0.00     0.016 A 
ATOM     36  C   UNL A   1      34.995  32.395  27.793  1.00  0.00     0.016 A 
ATOM     37  C   UNL A   1      35.912  29.909  28.559  1.00  0.00     0.010 A 
ATOM     38  C   UNL A   1      36.270  32.262  28.407  1.00  0.00     0.010 A 
ATOM     39  C   UNL A   1      36.769  31.004  28.768  1.00  0.00    -0.014 A 
BRANCH  39  40
ATOM     40  C   UNL A   1      38.116  30.726  29.397  1.00  0.00     0.031 A 
ATOM     41  C   UNL A   1      38.342  31.124  30.830  1.00  0.00     0.074 A 
ATOM     42  C   UNL A   1      39.061  29.931  28.837  1.00  0.00     0.049 A 
ATOM     43  N   UNL A   1      39.361  30.852  31.606  1.00  0.00    -0.248 NA
ATOM     44  C   UNL A   1      37.283  31.916  31.470  1.00  0.00     0.031 C 
ATOM     45  C   UNL A   1      38.988  29.384  27.500  1.00  0.00     0.029 A 
ATOM     46  N   UNL A   1      40.218  29.361  29.332  1.00  0.00    -0.354 N 
ATOM     47  C   UNL A   1      39.063  31.435  32.826  1.00  0.00     0.074 A 
ATOM     48  C   UNL A   1      37.760  32.051  32.697  1.00  0.00     0.031 C 
ATOM     49  C   UNL A   1      39.895  28.410  27.340  1.00  0.00     0.029 A 
ATOM     50  C   UNL A   1      40.786  28.417  28.492  1.00  0.00     0.049 A 
ATOM     51  H   UNL A   1      40.606  29.603  30.204  1.00  0.00     0.167 HD
ATOM     52  C   UNL A   1      39.817  31.482  33.948  1.00  0.00     0.037 A 
ATOM     53  C   UNL A   1      41.918  27.684  28.584  1.00  0.00     0.037 A 
ATOM     54  C   UNL A   1      41.145  30.944  34.071  1.00  0.00     0.049 A 
ATOM     55  C   UNL A   1      42.848  27.943  29.737  1.00  0.00     0.074 A 
ATOM     56  C   UNL A   1      41.952  30.918  35.194  1.00  0.00     0.029 A 
ATOM     57  N   UNL A   1      41.878  30.375  33.042  1.00  0.00    -0.354 N 
ATOM     58  N   UNL A   1      42.672  28.739  30.764  1.00  0.00    -0.248 NA
ATOM     59  C   UNL A   1      44.137  27.237  29.743  1.00  0.00     0.031 C 
ATOM     60  C   UNL A   1      43.178  30.346  34.841  1.00  0.00     0.029 A 
ATOM     61  C   UNL A   1      43.095  29.916  33.527  1.00  0.00     0.049 A 
ATOM     62  H   UNL A   1      41.580  30.304  32.106  1.00  0.00     0.167 HD
ATOM     63  C   UNL A   1      43.798  28.588  31.560  1.00  0.00     0.074 A 
ATOM     64  C   UNL A   1      44.675  27.662  30.877  1.00  0.00     0.031 C 
ATOM     65  C   UNL A   1      44.037  29.110  32.787  1.00  0.00     0.037 A 
BRANCH  52  66
ATOM     66  C   UNL A   1      39.224  32.210  35.114  1.00  0.00     0.057 A 
ATOM     67  C   UNL A   1      39.437  33.579  35.322  1.00  0.00     0.134 A 
ATOM     68  C   UNL A   1      38.459  31.518  36.060  1.00  0.00     0.134 A 
ATOM     69  F   UNL A   1      40.192  34.286  34.468  1.00  0.00    -0.206 F 
ATOM     70  C   UNL A   1      38.935  34.228  36.450  1.00  0.00     0.040 A 
ATOM     71  C   UNL A   1      37.932  32.161  37.178  1.00  0.00     0.040 A 
ATOM     72  F   UNL A   1      38.228  30.204  35.918  1.00  0.00    -0.206 F 
ATOM     73  C   UNL A   1      38.178  33.518  37.381  1.00  0.00     0.006 A 
ENDBRANCH  52  66
BRANCH  53  74
ATOM     74  C   UNL A   1      42.301  26.688  27.536  1.00  0.00     0.057 A 
ATOM     75  C   UNL A   1      41.900  25.346  27.618  1.00  0.00     0.134 A 
ATOM     76  C   UNL A   1      43.130  27.031  26.459  1.00  0.00     0.134 A 
ATOM     77  F   UNL A   1      41.132  24.934  28.639  1.00  0.00    -0.206 F 
ATOM     78  C   UNL A   1      42.322  24.388  26.690  1.00  0.00     0.040 A 
ATOM     79  C   UNL A   1      43.525  26.094  25.500  1.00  0.00     0.040 A 
ATOM     80  F   UNL A   1      43.569  28.290  26.318  1.00  0.00    -0.206 F 
ATOM     81  C   UNL A   1      43.132  24.764  25.622  1.00  0.00     0.006 A 
ENDBRANCH  53  74
BRANCH  65  82
ATOM     82  C   UNL A   1      45.284  28.652  33.485  1.00  0.00     0.057 A 
ATOM     83  C   UNL A   1      46.490  29.359  33.425  1.00  0.00     0.134 A 
ATOM     84  C   UNL A   1      45.266  27.466  34.233  1.00  0.00     0.134 A 
ATOM     85  F   UNL A   1      46.587  30.482  32.697  1.00  0.00    -0.206 F 
ATOM     86  C   UNL A   1      47.636  28.897  34.078  1.00  0.00     0.040 A 
ATOM     87  C   UNL A   1      46.393  27.012  34.915  1.00  0.00     0.040 A 
ATOM     88  F   UNL A   1      44.145  26.731  34.312  1.00  0.00    -0.206 F 
ATOM     89  C   UNL A   1      47.584  27.726  34.835  1.00  0.00     0.006 A 
ENDBRANCH  65  82
ENDBRANCH  39  40
ENDBRANCH  32  34
ENDBRANCH  31  32
ENDBRANCH  30  31
ENDBRANCH   1  30
TORSDOF 14
ENDMDL
MODEL 3
REMARK VINA RESULT:     -13.0      4.324      7.861
REMARK SMILES CS(=O)(=O)c1ccc(-c2cc(Cl)cc3c2O[C@H](C(F)(F)F)C(C(=O)OCCOC(=O)c2ccc(-c4c5nc(c(-c6c(F)cccc6F)c6ccc([nH]6)c(-c6c(F)cccc6F)c6nc(c(-c7c(F)cccc7F)c7ccc4[nH]7)C=C6)C=C5)cc2)=C3)cc1
REMARK SMILES IDX 26 1 25 2 23 3 24 4 22 5 9 6 10 7 15 8 11 9 14 10 16 11
REMARK SMILES IDX 12 12 13 13 85 14 17 15 8 16 5 17 6 18 87 19 7 20 86 21 2 22
REMARK SMILES IDX 1 23 3 24 4 25 18 26 19 27 20 28 21 29 27 30 28 31 29 32
REMARK SMILES IDX 30 33 31 34 32 35 84 36 33 37 83 38 34 39 35 40 36 41 77 42
REMARK SMILES IDX 37 43 82 44 76 45 78 46 38 47 81 48 75 49 74 50 39 52 65 53
REMARK SMILES IDX 48 54 64 55 49 56 52 57 63 58 79 59 50 60 51 61 62 63 80 64
REMARK SMILES IDX 53 65 40 66 41 67 46 68 42 69 43 70 45 71 47 72 44 73 66 74
REMARK SMILES IDX 67 75 72 76 68 77 69 78 71 79 73 80 70 81 54 82 55 83 60 84
REMARK SMILES IDX 56 85 57 86 59 87 61 88 58 89
REMARK H PARENT 78 51 52 62
REMARK Flexibility Score: inf
ROOT
ATOM      1  C   UNL A   1      34.691  20.958  25.017  1.00  0.00     0.275 C 
ENDROOT
BRANCH   1   2
ATOM      2  O   UNL A   1      34.357  21.750  23.847  1.00  0.00    -0.459 OA
BRANCH   2   3
ATOM      3  C   UNL A   1      33.072  22.191  23.844  1.00  0.00     0.338 C 
ATOM      4  O   UNL A   1      32.181  21.707  23.154  1.00  0.00    -0.246 OA
BRANCH   3   5
ATOM      5  C   UNL A   1      32.798  23.316  24.778  1.00  0.00     0.087 C 
ATOM      6  C   UNL A   1      31.057  26.601  23.177  1.00  0.00     0.026 A 
ATOM      7  C   UNL A   1      31.460  26.442  21.829  1.00  0.00     0.033 A 
ATOM      8  C   UNL A   1      31.714  25.741  24.063  1.00  0.00     0.135 A 
ATOM      9  C   UNL A   1      32.548  25.658  21.427  1.00  0.00     0.042 A 
ATOM     10  C   UNL A   1      32.968  25.191  23.689  1.00  0.00     0.019 A 
ATOM     11  O   UNL A   1      31.130  25.181  25.196  1.00  0.00    -0.475 OA
ATOM     12  Cl  UNL A   1      32.882  25.216  19.804  1.00  0.00    -0.084 Cl
ATOM     13  C   UNL A   1      33.392  25.150  22.375  1.00  0.00     0.032 A 
ATOM     14  C   UNL A   1      33.673  24.328  24.650  1.00  0.00     0.027 C 
ATOM     15  C   UNL A   1      31.431  23.695  25.322  1.00  0.00     0.316 C 
BRANCH   6  16
ATOM     16  C   UNL A   1      30.175  27.792  23.427  1.00  0.00    -0.015 A 
ATOM     17  C   UNL A   1      28.995  30.393  23.115  1.00  0.00     0.067 A 
ATOM     18  C   UNL A   1      28.314  29.246  22.700  1.00  0.00     0.021 A 
ATOM     19  C   UNL A   1      30.219  30.253  23.763  1.00  0.00     0.021 A 
ATOM     20  C   UNL A   1      28.885  27.962  22.896  1.00  0.00     0.010 A 
ATOM     21  C   UNL A   1      30.796  28.973  23.902  1.00  0.00     0.010 A 
BRANCH  17  22
ATOM     22  S   UNL A   1      28.228  32.009  22.994  1.00  0.00     0.175 S 
ATOM     23  C   UNL A   1      28.025  32.336  21.272  1.00  0.00     0.163 C 
ATOM     24  O   UNL A   1      29.177  32.971  23.514  1.00  0.00    -0.224 OA
ATOM     25  O   UNL A   1      26.903  31.893  23.588  1.00  0.00    -0.224 OA
ENDBRANCH  17  22
ENDBRANCH   6  16
BRANCH  15  26
ATOM     26  C   UNL A   1      31.450  23.262  26.794  1.00  0.00     0.430 C 
ATOM     27  F   UNL A   1      31.991  24.216  27.591  1.00  0.00    -0.167 F 
ATOM     28  F   UNL A   1      30.218  22.983  27.265  1.00  0.00    -0.167 F 
ATOM     29  F   UNL A   1      32.202  22.142  26.961  1.00  0.00    -0.167 F 
ENDBRANCH  15  26
ENDBRANCH   3   5
ENDBRANCH   2   3
ENDBRANCH   1   2
BRANCH   1  30
ATOM     30  C   UNL A   1      36.153  20.498  25.056  1.00  0.00     0.275 C 
BRANCH  30  31
ATOM     31  O   UNL A   1      36.990  21.403  25.803  1.00  0.00    -0.458 OA
BRANCH  31  32
ATOM     32  C   UNL A   1      38.304  21.072  25.786  1.00  0.00     0.338 C 
ATOM     33  O   UNL A   1      38.781  20.069  25.275  1.00  0.00    -0.246 OA
BRANCH  32  34
ATOM     34  C   UNL A   1      39.158  22.145  26.361  1.00  0.00     0.060 A 
ATOM     35  C   UNL A   1      38.838  23.446  25.987  1.00  0.00     0.016 A 
ATOM     36  C   UNL A   1      40.252  21.943  27.215  1.00  0.00     0.016 A 
ATOM     37  C   UNL A   1      39.566  24.519  26.505  1.00  0.00     0.010 A 
ATOM     38  C   UNL A   1      40.976  23.047  27.743  1.00  0.00     0.010 A 
ATOM     39  C   UNL A   1      40.618  24.363  27.424  1.00  0.00    -0.014 A 
BRANCH  39  40
ATOM     40  C   UNL A   1      41.284  25.619  27.941  1.00  0.00     0.031 A 
ATOM     41  C   UNL A   1      42.660  25.966  27.442  1.00  0.00     0.074 A 
ATOM     42  C   UNL A   1      40.639  26.581  28.645  1.00  0.00     0.049 A 
ATOM     43  N   UNL A   1      43.352  27.060  27.640  1.00  0.00    -0.248 NA
ATOM     44  C   UNL A   1      43.334  24.961  26.609  1.00  0.00     0.031 C 
ATOM     45  C   UNL A   1      39.285  26.467  29.144  1.00  0.00     0.029 A 
ATOM     46  N   UNL A   1      40.977  27.876  28.988  1.00  0.00    -0.354 N 
ATOM     47  C   UNL A   1      44.540  26.876  26.951  1.00  0.00     0.074 A 
ATOM     48  C   UNL A   1      44.464  25.581  26.310  1.00  0.00     0.031 C 
ATOM     49  C   UNL A   1      38.821  27.666  29.524  1.00  0.00     0.029 A 
ATOM     50  C   UNL A   1      39.929  28.610  29.519  1.00  0.00     0.049 A 
ATOM     51  H   UNL A   1      41.881  28.245  28.867  1.00  0.00     0.167 HD
ATOM     52  C   UNL A   1      45.612  27.697  26.879  1.00  0.00     0.037 A 
ATOM     53  C   UNL A   1      39.860  29.868  30.012  1.00  0.00     0.037 A 
ATOM     54  C   UNL A   1      45.737  28.951  27.571  1.00  0.00     0.049 A 
ATOM     55  C   UNL A   1      41.132  30.661  30.132  1.00  0.00     0.074 A 
ATOM     56  C   UNL A   1      46.781  29.857  27.509  1.00  0.00     0.029 A 
ATOM     57  N   UNL A   1      44.818  29.464  28.473  1.00  0.00    -0.354 N 
ATOM     58  N   UNL A   1      42.335  30.341  29.723  1.00  0.00    -0.248 NA
ATOM     59  C   UNL A   1      41.056  31.970  30.798  1.00  0.00     0.031 C 
ATOM     60  C   UNL A   1      46.500  30.910  28.386  1.00  0.00     0.029 A 
ATOM     61  C   UNL A   1      45.233  30.715  28.908  1.00  0.00     0.049 A 
ATOM     62  H   UNL A   1      43.994  29.010  28.762  1.00  0.00     0.167 HD
ATOM     63  C   UNL A   1      43.145  31.424  30.033  1.00  0.00     0.074 A 
ATOM     64  C   UNL A   1      42.309  32.394  30.707  1.00  0.00     0.031 C 
ATOM     65  C   UNL A   1      44.444  31.623  29.707  1.00  0.00     0.037 A 
BRANCH  52  66
ATOM     66  C   UNL A   1      46.766  27.207  26.061  1.00  0.00     0.057 A 
ATOM     67  C   UNL A   1      46.881  27.490  24.694  1.00  0.00     0.134 A 
ATOM     68  C   UNL A   1      47.756  26.410  26.647  1.00  0.00     0.134 A 
ATOM     69  F   UNL A   1      45.944  28.219  24.070  1.00  0.00    -0.206 F 
ATOM     70  C   UNL A   1      47.926  26.968  23.930  1.00  0.00     0.040 A 
ATOM     71  C   UNL A   1      48.817  25.903  25.901  1.00  0.00     0.040 A 
ATOM     72  F   UNL A   1      47.694  26.098  27.951  1.00  0.00    -0.206 F 
ATOM     73  C   UNL A   1      48.899  26.174  24.536  1.00  0.00     0.006 A 
ENDBRANCH  52  66
BRANCH  53  74
ATOM     74  C   UNL A   1      38.575  30.452  30.507  1.00  0.00     0.057 A 
ATOM     75  C   UNL A   1      37.735  31.196  29.664  1.00  0.00     0.134 A 
ATOM     76  C   UNL A   1      38.181  30.340  31.847  1.00  0.00     0.134 A 
ATOM     77  F   UNL A   1      38.062  31.375  28.375  1.00  0.00    -0.206 F 
ATOM     78  C   UNL A   1      36.575  31.819  30.137  1.00  0.00     0.040 A 
ATOM     79  C   UNL A   1      37.002  30.920  32.324  1.00  0.00     0.040 A 
ATOM     80  F   UNL A   1      38.938  29.659  32.720  1.00  0.00    -0.206 F 
ATOM     81  C   UNL A   1      36.202  31.674  31.470  1.00  0.00     0.006 A 
ENDBRANCH  53  74
BRANCH  65  82
ATOM     82  C   UNL A   1      45.027  32.965  30.044  1.00  0.00     0.057 A 
ATOM     83  C   UNL A   1      45.723  33.213  31.232  1.00  0.00     0.134 A 
ATOM     84  C   UNL A   1      44.878  34.032  29.146  1.00  0.00     0.134 A 
ATOM     85  F   UNL A   1      45.869  32.247  32.152  1.00  0.00    -0.206 F 
ATOM     86  C   UNL A   1      46.242  34.479  31.518  1.00  0.00     0.040 A 
ATOM     87  C   UNL A   1      45.419  35.289  29.405  1.00  0.00     0.040 A 
ATOM     88  F   UNL A   1      44.203  33.863  27.998  1.00  0.00    -0.206 F 
ATOM     89  C   UNL A   1      46.099  35.517  30.598  1.00  0.00     0.006 A 
ENDBRANCH  65  82
ENDBRANCH  39  40
ENDBRANCH  32  34
ENDBRANCH  31  32
ENDBRANCH  30  31
ENDBRANCH   1  30
TORSDOF 14
ENDMDL
