MODEL 1
REMARK VINA RESULT:     -10.5      0.000      0.000
REMARK SMILES NC(=O)c1c(F)cccc1O[C@@H](F)C(=O)OCCOC(=O)c1ccc(-c2c3nc(c(-c4c(F)cccc4F)c4ccc([nH]4)c(-c4c(F)cccc4F)c4nc(c(-c5c(F)cccc5F)c5ccc2[nH]5)C=C4)C=C3)cc1
REMARK SMILES IDX 17 1 16 2 14 3 15 4 12 5 13 6 11 7 10 8 4 9 5 10 6 11 7 12
REMARK SMILES IDX 9 13 8 14 2 15 1 16 3 19 18 20 19 21 20 22 21 23 22 24 23 25
REMARK SMILES IDX 75 26 24 27 74 28 25 29 26 30 27 31 68 32 28 33 73 34 67 35
REMARK SMILES IDX 69 36 29 37 72 38 66 39 65 40 30 42 56 43 39 44 55 45 40 46
REMARK SMILES IDX 43 47 54 48 70 49 41 50 42 51 53 53 71 54 44 55 31 56 32 57
REMARK SMILES IDX 37 58 33 59 34 60 36 61 38 62 35 63 57 64 58 65 63 66 59 67
REMARK SMILES IDX 60 68 62 69 64 70 61 71 45 72 46 73 51 74 47 75 48 76 50 77
REMARK SMILES IDX 52 78 49 79
REMARK H PARENT 1 17 1 18 69 41 43 52
REMARK Flexibility Score: inf
ROOT
ATOM      1  C   UNL A   1      34.674  33.882  30.848  1.00  0.00     0.274 C 
ENDROOT
BRANCH   1   2
ATOM      2  O   UNL A   1      33.521  34.722  30.636  1.00  0.00    -0.457 OA
BRANCH   2   3
ATOM      3  C   UNL A   1      33.156  34.957  29.341  1.00  0.00     0.381 C 
ATOM      4  O   UNL A   1      32.454  35.905  28.995  1.00  0.00    -0.244 OA
BRANCH   3   5
ATOM      5  C   UNL A   1      33.825  33.975  28.335  1.00  0.00     0.461 C 
ATOM      6  F   UNL A   1      34.511  34.644  27.357  1.00  0.00    -0.189 F 
BRANCH   5   7
ATOM      7  O   UNL A   1      33.322  32.802  27.745  1.00  0.00    -0.450 OA
BRANCH   7   8
ATOM      8  C   UNL A   1      34.017  31.640  27.660  1.00  0.00     0.139 A 
ATOM      9  C   UNL A   1      33.585  30.365  27.281  1.00  0.00     0.117 A 
ATOM     10  C   UNL A   1      34.517  29.319  27.237  1.00  0.00     0.139 A 
ATOM     11  F   UNL A   1      34.141  28.081  26.877  1.00  0.00    -0.206 F 
ATOM     12  C   UNL A   1      35.859  29.520  27.547  1.00  0.00     0.040 A 
ATOM     13  C   UNL A   1      35.379  31.834  27.964  1.00  0.00     0.047 A 
ATOM     14  C   UNL A   1      36.295  30.786  27.912  1.00  0.00     0.007 A 
BRANCH   9  15
ATOM     15  C   UNL A   1      32.203  30.070  26.858  1.00  0.00     0.255 C 
ATOM     16  N   UNL A   1      31.699  30.803  25.822  1.00  0.00    -0.365 N 
ATOM     17  H   UNL A   1      30.781  30.642  25.505  1.00  0.00     0.159 HD
ATOM     18  H   UNL A   1      32.254  31.494  25.391  1.00  0.00     0.159 HD
ATOM     19  O   UNL A   1      31.546  29.177  27.371  1.00  0.00    -0.269 OA
ENDBRANCH   9  15
ENDBRANCH   7   8
ENDBRANCH   5   7
ENDBRANCH   3   5
ENDBRANCH   2   3
ENDBRANCH   1   2
BRANCH   1  20
ATOM     20  C   UNL A   1      34.395  32.835  31.931  1.00  0.00     0.275 C 
BRANCH  20  21
ATOM     21  O   UNL A   1      35.401  31.806  31.933  1.00  0.00    -0.458 OA
BRANCH  21  22
ATOM     22  C   UNL A   1      36.412  32.007  32.808  1.00  0.00     0.338 C 
ATOM     23  O   UNL A   1      36.326  32.334  33.980  1.00  0.00    -0.246 OA
BRANCH  22  24
ATOM     24  C   UNL A   1      37.679  31.584  32.200  1.00  0.00     0.060 A 
ATOM     25  C   UNL A   1      37.889  31.935  30.867  1.00  0.00     0.016 A 
ATOM     26  C   UNL A   1      38.608  30.802  32.886  1.00  0.00     0.016 A 
ATOM     27  C   UNL A   1      39.011  31.487  30.192  1.00  0.00     0.010 A 
ATOM     28  C   UNL A   1      39.751  30.361  32.210  1.00  0.00     0.010 A 
ATOM     29  C   UNL A   1      39.948  30.691  30.858  1.00  0.00    -0.014 A 
BRANCH  29  30
ATOM     30  C   UNL A   1      41.102  30.170  30.095  1.00  0.00     0.031 A 
ATOM     31  C   UNL A   1      42.319  31.026  29.919  1.00  0.00     0.074 A 
ATOM     32  C   UNL A   1      41.069  28.909  29.628  1.00  0.00     0.049 A 
ATOM     33  N   UNL A   1      43.404  30.784  29.232  1.00  0.00    -0.248 NA
ATOM     34  C   UNL A   1      42.320  32.326  30.610  1.00  0.00     0.031 C 
ATOM     35  C   UNL A   1      39.960  27.971  29.811  1.00  0.00     0.029 A 
ATOM     36  N   UNL A   1      41.999  28.194  28.919  1.00  0.00    -0.354 N 
ATOM     37  C   UNL A   1      44.202  31.909  29.382  1.00  0.00     0.074 A 
ATOM     38  C   UNL A   1      43.476  32.841  30.216  1.00  0.00     0.031 C 
ATOM     39  C   UNL A   1      40.281  26.798  29.245  1.00  0.00     0.029 A 
ATOM     40  C   UNL A   1      41.589  26.921  28.610  1.00  0.00     0.049 A 
ATOM     41  H   UNL A   1      42.876  28.558  28.658  1.00  0.00     0.167 HD
ATOM     42  C   UNL A   1      45.434  32.135  28.867  1.00  0.00     0.037 A 
ATOM     43  C   UNL A   1      42.190  25.971  27.870  1.00  0.00     0.037 A 
ATOM     44  C   UNL A   1      46.153  31.183  28.063  1.00  0.00     0.049 A 
ATOM     45  C   UNL A   1      43.530  26.270  27.263  1.00  0.00     0.074 A 
ATOM     46  C   UNL A   1      47.408  31.310  27.493  1.00  0.00     0.029 A 
ATOM     47  N   UNL A   1      45.682  29.923  27.721  1.00  0.00    -0.354 N 
ATOM     48  N   UNL A   1      44.261  27.353  27.373  1.00  0.00    -0.248 NA
ATOM     49  C   UNL A   1      44.124  25.226  26.417  1.00  0.00     0.031 C 
ATOM     50  C   UNL A   1      47.678  30.143  26.773  1.00  0.00     0.029 A 
ATOM     51  C   UNL A   1      46.613  29.270  26.931  1.00  0.00     0.049 A 
ATOM     52  H   UNL A   1      44.815  29.550  28.000  1.00  0.00     0.167 HD
ATOM     53  C   UNL A   1      45.403  27.121  26.619  1.00  0.00     0.074 A 
ATOM     54  C   UNL A   1      45.277  25.785  26.073  1.00  0.00     0.031 C 
ATOM     55  C   UNL A   1      46.458  27.942  26.395  1.00  0.00     0.037 A 
BRANCH  42  56
ATOM     56  C   UNL A   1      46.068  33.468  29.133  1.00  0.00     0.057 A 
ATOM     57  C   UNL A   1      46.856  33.662  30.275  1.00  0.00     0.134 A 
ATOM     58  C   UNL A   1      45.863  34.569  28.294  1.00  0.00     0.134 A 
ATOM     59  F   UNL A   1      47.091  32.648  31.122  1.00  0.00    -0.206 F 
ATOM     60  C   UNL A   1      47.406  34.907  30.579  1.00  0.00     0.040 A 
ATOM     61  C   UNL A   1      46.427  35.815  28.575  1.00  0.00     0.040 A 
ATOM     62  F   UNL A   1      45.134  34.444  27.174  1.00  0.00    -0.206 F 
ATOM     63  C   UNL A   1      47.193  35.989  29.727  1.00  0.00     0.006 A 
ENDBRANCH  42  56
BRANCH  43  64
ATOM     64  C   UNL A   1      41.512  24.670  27.654  1.00  0.00     0.057 A 
ATOM     65  C   UNL A   1      40.481  24.533  26.714  1.00  0.00     0.134 A 
ATOM     66  C   UNL A   1      41.851  23.542  28.407  1.00  0.00     0.134 A 
ATOM     67  F   UNL A   1      40.108  25.579  25.962  1.00  0.00    -0.206 F 
ATOM     68  C   UNL A   1      39.793  23.330  26.551  1.00  0.00     0.040 A 
ATOM     69  C   UNL A   1      41.188  22.324  28.237  1.00  0.00     0.040 A 
ATOM     70  F   UNL A   1      42.843  23.603  29.307  1.00  0.00    -0.206 F 
ATOM     71  C   UNL A   1      40.149  22.219  27.313  1.00  0.00     0.006 A 
ENDBRANCH  43  64
BRANCH  55  72
ATOM     72  C   UNL A   1      47.562  27.417  25.528  1.00  0.00     0.057 A 
ATOM     73  C   UNL A   1      48.682  26.795  26.094  1.00  0.00     0.134 A 
ATOM     74  C   UNL A   1      47.546  27.590  24.139  1.00  0.00     0.134 A 
ATOM     75  F   UNL A   1      48.761  26.611  27.421  1.00  0.00    -0.206 F 
ATOM     76  C   UNL A   1      49.756  26.376  25.308  1.00  0.00     0.040 A 
ATOM     77  C   UNL A   1      48.603  27.153  23.340  1.00  0.00     0.040 A 
ATOM     78  F   UNL A   1      46.495  28.169  23.538  1.00  0.00    -0.206 F 
ATOM     79  C   UNL A   1      49.716  26.553  23.927  1.00  0.00     0.006 A 
ENDBRANCH  55  72
ENDBRANCH  29  30
ENDBRANCH  22  24
ENDBRANCH  21  22
ENDBRANCH  20  21
ENDBRANCH   1  20
TORSDOF 14
ENDMDL
MODEL 2
REMARK VINA RESULT:     -10.4      5.714     12.099
REMARK SMILES NC(=O)c1c(F)cccc1O[C@@H](F)C(=O)OCCOC(=O)c1ccc(-c2c3nc(c(-c4c(F)cccc4F)c4ccc([nH]4)c(-c4c(F)cccc4F)c4nc(c(-c5c(F)cccc5F)c5ccc2[nH]5)C=C4)C=C3)cc1
REMARK SMILES IDX 17 1 16 2 14 3 15 4 12 5 13 6 11 7 10 8 4 9 5 10 6 11 7 12
REMARK SMILES IDX 9 13 8 14 2 15 1 16 3 19 18 20 19 21 20 22 21 23 22 24 23 25
REMARK SMILES IDX 75 26 24 27 74 28 25 29 26 30 27 31 68 32 28 33 73 34 67 35
REMARK SMILES IDX 69 36 29 37 72 38 66 39 65 40 30 42 56 43 39 44 55 45 40 46
REMARK SMILES IDX 43 47 54 48 70 49 41 50 42 51 53 53 71 54 44 55 31 56 32 57
REMARK SMILES IDX 37 58 33 59 34 60 36 61 38 62 35 63 57 64 58 65 63 66 59 67
REMARK SMILES IDX 60 68 62 69 64 70 61 71 45 72 46 73 51 74 47 75 48 76 50 77
REMARK SMILES IDX 52 78 49 79
REMARK H PARENT 1 17 1 18 69 41 43 52
REMARK Flexibility Score: inf
ROOT
ATOM      1  C   UNL A   1      38.920  22.103  26.148  1.00  0.00     0.274 C 
ENDROOT
BRANCH   1   2
ATOM      2  O   UNL A   1      40.186  21.464  25.880  1.00  0.00    -0.457 OA
BRANCH   2   3
ATOM      3  C   UNL A   1      40.752  20.760  26.904  1.00  0.00     0.381 C 
ATOM      4  O   UNL A   1      40.504  20.969  28.090  1.00  0.00    -0.244 OA
BRANCH   3   5
ATOM      5  C   UNL A   1      41.645  19.585  26.410  1.00  0.00     0.461 C 
ATOM      6  F   UNL A   1      42.381  19.046  27.432  1.00  0.00    -0.189 F 
BRANCH   5   7
ATOM      7  O   UNL A   1      42.427  19.469  25.246  1.00  0.00    -0.450 OA
BRANCH   7   8
ATOM      8  C   UNL A   1      43.731  19.835  25.171  1.00  0.00     0.139 A 
ATOM      9  C   UNL A   1      44.316  21.096  25.328  1.00  0.00     0.117 A 
ATOM     10  C   UNL A   1      45.710  21.212  25.240  1.00  0.00     0.139 A 
ATOM     11  F   UNL A   1      46.308  22.404  25.387  1.00  0.00    -0.206 F 
ATOM     12  C   UNL A   1      46.524  20.105  25.013  1.00  0.00     0.040 A 
ATOM     13  C   UNL A   1      44.564  18.722  24.951  1.00  0.00     0.047 A 
ATOM     14  C   UNL A   1      45.949  18.851  24.869  1.00  0.00     0.007 A 
BRANCH   9  15
ATOM     15  C   UNL A   1      43.545  22.312  25.650  1.00  0.00     0.255 C 
ATOM     16  N   UNL A   1      42.691  22.780  24.693  1.00  0.00    -0.365 N 
ATOM     17  H   UNL A   1      42.156  23.589  24.863  1.00  0.00     0.159 HD
ATOM     18  H   UNL A   1      42.610  22.308  23.832  1.00  0.00     0.159 HD
ATOM     19  O   UNL A   1      43.621  22.855  26.742  1.00  0.00    -0.269 OA
ENDBRANCH   9  15
ENDBRANCH   7   8
ENDBRANCH   5   7
ENDBRANCH   3   5
ENDBRANCH   2   3
ENDBRANCH   1   2
BRANCH   1  20
ATOM     20  C   UNL A   1      39.079  23.625  26.210  1.00  0.00     0.275 C 
BRANCH  20  21
ATOM     21  O   UNL A   1      40.375  23.994  26.715  1.00  0.00    -0.458 OA
BRANCH  21  22
ATOM     22  C   UNL A   1      40.809  25.212  26.320  1.00  0.00     0.338 C 
ATOM     23  O   UNL A   1      41.010  25.595  25.179  1.00  0.00    -0.246 OA
BRANCH  22  24
ATOM     24  C   UNL A   1      40.833  26.122  27.471  1.00  0.00     0.060 A 
ATOM     25  C   UNL A   1      39.872  25.916  28.461  1.00  0.00     0.016 A 
ATOM     26  C   UNL A   1      41.719  27.196  27.551  1.00  0.00     0.016 A 
ATOM     27  C   UNL A   1      39.763  26.792  29.526  1.00  0.00     0.010 A 
ATOM     28  C   UNL A   1      41.622  28.074  28.636  1.00  0.00     0.010 A 
ATOM     29  C   UNL A   1      40.634  27.882  29.618  1.00  0.00    -0.014 A 
BRANCH  29  30
ATOM     30  C   UNL A   1      40.452  28.841  30.728  1.00  0.00     0.031 A 
ATOM     31  C   UNL A   1      39.382  29.886  30.636  1.00  0.00     0.074 A 
ATOM     32  C   UNL A   1      41.205  28.718  31.836  1.00  0.00     0.049 A 
ATOM     33  N   UNL A   1      39.105  30.857  31.465  1.00  0.00    -0.248 NA
ATOM     34  C   UNL A   1      38.503  29.831  29.456  1.00  0.00     0.031 C 
ATOM     35  C   UNL A   1      42.223  27.688  32.052  1.00  0.00     0.029 A 
ATOM     36  N   UNL A   1      41.221  29.453  32.992  1.00  0.00    -0.354 N 
ATOM     37  C   UNL A   1      38.042  31.546  30.896  1.00  0.00     0.074 A 
ATOM     38  C   UNL A   1      37.729  30.890  29.646  1.00  0.00     0.031 C 
ATOM     39  C   UNL A   1      42.751  27.846  33.275  1.00  0.00     0.029 A 
ATOM     40  C   UNL A   1      42.154  29.021  33.902  1.00  0.00     0.049 A 
ATOM     41  H   UNL A   1      40.621  30.217  33.155  1.00  0.00     0.167 HD
ATOM     42  C   UNL A   1      37.390  32.627  31.383  1.00  0.00     0.037 A 
ATOM     43  C   UNL A   1      42.506  29.534  35.094  1.00  0.00     0.037 A 
ATOM     44  C   UNL A   1      37.698  33.247  32.644  1.00  0.00     0.049 A 
ATOM     45  C   UNL A   1      41.806  30.769  35.584  1.00  0.00     0.074 A 
ATOM     46  C   UNL A   1      37.098  34.346  33.233  1.00  0.00     0.029 A 
ATOM     47  N   UNL A   1      38.689  32.816  33.514  1.00  0.00    -0.354 N 
ATOM     48  N   UNL A   1      40.831  31.441  35.021  1.00  0.00    -0.248 NA
ATOM     49  C   UNL A   1      42.261  31.328  36.863  1.00  0.00     0.031 C 
ATOM     50  C   UNL A   1      37.753  34.604  34.441  1.00  0.00     0.029 A 
ATOM     51  C   UNL A   1      38.731  33.640  34.627  1.00  0.00     0.049 A 
ATOM     52  H   UNL A   1      39.275  32.040  33.363  1.00  0.00     0.167 HD
ATOM     53  C   UNL A   1      40.550  32.495  35.877  1.00  0.00     0.074 A 
ATOM     54  C   UNL A   1      41.444  32.363  37.009  1.00  0.00     0.031 C 
ATOM     55  C   UNL A   1      39.637  33.488  35.737  1.00  0.00     0.037 A 
BRANCH  42  56
ATOM     56  C   UNL A   1      36.302  33.224  30.541  1.00  0.00     0.057 A 
ATOM     57  C   UNL A   1      36.621  34.018  29.432  1.00  0.00     0.134 A 
ATOM     58  C   UNL A   1      34.948  33.057  30.849  1.00  0.00     0.134 A 
ATOM     59  F   UNL A   1      37.901  34.218  29.082  1.00  0.00    -0.206 F 
ATOM     60  C   UNL A   1      35.631  34.636  28.668  1.00  0.00     0.040 A 
ATOM     61  C   UNL A   1      33.946  33.652  30.079  1.00  0.00     0.040 A 
ATOM     62  F   UNL A   1      34.576  32.293  31.887  1.00  0.00    -0.206 F 
ATOM     63  C   UNL A   1      34.287  34.453  28.990  1.00  0.00     0.006 A 
ENDBRANCH  42  56
BRANCH  43  64
ATOM     64  C   UNL A   1      43.585  28.889  35.881  1.00  0.00     0.057 A 
ATOM     65  C   UNL A   1      44.918  29.307  35.770  1.00  0.00     0.134 A 
ATOM     66  C   UNL A   1      43.317  27.815  36.735  1.00  0.00     0.134 A 
ATOM     67  F   UNL A   1      45.241  30.331  34.966  1.00  0.00    -0.206 F 
ATOM     68  C   UNL A   1      45.948  28.663  36.456  1.00  0.00     0.040 A 
ATOM     69  C   UNL A   1      44.334  27.176  37.447  1.00  0.00     0.040 A 
ATOM     70  F   UNL A   1      42.059  27.381  36.900  1.00  0.00    -0.206 F 
ATOM     71  C   UNL A   1      45.655  27.595  37.301  1.00  0.00     0.006 A 
ENDBRANCH  43  64
BRANCH  55  72
ATOM     72  C   UNL A   1      39.556  34.503  36.836  1.00  0.00     0.057 A 
ATOM     73  C   UNL A   1      40.252  35.715  36.742  1.00  0.00     0.134 A 
ATOM     74  C   UNL A   1      38.845  34.250  38.015  1.00  0.00     0.134 A 
ATOM     75  F   UNL A   1      40.961  36.010  35.643  1.00  0.00    -0.206 F 
ATOM     76  C   UNL A   1      40.254  36.635  37.791  1.00  0.00     0.040 A 
ATOM     77  C   UNL A   1      38.820  35.173  39.061  1.00  0.00     0.040 A 
ATOM     78  F   UNL A   1      38.149  33.111  38.159  1.00  0.00    -0.206 F 
ATOM     79  C   UNL A   1      39.535  36.365  38.953  1.00  0.00     0.006 A 
ENDBRANCH  55  72
ENDBRANCH  29  30
ENDBRANCH  22  24
ENDBRANCH  21  22
ENDBRANCH  20  21
ENDBRANCH   1  20
TORSDOF 14
ENDMDL
MODEL 3
REMARK VINA RESULT:     -10.3      2.733      3.986
REMARK SMILES NC(=O)c1c(F)cccc1O[C@@H](F)C(=O)OCCOC(=O)c1ccc(-c2c3nc(c(-c4c(F)cccc4F)c4ccc([nH]4)c(-c4c(F)cccc4F)c4nc(c(-c5c(F)cccc5F)c5ccc2[nH]5)C=C4)C=C3)cc1
REMARK SMILES IDX 17 1 16 2 14 3 15 4 12 5 13 6 11 7 10 8 4 9 5 10 6 11 7 12
REMARK SMILES IDX 9 13 8 14 2 15 1 16 3 19 18 20 19 21 20 22 21 23 22 24 23 25
REMARK SMILES IDX 75 26 24 27 74 28 25 29 26 30 27 31 68 32 28 33 73 34 67 35
REMARK SMILES IDX 69 36 29 37 72 38 66 39 65 40 30 42 56 43 39 44 55 45 40 46
REMARK SMILES IDX 43 47 54 48 70 49 41 50 42 51 53 53 71 54 44 55 31 56 32 57
REMARK SMILES IDX 37 58 33 59 34 60 36 61 38 62 35 63 57 64 58 65 63 66 59 67
REMARK SMILES IDX 60 68 62 69 64 70 61 71 45 72 46 73 51 74 47 75 48 76 50 77
REMARK SMILES IDX 52 78 49 79
REMARK H PARENT 1 17 1 18 69 41 43 52
REMARK Flexibility Score: inf
ROOT
ATOM      1  C   UNL A   1      33.938  33.589  27.844  1.00  0.00     0.274 C 
ENDROOT
BRANCH   1   2
ATOM      2  O   UNL A   1      32.737  34.304  28.202  1.00  0.00    -0.457 OA
BRANCH   2   3
ATOM      3  C   UNL A   1      32.880  35.372  29.041  1.00  0.00     0.381 C 
ATOM      4  O   UNL A   1      32.495  36.506  28.767  1.00  0.00    -0.244 OA
BRANCH   3   5
ATOM      5  C   UNL A   1      33.467  34.978  30.428  1.00  0.00     0.461 C 
ATOM      6  F   UNL A   1      32.592  35.259  31.444  1.00  0.00    -0.189 F 
BRANCH   5   7
ATOM      7  O   UNL A   1      34.761  35.159  30.949  1.00  0.00    -0.450 OA
BRANCH   7   8
ATOM      8  C   UNL A   1      35.578  34.140  31.315  1.00  0.00     0.139 A 
ATOM      9  C   UNL A   1      35.536  33.323  32.449  1.00  0.00     0.117 A 
ATOM     10  C   UNL A   1      36.484  32.300  32.583  1.00  0.00     0.139 A 
ATOM     11  F   UNL A   1      36.476  31.494  33.657  1.00  0.00    -0.206 F 
ATOM     12  C   UNL A   1      37.455  32.069  31.611  1.00  0.00     0.040 A 
ATOM     13  C   UNL A   1      36.559  33.893  30.335  1.00  0.00     0.047 A 
ATOM     14  C   UNL A   1      37.493  32.869  30.478  1.00  0.00     0.007 A 
BRANCH   9  15
ATOM     15  C   UNL A   1      34.499  33.438  33.492  1.00  0.00     0.255 C 
ATOM     16  N   UNL A   1      34.837  34.103  34.636  1.00  0.00    -0.365 N 
ATOM     17  H   UNL A   1      34.177  34.204  35.360  1.00  0.00     0.159 HD
ATOM     18  H   UNL A   1      35.741  34.482  34.737  1.00  0.00     0.159 HD
ATOM     19  O   UNL A   1      33.368  33.006  33.329  1.00  0.00    -0.269 OA
ENDBRANCH   9  15
ENDBRANCH   7   8
ENDBRANCH   5   7
ENDBRANCH   3   5
ENDBRANCH   2   3
ENDBRANCH   1   2
BRANCH   1  20
ATOM     20  C   UNL A   1      33.684  32.079  27.806  1.00  0.00     0.275 C 
BRANCH  20  21
ATOM     21  O   UNL A   1      34.601  31.374  28.662  1.00  0.00    -0.458 OA
BRANCH  21  22
ATOM     22  C   UNL A   1      34.918  30.127  28.244  1.00  0.00     0.338 C 
ATOM     23  O   UNL A   1      34.233  29.371  27.575  1.00  0.00    -0.246 OA
BRANCH  22  24
ATOM     24  C   UNL A   1      36.327  29.850  28.548  1.00  0.00     0.060 A 
ATOM     25  C   UNL A   1      37.256  30.125  27.545  1.00  0.00     0.016 A 
ATOM     26  C   UNL A   1      36.728  29.270  29.751  1.00  0.00     0.016 A 
ATOM     27  C   UNL A   1      38.590  29.797  27.715  1.00  0.00     0.010 A 
ATOM     28  C   UNL A   1      38.078  28.952  29.931  1.00  0.00     0.010 A 
ATOM     29  C   UNL A   1      39.010  29.202  28.908  1.00  0.00    -0.014 A 
BRANCH  29  30
ATOM     30  C   UNL A   1      40.426  28.800  29.037  1.00  0.00     0.031 A 
ATOM     31  C   UNL A   1      41.410  29.745  29.656  1.00  0.00     0.074 A 
ATOM     32  C   UNL A   1      40.799  27.564  28.659  1.00  0.00     0.049 A 
ATOM     33  N   UNL A   1      42.702  29.613  29.799  1.00  0.00    -0.248 NA
ATOM     34  C   UNL A   1      40.870  31.008  30.188  1.00  0.00     0.031 C 
ATOM     35  C   UNL A   1      39.901  26.543  28.114  1.00  0.00     0.029 A 
ATOM     36  N   UNL A   1      42.023  26.950  28.691  1.00  0.00    -0.354 N 
ATOM     37  C   UNL A   1      43.134  30.783  30.409  1.00  0.00     0.074 A 
ATOM     38  C   UNL A   1      41.971  31.620  30.601  1.00  0.00     0.031 C 
ATOM     39  C   UNL A   1      40.603  25.424  27.880  1.00  0.00     0.029 A 
ATOM     40  C   UNL A   1      42.005  25.668  28.201  1.00  0.00     0.049 A 
ATOM     41  H   UNL A   1      42.837  27.386  29.033  1.00  0.00     0.167 HD
ATOM     42  C   UNL A   1      44.393  31.118  30.776  1.00  0.00     0.037 A 
ATOM     43  C   UNL A   1      43.014  24.799  28.005  1.00  0.00     0.037 A 
ATOM     44  C   UNL A   1      45.534  30.259  30.603  1.00  0.00     0.049 A 
ATOM     45  C   UNL A   1      44.409  25.220  28.367  1.00  0.00     0.074 A 
ATOM     46  C   UNL A   1      46.854  30.500  30.942  1.00  0.00     0.029 A 
ATOM     47  N   UNL A   1      45.487  28.987  30.049  1.00  0.00    -0.354 N 
ATOM     48  N   UNL A   1      44.817  26.344  28.903  1.00  0.00    -0.248 NA
ATOM     49  C   UNL A   1      45.486  24.262  28.084  1.00  0.00     0.031 C 
ATOM     50  C   UNL A   1      47.612  29.390  30.555  1.00  0.00     0.029 A 
ATOM     51  C   UNL A   1      46.758  28.439  30.018  1.00  0.00     0.049 A 
ATOM     52  H   UNL A   1      44.671  28.541  29.727  1.00  0.00     0.167 HD
ATOM     53  C   UNL A   1      46.194  26.229  29.030  1.00  0.00     0.074 A 
ATOM     54  C   UNL A   1      46.550  24.915  28.533  1.00  0.00     0.031 C 
ATOM     55  C   UNL A   1      47.085  27.130  29.510  1.00  0.00     0.037 A 
BRANCH  42  56
ATOM     56  C   UNL A   1      44.608  32.477  31.371  1.00  0.00     0.057 A 
ATOM     57  C   UNL A   1      44.909  33.571  30.549  1.00  0.00     0.134 A 
ATOM     58  C   UNL A   1      44.567  32.699  32.752  1.00  0.00     0.134 A 
ATOM     59  F   UNL A   1      44.965  33.427  29.216  1.00  0.00    -0.206 F 
ATOM     60  C   UNL A   1      45.174  34.834  31.081  1.00  0.00     0.040 A 
ATOM     61  C   UNL A   1      44.808  33.963  33.296  1.00  0.00     0.040 A 
ATOM     62  F   UNL A   1      44.265  31.697  33.593  1.00  0.00    -0.206 F 
ATOM     63  C   UNL A   1      45.123  35.032  32.460  1.00  0.00     0.006 A 
ENDBRANCH  42  56
BRANCH  43  64
ATOM     64  C   UNL A   1      42.731  23.466  27.419  1.00  0.00     0.057 A 
ATOM     65  C   UNL A   1      42.818  23.244  26.038  1.00  0.00     0.134 A 
ATOM     66  C   UNL A   1      42.330  22.393  28.220  1.00  0.00     0.134 A 
ATOM     67  F   UNL A   1      43.196  24.233  25.216  1.00  0.00    -0.206 F 
ATOM     68  C   UNL A   1      42.491  22.011  25.473  1.00  0.00     0.040 A 
ATOM     69  C   UNL A   1      42.022  21.146  27.671  1.00  0.00     0.040 A 
ATOM     70  F   UNL A   1      42.247  22.537  29.551  1.00  0.00    -0.206 F 
ATOM     71  C   UNL A   1      42.093  20.956  26.292  1.00  0.00     0.006 A 
ENDBRANCH  43  64
BRANCH  55  72
ATOM     72  C   UNL A   1      48.527  26.726  29.526  1.00  0.00     0.057 A 
ATOM     73  C   UNL A   1      49.065  26.037  30.621  1.00  0.00     0.134 A 
ATOM     74  C   UNL A   1      49.399  27.081  28.489  1.00  0.00     0.134 A 
ATOM     75  F   UNL A   1      48.283  25.679  31.651  1.00  0.00    -0.206 F 
ATOM     76  C   UNL A   1      50.423  25.726  30.689  1.00  0.00     0.040 A 
ATOM     77  C   UNL A   1      50.754  26.755  28.535  1.00  0.00     0.040 A 
ATOM     78  F   UNL A   1      48.940  27.733  27.410  1.00  0.00    -0.206 F 
ATOM     79  C   UNL A   1      51.271  26.084  29.643  1.00  0.00     0.006 A 
ENDBRANCH  55  72
ENDBRANCH  29  30
ENDBRANCH  22  24
ENDBRANCH  21  22
ENDBRANCH  20  21
ENDBRANCH   1  20
TORSDOF 14
ENDMDL
