MODEL 1
REMARK VINA RESULT:     -12.0      0.000      0.000
REMARK SMILES O=C(OCCOC(=O)[C@H]1C[C@H](O)CN1S(=O)(=O)c1ccc2c(c1)OCCO2)c1ccc(-c2c3nc(c(-c4c(F)cccc4F)c4ccc([nH]4)c(-c4c(F)cccc4F)c4nc(c(-c5c(F)cccc5F)c5ccc2[nH]5)C=C4)C=C3)cc1
REMARK SMILES IDX 4 1 3 2 2 3 1 4 28 5 29 6 81 7 30 8 80 9 31 10 32 11 33 12
REMARK SMILES IDX 74 13 34 14 79 15 73 16 75 17 35 18 78 19 72 20 71 21 36 23
REMARK SMILES IDX 62 24 45 25 61 26 46 27 49 28 60 29 76 30 47 31 48 32 59 34
REMARK SMILES IDX 77 35 50 36 37 37 38 38 43 39 39 40 40 41 42 42 44 43 41 44
REMARK SMILES IDX 63 45 64 46 69 47 65 48 66 49 68 50 70 51 67 52 51 53 52 54
REMARK SMILES IDX 57 55 53 56 54 57 56 58 58 59 55 60 5 61 6 62 7 63 8 64 9 65
REMARK SMILES IDX 10 66 14 67 11 68 13 69 15 70 16 71 17 72 18 73 19 74 23 75
REMARK SMILES IDX 20 76 22 77 21 78 24 79 27 80 25 81 26 82 12 83
REMARK H PARENT 75 22 49 33 12 84
REMARK Flexibility Score: inf
ROOT
ATOM      1  C   UNL A   1      31.326  32.221  26.779  1.00  0.00     0.275 C 
ENDROOT
BRANCH   1   2
ATOM      2  O   UNL A   1      32.091  33.431  27.003  1.00  0.00    -0.458 OA
BRANCH   2   3
ATOM      3  C   UNL A   1      32.939  33.822  27.984  1.00  0.00     0.338 C 
ATOM      4  O   UNL A   1      32.636  34.834  28.620  1.00  0.00    -0.246 OA
BRANCH   3   5
ATOM      5  C   UNL A   1      34.279  33.211  28.313  1.00  0.00     0.060 A 
ATOM      6  C   UNL A   1      35.523  33.767  28.092  1.00  0.00     0.016 A 
ATOM      7  C   UNL A   1      34.286  31.939  28.921  1.00  0.00     0.016 A 
ATOM      8  C   UNL A   1      36.701  33.138  28.568  1.00  0.00     0.010 A 
ATOM      9  C   UNL A   1      35.461  31.358  29.473  1.00  0.00     0.010 A 
ATOM     10  C   UNL A   1      36.707  31.997  29.398  1.00  0.00    -0.014 A 
BRANCH  10  11
ATOM     11  C   UNL A   1      37.952  31.272  29.960  1.00  0.00     0.031 A 
ATOM     12  C   UNL A   1      38.253  31.579  31.390  1.00  0.00     0.074 A 
ATOM     13  C   UNL A   1      38.818  30.399  29.353  1.00  0.00     0.049 A 
ATOM     14  N   UNL A   1      39.239  31.158  32.133  1.00  0.00    -0.248 NA
ATOM     15  C   UNL A   1      37.303  32.473  32.066  1.00  0.00     0.031 C 
ATOM     16  C   UNL A   1      38.601  29.761  28.080  1.00  0.00     0.029 A 
ATOM     17  N   UNL A   1      40.017  29.791  29.709  1.00  0.00    -0.354 N 
ATOM     18  C   UNL A   1      39.025  31.740  33.367  1.00  0.00     0.074 A 
ATOM     19  C   UNL A   1      37.873  32.605  33.248  1.00  0.00     0.031 C 
ATOM     20  C   UNL A   1      39.570  28.941  27.689  1.00  0.00     0.029 A 
ATOM     21  C   UNL A   1      40.529  28.909  28.755  1.00  0.00     0.049 A 
ATOM     22  H   UNL A   1      40.468  29.969  30.565  1.00  0.00     0.167 HD
ATOM     23  C   UNL A   1      39.708  31.542  34.514  1.00  0.00     0.037 A 
ATOM     24  C   UNL A   1      41.580  28.064  28.708  1.00  0.00     0.037 A 
ATOM     25  C   UNL A   1      40.852  30.686  34.631  1.00  0.00     0.049 A 
ATOM     26  C   UNL A   1      42.372  27.928  29.955  1.00  0.00     0.074 A 
ATOM     27  C   UNL A   1      41.638  30.458  35.743  1.00  0.00     0.029 A 
ATOM     28  N   UNL A   1      41.382  29.925  33.595  1.00  0.00    -0.354 N 
ATOM     29  N   UNL A   1      42.152  28.514  31.104  1.00  0.00    -0.248 NA
ATOM     30  C   UNL A   1      43.507  27.001  29.938  1.00  0.00     0.031 C 
ATOM     31  C   UNL A   1      42.670  29.593  35.371  1.00  0.00     0.029 A 
ATOM     32  C   UNL A   1      42.492  29.230  34.045  1.00  0.00     0.049 A 
ATOM     33  H   UNL A   1      41.024  29.888  32.680  1.00  0.00     0.167 HD
ATOM     34  C   UNL A   1      43.103  28.008  31.964  1.00  0.00     0.074 A 
ATOM     35  C   UNL A   1      43.897  27.059  31.205  1.00  0.00     0.031 C 
ATOM     36  C   UNL A   1      43.281  28.303  33.270  1.00  0.00     0.037 A 
BRANCH  23  37
ATOM     37  C   UNL A   1      39.228  32.351  35.677  1.00  0.00     0.057 A 
ATOM     38  C   UNL A   1      39.770  33.612  35.973  1.00  0.00     0.134 A 
ATOM     39  C   UNL A   1      38.361  31.776  36.611  1.00  0.00     0.134 A 
ATOM     40  F   UNL A   1      40.649  34.187  35.137  1.00  0.00    -0.206 F 
ATOM     41  C   UNL A   1      39.525  34.235  37.196  1.00  0.00     0.040 A 
ATOM     42  C   UNL A   1      38.082  32.407  37.822  1.00  0.00     0.040 A 
ATOM     43  F   UNL A   1      37.826  30.566  36.389  1.00  0.00    -0.206 F 
ATOM     44  C   UNL A   1      38.682  33.628  38.126  1.00  0.00     0.006 A 
ENDBRANCH  23  37
BRANCH  24  45
ATOM     45  C   UNL A   1      41.856  27.225  27.496  1.00  0.00     0.057 A 
ATOM     46  C   UNL A   1      42.655  27.686  26.439  1.00  0.00     0.134 A 
ATOM     47  C   UNL A   1      41.360  25.917  27.384  1.00  0.00     0.134 A 
ATOM     48  F   UNL A   1      43.169  28.923  26.473  1.00  0.00    -0.206 F 
ATOM     49  C   UNL A   1      42.928  26.894  25.316  1.00  0.00     0.040 A 
ATOM     50  C   UNL A   1      41.645  25.106  26.280  1.00  0.00     0.040 A 
ATOM     51  F   UNL A   1      40.611  25.394  28.366  1.00  0.00    -0.206 F 
ATOM     52  C   UNL A   1      42.425  25.597  25.236  1.00  0.00     0.006 A 
ENDBRANCH  24  45
BRANCH  36  53
ATOM     53  C   UNL A   1      44.374  27.573  33.972  1.00  0.00     0.057 A 
ATOM     54  C   UNL A   1      45.664  28.102  34.077  1.00  0.00     0.134 A 
ATOM     55  C   UNL A   1      44.102  26.358  34.611  1.00  0.00     0.134 A 
ATOM     56  F   UNL A   1      45.984  29.248  33.457  1.00  0.00    -0.206 F 
ATOM     57  C   UNL A   1      46.653  27.446  34.807  1.00  0.00     0.040 A 
ATOM     58  C   UNL A   1      45.074  25.709  35.367  1.00  0.00     0.040 A 
ATOM     59  F   UNL A   1      42.884  25.802  34.529  1.00  0.00    -0.206 F 
ATOM     60  C   UNL A   1      46.353  26.255  35.468  1.00  0.00     0.006 A 
ENDBRANCH  36  53
ENDBRANCH  10  11
ENDBRANCH   3   5
ENDBRANCH   2   3
ENDBRANCH   1   2
BRANCH   1  61
ATOM     61  C   UNL A   1      32.200  30.977  26.816  1.00  0.00     0.274 C 
BRANCH  61  62
ATOM     62  O   UNL A   1      31.505  29.922  26.161  1.00  0.00    -0.461 OA
BRANCH  62  63
ATOM     63  C   UNL A   1      32.013  29.487  24.992  1.00  0.00     0.324 C 
ATOM     64  O   UNL A   1      33.206  29.427  24.717  1.00  0.00    -0.250 OA
BRANCH  63  65
ATOM     65  C   UNL A   1      30.943  28.994  24.071  1.00  0.00     0.185 C 
ATOM     66  C   UNL A   1      29.921  30.148  23.918  1.00  0.00     0.065 C 
ATOM     67  N   UNL A   1      31.278  28.492  22.638  1.00  0.00    -0.181 NA
ATOM     68  C   UNL A   1      29.384  30.033  22.526  1.00  0.00     0.131 C 
ATOM     69  C   UNL A   1      29.898  28.684  22.046  1.00  0.00     0.135 C 
BRANCH  67  70
ATOM     70  S   UNL A   1      32.163  26.918  22.723  1.00  0.00     0.244 S 
ATOM     71  O   UNL A   1      31.514  26.033  21.764  1.00  0.00    -0.207 OA
ATOM     72  O   UNL A   1      33.541  27.298  22.528  1.00  0.00    -0.207 OA
BRANCH  70  73
ATOM     73  C   UNL A   1      32.200  25.840  24.251  1.00  0.00     0.086 A 
ATOM     74  C   UNL A   1      30.959  25.515  24.825  1.00  0.00     0.026 A 
ATOM     75  C   UNL A   1      33.312  25.335  24.931  1.00  0.00     0.072 A 
ATOM     76  C   UNL A   1      30.856  24.645  25.940  1.00  0.00     0.052 A 
ATOM     77  C   UNL A   1      33.215  24.389  25.975  1.00  0.00     0.162 A 
ATOM     78  C   UNL A   1      31.983  24.040  26.490  1.00  0.00     0.161 A 
ATOM     79  O   UNL A   1      34.382  23.789  26.392  1.00  0.00    -0.486 OA
ATOM     80  O   UNL A   1      31.811  23.108  27.479  1.00  0.00    -0.486 OA
ATOM     81  C   UNL A   1      34.104  22.463  26.874  1.00  0.00     0.271 C 
ATOM     82  C   UNL A   1      33.041  22.530  27.957  1.00  0.00     0.271 C 
ENDBRANCH  70  73
ENDBRANCH  67  70
BRANCH  68  83
ATOM     83  O   UNL A   1      27.972  30.135  22.448  1.00  0.00    -0.392 OA
ATOM     84  H   UNL A   1      27.728  31.016  22.125  1.00  0.00     0.211 HD
ENDBRANCH  68  83
ENDBRANCH  63  65
ENDBRANCH  62  63
ENDBRANCH  61  62
ENDBRANCH   1  61
TORSDOF 14
ENDMDL
MODEL 2
REMARK VINA RESULT:     -12.0      4.489     10.060
REMARK SMILES O=C(OCCOC(=O)[C@H]1C[C@H](O)CN1S(=O)(=O)c1ccc2c(c1)OCCO2)c1ccc(-c2c3nc(c(-c4c(F)cccc4F)c4ccc([nH]4)c(-c4c(F)cccc4F)c4nc(c(-c5c(F)cccc5F)c5ccc2[nH]5)C=C4)C=C3)cc1
REMARK SMILES IDX 4 1 3 2 2 3 1 4 28 5 29 6 81 7 30 8 80 9 31 10 32 11 33 12
REMARK SMILES IDX 74 13 34 14 79 15 73 16 75 17 35 18 78 19 72 20 71 21 36 23
REMARK SMILES IDX 62 24 45 25 61 26 46 27 49 28 60 29 76 30 47 31 48 32 59 34
REMARK SMILES IDX 77 35 50 36 37 37 38 38 43 39 39 40 40 41 42 42 44 43 41 44
REMARK SMILES IDX 63 45 64 46 69 47 65 48 66 49 68 50 70 51 67 52 51 53 52 54
REMARK SMILES IDX 57 55 53 56 54 57 56 58 58 59 55 60 5 61 6 62 7 63 8 64 9 65
REMARK SMILES IDX 10 66 14 67 11 68 13 69 15 70 16 71 17 72 18 73 19 74 23 75
REMARK SMILES IDX 20 76 22 77 21 78 24 79 27 80 25 81 26 82 12 83
REMARK H PARENT 75 22 49 33 12 84
REMARK Flexibility Score: inf
ROOT
ATOM      1  C   UNL A   1      38.901  19.067  25.745  1.00  0.00     0.275 C 
ENDROOT
BRANCH   1   2
ATOM      2  O   UNL A   1      40.313  19.227  25.461  1.00  0.00    -0.458 OA
BRANCH   2   3
ATOM      3  C   UNL A   1      41.367  19.638  26.207  1.00  0.00     0.338 C 
ATOM      4  O   UNL A   1      42.193  18.782  26.532  1.00  0.00    -0.246 OA
BRANCH   3   5
ATOM      5  C   UNL A   1      41.585  21.017  26.776  1.00  0.00     0.060 A 
ATOM      6  C   UNL A   1      42.283  21.343  27.922  1.00  0.00     0.016 A 
ATOM      7  C   UNL A   1      41.031  22.109  26.076  1.00  0.00     0.016 A 
ATOM      8  C   UNL A   1      42.521  22.695  28.275  1.00  0.00     0.010 A 
ATOM      9  C   UNL A   1      41.347  23.460  26.387  1.00  0.00     0.010 A 
ATOM     10  C   UNL A   1      42.195  23.795  27.454  1.00  0.00    -0.014 A 
BRANCH  10  11
ATOM     11  C   UNL A   1      42.437  25.288  27.773  1.00  0.00     0.031 A 
ATOM     12  C   UNL A   1      43.743  25.821  27.284  1.00  0.00     0.074 A 
ATOM     13  C   UNL A   1      41.645  26.193  28.433  1.00  0.00     0.049 A 
ATOM     14  N   UNL A   1      44.250  27.015  27.423  1.00  0.00    -0.248 NA
ATOM     15  C   UNL A   1      44.579  24.875  26.531  1.00  0.00     0.031 C 
ATOM     16  C   UNL A   1      40.259  25.995  28.771  1.00  0.00     0.029 A 
ATOM     17  N   UNL A   1      41.802  27.500  28.881  1.00  0.00    -0.354 N 
ATOM     18  C   UNL A   1      45.467  26.961  26.772  1.00  0.00     0.074 A 
ATOM     19  C   UNL A   1      45.658  25.602  26.317  1.00  0.00     0.031 C 
ATOM     20  C   UNL A   1      39.683  27.013  29.402  1.00  0.00     0.029 A 
ATOM     21  C   UNL A   1      40.667  28.052  29.478  1.00  0.00     0.049 A 
ATOM     22  H   UNL A   1      42.647  27.995  28.784  1.00  0.00     0.167 HD
ATOM     23  C   UNL A   1      46.335  27.967  26.539  1.00  0.00     0.037 A 
ATOM     24  C   UNL A   1      40.344  29.270  29.961  1.00  0.00     0.037 A 
ATOM     25  C   UNL A   1      46.147  29.314  26.993  1.00  0.00     0.049 A 
ATOM     26  C   UNL A   1      41.351  30.342  29.773  1.00  0.00     0.074 A 
ATOM     27  C   UNL A   1      46.995  30.392  26.843  1.00  0.00     0.029 A 
ATOM     28  N   UNL A   1      45.035  29.765  27.695  1.00  0.00    -0.354 N 
ATOM     29  N   UNL A   1      42.508  30.249  29.169  1.00  0.00    -0.248 NA
ATOM     30  C   UNL A   1      41.018  31.679  30.271  1.00  0.00     0.031 C 
ATOM     31  C   UNL A   1      46.419  31.487  27.493  1.00  0.00     0.029 A 
ATOM     32  C   UNL A   1      45.182  31.110  27.991  1.00  0.00     0.049 A 
ATOM     33  H   UNL A   1      44.261  29.212  27.945  1.00  0.00     0.167 HD
ATOM     34  C   UNL A   1      43.036  31.522  29.183  1.00  0.00     0.074 A 
ATOM     35  C   UNL A   1      42.067  32.373  29.850  1.00  0.00     0.031 C 
ATOM     36  C   UNL A   1      44.215  31.936  28.671  1.00  0.00     0.037 A 
BRANCH  23  37
ATOM     37  C   UNL A   1      47.582  27.564  25.818  1.00  0.00     0.057 A 
ATOM     38  C   UNL A   1      47.638  27.508  24.415  1.00  0.00     0.134 A 
ATOM     39  C   UNL A   1      48.662  27.043  26.536  1.00  0.00     0.134 A 
ATOM     40  F   UNL A   1      46.606  27.944  23.676  1.00  0.00    -0.206 F 
ATOM     41  C   UNL A   1      48.693  26.877  23.759  1.00  0.00     0.040 A 
ATOM     42  C   UNL A   1      49.739  26.442  25.887  1.00  0.00     0.040 A 
ATOM     43  F   UNL A   1      48.657  27.056  27.877  1.00  0.00    -0.206 F 
ATOM     44  C   UNL A   1      49.745  26.336  24.497  1.00  0.00     0.006 A 
ENDBRANCH  23  37
BRANCH  24  45
ATOM     45  C   UNL A   1      38.993  29.544  30.551  1.00  0.00     0.057 A 
ATOM     46  C   UNL A   1      37.921  30.005  29.772  1.00  0.00     0.134 A 
ATOM     47  C   UNL A   1      38.727  29.310  31.909  1.00  0.00     0.134 A 
ATOM     48  F   UNL A   1      38.093  30.249  28.466  1.00  0.00    -0.206 F 
ATOM     49  C   UNL A   1      36.654  30.244  30.321  1.00  0.00     0.040 A 
ATOM     50  C   UNL A   1      37.460  29.521  32.466  1.00  0.00     0.040 A 
ATOM     51  F   UNL A   1      39.693  28.844  32.714  1.00  0.00    -0.206 F 
ATOM     52  C   UNL A   1      36.420  29.997  31.672  1.00  0.00     0.006 A 
ENDBRANCH  24  45
BRANCH  36  53
ATOM     53  C   UNL A   1      44.518  33.390  28.798  1.00  0.00     0.057 A 
ATOM     54  C   UNL A   1      45.173  33.912  29.917  1.00  0.00     0.134 A 
ATOM     55  C   UNL A   1      44.211  34.260  27.746  1.00  0.00     0.134 A 
ATOM     56  F   UNL A   1      45.462  33.125  30.966  1.00  0.00    -0.206 F 
ATOM     57  C   UNL A   1      45.523  35.258  29.984  1.00  0.00     0.040 A 
ATOM     58  C   UNL A   1      44.581  35.601  27.788  1.00  0.00     0.040 A 
ATOM     59  F   UNL A   1      43.571  33.812  26.655  1.00  0.00    -0.206 F 
ATOM     60  C   UNL A   1      45.242  36.102  28.910  1.00  0.00     0.006 A 
ENDBRANCH  36  53
ENDBRANCH  10  11
ENDBRANCH   3   5
ENDBRANCH   2   3
ENDBRANCH   1   2
BRANCH   1  61
ATOM     61  C   UNL A   1      38.042  20.012  24.919  1.00  0.00     0.274 C 
BRANCH  61  62
ATOM     62  O   UNL A   1      36.705  19.523  24.927  1.00  0.00    -0.461 OA
BRANCH  62  63
ATOM     63  C   UNL A   1      35.721  20.434  25.050  1.00  0.00     0.324 C 
ATOM     64  O   UNL A   1      35.879  21.612  25.351  1.00  0.00    -0.250 OA
BRANCH  63  65
ATOM     65  C   UNL A   1      34.387  19.861  24.693  1.00  0.00     0.185 C 
ATOM     66  C   UNL A   1      34.620  18.368  24.352  1.00  0.00     0.065 C 
ATOM     67  N   UNL A   1      33.191  19.918  25.685  1.00  0.00    -0.181 NA
ATOM     68  C   UNL A   1      33.377  17.654  24.782  1.00  0.00     0.131 C 
ATOM     69  C   UNL A   1      32.396  18.778  25.085  1.00  0.00     0.135 C 
BRANCH  67  70
ATOM     70  S   UNL A   1      32.603  21.619  25.851  1.00  0.00     0.244 S 
ATOM     71  O   UNL A   1      31.152  21.563  25.722  1.00  0.00    -0.207 OA
ATOM     72  O   UNL A   1      33.195  22.058  27.092  1.00  0.00    -0.207 OA
BRANCH  70  73
ATOM     73  C   UNL A   1      33.028  22.977  24.639  1.00  0.00     0.086 A 
ATOM     74  C   UNL A   1      33.013  22.634  23.276  1.00  0.00     0.026 A 
ATOM     75  C   UNL A   1      33.398  24.298  24.908  1.00  0.00     0.072 A 
ATOM     76  C   UNL A   1      33.246  23.597  22.260  1.00  0.00     0.052 A 
ATOM     77  C   UNL A   1      33.530  25.284  23.906  1.00  0.00     0.162 A 
ATOM     78  C   UNL A   1      33.458  24.938  22.570  1.00  0.00     0.161 A 
ATOM     79  O   UNL A   1      33.655  26.591  24.319  1.00  0.00    -0.486 OA
ATOM     80  O   UNL A   1      33.545  25.843  21.547  1.00  0.00    -0.486 OA
ATOM     81  C   UNL A   1      33.092  27.472  23.331  1.00  0.00     0.271 C 
ATOM     82  C   UNL A   1      33.740  27.202  21.983  1.00  0.00     0.271 C 
ENDBRANCH  70  73
ENDBRANCH  67  70
BRANCH  68  83
ATOM     83  O   UNL A   1      32.878  16.744  23.816  1.00  0.00    -0.392 OA
ATOM     84  H   UNL A   1      33.277  16.937  22.953  1.00  0.00     0.211 HD
ENDBRANCH  68  83
ENDBRANCH  63  65
ENDBRANCH  62  63
ENDBRANCH  61  62
ENDBRANCH   1  61
TORSDOF 14
ENDMDL
MODEL 3
REMARK VINA RESULT:     -12.0      3.721      9.272
REMARK SMILES O=C(OCCOC(=O)[C@H]1C[C@H](O)CN1S(=O)(=O)c1ccc2c(c1)OCCO2)c1ccc(-c2c3nc(c(-c4c(F)cccc4F)c4ccc([nH]4)c(-c4c(F)cccc4F)c4nc(c(-c5c(F)cccc5F)c5ccc2[nH]5)C=C4)C=C3)cc1
REMARK SMILES IDX 4 1 3 2 2 3 1 4 28 5 29 6 81 7 30 8 80 9 31 10 32 11 33 12
REMARK SMILES IDX 74 13 34 14 79 15 73 16 75 17 35 18 78 19 72 20 71 21 36 23
REMARK SMILES IDX 62 24 45 25 61 26 46 27 49 28 60 29 76 30 47 31 48 32 59 34
REMARK SMILES IDX 77 35 50 36 37 37 38 38 43 39 39 40 40 41 42 42 44 43 41 44
REMARK SMILES IDX 63 45 64 46 69 47 65 48 66 49 68 50 70 51 67 52 51 53 52 54
REMARK SMILES IDX 57 55 53 56 54 57 56 58 58 59 55 60 5 61 6 62 7 63 8 64 9 65
REMARK SMILES IDX 10 66 14 67 11 68 13 69 15 70 16 71 17 72 18 73 19 74 23 75
REMARK SMILES IDX 20 76 22 77 21 78 24 79 27 80 25 81 26 82 12 83
REMARK H PARENT 75 22 49 33 12 84
REMARK Flexibility Score: inf
ROOT
ATOM      1  C   UNL A   1      36.119  21.011  25.392  1.00  0.00     0.275 C 
ENDROOT
BRANCH   1   2
ATOM      2  O   UNL A   1      37.486  20.763  24.983  1.00  0.00    -0.458 OA
BRANCH   2   3
ATOM      3  C   UNL A   1      38.670  20.791  25.642  1.00  0.00     0.338 C 
ATOM      4  O   UNL A   1      39.265  19.720  25.774  1.00  0.00    -0.246 OA
BRANCH   3   5
ATOM      5  C   UNL A   1      39.290  21.981  26.330  1.00  0.00     0.060 A 
ATOM      6  C   UNL A   1      40.360  21.973  27.202  1.00  0.00     0.016 A 
ATOM      7  C   UNL A   1      38.739  23.252  26.062  1.00  0.00     0.016 A 
ATOM      8  C   UNL A   1      40.925  23.183  27.679  1.00  0.00     0.010 A 
ATOM      9  C   UNL A   1      39.365  24.461  26.472  1.00  0.00     0.010 A 
ATOM     10  C   UNL A   1      40.551  24.464  27.222  1.00  0.00    -0.014 A 
BRANCH  10  11
ATOM     11  C   UNL A   1      41.133  25.817  27.691  1.00  0.00     0.031 A 
ATOM     12  C   UNL A   1      42.543  26.063  27.265  1.00  0.00     0.074 A 
ATOM     13  C   UNL A   1      40.562  26.819  28.432  1.00  0.00     0.049 A 
ATOM     14  N   UNL A   1      43.317  27.080  27.525  1.00  0.00    -0.248 NA
ATOM     15  C   UNL A   1      43.150  25.020  26.426  1.00  0.00     0.031 C 
ATOM     16  C   UNL A   1      39.160  26.931  28.741  1.00  0.00     0.029 A 
ATOM     17  N   UNL A   1      41.015  28.000  29.010  1.00  0.00    -0.354 N 
ATOM     18  C   UNL A   1      44.504  26.797  26.879  1.00  0.00     0.074 A 
ATOM     19  C   UNL A   1      44.377  25.482  26.292  1.00  0.00     0.031 C 
ATOM     20  C   UNL A   1      38.826  27.992  29.467  1.00  0.00     0.029 A 
ATOM     21  C   UNL A   1      40.028  28.751  29.653  1.00  0.00     0.049 A 
ATOM     22  H   UNL A   1      41.956  28.284  28.968  1.00  0.00     0.167 HD
ATOM     23  C   UNL A   1      45.595  27.581  26.753  1.00  0.00     0.037 A 
ATOM     24  C   UNL A   1      39.992  29.958  30.253  1.00  0.00     0.037 A 
ATOM     25  C   UNL A   1      45.721  28.883  27.337  1.00  0.00     0.049 A 
ATOM     26  C   UNL A   1      41.232  30.769  30.179  1.00  0.00     0.074 A 
ATOM     27  C   UNL A   1      46.808  29.734  27.301  1.00  0.00     0.029 A 
ATOM     28  N   UNL A   1      44.730  29.521  28.074  1.00  0.00    -0.354 N 
ATOM     29  N   UNL A   1      42.350  30.457  29.575  1.00  0.00    -0.248 NA
ATOM     30  C   UNL A   1      41.214  32.093  30.806  1.00  0.00     0.031 C 
ATOM     31  C   UNL A   1      46.492  30.869  28.054  1.00  0.00     0.029 A 
ATOM     32  C   UNL A   1      45.185  30.756  28.505  1.00  0.00     0.049 A 
ATOM     33  H   UNL A   1      43.838  29.149  28.264  1.00  0.00     0.167 HD
ATOM     34  C   UNL A   1      43.166  31.558  29.719  1.00  0.00     0.074 A 
ATOM     35  C   UNL A   1      42.411  32.550  30.462  1.00  0.00     0.031 C 
ATOM     36  C   UNL A   1      44.425  31.722  29.258  1.00  0.00     0.037 A 
BRANCH  23  37
ATOM     37  C   UNL A   1      46.730  26.959  26.002  1.00  0.00     0.057 A 
ATOM     38  C   UNL A   1      47.716  26.199  26.651  1.00  0.00     0.134 A 
ATOM     39  C   UNL A   1      46.938  27.290  24.660  1.00  0.00     0.134 A 
ATOM     40  F   UNL A   1      47.595  25.898  27.954  1.00  0.00    -0.206 F 
ATOM     41  C   UNL A   1      48.905  25.858  26.009  1.00  0.00     0.040 A 
ATOM     42  C   UNL A   1      48.108  26.923  23.998  1.00  0.00     0.040 A 
ATOM     43  F   UNL A   1      46.037  28.027  23.993  1.00  0.00    -0.206 F 
ATOM     44  C   UNL A   1      49.105  26.227  24.679  1.00  0.00     0.006 A 
ENDBRANCH  23  37
BRANCH  24  45
ATOM     45  C   UNL A   1      38.729  30.493  30.859  1.00  0.00     0.057 A 
ATOM     46  C   UNL A   1      37.814  31.257  30.120  1.00  0.00     0.134 A 
ATOM     47  C   UNL A   1      38.383  30.217  32.191  1.00  0.00     0.134 A 
ATOM     48  F   UNL A   1      38.069  31.561  28.840  1.00  0.00    -0.206 F 
ATOM     49  C   UNL A   1      36.625  31.740  30.683  1.00  0.00     0.040 A 
ATOM     50  C   UNL A   1      37.188  30.672  32.760  1.00  0.00     0.040 A 
ATOM     51  F   UNL A   1      39.193  29.470  32.957  1.00  0.00    -0.206 F 
ATOM     52  C   UNL A   1      36.308  31.445  32.006  1.00  0.00     0.006 A 
ENDBRANCH  24  45
BRANCH  36  53
ATOM     53  C   UNL A   1      45.064  33.041  29.531  1.00  0.00     0.057 A 
ATOM     54  C   UNL A   1      45.863  33.254  30.659  1.00  0.00     0.134 A 
ATOM     55  C   UNL A   1      44.932  34.084  28.608  1.00  0.00     0.134 A 
ATOM     56  F   UNL A   1      45.997  32.296  31.589  1.00  0.00    -0.206 F 
ATOM     57  C   UNL A   1      46.520  34.466  30.857  1.00  0.00     0.040 A 
ATOM     58  C   UNL A   1      45.606  35.289  28.780  1.00  0.00     0.040 A 
ATOM     59  F   UNL A   1      44.166  33.934  27.516  1.00  0.00    -0.206 F 
ATOM     60  C   UNL A   1      46.406  35.480  29.907  1.00  0.00     0.006 A 
ENDBRANCH  36  53
ENDBRANCH  10  11
ENDBRANCH   3   5
ENDBRANCH   2   3
ENDBRANCH   1   2
BRANCH   1  61
ATOM     61  C   UNL A   1      35.429  22.028  24.495  1.00  0.00     0.274 C 
BRANCH  61  62
ATOM     62  O   UNL A   1      34.023  21.846  24.612  1.00  0.00    -0.461 OA
BRANCH  62  63
ATOM     63  C   UNL A   1      33.242  22.573  23.790  1.00  0.00     0.324 C 
ATOM     64  O   UNL A   1      33.426  22.725  22.588  1.00  0.00    -0.250 OA
BRANCH  63  65
ATOM     65  C   UNL A   1      32.048  23.125  24.503  1.00  0.00     0.185 C 
ATOM     66  C   UNL A   1      31.846  22.257  25.771  1.00  0.00     0.065 C 
ATOM     67  N   UNL A   1      31.994  24.611  24.958  1.00  0.00    -0.181 NA
ATOM     68  C   UNL A   1      31.289  23.179  26.809  1.00  0.00     0.131 C 
ATOM     69  C   UNL A   1      30.941  24.439  26.030  1.00  0.00     0.135 C 
BRANCH  67  70
ATOM     70  S   UNL A   1      31.844  25.695  23.518  1.00  0.00     0.244 S 
ATOM     71  O   UNL A   1      33.197  26.124  23.189  1.00  0.00    -0.207 OA
ATOM     72  O   UNL A   1      31.096  24.898  22.576  1.00  0.00    -0.207 OA
BRANCH  70  73
ATOM     73  C   UNL A   1      30.938  27.330  23.552  1.00  0.00     0.086 A 
ATOM     74  C   UNL A   1      31.360  28.267  24.511  1.00  0.00     0.026 A 
ATOM     75  C   UNL A   1      29.858  27.741  22.765  1.00  0.00     0.072 A 
ATOM     76  C   UNL A   1      30.799  29.568  24.583  1.00  0.00     0.052 A 
ATOM     77  C   UNL A   1      29.364  29.064  22.760  1.00  0.00     0.162 A 
ATOM     78  C   UNL A   1      29.830  29.988  23.675  1.00  0.00     0.161 A 
ATOM     79  O   UNL A   1      28.468  29.399  21.770  1.00  0.00    -0.486 OA
ATOM     80  O   UNL A   1      29.421  31.294  23.709  1.00  0.00    -0.486 OA
ATOM     81  C   UNL A   1      28.597  30.795  21.448  1.00  0.00     0.271 C 
ATOM     82  C   UNL A   1      28.436  31.624  22.711  1.00  0.00     0.271 C 
ENDBRANCH  70  73
ENDBRANCH  67  70
BRANCH  68  83
ATOM     83  O   UNL A   1      30.177  22.647  27.508  1.00  0.00    -0.392 OA
ATOM     84  H   UNL A   1      30.408  21.778  27.872  1.00  0.00     0.211 HD
ENDBRANCH  68  83
ENDBRANCH  63  65
ENDBRANCH  62  63
ENDBRANCH  61  62
ENDBRANCH   1  61
TORSDOF 14
ENDMDL
