MODEL 1
REMARK VINA RESULT:     -11.7      0.000      0.000
REMARK SMILES CC(C)(C)OC(=O)N1CCC[C@H]1C(=O)N1CCC[C@H]1C(=O)N1CCC[C@@H]1C(=O)OCCOC(=O)c1ccc(-c2c3nc(c(-c4c(F)cccc4F)c4ccc([nH]4)c(-c4c(F)cccc4F)c4nc(c(-c5c(F)cccc5F)c5ccc2[nH]5)C=C4)C=C3)cc1
REMARK SMILES IDX 27 1 28 2 26 3 22 4 23 5 24 6 25 7 20 8 21 9 19 10 15 11
REMARK SMILES IDX 16 12 17 13 18 14 13 15 14 16 12 17 8 18 9 19 10 20 11 21
REMARK SMILES IDX 6 22 7 23 5 24 2 25 1 26 3 27 4 28 29 29 30 30 31 31 32 32
REMARK SMILES IDX 33 33 34 34 35 35 36 36 88 37 37 38 87 39 38 40 39 41 40 42
REMARK SMILES IDX 81 43 41 44 86 45 80 46 82 47 42 48 85 49 79 50 78 51 43 53
REMARK SMILES IDX 69 54 52 55 68 56 53 57 56 58 67 59 83 60 54 61 55 62 66 64
REMARK SMILES IDX 84 65 57 66 44 67 45 68 50 69 46 70 47 71 49 72 51 73 48 74
REMARK SMILES IDX 70 75 71 76 76 77 72 78 73 79 75 80 77 81 74 82 58 83 59 84
REMARK SMILES IDX 64 85 60 86 61 87 63 88 65 89 62 90
REMARK H PARENT 82 52 56 63
REMARK Flexibility Score: inf
ROOT
ATOM      1  C   UNL A   1      32.559  29.266  24.836  1.00  0.00     0.328 C 
ATOM      2  O   UNL A   1      33.439  29.049  24.007  1.00  0.00    -0.250 OA
ENDROOT
BRANCH   1   3
ATOM      3  C   UNL A   1      31.153  28.688  24.690  1.00  0.00     0.195 C 
ATOM      4  N   UNL A   1      31.096  27.263  24.908  1.00  0.00    -0.327 N 
ATOM      5  C   UNL A   1      29.846  26.797  24.343  1.00  0.00     0.120 C 
ATOM      6  C   UNL A   1      29.801  27.545  23.024  1.00  0.00     0.024 C 
ATOM      7  C   UNL A   1      30.400  28.914  23.371  1.00  0.00     0.039 C 
BRANCH   4   8
ATOM      8  C   UNL A   1      31.543  26.739  26.101  1.00  0.00     0.246 C 
ATOM      9  O   UNL A   1      31.078  27.088  27.185  1.00  0.00    -0.272 OA
BRANCH   8  10
ATOM     10  C   UNL A   1      32.617  25.628  25.964  1.00  0.00     0.174 C 
ATOM     11  N   UNL A   1      32.484  24.580  24.927  1.00  0.00    -0.329 N 
ATOM     12  C   UNL A   1      33.624  24.577  24.031  1.00  0.00     0.120 C 
ATOM     13  C   UNL A   1      34.727  25.242  24.831  1.00  0.00     0.024 C 
ATOM     14  C   UNL A   1      33.985  26.269  25.677  1.00  0.00     0.037 C 
BRANCH  11  15
ATOM     15  C   UNL A   1      31.533  23.595  25.082  1.00  0.00     0.246 C 
ATOM     16  O   UNL A   1      30.465  23.658  24.469  1.00  0.00    -0.272 OA
BRANCH  15  17
ATOM     17  C   UNL A   1      31.757  22.462  26.115  1.00  0.00     0.178 C 
ATOM     18  N   UNL A   1      32.761  21.550  25.559  1.00  0.00    -0.296 N 
ATOM     19  C   UNL A   1      34.007  21.620  26.283  1.00  0.00     0.124 C 
ATOM     20  C   UNL A   1      33.544  21.974  27.683  1.00  0.00     0.024 C 
ATOM     21  C   UNL A   1      32.367  22.924  27.442  1.00  0.00     0.037 C 
BRANCH  18  22
ATOM     22  C   UNL A   1      32.513  20.843  24.406  1.00  0.00     0.410 C 
ATOM     23  O   UNL A   1      32.674  21.329  23.292  1.00  0.00    -0.224 OA
BRANCH  22  24
ATOM     24  O   UNL A   1      32.094  19.581  24.663  1.00  0.00    -0.444 OA
BRANCH  24  25
ATOM     25  C   UNL A   1      32.885  18.394  24.371  1.00  0.00     0.106 C 
ATOM     26  C   UNL A   1      32.527  18.030  22.925  1.00  0.00     0.056 C 
ATOM     27  C   UNL A   1      32.412  17.277  25.309  1.00  0.00     0.056 C 
ATOM     28  C   UNL A   1      34.409  18.545  24.469  1.00  0.00     0.056 C 
ENDBRANCH  24  25
ENDBRANCH  22  24
ENDBRANCH  18  22
ENDBRANCH  15  17
ENDBRANCH  11  15
ENDBRANCH   8  10
ENDBRANCH   4   8
ENDBRANCH   1   3
BRANCH   1  29
ATOM     29  O   UNL A   1      32.720  30.074  25.913  1.00  0.00    -0.461 OA
BRANCH  29  30
ATOM     30  C   UNL A   1      31.499  30.494  26.550  1.00  0.00     0.274 C 
BRANCH  30  31
ATOM     31  C   UNL A   1      31.466  32.013  26.732  1.00  0.00     0.275 C 
BRANCH  31  32
ATOM     32  O   UNL A   1      32.765  32.614  26.554  1.00  0.00    -0.458 OA
BRANCH  32  33
ATOM     33  C   UNL A   1      33.221  33.304  27.624  1.00  0.00     0.338 C 
ATOM     34  O   UNL A   1      32.657  34.211  28.215  1.00  0.00    -0.246 OA
BRANCH  33  35
ATOM     35  C   UNL A   1      34.488  32.741  28.102  1.00  0.00     0.060 A 
ATOM     36  C   UNL A   1      34.467  31.463  28.660  1.00  0.00     0.016 A 
ATOM     37  C   UNL A   1      35.648  33.511  28.150  1.00  0.00     0.016 A 
ATOM     38  C   UNL A   1      35.585  30.953  29.306  1.00  0.00     0.010 A 
ATOM     39  C   UNL A   1      36.787  32.986  28.771  1.00  0.00     0.010 A 
ATOM     40  C   UNL A   1      36.755  31.712  29.371  1.00  0.00    -0.014 A 
BRANCH  40  41
ATOM     41  C   UNL A   1      37.927  31.188  30.109  1.00  0.00     0.031 A 
ATOM     42  C   UNL A   1      38.860  30.224  29.440  1.00  0.00     0.074 A 
ATOM     43  C   UNL A   1      38.155  31.595  31.371  1.00  0.00     0.049 A 
ATOM     44  N   UNL A   1      39.856  29.546  29.949  1.00  0.00    -0.248 NA
ATOM     45  C   UNL A   1      38.638  29.982  28.005  1.00  0.00     0.031 C 
ATOM     46  C   UNL A   1      37.353  32.579  32.103  1.00  0.00     0.029 A 
ATOM     47  N   UNL A   1      39.127  31.226  32.266  1.00  0.00    -0.354 N 
ATOM     48  C   UNL A   1      40.358  28.774  28.909  1.00  0.00     0.074 A 
ATOM     49  C   UNL A   1      39.547  29.053  27.744  1.00  0.00     0.031 C 
ATOM     50  C   UNL A   1      37.866  32.734  33.333  1.00  0.00     0.029 A 
ATOM     51  C   UNL A   1      38.987  31.816  33.499  1.00  0.00     0.049 A 
ATOM     52  H   UNL A   1      39.854  30.600  32.046  1.00  0.00     0.167 HD
ATOM     53  C   UNL A   1      41.403  27.912  28.931  1.00  0.00     0.037 A 
ATOM     54  C   UNL A   1      39.661  31.607  34.643  1.00  0.00     0.037 A 
ATOM     55  C   UNL A   1      42.214  27.661  30.095  1.00  0.00     0.049 A 
ATOM     56  C   UNL A   1      40.771  30.595  34.660  1.00  0.00     0.074 A 
ATOM     57  C   UNL A   1      43.303  26.816  30.223  1.00  0.00     0.029 A 
ATOM     58  N   UNL A   1      42.024  28.258  31.334  1.00  0.00    -0.354 N 
ATOM     59  N   UNL A   1      41.228  29.853  33.680  1.00  0.00    -0.248 NA
ATOM     60  C   UNL A   1      41.455  30.383  35.942  1.00  0.00     0.031 C 
ATOM     61  C   UNL A   1      43.740  26.864  31.550  1.00  0.00     0.029 A 
ATOM     62  C   UNL A   1      42.960  27.782  32.236  1.00  0.00     0.049 A 
ATOM     63  H   UNL A   1      41.327  28.921  31.539  1.00  0.00     0.167 HD
ATOM     64  C   UNL A   1      42.271  29.111  34.218  1.00  0.00     0.074 A 
ATOM     65  C   UNL A   1      42.385  29.500  35.608  1.00  0.00     0.031 C 
ATOM     66  C   UNL A   1      43.064  28.191  33.614  1.00  0.00     0.037 A 
BRANCH  53  67
ATOM     67  C   UNL A   1      41.703  27.150  27.672  1.00  0.00     0.057 A 
ATOM     68  C   UNL A   1      42.649  27.593  26.739  1.00  0.00     0.134 A 
ATOM     69  C   UNL A   1      41.052  25.939  27.404  1.00  0.00     0.134 A 
ATOM     70  F   UNL A   1      43.299  28.753  26.925  1.00  0.00    -0.206 F 
ATOM     71  C   UNL A   1      42.919  26.871  25.574  1.00  0.00     0.040 A 
ATOM     72  C   UNL A   1      41.334  25.194  26.258  1.00  0.00     0.040 A 
ATOM     73  F   UNL A   1      40.138  25.454  28.257  1.00  0.00    -0.206 F 
ATOM     74  C   UNL A   1      42.266  25.664  25.335  1.00  0.00     0.006 A 
ENDBRANCH  53  67
BRANCH  54  75
ATOM     75  C   UNL A   1      39.284  32.349  35.873  1.00  0.00     0.057 A 
ATOM     76  C   UNL A   1      38.383  31.808  36.799  1.00  0.00     0.134 A 
ATOM     77  C   UNL A   1      39.812  33.615  36.153  1.00  0.00     0.134 A 
ATOM     78  F   UNL A   1      37.828  30.609  36.577  1.00  0.00    -0.206 F 
ATOM     79  C   UNL A   1      38.011  32.506  37.949  1.00  0.00     0.040 A 
ATOM     80  C   UNL A   1      39.470  34.312  37.312  1.00  0.00     0.040 A 
ATOM     81  F   UNL A   1      40.683  34.188  35.309  1.00  0.00    -0.206 F 
ATOM     82  C   UNL A   1      38.560  33.759  38.211  1.00  0.00     0.006 A 
ENDBRANCH  54  75
BRANCH  66  83
ATOM     83  C   UNL A   1      44.154  27.580  34.444  1.00  0.00     0.057 A 
ATOM     84  C   UNL A   1      45.390  28.213  34.630  1.00  0.00     0.134 A 
ATOM     85  C   UNL A   1      43.949  26.356  35.095  1.00  0.00     0.134 A 
ATOM     86  F   UNL A   1      45.655  29.378  34.022  1.00  0.00    -0.206 F 
ATOM     87  C   UNL A   1      46.390  27.640  35.417  1.00  0.00     0.040 A 
ATOM     88  C   UNL A   1      44.931  25.788  35.908  1.00  0.00     0.040 A 
ATOM     89  F   UNL A   1      42.785  25.703  34.966  1.00  0.00    -0.206 F 
ATOM     90  C   UNL A   1      46.158  26.427  36.064  1.00  0.00     0.006 A 
ENDBRANCH  66  83
ENDBRANCH  40  41
ENDBRANCH  33  35
ENDBRANCH  32  33
ENDBRANCH  31  32
ENDBRANCH  30  31
ENDBRANCH  29  30
ENDBRANCH   1  29
TORSDOF 18
ENDMDL
MODEL 2
REMARK VINA RESULT:     -11.5      4.011      9.204
REMARK SMILES CC(C)(C)OC(=O)N1CCC[C@H]1C(=O)N1CCC[C@H]1C(=O)N1CCC[C@@H]1C(=O)OCCOC(=O)c1ccc(-c2c3nc(c(-c4c(F)cccc4F)c4ccc([nH]4)c(-c4c(F)cccc4F)c4nc(c(-c5c(F)cccc5F)c5ccc2[nH]5)C=C4)C=C3)cc1
REMARK SMILES IDX 27 1 28 2 26 3 22 4 23 5 24 6 25 7 20 8 21 9 19 10 15 11
REMARK SMILES IDX 16 12 17 13 18 14 13 15 14 16 12 17 8 18 9 19 10 20 11 21
REMARK SMILES IDX 6 22 7 23 5 24 2 25 1 26 3 27 4 28 29 29 30 30 31 31 32 32
REMARK SMILES IDX 33 33 34 34 35 35 36 36 88 37 37 38 87 39 38 40 39 41 40 42
REMARK SMILES IDX 81 43 41 44 86 45 80 46 82 47 42 48 85 49 79 50 78 51 43 53
REMARK SMILES IDX 69 54 52 55 68 56 53 57 56 58 67 59 83 60 54 61 55 62 66 64
REMARK SMILES IDX 84 65 57 66 44 67 45 68 50 69 46 70 47 71 49 72 51 73 48 74
REMARK SMILES IDX 70 75 71 76 76 77 72 78 73 79 75 80 77 81 74 82 58 83 59 84
REMARK SMILES IDX 64 85 60 86 61 87 63 88 65 89 62 90
REMARK H PARENT 82 52 56 63
REMARK Flexibility Score: inf
ROOT
ATOM      1  C   UNL A   1      35.804  21.566  25.209  1.00  0.00     0.328 C 
ATOM      2  O   UNL A   1      35.715  21.785  26.414  1.00  0.00    -0.250 OA
ENDROOT
BRANCH   1   3
ATOM      3  C   UNL A   1      34.585  21.207  24.362  1.00  0.00     0.195 C 
ATOM      4  N   UNL A   1      33.668  22.307  24.185  1.00  0.00    -0.327 N 
ATOM      5  C   UNL A   1      32.407  21.743  23.750  1.00  0.00     0.120 C 
ATOM      6  C   UNL A   1      32.266  20.545  24.670  1.00  0.00     0.024 C 
ATOM      7  C   UNL A   1      33.704  20.030  24.806  1.00  0.00     0.039 C 
BRANCH   4   8
ATOM      8  C   UNL A   1      34.118  23.485  23.630  1.00  0.00     0.246 C 
ATOM      9  O   UNL A   1      34.787  23.508  22.598  1.00  0.00    -0.272 OA
BRANCH   8  10
ATOM     10  C   UNL A   1      33.652  24.772  24.361  1.00  0.00     0.174 C 
ATOM     11  N   UNL A   1      32.334  25.371  24.057  1.00  0.00    -0.329 N 
ATOM     12  C   UNL A   1      31.503  25.447  25.242  1.00  0.00     0.120 C 
ATOM     13  C   UNL A   1      32.491  25.413  26.391  1.00  0.00     0.024 C 
ATOM     14  C   UNL A   1      33.607  24.513  25.876  1.00  0.00     0.037 C 
BRANCH  11  15
ATOM     15  C   UNL A   1      32.152  26.027  22.858  1.00  0.00     0.246 C 
ATOM     16  O   UNL A   1      31.896  25.390  21.833  1.00  0.00    -0.272 OA
BRANCH  15  17
ATOM     17  C   UNL A   1      32.380  27.557  22.772  1.00  0.00     0.178 C 
ATOM     18  N   UNL A   1      31.242  28.210  23.425  1.00  0.00    -0.296 N 
ATOM     19  C   UNL A   1      31.625  28.841  24.665  1.00  0.00     0.124 C 
ATOM     20  C   UNL A   1      33.067  29.227  24.395  1.00  0.00     0.024 C 
ATOM     21  C   UNL A   1      33.598  28.061  23.553  1.00  0.00     0.037 C 
BRANCH  18  22
ATOM     22  C   UNL A   1      29.968  28.081  22.922  1.00  0.00     0.410 C 
ATOM     23  O   UNL A   1      29.262  27.110  23.170  1.00  0.00    -0.224 OA
BRANCH  22  24
ATOM     24  O   UNL A   1      29.614  29.139  22.156  1.00  0.00    -0.444 OA
BRANCH  24  25
ATOM     25  C   UNL A   1      28.490  30.013  22.457  1.00  0.00     0.106 C 
ATOM     26  C   UNL A   1      28.070  30.594  21.101  1.00  0.00     0.056 C 
ATOM     27  C   UNL A   1      29.006  31.143  23.358  1.00  0.00     0.056 C 
ATOM     28  C   UNL A   1      27.264  29.353  23.102  1.00  0.00     0.056 C 
ENDBRANCH  24  25
ENDBRANCH  22  24
ENDBRANCH  18  22
ENDBRANCH  15  17
ENDBRANCH  11  15
ENDBRANCH   8  10
ENDBRANCH   4   8
ENDBRANCH   1   3
BRANCH   1  29
ATOM     29  O   UNL A   1      36.977  21.559  24.528  1.00  0.00    -0.461 OA
BRANCH  29  30
ATOM     30  C   UNL A   1      38.159  21.497  25.348  1.00  0.00     0.274 C 
BRANCH  30  31
ATOM     31  C   UNL A   1      38.865  20.148  25.196  1.00  0.00     0.275 C 
BRANCH  31  32
ATOM     32  O   UNL A   1      39.689  19.830  26.337  1.00  0.00    -0.458 OA
BRANCH  32  33
ATOM     33  C   UNL A   1      41.019  19.828  26.092  1.00  0.00     0.338 C 
ATOM     34  O   UNL A   1      41.654  18.997  25.463  1.00  0.00    -0.246 OA
BRANCH  33  35
ATOM     35  C   UNL A   1      41.639  21.062  26.588  1.00  0.00     0.060 A 
ATOM     36  C   UNL A   1      41.722  21.243  27.969  1.00  0.00     0.016 A 
ATOM     37  C   UNL A   1      41.988  22.093  25.721  1.00  0.00     0.016 A 
ATOM     38  C   UNL A   1      42.114  22.463  28.501  1.00  0.00     0.010 A 
ATOM     39  C   UNL A   1      42.416  23.314  26.254  1.00  0.00     0.010 A 
ATOM     40  C   UNL A   1      42.462  23.512  27.648  1.00  0.00    -0.014 A 
BRANCH  40  41
ATOM     41  C   UNL A   1      42.825  24.829  28.218  1.00  0.00     0.031 A 
ATOM     42  C   UNL A   1      41.758  25.856  28.464  1.00  0.00     0.074 A 
ATOM     43  C   UNL A   1      44.108  25.091  28.529  1.00  0.00     0.049 A 
ATOM     44  N   UNL A   1      41.881  27.107  28.823  1.00  0.00    -0.248 NA
ATOM     45  C   UNL A   1      40.366  25.417  28.271  1.00  0.00     0.031 C 
ATOM     46  C   UNL A   1      45.220  24.147  28.395  1.00  0.00     0.029 A 
ATOM     47  N   UNL A   1      44.694  26.231  29.015  1.00  0.00    -0.354 N 
ATOM     48  C   UNL A   1      40.588  27.615  28.866  1.00  0.00     0.074 A 
ATOM     49  C   UNL A   1      39.698  26.542  28.481  1.00  0.00     0.031 C 
ATOM     50  C   UNL A   1      46.353  24.749  28.789  1.00  0.00     0.029 A 
ATOM     51  C   UNL A   1      46.058  26.134  29.139  1.00  0.00     0.049 A 
ATOM     52  H   UNL A   1      44.186  27.041  29.252  1.00  0.00     0.167 HD
ATOM     53  C   UNL A   1      40.188  28.865  29.200  1.00  0.00     0.037 A 
ATOM     54  C   UNL A   1      46.971  27.068  29.457  1.00  0.00     0.037 A 
ATOM     55  C   UNL A   1      41.086  29.918  29.602  1.00  0.00     0.049 A 
ATOM     56  C   UNL A   1      46.508  28.467  29.755  1.00  0.00     0.074 A 
ATOM     57  C   UNL A   1      40.784  31.217  29.971  1.00  0.00     0.029 A 
ATOM     58  N   UNL A   1      42.465  29.788  29.689  1.00  0.00    -0.354 N 
ATOM     59  N   UNL A   1      45.287  28.946  29.775  1.00  0.00    -0.248 NA
ATOM     60  C   UNL A   1      47.547  29.456  30.068  1.00  0.00     0.031 C 
ATOM     61  C   UNL A   1      41.983  31.887  30.233  1.00  0.00     0.029 A 
ATOM     62  C   UNL A   1      43.028  30.989  30.083  1.00  0.00     0.049 A 
ATOM     63  H   UNL A   1      42.967  28.963  29.498  1.00  0.00     0.167 HD
ATOM     64  C   UNL A   1      45.409  30.282  30.131  1.00  0.00     0.074 A 
ATOM     65  C   UNL A   1      46.821  30.533  30.328  1.00  0.00     0.031 C 
ATOM     66  C   UNL A   1      44.438  31.216  30.284  1.00  0.00     0.037 A 
BRANCH  53  67
ATOM     67  C   UNL A   1      38.721  29.174  29.106  1.00  0.00     0.057 A 
ATOM     68  C   UNL A   1      37.871  29.104  30.217  1.00  0.00     0.134 A 
ATOM     69  C   UNL A   1      38.156  29.574  27.888  1.00  0.00     0.134 A 
ATOM     70  F   UNL A   1      38.342  28.713  31.412  1.00  0.00    -0.206 F 
ATOM     71  C   UNL A   1      36.509  29.397  30.115  1.00  0.00     0.040 A 
ATOM     72  C   UNL A   1      36.803  29.897  27.779  1.00  0.00     0.040 A 
ATOM     73  F   UNL A   1      38.913  29.667  26.785  1.00  0.00    -0.206 F 
ATOM     74  C   UNL A   1      35.973  29.802  28.894  1.00  0.00     0.006 A 
ENDBRANCH  53  67
BRANCH  54  75
ATOM     75  C   UNL A   1      48.415  26.720  29.479  1.00  0.00     0.057 A 
ATOM     76  C   UNL A   1      49.228  26.930  28.360  1.00  0.00     0.134 A 
ATOM     77  C   UNL A   1      49.015  26.168  30.617  1.00  0.00     0.134 A 
ATOM     78  F   UNL A   1      48.707  27.436  27.233  1.00  0.00    -0.206 F 
ATOM     79  C   UNL A   1      50.582  26.591  28.367  1.00  0.00     0.040 A 
ATOM     80  C   UNL A   1      50.373  25.850  30.648  1.00  0.00     0.040 A 
ATOM     81  F   UNL A   1      48.292  25.945  31.725  1.00  0.00    -0.206 F 
ATOM     82  C   UNL A   1      51.159  26.054  29.516  1.00  0.00     0.006 A 
ENDBRANCH  54  75
BRANCH  66  83
ATOM     83  C   UNL A   1      44.869  32.583  30.729  1.00  0.00     0.057 A 
ATOM     84  C   UNL A   1      45.163  33.603  29.816  1.00  0.00     0.134 A 
ATOM     85  C   UNL A   1      44.953  32.890  32.093  1.00  0.00     0.134 A 
ATOM     86  F   UNL A   1      45.116  33.369  28.496  1.00  0.00    -0.206 F 
ATOM     87  C   UNL A   1      45.548  34.875  30.244  1.00  0.00     0.040 A 
ATOM     88  C   UNL A   1      45.309  34.166  32.534  1.00  0.00     0.040 A 
ATOM     89  F   UNL A   1      44.675  31.961  33.019  1.00  0.00    -0.206 F 
ATOM     90  C   UNL A   1      45.615  35.160  31.607  1.00  0.00     0.006 A 
ENDBRANCH  66  83
ENDBRANCH  40  41
ENDBRANCH  33  35
ENDBRANCH  32  33
ENDBRANCH  31  32
ENDBRANCH  30  31
ENDBRANCH  29  30
ENDBRANCH   1  29
TORSDOF 18
ENDMDL
MODEL 3
REMARK VINA RESULT:     -11.2      0.627      6.028
REMARK SMILES CC(C)(C)OC(=O)N1CCC[C@H]1C(=O)N1CCC[C@H]1C(=O)N1CCC[C@@H]1C(=O)OCCOC(=O)c1ccc(-c2c3nc(c(-c4c(F)cccc4F)c4ccc([nH]4)c(-c4c(F)cccc4F)c4nc(c(-c5c(F)cccc5F)c5ccc2[nH]5)C=C4)C=C3)cc1
REMARK SMILES IDX 27 1 28 2 26 3 22 4 23 5 24 6 25 7 20 8 21 9 19 10 15 11
REMARK SMILES IDX 16 12 17 13 18 14 13 15 14 16 12 17 8 18 9 19 10 20 11 21
REMARK SMILES IDX 6 22 7 23 5 24 2 25 1 26 3 27 4 28 29 29 30 30 31 31 32 32
REMARK SMILES IDX 33 33 34 34 35 35 36 36 88 37 37 38 87 39 38 40 39 41 40 42
REMARK SMILES IDX 81 43 41 44 86 45 80 46 82 47 42 48 85 49 79 50 78 51 43 53
REMARK SMILES IDX 69 54 52 55 68 56 53 57 56 58 67 59 83 60 54 61 55 62 66 64
REMARK SMILES IDX 84 65 57 66 44 67 45 68 50 69 46 70 47 71 49 72 51 73 48 74
REMARK SMILES IDX 70 75 71 76 76 77 72 78 73 79 75 80 77 81 74 82 58 83 59 84
REMARK SMILES IDX 64 85 60 86 61 87 63 88 65 89 62 90
REMARK H PARENT 82 52 56 63
REMARK Flexibility Score: inf
ROOT
ATOM      1  C   UNL A   1      32.449  29.367  24.744  1.00  0.00     0.328 C 
ATOM      2  O   UNL A   1      33.210  29.331  23.780  1.00  0.00    -0.250 OA
ENDROOT
BRANCH   1   3
ATOM      3  C   UNL A   1      31.087  28.677  24.724  1.00  0.00     0.195 C 
ATOM      4  N   UNL A   1      31.177  27.239  24.632  1.00  0.00    -0.327 N 
ATOM      5  C   UNL A   1      29.878  26.760  24.206  1.00  0.00     0.120 C 
ATOM      6  C   UNL A   1      29.523  27.748  23.111  1.00  0.00     0.024 C 
ATOM      7  C   UNL A   1      30.078  29.077  23.638  1.00  0.00     0.039 C 
BRANCH   4   8
ATOM      8  C   UNL A   1      31.884  26.540  25.584  1.00  0.00     0.246 C 
ATOM      9  O   UNL A   1      31.695  26.699  26.789  1.00  0.00    -0.272 OA
BRANCH   8  10
ATOM     10  C   UNL A   1      32.877  25.490  25.020  1.00  0.00     0.174 C 
ATOM     11  N   UNL A   1      32.377  24.231  24.421  1.00  0.00    -0.329 N 
ATOM     12  C   UNL A   1      32.810  24.094  23.045  1.00  0.00     0.120 C 
ATOM     13  C   UNL A   1      34.034  24.982  22.950  1.00  0.00     0.024 C 
ATOM     14  C   UNL A   1      33.720  26.128  23.904  1.00  0.00     0.037 C 
BRANCH  11  15
ATOM     15  C   UNL A   1      31.861  23.252  25.243  1.00  0.00     0.246 C 
ATOM     16  O   UNL A   1      30.652  23.217  25.485  1.00  0.00    -0.272 OA
BRANCH  15  17
ATOM     17  C   UNL A   1      32.814  22.261  25.957  1.00  0.00     0.178 C 
ATOM     18  N   UNL A   1      33.391  21.387  24.931  1.00  0.00    -0.296 N 
ATOM     19  C   UNL A   1      34.797  21.645  24.737  1.00  0.00     0.124 C 
ATOM     20  C   UNL A   1      35.231  22.105  26.115  1.00  0.00     0.024 C 
ATOM     21  C   UNL A   1      34.032  22.916  26.617  1.00  0.00     0.037 C 
BRANCH  18  22
ATOM     22  C   UNL A   1      32.596  20.541  24.194  1.00  0.00     0.410 C 
ATOM     23  O   UNL A   1      32.153  20.851  23.094  1.00  0.00    -0.224 OA
BRANCH  22  24
ATOM     24  O   UNL A   1      32.389  19.361  24.824  1.00  0.00    -0.444 OA
BRANCH  24  25
ATOM     25  C   UNL A   1      33.032  18.115  24.433  1.00  0.00     0.106 C 
ATOM     26  C   UNL A   1      32.523  17.840  23.013  1.00  0.00     0.056 C 
ATOM     27  C   UNL A   1      32.530  17.014  25.376  1.00  0.00     0.056 C 
ATOM     28  C   UNL A   1      34.566  18.116  24.406  1.00  0.00     0.056 C 
ENDBRANCH  24  25
ENDBRANCH  22  24
ENDBRANCH  18  22
ENDBRANCH  15  17
ENDBRANCH  11  15
ENDBRANCH   8  10
ENDBRANCH   4   8
ENDBRANCH   1   3
BRANCH   1  29
ATOM     29  O   UNL A   1      32.706  30.059  25.881  1.00  0.00    -0.461 OA
BRANCH  29  30
ATOM     30  C   UNL A   1      31.544  30.437  26.643  1.00  0.00     0.274 C 
BRANCH  30  31
ATOM     31  C   UNL A   1      31.453  31.956  26.795  1.00  0.00     0.275 C 
BRANCH  31  32
ATOM     32  O   UNL A   1      32.719  32.606  26.559  1.00  0.00    -0.458 OA
BRANCH  32  33
ATOM     33  C   UNL A   1      33.225  33.264  27.628  1.00  0.00     0.338 C 
ATOM     34  O   UNL A   1      32.723  34.203  28.225  1.00  0.00    -0.246 OA
BRANCH  33  35
ATOM     35  C   UNL A   1      34.458  32.621  28.095  1.00  0.00     0.060 A 
ATOM     36  C   UNL A   1      34.397  31.276  28.459  1.00  0.00     0.016 A 
ATOM     37  C   UNL A   1      35.614  33.361  28.326  1.00  0.00     0.016 A 
ATOM     38  C   UNL A   1      35.470  30.663  29.091  1.00  0.00     0.010 A 
ATOM     39  C   UNL A   1      36.710  32.737  28.933  1.00  0.00     0.010 A 
ATOM     40  C   UNL A   1      36.636  31.390  29.337  1.00  0.00    -0.014 A 
BRANCH  40  41
ATOM     41  C   UNL A   1      37.758  30.750  30.063  1.00  0.00     0.031 A 
ATOM     42  C   UNL A   1      38.009  31.094  31.501  1.00  0.00     0.074 A 
ATOM     43  C   UNL A   1      38.534  29.852  29.430  1.00  0.00     0.049 A 
ATOM     44  N   UNL A   1      39.011  30.755  32.271  1.00  0.00    -0.248 NA
ATOM     45  C   UNL A   1      37.000  31.940  32.161  1.00  0.00     0.031 C 
ATOM     46  C   UNL A   1      38.346  29.390  28.053  1.00  0.00     0.029 A 
ATOM     47  N   UNL A   1      39.643  29.170  29.862  1.00  0.00    -0.354 N 
ATOM     48  C   UNL A   1      38.773  31.372  33.493  1.00  0.00     0.074 A 
ATOM     49  C   UNL A   1      37.541  32.120  33.358  1.00  0.00     0.031 C 
ATOM     50  C   UNL A   1      39.307  28.503  27.754  1.00  0.00     0.029 A 
ATOM     51  C   UNL A   1      40.213  28.383  28.890  1.00  0.00     0.049 A 
ATOM     52  H   UNL A   1      39.996  29.237  30.778  1.00  0.00     0.167 HD
ATOM     53  C   UNL A   1      39.518  31.315  34.622  1.00  0.00     0.037 A 
ATOM     54  C   UNL A   1      41.358  27.679  28.903  1.00  0.00     0.037 A 
ATOM     55  C   UNL A   1      40.732  30.549  34.747  1.00  0.00     0.049 A 
ATOM     56  C   UNL A   1      42.204  27.687  30.145  1.00  0.00     0.074 A 
ATOM     57  C   UNL A   1      41.558  30.413  35.849  1.00  0.00     0.029 A 
ATOM     58  N   UNL A   1      41.292  29.786  33.732  1.00  0.00    -0.354 N 
ATOM     59  N   UNL A   1      41.984  28.289  31.290  1.00  0.00    -0.248 NA
ATOM     60  C   UNL A   1      43.459  26.927  30.097  1.00  0.00     0.031 C 
ATOM     61  C   UNL A   1      42.643  29.609  35.485  1.00  0.00     0.029 A 
ATOM     62  C   UNL A   1      42.463  29.197  34.174  1.00  0.00     0.049 A 
ATOM     63  H   UNL A   1      40.911  29.680  32.830  1.00  0.00     0.167 HD
ATOM     64  C   UNL A   1      43.056  27.955  32.106  1.00  0.00     0.074 A 
ATOM     65  C   UNL A   1      43.919  27.090  31.328  1.00  0.00     0.031 C 
ATOM     66  C   UNL A   1      43.303  28.329  33.386  1.00  0.00     0.037 A 
BRANCH  53  67
ATOM     67  C   UNL A   1      39.064  32.132  35.797  1.00  0.00     0.057 A 
ATOM     68  C   UNL A   1      39.462  33.463  35.980  1.00  0.00     0.134 A 
ATOM     69  C   UNL A   1      38.192  31.585  36.748  1.00  0.00     0.134 A 
ATOM     70  F   UNL A   1      40.308  34.046  35.116  1.00  0.00    -0.206 F 
ATOM     71  C   UNL A   1      39.028  34.211  37.076  1.00  0.00     0.040 A 
ATOM     72  C   UNL A   1      37.729  32.332  37.832  1.00  0.00     0.040 A 
ATOM     73  F   UNL A   1      37.768  30.318  36.632  1.00  0.00    -0.206 F 
ATOM     74  C   UNL A   1      38.153  33.648  38.003  1.00  0.00     0.006 A 
ENDBRANCH  53  67
BRANCH  54  75
ATOM     75  C   UNL A   1      41.786  26.935  27.691  1.00  0.00     0.057 A 
ATOM     76  C   UNL A   1      42.524  27.560  26.679  1.00  0.00     0.134 A 
ATOM     77  C   UNL A   1      41.468  25.582  27.515  1.00  0.00     0.134 A 
ATOM     78  F   UNL A   1      42.841  28.858  26.780  1.00  0.00    -0.206 F 
ATOM     79  C   UNL A   1      42.916  26.871  25.530  1.00  0.00     0.040 A 
ATOM     80  C   UNL A   1      41.878  24.875  26.385  1.00  0.00     0.040 A 
ATOM     81  F   UNL A   1      40.767  24.923  28.450  1.00  0.00    -0.206 F 
ATOM     82  C   UNL A   1      42.598  25.523  25.384  1.00  0.00     0.006 A 
ENDBRANCH  54  75
BRANCH  66  83
ATOM     83  C   UNL A   1      44.532  27.766  34.038  1.00  0.00     0.057 A 
ATOM     84  C   UNL A   1      44.519  26.535  34.707  1.00  0.00     0.134 A 
ATOM     85  C   UNL A   1      45.752  28.450  33.963  1.00  0.00     0.134 A 
ATOM     86  F   UNL A   1      43.381  25.837  34.827  1.00  0.00    -0.206 F 
ATOM     87  C   UNL A   1      45.673  26.015  35.296  1.00  0.00     0.040 A 
ATOM     88  C   UNL A   1      46.918  27.927  34.523  1.00  0.00     0.040 A 
ATOM     89  F   UNL A   1      45.833  29.629  33.330  1.00  0.00    -0.206 F 
ATOM     90  C   UNL A   1      46.878  26.709  35.198  1.00  0.00     0.006 A 
ENDBRANCH  66  83
ENDBRANCH  40  41
ENDBRANCH  33  35
ENDBRANCH  32  33
ENDBRANCH  31  32
ENDBRANCH  30  31
ENDBRANCH  29  30
ENDBRANCH   1  29
TORSDOF 18
ENDMDL
