MODEL 1
REMARK VINA RESULT:     -12.2      0.000      0.000
REMARK SMILES NS(=O)(=O)c1ccc(-n2nc(C(=O)NCCCC(=O)OCCOC(=O)c3ccc(-c4c5nc(c(-c6c(F)cccc6F)c6ccc([nH]6)c(-c6c(F)cccc6F)c6nc(c(-c7c(F)cccc7F)c7ccc4[nH]7)C=C6)C=C5)cc3)cc2-c2ccccc2)cc1
REMARK SMILES IDX 18 1 19 2 17 3 16 4 15 5 14 6 12 7 13 8 11 10 9 11 10 12
REMARK SMILES IDX 81 13 80 14 8 15 5 16 6 17 89 18 7 19 88 20 2 21 3 22 4 23
REMARK SMILES IDX 1 24 82 27 83 28 87 29 84 30 86 31 85 32 20 33 21 34 22 35
REMARK SMILES IDX 23 36 24 37 25 38 26 39 27 40 79 41 28 42 78 43 29 44 30 45
REMARK SMILES IDX 31 46 72 47 32 48 77 49 71 50 73 51 33 52 76 53 70 54 69 55
REMARK SMILES IDX 34 57 60 58 43 59 59 60 44 61 47 62 58 63 74 64 45 65 46 66
REMARK SMILES IDX 57 68 75 69 48 70 35 71 36 72 41 73 37 74 38 75 40 76 42 77
REMARK SMILES IDX 39 78 61 79 62 80 67 81 63 82 64 83 66 84 68 85 65 86 49 87
REMARK SMILES IDX 50 88 55 89 51 90 52 91 54 92 56 93 53 94
REMARK H PARENT 14 9 1 25 1 26 73 56 47 67
REMARK Flexibility Score: inf
ROOT
ATOM      1  C   UNL A   1      36.293  22.504  23.960  1.00  0.00     0.305 C 
ATOM      2  O   UNL A   1      36.250  23.055  22.867  1.00  0.00    -0.252 OA
ENDROOT
BRANCH   1   3
ATOM      3  C   UNL A   1      35.153  22.544  24.950  1.00  0.00     0.124 C 
BRANCH   3   4
ATOM      4  C   UNL A   1      33.982  21.593  24.713  1.00  0.00     0.033 C 
BRANCH   4   5
ATOM      5  C   UNL A   1      32.794  22.123  23.914  1.00  0.00     0.117 C 
BRANCH   5   6
ATOM      6  N   UNL A   1      33.166  22.536  22.574  1.00  0.00    -0.351 N 
ATOM      7  C   UNL A   1      33.019  23.739  21.920  1.00  0.00     0.271 C 
ATOM      8  O   UNL A   1      33.278  23.744  20.715  1.00  0.00    -0.267 OA
ATOM      9  H   UNL A   1      33.601  21.832  22.039  1.00  0.00     0.163 HD
BRANCH   7  10
ATOM     10  C   UNL A   1      32.602  24.957  22.647  1.00  0.00     0.151 A 
ATOM     11  N   UNL A   1      31.477  26.732  23.069  1.00  0.00    -0.232 N 
ATOM     12  N   UNL A   1      31.449  25.591  22.341  1.00  0.00    -0.162 NA
ATOM     13  C   UNL A   1      32.450  26.691  24.056  1.00  0.00     0.075 A 
ATOM     14  C   UNL A   1      33.277  25.655  23.681  1.00  0.00     0.065 A 
BRANCH  11  15
ATOM     15  C   UNL A   1      30.602  27.811  22.778  1.00  0.00     0.065 A 
ATOM     16  C   UNL A   1      28.984  30.040  22.425  1.00  0.00     0.082 A 
ATOM     17  C   UNL A   1      30.308  30.079  21.986  1.00  0.00     0.024 A 
ATOM     18  C   UNL A   1      28.450  28.881  23.002  1.00  0.00     0.024 A 
ATOM     19  C   UNL A   1      31.117  28.964  22.165  1.00  0.00     0.030 A 
ATOM     20  C   UNL A   1      29.254  27.745  23.149  1.00  0.00     0.030 A 
BRANCH  16  21
ATOM     21  S   UNL A   1      28.013  31.513  22.312  1.00  0.00     0.238 S 
ATOM     22  O   UNL A   1      27.200  31.635  23.505  1.00  0.00    -0.207 OA
ATOM     23  O   UNL A   1      27.457  31.621  20.987  1.00  0.00    -0.207 OA
BRANCH  21  24
ATOM     24  N   UNL A   1      29.186  32.705  22.434  1.00  0.00    -0.225 NA
ATOM     25  H   UNL A   1      28.915  33.375  23.154  1.00  0.00     0.137 HD
ATOM     26  H   UNL A   1      29.277  33.185  21.538  1.00  0.00     0.137 HD
ENDBRANCH  21  24
ENDBRANCH  16  21
ENDBRANCH  11  15
BRANCH  13  27
ATOM     27  C   UNL A   1      32.510  27.541  25.247  1.00  0.00     0.000 A 
ATOM     28  C   UNL A   1      31.688  27.285  26.356  1.00  0.00     0.010 A 
ATOM     29  C   UNL A   1      33.431  28.592  25.318  1.00  0.00     0.010 A 
ATOM     30  C   UNL A   1      31.769  28.080  27.501  1.00  0.00     0.001 A 
ATOM     31  C   UNL A   1      33.516  29.382  26.466  1.00  0.00     0.001 A 
ATOM     32  C   UNL A   1      32.684  29.127  27.555  1.00  0.00     0.000 A 
ENDBRANCH  13  27
ENDBRANCH   7  10
ENDBRANCH   5   6
ENDBRANCH   4   5
ENDBRANCH   3   4
ENDBRANCH   1   3
BRANCH   1  33
ATOM     33  O   UNL A   1      37.374  21.844  24.454  1.00  0.00    -0.462 OA
BRANCH  33  34
ATOM     34  C   UNL A   1      37.849  22.259  25.750  1.00  0.00     0.274 C 
BRANCH  34  35
ATOM     35  C   UNL A   1      39.169  21.591  26.111  1.00  0.00     0.275 C 
BRANCH  35  36
ATOM     36  O   UNL A   1      40.248  22.522  26.062  1.00  0.00    -0.458 OA
BRANCH  36  37
ATOM     37  C   UNL A   1      40.872  22.728  27.240  1.00  0.00     0.338 C 
ATOM     38  O   UNL A   1      40.994  21.934  28.159  1.00  0.00    -0.246 OA
BRANCH  37  39
ATOM     39  C   UNL A   1      41.216  24.143  27.372  1.00  0.00     0.060 A 
ATOM     40  C   UNL A   1      42.170  24.505  28.329  1.00  0.00     0.016 A 
ATOM     41  C   UNL A   1      40.373  25.084  26.770  1.00  0.00     0.016 A 
ATOM     42  C   UNL A   1      42.160  25.799  28.808  1.00  0.00     0.010 A 
ATOM     43  C   UNL A   1      40.350  26.364  27.260  1.00  0.00     0.010 A 
ATOM     44  C   UNL A   1      41.188  26.683  28.326  1.00  0.00    -0.014 A 
BRANCH  44  45
ATOM     45  C   UNL A   1      41.126  28.022  28.870  1.00  0.00     0.031 A 
ATOM     46  C   UNL A   1      42.199  28.899  28.347  1.00  0.00     0.074 A 
ATOM     47  C   UNL A   1      40.093  28.439  29.630  1.00  0.00     0.049 A 
ATOM     48  N   UNL A   1      43.164  29.445  29.008  1.00  0.00    -0.248 NA
ATOM     49  C   UNL A   1      42.317  29.040  26.884  1.00  0.00     0.031 C 
ATOM     50  C   UNL A   1      38.858  27.722  29.964  1.00  0.00     0.029 A 
ATOM     51  N   UNL A   1      39.893  29.657  30.197  1.00  0.00    -0.354 N 
ATOM     52  C   UNL A   1      43.885  30.179  28.071  1.00  0.00     0.074 A 
ATOM     53  C   UNL A   1      43.447  29.737  26.775  1.00  0.00     0.031 C 
ATOM     54  C   UNL A   1      37.956  28.594  30.473  1.00  0.00     0.029 A 
ATOM     55  C   UNL A   1      38.591  29.890  30.628  1.00  0.00     0.049 A 
ATOM     56  H   UNL A   1      40.612  30.324  30.295  1.00  0.00     0.167 HD
ATOM     57  C   UNL A   1      44.585  31.283  28.441  1.00  0.00     0.037 A 
ATOM     58  C   UNL A   1      38.082  31.088  31.015  1.00  0.00     0.037 A 
ATOM     59  C   UNL A   1      44.844  31.284  29.859  1.00  0.00     0.049 A 
ATOM     60  C   UNL A   1      39.234  31.969  31.343  1.00  0.00     0.074 A 
ATOM     61  C   UNL A   1      45.520  30.438  30.717  1.00  0.00     0.029 A 
ATOM     62  N   UNL A   1      44.038  32.057  30.655  1.00  0.00    -0.354 N 
ATOM     63  N   UNL A   1      40.024  31.771  32.362  1.00  0.00    -0.248 NA
ATOM     64  C   UNL A   1      39.790  32.772  30.266  1.00  0.00     0.031 C 
ATOM     65  C   UNL A   1      44.732  30.409  31.904  1.00  0.00     0.029 A 
ATOM     66  C   UNL A   1      43.667  31.295  31.734  1.00  0.00     0.049 A 
ATOM     67  H   UNL A   1      43.773  32.990  30.485  1.00  0.00     0.167 HD
ATOM     68  C   UNL A   1      41.296  32.036  31.877  1.00  0.00     0.074 A 
ATOM     69  C   UNL A   1      41.083  32.713  30.598  1.00  0.00     0.031 C 
ATOM     70  C   UNL A   1      42.395  31.420  32.406  1.00  0.00     0.037 A 
BRANCH  57  71
ATOM     71  C   UNL A   1      44.670  32.528  27.595  1.00  0.00     0.057 A 
ATOM     72  C   UNL A   1      45.776  32.703  26.747  1.00  0.00     0.134 A 
ATOM     73  C   UNL A   1      43.877  33.679  27.789  1.00  0.00     0.134 A 
ATOM     74  F   UNL A   1      46.621  31.691  26.500  1.00  0.00    -0.206 F 
ATOM     75  C   UNL A   1      46.103  33.946  26.191  1.00  0.00     0.040 A 
ATOM     76  C   UNL A   1      44.163  34.910  27.196  1.00  0.00     0.040 A 
ATOM     77  F   UNL A   1      42.844  33.710  28.640  1.00  0.00    -0.206 F 
ATOM     78  C   UNL A   1      45.299  35.055  26.419  1.00  0.00     0.006 A 
ENDBRANCH  57  71
BRANCH  58  79
ATOM     79  C   UNL A   1      36.724  31.636  30.779  1.00  0.00     0.057 A 
ATOM     80  C   UNL A   1      35.914  32.059  31.845  1.00  0.00     0.134 A 
ATOM     81  C   UNL A   1      36.305  32.032  29.497  1.00  0.00     0.134 A 
ATOM     82  F   UNL A   1      36.252  31.772  33.110  1.00  0.00    -0.206 F 
ATOM     83  C   UNL A   1      34.771  32.848  31.649  1.00  0.00     0.040 A 
ATOM     84  C   UNL A   1      35.164  32.816  29.287  1.00  0.00     0.040 A 
ATOM     85  F   UNL A   1      37.040  31.750  28.411  1.00  0.00    -0.206 F 
ATOM     86  C   UNL A   1      34.400  33.239  30.366  1.00  0.00     0.006 A 
ENDBRANCH  58  79
BRANCH  70  87
ATOM     87  C   UNL A   1      42.212  30.625  33.672  1.00  0.00     0.057 A 
ATOM     88  C   UNL A   1      41.875  29.262  33.709  1.00  0.00     0.134 A 
ATOM     89  C   UNL A   1      42.532  31.227  34.893  1.00  0.00     0.134 A 
ATOM     90  F   UNL A   1      41.648  28.572  32.585  1.00  0.00    -0.206 F 
ATOM     91  C   UNL A   1      41.822  28.545  34.910  1.00  0.00     0.040 A 
ATOM     92  C   UNL A   1      42.516  30.514  36.094  1.00  0.00     0.040 A 
ATOM     93  F   UNL A   1      42.918  32.511  34.931  1.00  0.00    -0.206 F 
ATOM     94  C   UNL A   1      42.150  29.171  36.108  1.00  0.00     0.006 A 
ENDBRANCH  70  87
ENDBRANCH  44  45
ENDBRANCH  37  39
ENDBRANCH  36  37
ENDBRANCH  35  36
ENDBRANCH  34  35
ENDBRANCH  33  34
ENDBRANCH   1  33
TORSDOF 19
ENDMDL
MODEL 2
REMARK VINA RESULT:     -11.9      3.431      8.558
REMARK SMILES NS(=O)(=O)c1ccc(-n2nc(C(=O)NCCCC(=O)OCCOC(=O)c3ccc(-c4c5nc(c(-c6c(F)cccc6F)c6ccc([nH]6)c(-c6c(F)cccc6F)c6nc(c(-c7c(F)cccc7F)c7ccc4[nH]7)C=C6)C=C5)cc3)cc2-c2ccccc2)cc1
REMARK SMILES IDX 18 1 19 2 17 3 16 4 15 5 14 6 12 7 13 8 11 10 9 11 10 12
REMARK SMILES IDX 81 13 80 14 8 15 5 16 6 17 89 18 7 19 88 20 2 21 3 22 4 23
REMARK SMILES IDX 1 24 82 27 83 28 87 29 84 30 86 31 85 32 20 33 21 34 22 35
REMARK SMILES IDX 23 36 24 37 25 38 26 39 27 40 79 41 28 42 78 43 29 44 30 45
REMARK SMILES IDX 31 46 72 47 32 48 77 49 71 50 73 51 33 52 76 53 70 54 69 55
REMARK SMILES IDX 34 57 60 58 43 59 59 60 44 61 47 62 58 63 74 64 45 65 46 66
REMARK SMILES IDX 57 68 75 69 48 70 35 71 36 72 41 73 37 74 38 75 40 76 42 77
REMARK SMILES IDX 39 78 61 79 62 80 67 81 63 82 64 83 66 84 68 85 65 86 49 87
REMARK SMILES IDX 50 88 55 89 51 90 52 91 54 92 56 93 53 94
REMARK H PARENT 14 9 1 25 1 26 73 56 47 67
REMARK Flexibility Score: inf
ROOT
ATOM      1  C   UNL A   1      31.664  29.932  25.528  1.00  0.00     0.305 C 
ATOM      2  O   UNL A   1      30.828  30.721  25.104  1.00  0.00    -0.252 OA
ENDROOT
BRANCH   1   3
ATOM      3  C   UNL A   1      32.432  28.985  24.635  1.00  0.00     0.124 C 
BRANCH   3   4
ATOM      4  C   UNL A   1      32.037  28.932  23.162  1.00  0.00     0.033 C 
BRANCH   4   5
ATOM      5  C   UNL A   1      31.206  27.737  22.698  1.00  0.00     0.117 C 
BRANCH   5   6
ATOM      6  N   UNL A   1      30.259  27.296  23.705  1.00  0.00    -0.351 N 
ATOM      7  C   UNL A   1      30.181  26.125  24.427  1.00  0.00     0.271 C 
ATOM      8  O   UNL A   1      29.157  25.960  25.095  1.00  0.00    -0.267 OA
ATOM      9  H   UNL A   1      29.549  27.948  23.908  1.00  0.00     0.163 HD
BRANCH   7  10
ATOM     10  C   UNL A   1      31.287  25.146  24.415  1.00  0.00     0.151 A 
ATOM     11  N   UNL A   1      32.249  23.236  24.268  1.00  0.00    -0.232 N 
ATOM     12  N   UNL A   1      31.095  23.882  23.979  1.00  0.00    -0.162 NA
ATOM     13  C   UNL A   1      33.271  24.119  24.581  1.00  0.00     0.075 A 
ATOM     14  C   UNL A   1      32.628  25.308  24.851  1.00  0.00     0.065 A 
BRANCH  11  15
ATOM     15  C   UNL A   1      32.320  21.819  24.259  1.00  0.00     0.065 A 
ATOM     16  C   UNL A   1      32.721  19.070  24.233  1.00  0.00     0.082 A 
ATOM     17  C   UNL A   1      32.818  19.765  25.439  1.00  0.00     0.024 A 
ATOM     18  C   UNL A   1      32.385  19.732  23.045  1.00  0.00     0.024 A 
ATOM     19  C   UNL A   1      32.619  21.140  25.451  1.00  0.00     0.030 A 
ATOM     20  C   UNL A   1      32.148  21.112  23.063  1.00  0.00     0.030 A 
BRANCH  16  21
ATOM     21  S   UNL A   1      33.111  17.347  24.218  1.00  0.00     0.238 S 
ATOM     22  O   UNL A   1      33.295  16.916  22.846  1.00  0.00    -0.207 OA
ATOM     23  O   UNL A   1      32.244  16.650  25.133  1.00  0.00    -0.207 OA
BRANCH  21  24
ATOM     24  N   UNL A   1      34.638  17.337  24.908  1.00  0.00    -0.225 NA
ATOM     25  H   UNL A   1      35.160  16.529  24.568  1.00  0.00     0.137 HD
ATOM     26  H   UNL A   1      34.552  17.283  25.924  1.00  0.00     0.137 HD
ENDBRANCH  21  24
ENDBRANCH  16  21
ENDBRANCH  11  15
BRANCH  13  27
ATOM     27  C   UNL A   1      34.705  23.825  24.559  1.00  0.00     0.000 A 
ATOM     28  C   UNL A   1      35.501  24.040  25.695  1.00  0.00     0.010 A 
ATOM     29  C   UNL A   1      35.294  23.271  23.417  1.00  0.00     0.010 A 
ATOM     30  C   UNL A   1      36.862  23.730  25.680  1.00  0.00     0.001 A 
ATOM     31  C   UNL A   1      36.654  22.955  23.405  1.00  0.00     0.001 A 
ATOM     32  C   UNL A   1      37.438  23.187  24.535  1.00  0.00     0.000 A 
ENDBRANCH  13  27
ENDBRANCH   7  10
ENDBRANCH   5   6
ENDBRANCH   4   5
ENDBRANCH   3   4
ENDBRANCH   1   3
BRANCH   1  33
ATOM     33  O   UNL A   1      31.969  29.755  26.840  1.00  0.00    -0.462 OA
BRANCH  33  34
ATOM     34  C   UNL A   1      33.353  29.910  27.211  1.00  0.00     0.274 C 
BRANCH  34  35
ATOM     35  C   UNL A   1      33.686  31.353  27.566  1.00  0.00     0.275 C 
BRANCH  35  36
ATOM     36  O   UNL A   1      35.039  31.478  28.000  1.00  0.00    -0.458 OA
BRANCH  36  37
ATOM     37  C   UNL A   1      35.190  31.822  29.296  1.00  0.00     0.338 C 
ATOM     38  O   UNL A   1      34.580  32.687  29.904  1.00  0.00    -0.246 OA
BRANCH  37  39
ATOM     39  C   UNL A   1      36.366  31.151  29.848  1.00  0.00     0.060 A 
ATOM     40  C   UNL A   1      37.523  31.909  30.053  1.00  0.00     0.016 A 
ATOM     41  C   UNL A   1      36.382  29.752  29.856  1.00  0.00     0.016 A 
ATOM     42  C   UNL A   1      38.736  31.253  30.096  1.00  0.00     0.010 A 
ATOM     43  C   UNL A   1      37.589  29.103  29.880  1.00  0.00     0.010 A 
ATOM     44  C   UNL A   1      38.753  29.865  29.920  1.00  0.00    -0.014 A 
BRANCH  44  45
ATOM     45  C   UNL A   1      40.025  29.176  29.897  1.00  0.00     0.031 A 
ATOM     46  C   UNL A   1      40.616  29.027  31.247  1.00  0.00     0.074 A 
ATOM     47  C   UNL A   1      40.506  28.595  28.779  1.00  0.00     0.049 A 
ATOM     48  N   UNL A   1      41.714  29.542  31.689  1.00  0.00    -0.248 NA
ATOM     49  C   UNL A   1      39.798  28.374  32.286  1.00  0.00     0.031 C 
ATOM     50  C   UNL A   1      39.856  28.458  27.471  1.00  0.00     0.029 A 
ATOM     51  N   UNL A   1      41.667  27.912  28.608  1.00  0.00    -0.354 N 
ATOM     52  C   UNL A   1      41.831  29.094  33.001  1.00  0.00     0.074 A 
ATOM     53  C   UNL A   1      40.549  28.558  33.371  1.00  0.00     0.031 C 
ATOM     54  C   UNL A   1      40.529  27.548  26.729  1.00  0.00     0.029 A 
ATOM     55  C   UNL A   1      41.724  27.146  27.448  1.00  0.00     0.049 A 
ATOM     56  H   UNL A   1      42.410  27.954  29.254  1.00  0.00     0.167 HD
ATOM     57  C   UNL A   1      43.051  28.952  33.582  1.00  0.00     0.037 A 
ATOM     58  C   UNL A   1      42.663  26.209  27.158  1.00  0.00     0.037 A 
ATOM     59  C   UNL A   1      44.051  29.723  32.888  1.00  0.00     0.049 A 
ATOM     60  C   UNL A   1      43.834  26.473  28.035  1.00  0.00     0.074 A 
ATOM     61  C   UNL A   1      44.218  31.068  32.618  1.00  0.00     0.029 A 
ATOM     62  N   UNL A   1      44.870  29.062  32.008  1.00  0.00    -0.354 N 
ATOM     63  N   UNL A   1      44.592  27.528  27.925  1.00  0.00    -0.248 NA
ATOM     64  C   UNL A   1      43.859  25.818  29.333  1.00  0.00     0.031 C 
ATOM     65  C   UNL A   1      44.737  31.117  31.292  1.00  0.00     0.029 A 
ATOM     66  C   UNL A   1      44.930  29.805  30.857  1.00  0.00     0.049 A 
ATOM     67  H   UNL A   1      45.333  28.208  32.174  1.00  0.00     0.167 HD
ATOM     68  C   UNL A   1      44.838  27.923  29.231  1.00  0.00     0.074 A 
ATOM     69  C   UNL A   1      44.417  26.792  30.057  1.00  0.00     0.031 C 
ATOM     70  C   UNL A   1      45.078  29.232  29.539  1.00  0.00     0.037 A 
BRANCH  57  71
ATOM     71  C   UNL A   1      43.396  27.815  34.510  1.00  0.00     0.057 A 
ATOM     72  C   UNL A   1      43.466  26.509  33.994  1.00  0.00     0.134 A 
ATOM     73  C   UNL A   1      43.376  27.901  35.918  1.00  0.00     0.134 A 
ATOM     74  F   UNL A   1      43.469  26.291  32.671  1.00  0.00    -0.206 F 
ATOM     75  C   UNL A   1      43.448  25.378  34.819  1.00  0.00     0.040 A 
ATOM     76  C   UNL A   1      43.412  26.782  36.750  1.00  0.00     0.040 A 
ATOM     77  F   UNL A   1      43.215  29.061  36.569  1.00  0.00    -0.206 F 
ATOM     78  C   UNL A   1      43.415  25.511  36.201  1.00  0.00     0.006 A 
ENDBRANCH  57  71
BRANCH  58  79
ATOM     79  C   UNL A   1      42.491  24.912  26.459  1.00  0.00     0.057 A 
ATOM     80  C   UNL A   1      43.283  24.572  25.351  1.00  0.00     0.134 A 
ATOM     81  C   UNL A   1      41.757  23.860  27.034  1.00  0.00     0.134 A 
ATOM     82  F   UNL A   1      44.054  25.494  24.758  1.00  0.00    -0.206 F 
ATOM     83  C   UNL A   1      43.359  23.260  24.860  1.00  0.00     0.040 A 
ATOM     84  C   UNL A   1      41.821  22.547  26.553  1.00  0.00     0.040 A 
ATOM     85  F   UNL A   1      41.026  24.052  28.141  1.00  0.00    -0.206 F 
ATOM     86  C   UNL A   1      42.635  22.240  25.470  1.00  0.00     0.006 A 
ENDBRANCH  58  79
BRANCH  70  87
ATOM     87  C   UNL A   1      45.292  30.194  28.399  1.00  0.00     0.057 A 
ATOM     88  C   UNL A   1      44.265  30.916  27.770  1.00  0.00     0.134 A 
ATOM     89  C   UNL A   1      46.602  30.508  28.025  1.00  0.00     0.134 A 
ATOM     90  F   UNL A   1      42.985  30.760  28.128  1.00  0.00    -0.206 F 
ATOM     91  C   UNL A   1      44.531  31.876  26.787  1.00  0.00     0.040 A 
ATOM     92  C   UNL A   1      46.882  31.488  27.070  1.00  0.00     0.040 A 
ATOM     93  F   UNL A   1      47.638  29.899  28.622  1.00  0.00    -0.206 F 
ATOM     94  C   UNL A   1      45.845  32.169  26.439  1.00  0.00     0.006 A 
ENDBRANCH  70  87
ENDBRANCH  44  45
ENDBRANCH  37  39
ENDBRANCH  36  37
ENDBRANCH  35  36
ENDBRANCH  34  35
ENDBRANCH  33  34
ENDBRANCH   1  33
TORSDOF 19
ENDMDL
MODEL 3
REMARK VINA RESULT:     -11.4      4.766      6.957
REMARK SMILES NS(=O)(=O)c1ccc(-n2nc(C(=O)NCCCC(=O)OCCOC(=O)c3ccc(-c4c5nc(c(-c6c(F)cccc6F)c6ccc([nH]6)c(-c6c(F)cccc6F)c6nc(c(-c7c(F)cccc7F)c7ccc4[nH]7)C=C6)C=C5)cc3)cc2-c2ccccc2)cc1
REMARK SMILES IDX 18 1 19 2 17 3 16 4 15 5 14 6 12 7 13 8 11 10 9 11 10 12
REMARK SMILES IDX 81 13 80 14 8 15 5 16 6 17 89 18 7 19 88 20 2 21 3 22 4 23
REMARK SMILES IDX 1 24 82 27 83 28 87 29 84 30 86 31 85 32 20 33 21 34 22 35
REMARK SMILES IDX 23 36 24 37 25 38 26 39 27 40 79 41 28 42 78 43 29 44 30 45
REMARK SMILES IDX 31 46 72 47 32 48 77 49 71 50 73 51 33 52 76 53 70 54 69 55
REMARK SMILES IDX 34 57 60 58 43 59 59 60 44 61 47 62 58 63 74 64 45 65 46 66
REMARK SMILES IDX 57 68 75 69 48 70 35 71 36 72 41 73 37 74 38 75 40 76 42 77
REMARK SMILES IDX 39 78 61 79 62 80 67 81 63 82 64 83 66 84 68 85 65 86 49 87
REMARK SMILES IDX 50 88 55 89 51 90 52 91 54 92 56 93 53 94
REMARK H PARENT 14 9 1 25 1 26 73 56 47 67
REMARK Flexibility Score: inf
ROOT
ATOM      1  C   UNL A   1      42.450  18.758  25.971  1.00  0.00     0.305 C 
ATOM      2  O   UNL A   1      42.396  17.540  26.083  1.00  0.00    -0.252 OA
ENDROOT
BRANCH   1   3
ATOM      3  C   UNL A   1      41.660  19.703  26.846  1.00  0.00     0.124 C 
BRANCH   3   4
ATOM      4  C   UNL A   1      41.431  21.119  26.325  1.00  0.00     0.033 C 
BRANCH   4   5
ATOM      5  C   UNL A   1      39.986  21.580  26.148  1.00  0.00     0.117 C 
BRANCH   5   6
ATOM      6  N   UNL A   1      39.744  22.885  26.732  1.00  0.00    -0.351 N 
ATOM      7  C   UNL A   1      38.679  23.751  26.611  1.00  0.00     0.271 C 
ATOM      8  O   UNL A   1      38.829  24.876  27.093  1.00  0.00    -0.267 OA
ATOM      9  H   UNL A   1      40.467  23.208  27.317  1.00  0.00     0.163 HD
BRANCH   7  10
ATOM     10  C   UNL A   1      37.420  23.327  25.964  1.00  0.00     0.151 A 
ATOM     11  N   UNL A   1      35.853  22.003  25.340  1.00  0.00    -0.232 N 
ATOM     12  N   UNL A   1      36.880  22.115  26.215  1.00  0.00    -0.162 NA
ATOM     13  C   UNL A   1      35.531  23.223  24.764  1.00  0.00     0.075 A 
ATOM     14  C   UNL A   1      36.625  24.022  25.016  1.00  0.00     0.065 A 
BRANCH  11  15
ATOM     15  C   UNL A   1      35.248  20.749  25.073  1.00  0.00     0.065 A 
ATOM     16  C   UNL A   1      34.125  18.329  24.298  1.00  0.00     0.082 A 
ATOM     17  C   UNL A   1      35.501  18.407  24.514  1.00  0.00     0.024 A 
ATOM     18  C   UNL A   1      33.299  19.441  24.505  1.00  0.00     0.024 A 
ATOM     19  C   UNL A   1      36.062  19.618  24.900  1.00  0.00     0.030 A 
ATOM     20  C   UNL A   1      33.859  20.652  24.930  1.00  0.00     0.030 A 
BRANCH  16  21
ATOM     21  S   UNL A   1      33.452  16.818  23.676  1.00  0.00     0.238 S 
ATOM     22  O   UNL A   1      32.803  16.108  24.760  1.00  0.00    -0.207 OA
ATOM     23  O   UNL A   1      34.414  16.185  22.810  1.00  0.00    -0.207 OA
BRANCH  21  24
ATOM     24  N   UNL A   1      32.217  17.374  22.690  1.00  0.00    -0.225 NA
ATOM     25  H   UNL A   1      31.917  18.296  23.008  1.00  0.00     0.137 HD
ATOM     26  H   UNL A   1      31.430  16.726  22.732  1.00  0.00     0.137 HD
ENDBRANCH  21  24
ENDBRANCH  16  21
ENDBRANCH  11  15
BRANCH  13  27
ATOM     27  C   UNL A   1      34.271  23.560  24.099  1.00  0.00     0.000 A 
ATOM     28  C   UNL A   1      34.102  23.340  22.723  1.00  0.00     0.010 A 
ATOM     29  C   UNL A   1      33.192  24.055  24.840  1.00  0.00     0.010 A 
ATOM     30  C   UNL A   1      32.889  23.633  22.098  1.00  0.00     0.001 A 
ATOM     31  C   UNL A   1      31.977  24.342  24.216  1.00  0.00     0.001 A 
ATOM     32  C   UNL A   1      31.826  24.134  22.845  1.00  0.00     0.000 A 
ENDBRANCH  13  27
ENDBRANCH   7  10
ENDBRANCH   5   6
ENDBRANCH   4   5
ENDBRANCH   3   4
ENDBRANCH   1   3
BRANCH   1  33
ATOM     33  O   UNL A   1      43.164  19.420  25.022  1.00  0.00    -0.462 OA
BRANCH  33  34
ATOM     34  C   UNL A   1      44.443  18.859  24.666  1.00  0.00     0.274 C 
BRANCH  34  35
ATOM     35  C   UNL A   1      45.261  19.814  23.807  1.00  0.00     0.275 C 
BRANCH  35  36
ATOM     36  O   UNL A   1      45.571  21.011  24.518  1.00  0.00    -0.458 OA
BRANCH  36  37
ATOM     37  C   UNL A   1      44.935  22.115  24.073  1.00  0.00     0.338 C 
ATOM     38  O   UNL A   1      44.361  22.255  23.005  1.00  0.00    -0.246 OA
BRANCH  37  39
ATOM     39  C   UNL A   1      45.211  23.235  24.972  1.00  0.00     0.060 A 
ATOM     40  C   UNL A   1      45.882  22.970  26.170  1.00  0.00     0.016 A 
ATOM     41  C   UNL A   1      44.536  24.440  24.748  1.00  0.00     0.016 A 
ATOM     42  C   UNL A   1      45.728  23.856  27.217  1.00  0.00     0.010 A 
ATOM     43  C   UNL A   1      44.368  25.310  25.794  1.00  0.00     0.010 A 
ATOM     44  C   UNL A   1      44.899  24.969  27.035  1.00  0.00    -0.014 A 
BRANCH  44  45
ATOM     45  C   UNL A   1      44.678  25.868  28.146  1.00  0.00     0.031 A 
ATOM     46  C   UNL A   1      45.862  26.708  28.443  1.00  0.00     0.074 A 
ATOM     47  C   UNL A   1      43.464  26.022  28.713  1.00  0.00     0.049 A 
ATOM     48  N   UNL A   1      46.581  26.707  29.515  1.00  0.00    -0.248 NA
ATOM     49  C   UNL A   1      46.421  27.518  27.346  1.00  0.00     0.031 C 
ATOM     50  C   UNL A   1      42.184  25.438  28.300  1.00  0.00     0.029 A 
ATOM     51  N   UNL A   1      43.104  26.829  29.745  1.00  0.00    -0.354 N 
ATOM     52  C   UNL A   1      47.555  27.678  29.308  1.00  0.00     0.074 A 
ATOM     53  C   UNL A   1      47.532  27.994  27.905  1.00  0.00     0.031 C 
ATOM     54  C   UNL A   1      41.172  26.084  28.926  1.00  0.00     0.029 A 
ATOM     55  C   UNL A   1      41.733  27.025  29.877  1.00  0.00     0.049 A 
ATOM     56  H   UNL A   1      43.761  27.242  30.352  1.00  0.00     0.167 HD
ATOM     57  C   UNL A   1      48.112  28.340  30.355  1.00  0.00     0.037 A 
ATOM     58  C   UNL A   1      41.134  27.949  30.672  1.00  0.00     0.037 A 
ATOM     59  C   UNL A   1      47.928  27.614  31.586  1.00  0.00     0.049 A 
ATOM     60  C   UNL A   1      42.134  28.368  31.690  1.00  0.00     0.074 A 
ATOM     61  C   UNL A   1      48.308  26.364  32.036  1.00  0.00     0.029 A 
ATOM     62  N   UNL A   1      46.919  28.021  32.423  1.00  0.00    -0.354 N 
ATOM     63  N   UNL A   1      42.576  27.581  32.631  1.00  0.00    -0.248 NA
ATOM     64  C   UNL A   1      42.994  29.493  31.359  1.00  0.00     0.031 C 
ATOM     65  C   UNL A   1      47.196  25.889  32.791  1.00  0.00     0.029 A 
ATOM     66  C   UNL A   1      46.236  26.902  32.824  1.00  0.00     0.049 A 
ATOM     67  H   UNL A   1      46.722  28.949  32.688  1.00  0.00     0.167 HD
ATOM     68  C   UNL A   1      43.936  27.843  32.699  1.00  0.00     0.074 A 
ATOM     69  C   UNL A   1      44.124  29.078  31.938  1.00  0.00     0.031 C 
ATOM     70  C   UNL A   1      44.819  26.885  33.107  1.00  0.00     0.037 A 
BRANCH  57  71
ATOM     71  C   UNL A   1      48.455  29.807  30.316  1.00  0.00     0.057 A 
ATOM     72  C   UNL A   1      49.737  30.221  30.717  1.00  0.00     0.134 A 
ATOM     73  C   UNL A   1      47.506  30.844  30.184  1.00  0.00     0.134 A 
ATOM     74  F   UNL A   1      50.721  29.329  30.901  1.00  0.00    -0.206 F 
ATOM     75  C   UNL A   1      50.029  31.555  31.027  1.00  0.00     0.040 A 
ATOM     76  C   UNL A   1      47.802  32.184  30.439  1.00  0.00     0.040 A 
ATOM     77  F   UNL A   1      46.217  30.612  29.904  1.00  0.00    -0.206 F 
ATOM     78  C   UNL A   1      49.060  32.540  30.894  1.00  0.00     0.006 A 
ENDBRANCH  57  71
BRANCH  58  79
ATOM     79  C   UNL A   1      39.914  28.749  30.403  1.00  0.00     0.057 A 
ATOM     80  C   UNL A   1      39.835  29.604  29.292  1.00  0.00     0.134 A 
ATOM     81  C   UNL A   1      38.699  28.475  31.053  1.00  0.00     0.134 A 
ATOM     82  F   UNL A   1      40.932  29.892  28.577  1.00  0.00    -0.206 F 
ATOM     83  C   UNL A   1      38.618  30.135  28.842  1.00  0.00     0.040 A 
ATOM     84  C   UNL A   1      37.477  29.000  30.616  1.00  0.00     0.040 A 
ATOM     85  F   UNL A   1      38.642  27.613  32.078  1.00  0.00    -0.206 F 
ATOM     86  C   UNL A   1      37.431  29.822  29.498  1.00  0.00     0.006 A 
ENDBRANCH  58  79
BRANCH  70  87
ATOM     87  C   UNL A   1      44.257  25.616  33.694  1.00  0.00     0.057 A 
ATOM     88  C   UNL A   1      44.073  24.425  32.973  1.00  0.00     0.134 A 
ATOM     89  C   UNL A   1      44.033  25.558  35.073  1.00  0.00     0.134 A 
ATOM     90  F   UNL A   1      44.355  24.352  31.668  1.00  0.00    -0.206 F 
ATOM     91  C   UNL A   1      43.647  23.244  33.593  1.00  0.00     0.040 A 
ATOM     92  C   UNL A   1      43.641  24.378  35.708  1.00  0.00     0.040 A 
ATOM     93  F   UNL A   1      44.243  26.642  35.836  1.00  0.00    -0.206 F 
ATOM     94  C   UNL A   1      43.435  23.218  34.967  1.00  0.00     0.006 A 
ENDBRANCH  70  87
ENDBRANCH  44  45
ENDBRANCH  37  39
ENDBRANCH  36  37
ENDBRANCH  35  36
ENDBRANCH  34  35
ENDBRANCH  33  34
ENDBRANCH   1  33
TORSDOF 19
ENDMDL
