MODEL 1
REMARK VINA RESULT:     -11.4      0.000      0.000
REMARK SMILES Nc1cc(C(=O)OCCOC(=O)c2ccc(-c3c4nc(c(-c5c(F)cccc5F)c5ccc([nH]5)c(-c5c(F)cccc5F)c5nc(c(-c6c(F)cccc6F)c6ccc3[nH]6)C=C5)C=C4)cc2)c(O)c([N+](=O)[O-])c1
REMARK SMILES IDX 9 1 8 2 7 3 5 4 6 5 4 6 2 7 3 8 73 9 69 10 67 11 1 12 70 15
REMARK SMILES IDX 71 16 72 17 68 18 10 20 11 21 12 22 13 23 14 24 66 25 15 26
REMARK SMILES IDX 65 27 16 28 17 29 18 30 59 31 19 32 64 33 58 34 60 35 20 36
REMARK SMILES IDX 63 37 57 38 56 39 21 41 47 42 30 43 46 44 31 45 34 46 45 47
REMARK SMILES IDX 61 48 32 49 33 50 44 52 62 53 35 54 22 55 23 56 28 57 24 58
REMARK SMILES IDX 25 59 27 60 29 61 26 62 48 63 49 64 54 65 50 66 51 67 53 68
REMARK SMILES IDX 55 69 52 70 36 71 37 72 42 73 38 74 39 75 41 76 43 77 40 78
REMARK H PARENT 1 13 1 14 68 19 60 40 34 51
REMARK Flexibility Score: inf
ROOT
ATOM      1  C   UNL A   1      31.832  29.903  25.273  1.00  0.00     0.275 C 
ENDROOT
BRANCH   1   2
ATOM      2  C   UNL A   1      32.039  28.465  24.806  1.00  0.00     0.275 C 
BRANCH   2   3
ATOM      3  O   UNL A   1      32.102  28.400  23.367  1.00  0.00    -0.458 OA
BRANCH   3   4
ATOM      4  C   UNL A   1      31.137  27.674  22.754  1.00  0.00     0.342 C 
ATOM      5  O   UNL A   1      31.211  26.505  22.410  1.00  0.00    -0.246 OA
BRANCH   4   6
ATOM      6  C   UNL A   1      29.869  28.437  22.677  1.00  0.00     0.111 A 
ATOM      7  C   UNL A   1      27.487  28.461  23.230  1.00  0.00     0.039 A 
ATOM      8  C   UNL A   1      28.721  27.817  23.203  1.00  0.00     0.045 A 
ATOM      9  C   UNL A   1      27.377  29.699  22.608  1.00  0.00     0.115 A 
ATOM     10  C   UNL A   1      28.504  30.306  22.021  1.00  0.00     0.313 A 
ATOM     11  C   UNL A   1      29.766  29.690  22.065  1.00  0.00     0.209 A 
BRANCH   7  12
ATOM     12  N   UNL A   1      26.375  27.823  23.747  1.00  0.00    -0.398 N 
ATOM     13  H   UNL A   1      25.617  28.352  24.086  1.00  0.00     0.156 HD
ATOM     14  H   UNL A   1      26.342  26.840  23.776  1.00  0.00     0.156 HD
ENDBRANCH   7  12
BRANCH  10  15
ATOM     15  N   UNL A   1      28.312  31.584  21.330  1.00  0.00     0.066 N 
ATOM     16  O   UNL A   1      27.614  31.576  20.303  1.00  0.00    -0.258 OA
ATOM     17  O   UNL A   1      28.844  32.594  21.809  1.00  0.00    -0.258 OA
ENDBRANCH  10  15
BRANCH  11  18
ATOM     18  O   UNL A   1      30.889  30.219  21.485  1.00  0.00    -0.501 OA
ATOM     19  H   UNL A   1      30.993  30.189  20.555  1.00  0.00     0.293 HD
ENDBRANCH  11  18
ENDBRANCH   4   6
ENDBRANCH   3   4
ENDBRANCH   2   3
ENDBRANCH   1   2
BRANCH   1  20
ATOM     20  O   UNL A   1      32.193  30.011  26.662  1.00  0.00    -0.458 OA
BRANCH  20  21
ATOM     21  C   UNL A   1      32.683  31.208  27.050  1.00  0.00     0.338 C 
ATOM     22  O   UNL A   1      32.117  32.287  27.054  1.00  0.00    -0.246 OA
BRANCH  21  23
ATOM     23  C   UNL A   1      34.061  31.032  27.535  1.00  0.00     0.060 A 
ATOM     24  C   UNL A   1      34.549  29.742  27.721  1.00  0.00     0.016 A 
ATOM     25  C   UNL A   1      34.812  32.132  27.940  1.00  0.00     0.016 A 
ATOM     26  C   UNL A   1      35.743  29.538  28.407  1.00  0.00     0.010 A 
ATOM     27  C   UNL A   1      36.062  31.928  28.535  1.00  0.00     0.010 A 
ATOM     28  C   UNL A   1      36.524  30.628  28.819  1.00  0.00    -0.014 A 
BRANCH  28  29
ATOM     29  C   UNL A   1      37.790  30.418  29.583  1.00  0.00     0.031 A 
ATOM     30  C   UNL A   1      38.931  29.649  28.963  1.00  0.00     0.074 A 
ATOM     31  C   UNL A   1      37.938  30.918  30.827  1.00  0.00     0.049 A 
ATOM     32  N   UNL A   1      40.027  29.196  29.520  1.00  0.00    -0.248 NA
ATOM     33  C   UNL A   1      38.819  29.334  27.530  1.00  0.00     0.031 C 
ATOM     34  C   UNL A   1      36.946  31.719  31.545  1.00  0.00     0.029 A 
ATOM     35  N   UNL A   1      38.990  30.831  31.706  1.00  0.00    -0.354 N 
ATOM     36  C   UNL A   1      40.696  28.487  28.529  1.00  0.00     0.074 A 
ATOM     37  C   UNL A   1      39.888  28.574  27.332  1.00  0.00     0.031 C 
ATOM     38  C   UNL A   1      37.450  32.086  32.733  1.00  0.00     0.029 A 
ATOM     39  C   UNL A   1      38.763  31.471  32.902  1.00  0.00     0.049 A 
ATOM     40  H   UNL A   1      39.827  30.355  31.501  1.00  0.00     0.167 HD
ATOM     41  C   UNL A   1      41.873  27.822  28.610  1.00  0.00     0.037 A 
ATOM     42  C   UNL A   1      39.501  31.524  34.026  1.00  0.00     0.037 A 
ATOM     43  C   UNL A   1      42.715  27.794  29.777  1.00  0.00     0.049 A 
ATOM     44  C   UNL A   1      40.798  30.770  34.097  1.00  0.00     0.074 A 
ATOM     45  C   UNL A   1      43.938  27.166  29.945  1.00  0.00     0.029 A 
ATOM     46  N   UNL A   1      42.431  28.437  30.971  1.00  0.00    -0.354 N 
ATOM     47  N   UNL A   1      41.386  30.052  33.172  1.00  0.00    -0.248 NA
ATOM     48  C   UNL A   1      41.520  30.811  35.376  1.00  0.00     0.031 C 
ATOM     49  C   UNL A   1      44.382  27.409  31.248  1.00  0.00     0.029 A 
ATOM     50  C   UNL A   1      43.452  28.218  31.881  1.00  0.00     0.049 A 
ATOM     51  H   UNL A   1      41.624  28.973  31.147  1.00  0.00     0.167 HD
ATOM     52  C   UNL A   1      42.547  29.563  33.753  1.00  0.00     0.074 A 
ATOM     53  C   UNL A   1      42.593  30.085  35.103  1.00  0.00     0.031 C 
ATOM     54  C   UNL A   1      43.488  28.747  33.219  1.00  0.00     0.037 A 
BRANCH  41  55
ATOM     55  C   UNL A   1      42.314  27.039  27.408  1.00  0.00     0.057 A 
ATOM     56  C   UNL A   1      43.076  27.610  26.382  1.00  0.00     0.134 A 
ATOM     57  C   UNL A   1      42.009  25.675  27.304  1.00  0.00     0.134 A 
ATOM     58  F   UNL A   1      43.390  28.915  26.414  1.00  0.00    -0.206 F 
ATOM     59  C   UNL A   1      43.503  26.857  25.286  1.00  0.00     0.040 A 
ATOM     60  C   UNL A   1      42.451  24.906  26.226  1.00  0.00     0.040 A 
ATOM     61  F   UNL A   1      41.289  25.064  28.257  1.00  0.00    -0.206 F 
ATOM     62  C   UNL A   1      43.197  25.500  25.210  1.00  0.00     0.006 A 
ENDBRANCH  41  55
BRANCH  42  63
ATOM     63  C   UNL A   1      39.009  32.288  35.201  1.00  0.00     0.057 A 
ATOM     64  C   UNL A   1      38.302  31.654  36.229  1.00  0.00     0.134 A 
ATOM     65  C   UNL A   1      39.233  33.665  35.324  1.00  0.00     0.134 A 
ATOM     66  F   UNL A   1      38.033  30.342  36.155  1.00  0.00    -0.206 F 
ATOM     67  C   UNL A   1      37.829  32.363  37.335  1.00  0.00     0.040 A 
ATOM     68  C   UNL A   1      38.790  34.381  36.436  1.00  0.00     0.040 A 
ATOM     69  F   UNL A   1      39.903  34.329  34.371  1.00  0.00    -0.206 F 
ATOM     70  C   UNL A   1      38.081  33.729  37.443  1.00  0.00     0.006 A 
ENDBRANCH  42  63
BRANCH  54  71
ATOM     71  C   UNL A   1      44.658  28.395  34.086  1.00  0.00     0.057 A 
ATOM     72  C   UNL A   1      44.660  27.246  34.888  1.00  0.00     0.134 A 
ATOM     73  C   UNL A   1      45.803  29.200  34.101  1.00  0.00     0.134 A 
ATOM     74  F   UNL A   1      43.586  26.444  34.928  1.00  0.00    -0.206 F 
ATOM     75  C   UNL A   1      45.755  26.922  35.690  1.00  0.00     0.040 A 
ATOM     76  C   UNL A   1      46.912  28.874  34.884  1.00  0.00     0.040 A 
ATOM     77  F   UNL A   1      45.865  30.310  33.352  1.00  0.00    -0.206 F 
ATOM     78  C   UNL A   1      46.887  27.735  35.685  1.00  0.00     0.006 A 
ENDBRANCH  54  71
ENDBRANCH  28  29
ENDBRANCH  21  23
ENDBRANCH  20  21
ENDBRANCH   1  20
TORSDOF 14
ENDMDL
MODEL 2
REMARK VINA RESULT:     -11.3      5.829      9.987
REMARK SMILES Nc1cc(C(=O)OCCOC(=O)c2ccc(-c3c4nc(c(-c5c(F)cccc5F)c5ccc([nH]5)c(-c5c(F)cccc5F)c5nc(c(-c6c(F)cccc6F)c6ccc3[nH]6)C=C5)C=C4)cc2)c(O)c([N+](=O)[O-])c1
REMARK SMILES IDX 9 1 8 2 7 3 5 4 6 5 4 6 2 7 3 8 73 9 69 10 67 11 1 12 70 15
REMARK SMILES IDX 71 16 72 17 68 18 10 20 11 21 12 22 13 23 14 24 66 25 15 26
REMARK SMILES IDX 65 27 16 28 17 29 18 30 59 31 19 32 64 33 58 34 60 35 20 36
REMARK SMILES IDX 63 37 57 38 56 39 21 41 47 42 30 43 46 44 31 45 34 46 45 47
REMARK SMILES IDX 61 48 32 49 33 50 44 52 62 53 35 54 22 55 23 56 28 57 24 58
REMARK SMILES IDX 25 59 27 60 29 61 26 62 48 63 49 64 54 65 50 66 51 67 53 68
REMARK SMILES IDX 55 69 52 70 36 71 37 72 42 73 38 74 39 75 41 76 43 77 40 78
REMARK H PARENT 1 13 1 14 68 19 60 40 34 51
REMARK Flexibility Score: inf
ROOT
ATOM      1  C   UNL A   1      35.801  20.866  25.372  1.00  0.00     0.275 C 
ENDROOT
BRANCH   1   2
ATOM      2  C   UNL A   1      34.681  21.821  25.776  1.00  0.00     0.275 C 
BRANCH   2   3
ATOM      3  O   UNL A   1      33.550  21.090  26.292  1.00  0.00    -0.458 OA
BRANCH   3   4
ATOM      4  C   UNL A   1      32.494  20.947  25.456  1.00  0.00     0.342 C 
ATOM      5  O   UNL A   1      31.639  21.784  25.212  1.00  0.00    -0.246 OA
BRANCH   4   6
ATOM      6  C   UNL A   1      32.572  19.664  24.720  1.00  0.00     0.111 A 
ATOM      7  C   UNL A   1      32.411  18.573  22.537  1.00  0.00     0.039 A 
ATOM      8  C   UNL A   1      32.316  19.708  23.337  1.00  0.00     0.045 A 
ATOM      9  C   UNL A   1      32.646  17.350  23.154  1.00  0.00     0.115 A 
ATOM     10  C   UNL A   1      32.843  17.279  24.547  1.00  0.00     0.313 A 
ATOM     11  C   UNL A   1      32.826  18.438  25.342  1.00  0.00     0.209 A 
BRANCH   7  12
ATOM     12  N   UNL A   1      32.145  18.646  21.182  1.00  0.00    -0.398 N 
ATOM     13  H   UNL A   1      32.087  17.822  20.647  1.00  0.00     0.156 HD
ATOM     14  H   UNL A   1      32.014  19.522  20.754  1.00  0.00     0.156 HD
ENDBRANCH   7  12
BRANCH  10  15
ATOM     15  N   UNL A   1      33.030  15.956  25.146  1.00  0.00     0.066 N 
ATOM     16  O   UNL A   1      32.161  15.563  25.940  1.00  0.00    -0.258 OA
ATOM     17  O   UNL A   1      34.032  15.303  24.824  1.00  0.00    -0.258 OA
ENDBRANCH  10  15
BRANCH  11  18
ATOM     18  O   UNL A   1      32.981  18.426  26.703  1.00  0.00    -0.501 OA
ATOM     19  H   UNL A   1      32.231  18.488  27.260  1.00  0.00     0.293 HD
ENDBRANCH  11  18
ENDBRANCH   4   6
ENDBRANCH   3   4
ENDBRANCH   2   3
ENDBRANCH   1   2
BRANCH   1  20
ATOM     20  O   UNL A   1      36.964  21.626  24.995  1.00  0.00    -0.458 OA
BRANCH  20  21
ATOM     21  C   UNL A   1      38.137  21.198  25.509  1.00  0.00     0.338 C 
ATOM     22  O   UNL A   1      38.636  20.091  25.426  1.00  0.00    -0.246 OA
BRANCH  21  23
ATOM     23  C   UNL A   1      38.801  22.319  26.193  1.00  0.00     0.060 A 
ATOM     24  C   UNL A   1      38.295  23.605  26.024  1.00  0.00     0.016 A 
ATOM     25  C   UNL A   1      39.997  22.119  26.878  1.00  0.00     0.016 A 
ATOM     26  C   UNL A   1      39.034  24.707  26.447  1.00  0.00     0.010 A 
ATOM     27  C   UNL A   1      40.685  23.223  27.393  1.00  0.00     0.010 A 
ATOM     28  C   UNL A   1      40.237  24.535  27.145  1.00  0.00    -0.014 A 
BRANCH  28  29
ATOM     29  C   UNL A   1      41.050  25.713  27.572  1.00  0.00     0.031 A 
ATOM     30  C   UNL A   1      40.449  26.763  28.474  1.00  0.00     0.074 A 
ATOM     31  C   UNL A   1      42.331  25.850  27.172  1.00  0.00     0.049 A 
ATOM     32  N   UNL A   1      40.915  27.942  28.801  1.00  0.00    -0.248 NA
ATOM     33  C   UNL A   1      39.142  26.451  29.076  1.00  0.00     0.031 C 
ATOM     34  C   UNL A   1      43.068  24.901  26.338  1.00  0.00     0.029 A 
ATOM     35  N   UNL A   1      43.244  26.846  27.423  1.00  0.00    -0.354 N 
ATOM     36  C   UNL A   1      39.933  28.538  29.584  1.00  0.00     0.074 A 
ATOM     37  C   UNL A   1      38.847  27.588  29.692  1.00  0.00     0.031 C 
ATOM     38  C   UNL A   1      44.328  25.336  26.182  1.00  0.00     0.029 A 
ATOM     39  C   UNL A   1      44.465  26.638  26.826  1.00  0.00     0.049 A 
ATOM     40  H   UNL A   1      43.044  27.635  27.978  1.00  0.00     0.167 HD
ATOM     41  C   UNL A   1      39.935  29.765  30.159  1.00  0.00     0.037 A 
ATOM     42  C   UNL A   1      45.558  27.420  26.760  1.00  0.00     0.037 A 
ATOM     43  C   UNL A   1      41.042  30.684  30.116  1.00  0.00     0.049 A 
ATOM     44  C   UNL A   1      45.533  28.781  27.395  1.00  0.00     0.074 A 
ATOM     45  C   UNL A   1      41.145  31.940  30.689  1.00  0.00     0.029 A 
ATOM     46  N   UNL A   1      42.248  30.438  29.478  1.00  0.00    -0.354 N 
ATOM     47  N   UNL A   1      44.574  29.356  28.078  1.00  0.00    -0.248 NA
ATOM     48  C   UNL A   1      46.733  29.613  27.227  1.00  0.00     0.031 C 
ATOM     49  C   UNL A   1      42.404  32.464  30.378  1.00  0.00     0.029 A 
ATOM     50  C   UNL A   1      43.098  31.519  29.640  1.00  0.00     0.049 A 
ATOM     51  H   UNL A   1      42.469  29.614  28.984  1.00  0.00     0.167 HD
ATOM     52  C   UNL A   1      45.056  30.609  28.427  1.00  0.00     0.074 A 
ATOM     53  C   UNL A   1      46.401  30.704  27.899  1.00  0.00     0.031 C 
ATOM     54  C   UNL A   1      44.435  31.598  29.115  1.00  0.00     0.037 A 
BRANCH  41  55
ATOM     55  C   UNL A   1      38.686  30.205  30.864  1.00  0.00     0.057 A 
ATOM     56  C   UNL A   1      38.465  29.951  32.223  1.00  0.00     0.134 A 
ATOM     57  C   UNL A   1      37.710  30.940  30.178  1.00  0.00     0.134 A 
ATOM     58  F   UNL A   1      39.354  29.241  32.935  1.00  0.00    -0.206 F 
ATOM     59  C   UNL A   1      37.310  30.396  32.870  1.00  0.00     0.040 A 
ATOM     60  C   UNL A   1      36.563  31.411  30.818  1.00  0.00     0.040 A 
ATOM     61  F   UNL A   1      37.863  31.226  28.876  1.00  0.00    -0.206 F 
ATOM     62  C   UNL A   1      36.359  31.134  32.168  1.00  0.00     0.006 A 
ENDBRANCH  41  55
BRANCH  42  63
ATOM     63  C   UNL A   1      46.761  26.954  26.025  1.00  0.00     0.057 A 
ATOM     64  C   UNL A   1      47.753  26.204  26.666  1.00  0.00     0.134 A 
ATOM     65  C   UNL A   1      46.945  27.244  24.667  1.00  0.00     0.134 A 
ATOM     66  F   UNL A   1      47.645  25.917  27.972  1.00  0.00    -0.206 F 
ATOM     67  C   UNL A   1      48.891  25.766  25.985  1.00  0.00     0.040 A 
ATOM     68  C   UNL A   1      48.064  26.789  23.968  1.00  0.00     0.040 A 
ATOM     69  F   UNL A   1      46.030  27.958  23.997  1.00  0.00    -0.206 F 
ATOM     70  C   UNL A   1      49.044  26.052  24.630  1.00  0.00     0.006 A 
ENDBRANCH  42  63
BRANCH  54  71
ATOM     71  C   UNL A   1      45.217  32.853  29.360  1.00  0.00     0.057 A 
ATOM     72  C   UNL A   1      46.050  32.994  30.478  1.00  0.00     0.134 A 
ATOM     73  C   UNL A   1      45.156  33.920  28.456  1.00  0.00     0.134 A 
ATOM     74  F   UNL A   1      46.138  32.012  31.387  1.00  0.00    -0.206 F 
ATOM     75  C   UNL A   1      46.779  34.163  30.697  1.00  0.00     0.040 A 
ATOM     76  C   UNL A   1      45.897  35.086  28.654  1.00  0.00     0.040 A 
ATOM     77  F   UNL A   1      44.381  33.844  27.364  1.00  0.00    -0.206 F 
ATOM     78  C   UNL A   1      46.708  35.212  29.781  1.00  0.00     0.006 A 
ENDBRANCH  54  71
ENDBRANCH  28  29
ENDBRANCH  21  23
ENDBRANCH  20  21
ENDBRANCH   1  20
TORSDOF 14
ENDMDL
MODEL 3
REMARK VINA RESULT:     -11.0      4.846      9.199
REMARK SMILES Nc1cc(C(=O)OCCOC(=O)c2ccc(-c3c4nc(c(-c5c(F)cccc5F)c5ccc([nH]5)c(-c5c(F)cccc5F)c5nc(c(-c6c(F)cccc6F)c6ccc3[nH]6)C=C5)C=C4)cc2)c(O)c([N+](=O)[O-])c1
REMARK SMILES IDX 9 1 8 2 7 3 5 4 6 5 4 6 2 7 3 8 73 9 69 10 67 11 1 12 70 15
REMARK SMILES IDX 71 16 72 17 68 18 10 20 11 21 12 22 13 23 14 24 66 25 15 26
REMARK SMILES IDX 65 27 16 28 17 29 18 30 59 31 19 32 64 33 58 34 60 35 20 36
REMARK SMILES IDX 63 37 57 38 56 39 21 41 47 42 30 43 46 44 31 45 34 46 45 47
REMARK SMILES IDX 61 48 32 49 33 50 44 52 62 53 35 54 22 55 23 56 28 57 24 58
REMARK SMILES IDX 25 59 27 60 29 61 26 62 48 63 49 64 54 65 50 66 51 67 53 68
REMARK SMILES IDX 55 69 52 70 36 71 37 72 42 73 38 74 39 75 41 76 43 77 40 78
REMARK H PARENT 1 13 1 14 68 19 60 40 34 51
REMARK Flexibility Score: inf
ROOT
ATOM      1  C   UNL A   1      43.790  21.479  25.290  1.00  0.00     0.275 C 
ENDROOT
BRANCH   1   2
ATOM      2  C   UNL A   1      42.999  20.423  26.057  1.00  0.00     0.275 C 
BRANCH   2   3
ATOM      3  O   UNL A   1      41.614  20.433  25.657  1.00  0.00    -0.458 OA
BRANCH   3   4
ATOM      4  C   UNL A   1      40.700  20.528  26.652  1.00  0.00     0.342 C 
ATOM      5  O   UNL A   1      40.777  20.026  27.763  1.00  0.00    -0.246 OA
BRANCH   4   6
ATOM      6  C   UNL A   1      39.618  21.473  26.290  1.00  0.00     0.111 A 
ATOM      7  C   UNL A   1      38.741  23.740  26.555  1.00  0.00     0.039 A 
ATOM      8  C   UNL A   1      39.676  22.756  26.865  1.00  0.00     0.045 A 
ATOM      9  C   UNL A   1      37.661  23.394  25.752  1.00  0.00     0.115 A 
ATOM     10  C   UNL A   1      37.555  22.094  25.219  1.00  0.00     0.313 A 
ATOM     11  C   UNL A   1      38.542  21.126  25.467  1.00  0.00     0.209 A 
BRANCH   7  12
ATOM     12  N   UNL A   1      38.819  24.989  27.142  1.00  0.00    -0.398 N 
ATOM     13  H   UNL A   1      38.826  25.072  28.124  1.00  0.00     0.156 HD
ATOM     14  H   UNL A   1      38.868  25.795  26.580  1.00  0.00     0.156 HD
ENDBRANCH   7  12
BRANCH  10  15
ATOM     15  N   UNL A   1      36.366  21.774  24.427  1.00  0.00     0.066 N 
ATOM     16  O   UNL A   1      36.022  22.592  23.559  1.00  0.00    -0.258 OA
ATOM     17  O   UNL A   1      35.778  20.709  24.659  1.00  0.00    -0.258 OA
ENDBRANCH  10  15
BRANCH  11  18
ATOM     18  O   UNL A   1      38.476  19.839  25.001  1.00  0.00    -0.501 OA
ATOM     19  H   UNL A   1      38.631  19.661  24.095  1.00  0.00     0.293 HD
ENDBRANCH  11  18
ENDBRANCH   4   6
ENDBRANCH   3   4
ENDBRANCH   2   3
ENDBRANCH   1   2
BRANCH   1  20
ATOM     20  O   UNL A   1      42.966  22.642  25.090  1.00  0.00    -0.458 OA
BRANCH  20  21
ATOM     21  C   UNL A   1      43.609  23.829  25.116  1.00  0.00     0.338 C 
ATOM     22  O   UNL A   1      44.551  24.190  24.435  1.00  0.00    -0.246 OA
BRANCH  21  23
ATOM     23  C   UNL A   1      42.963  24.706  26.105  1.00  0.00     0.060 A 
ATOM     24  C   UNL A   1      42.868  26.068  25.837  1.00  0.00     0.016 A 
ATOM     25  C   UNL A   1      42.586  24.207  27.350  1.00  0.00     0.016 A 
ATOM     26  C   UNL A   1      42.495  26.955  26.844  1.00  0.00     0.010 A 
ATOM     27  C   UNL A   1      42.111  25.089  28.326  1.00  0.00     0.010 A 
ATOM     28  C   UNL A   1      42.102  26.480  28.103  1.00  0.00    -0.014 A 
BRANCH  28  29
ATOM     29  C   UNL A   1      41.732  27.427  29.197  1.00  0.00     0.031 A 
ATOM     30  C   UNL A   1      42.535  27.461  30.475  1.00  0.00     0.074 A 
ATOM     31  C   UNL A   1      40.689  28.270  29.058  1.00  0.00     0.049 A 
ATOM     32  N   UNL A   1      42.269  28.064  31.606  1.00  0.00    -0.248 NA
ATOM     33  C   UNL A   1      43.798  26.704  30.486  1.00  0.00     0.031 C 
ATOM     34  C   UNL A   1      39.843  28.389  27.869  1.00  0.00     0.029 A 
ATOM     35  N   UNL A   1      40.165  29.196  29.928  1.00  0.00    -0.354 N 
ATOM     36  C   UNL A   1      43.289  27.704  32.481  1.00  0.00     0.074 A 
ATOM     37  C   UNL A   1      44.184  26.835  31.748  1.00  0.00     0.031 C 
ATOM     38  C   UNL A   1      38.938  29.359  28.066  1.00  0.00     0.029 A 
ATOM     39  C   UNL A   1      39.077  29.870  29.426  1.00  0.00     0.049 A 
ATOM     40  H   UNL A   1      40.534  29.363  30.826  1.00  0.00     0.167 HD
ATOM     41  C   UNL A   1      43.461  28.063  33.776  1.00  0.00     0.037 A 
ATOM     42  C   UNL A   1      38.251  30.763  30.003  1.00  0.00     0.037 A 
ATOM     43  C   UNL A   1      42.614  28.984  34.487  1.00  0.00     0.049 A 
ATOM     44  C   UNL A   1      38.455  31.136  31.443  1.00  0.00     0.074 A 
ATOM     45  C   UNL A   1      42.725  29.426  35.795  1.00  0.00     0.029 A 
ATOM     46  N   UNL A   1      41.510  29.621  33.944  1.00  0.00    -0.354 N 
ATOM     47  N   UNL A   1      39.386  30.739  32.275  1.00  0.00    -0.248 NA
ATOM     48  C   UNL A   1      37.478  32.062  32.032  1.00  0.00     0.031 C 
ATOM     49  C   UNL A   1      41.673  30.311  36.050  1.00  0.00     0.029 A 
ATOM     50  C   UNL A   1      40.927  30.448  34.890  1.00  0.00     0.049 A 
ATOM     51  H   UNL A   1      41.187  29.505  33.020  1.00  0.00     0.167 HD
ATOM     52  C   UNL A   1      39.112  31.369  33.480  1.00  0.00     0.074 A 
ATOM     53  C   UNL A   1      37.941  32.194  33.267  1.00  0.00     0.031 C 
ATOM     54  C   UNL A   1      39.767  31.267  34.663  1.00  0.00     0.037 A 
BRANCH  41  55
ATOM     55  C   UNL A   1      44.597  27.433  34.527  1.00  0.00     0.057 A 
ATOM     56  C   UNL A   1      45.863  28.026  34.604  1.00  0.00     0.134 A 
ATOM     57  C   UNL A   1      44.402  26.233  35.225  1.00  0.00     0.134 A 
ATOM     58  F   UNL A   1      46.119  29.168  33.947  1.00  0.00    -0.206 F 
ATOM     59  C   UNL A   1      46.899  27.440  35.334  1.00  0.00     0.040 A 
ATOM     60  C   UNL A   1      45.423  25.650  35.977  1.00  0.00     0.040 A 
ATOM     61  F   UNL A   1      43.211  25.616  35.199  1.00  0.00    -0.206 F 
ATOM     62  C   UNL A   1      46.678  26.252  36.029  1.00  0.00     0.006 A 
ENDBRANCH  41  55
BRANCH  42  63
ATOM     63  C   UNL A   1      37.122  31.337  29.228  1.00  0.00     0.057 A 
ATOM     64  C   UNL A   1      35.963  30.591  28.982  1.00  0.00     0.134 A 
ATOM     65  C   UNL A   1      37.173  32.640  28.718  1.00  0.00     0.134 A 
ATOM     66  F   UNL A   1      35.867  29.328  29.422  1.00  0.00    -0.206 F 
ATOM     67  C   UNL A   1      34.898  31.119  28.249  1.00  0.00     0.040 A 
ATOM     68  C   UNL A   1      36.105  33.190  28.008  1.00  0.00     0.040 A 
ATOM     69  F   UNL A   1      38.257  33.404  28.920  1.00  0.00    -0.206 F 
ATOM     70  C   UNL A   1      34.965  32.425  27.768  1.00  0.00     0.006 A 
ENDBRANCH  42  63
BRANCH  54  71
ATOM     71  C   UNL A   1      39.248  32.089  35.803  1.00  0.00     0.057 A 
ATOM     72  C   UNL A   1      39.705  33.392  36.038  1.00  0.00     0.134 A 
ATOM     73  C   UNL A   1      38.263  31.581  36.658  1.00  0.00     0.134 A 
ATOM     74  F   UNL A   1      40.658  33.928  35.262  1.00  0.00    -0.206 F 
ATOM     75  C   UNL A   1      39.213  34.154  37.099  1.00  0.00     0.040 A 
ATOM     76  C   UNL A   1      37.749  32.342  37.710  1.00  0.00     0.040 A 
ATOM     77  F   UNL A   1      37.780  30.342  36.482  1.00  0.00    -0.206 F 
ATOM     78  C   UNL A   1      38.229  33.630  37.935  1.00  0.00     0.006 A 
ENDBRANCH  54  71
ENDBRANCH  28  29
ENDBRANCH  21  23
ENDBRANCH  20  21
ENDBRANCH   1  20
TORSDOF 14
ENDMDL
