MODEL 1
REMARK VINA RESULT:     -11.6      0.000      0.000
REMARK SMILES COc1ccccc1Nc1snc(C)c1C(=O)OCCOC(=O)c1ccc(-c2c3nc(c(-c4c(F)cccc4F)c4ccc([nH]4)c(-c4c(F)cccc4F)c4nc(c(-c5c(F)cccc5F)c5ccc2[nH]5)C=C4)C=C3)cc1
REMARK SMILES IDX 19 1 18 2 16 3 17 4 15 5 10 6 11 7 12 8 13 9 14 10 9 11 8 13
REMARK SMILES IDX 3 14 4 15 5 16 7 17 6 18 2 19 1 20 20 21 21 22 22 23 23 24
REMARK SMILES IDX 24 25 25 26 77 27 26 28 76 29 27 30 28 31 29 32 70 33 30 34
REMARK SMILES IDX 75 35 69 36 71 37 31 38 74 39 68 40 67 41 32 43 58 44 41 45
REMARK SMILES IDX 57 46 42 47 45 48 56 49 72 50 43 51 44 52 55 54 73 55 46 56
REMARK SMILES IDX 33 57 34 58 39 59 35 60 36 61 38 62 40 63 37 64 59 65 60 66
REMARK SMILES IDX 65 67 61 68 62 69 64 70 66 71 63 72 47 73 48 74 53 75 49 76
REMARK SMILES IDX 50 77 52 78 54 79 51 80
REMARK H PARENT 9 12 71 42 45 53
REMARK Flexibility Score: inf
ROOT
ATOM      1  C   UNL A   1      36.682  20.712  25.238  1.00  0.00     0.275 C 
ENDROOT
BRANCH   1   2
ATOM      2  O   UNL A   1      35.996  21.670  26.065  1.00  0.00    -0.458 OA
BRANCH   2   3
ATOM      3  C   UNL A   1      34.654  21.519  26.287  1.00  0.00     0.343 C 
ATOM      4  O   UNL A   1      34.149  21.481  27.408  1.00  0.00    -0.246 OA
BRANCH   3   5
ATOM      5  C   UNL A   1      33.866  21.458  25.058  1.00  0.00     0.117 A 
ATOM      6  C   UNL A   1      33.857  22.444  24.067  1.00  0.00     0.128 A 
ATOM      7  S   UNL A   1      32.619  22.042  22.942  1.00  0.00    -0.017 S 
ATOM      8  N   UNL A   1      32.285  20.552  23.550  1.00  0.00    -0.195 NA
ATOM      9  C   UNL A   1      33.005  20.357  24.655  1.00  0.00     0.068 A 
ATOM     10  C   UNL A   1      32.816  19.036  25.326  1.00  0.00     0.069 C 
BRANCH   6  11
ATOM     11  N   UNL A   1      34.600  23.572  23.877  1.00  0.00    -0.342 N 
ATOM     12  H   UNL A   1      35.499  23.440  23.499  1.00  0.00     0.168 HD
BRANCH  11  13
ATOM     13  C   UNL A   1      34.233  24.908  24.158  1.00  0.00     0.082 A 
ATOM     14  C   UNL A   1      33.767  25.772  23.150  1.00  0.00     0.142 A 
ATOM     15  C   UNL A   1      33.295  27.050  23.482  1.00  0.00     0.048 A 
ATOM     16  C   UNL A   1      33.253  27.477  24.809  1.00  0.00     0.004 A 
ATOM     17  C   UNL A   1      34.246  25.395  25.482  1.00  0.00     0.030 A 
ATOM     18  C   UNL A   1      33.739  26.651  25.811  1.00  0.00     0.002 A 
BRANCH  14  19
ATOM     19  O   UNL A   1      33.841  25.518  21.803  1.00  0.00    -0.495 OA
ATOM     20  C   UNL A   1      32.622  25.654  21.079  1.00  0.00     0.278 C 
ENDBRANCH  14  19
ENDBRANCH  11  13
ENDBRANCH   6  11
ENDBRANCH   3   5
ENDBRANCH   2   3
ENDBRANCH   1   2
BRANCH   1  21
ATOM     21  C   UNL A   1      38.052  21.227  24.831  1.00  0.00     0.275 C 
BRANCH  21  22
ATOM     22  O   UNL A   1      38.930  21.146  25.947  1.00  0.00    -0.458 OA
BRANCH  22  23
ATOM     23  C   UNL A   1      39.818  20.138  25.837  1.00  0.00     0.338 C 
ATOM     24  O   UNL A   1      39.609  18.988  25.481  1.00  0.00    -0.246 OA
BRANCH  23  25
ATOM     25  C   UNL A   1      41.088  20.530  26.433  1.00  0.00     0.060 A 
ATOM     26  C   UNL A   1      41.026  20.621  27.829  1.00  0.00     0.016 A 
ATOM     27  C   UNL A   1      41.806  21.423  25.634  1.00  0.00     0.016 A 
ATOM     28  C   UNL A   1      41.378  21.810  28.404  1.00  0.00     0.010 A 
ATOM     29  C   UNL A   1      42.126  22.621  26.202  1.00  0.00     0.010 A 
ATOM     30  C   UNL A   1      41.825  22.818  27.556  1.00  0.00    -0.014 A 
BRANCH  30  31
ATOM     31  C   UNL A   1      42.196  24.079  28.142  1.00  0.00     0.031 A 
ATOM     32  C   UNL A   1      41.114  25.095  27.975  1.00  0.00     0.074 A 
ATOM     33  C   UNL A   1      43.287  24.098  28.931  1.00  0.00     0.049 A 
ATOM     34  N   UNL A   1      41.204  26.354  27.704  1.00  0.00    -0.248 NA
ATOM     35  C   UNL A   1      39.714  24.596  27.969  1.00  0.00     0.031 C 
ATOM     36  C   UNL A   1      44.196  22.985  29.252  1.00  0.00     0.029 A 
ATOM     37  N   UNL A   1      43.697  25.070  29.780  1.00  0.00    -0.354 N 
ATOM     38  C   UNL A   1      39.892  26.829  27.697  1.00  0.00     0.074 A 
ATOM     39  C   UNL A   1      39.023  25.692  27.689  1.00  0.00     0.031 C 
ATOM     40  C   UNL A   1      44.862  23.267  30.393  1.00  0.00     0.029 A 
ATOM     41  C   UNL A   1      44.510  24.609  30.809  1.00  0.00     0.049 A 
ATOM     42  H   UNL A   1      43.444  26.016  29.676  1.00  0.00     0.167 HD
ATOM     43  C   UNL A   1      39.606  28.128  27.960  1.00  0.00     0.037 A 
ATOM     44  C   UNL A   1      44.710  25.267  31.977  1.00  0.00     0.037 A 
ATOM     45  C   UNL A   1      40.722  28.974  27.642  1.00  0.00     0.049 A 
ATOM     46  C   UNL A   1      44.260  26.673  31.757  1.00  0.00     0.074 A 
ATOM     47  C   UNL A   1      41.387  29.260  26.466  1.00  0.00     0.029 A 
ATOM     48  N   UNL A   1      41.571  29.340  28.657  1.00  0.00    -0.354 N 
ATOM     49  N   UNL A   1      44.844  27.495  30.927  1.00  0.00    -0.248 NA
ATOM     50  C   UNL A   1      42.868  26.983  32.065  1.00  0.00     0.031 C 
ATOM     51  C   UNL A   1      42.763  29.314  26.828  1.00  0.00     0.029 A 
ATOM     52  C   UNL A   1      42.852  29.128  28.209  1.00  0.00     0.049 A 
ATOM     53  H   UNL A   1      41.312  29.689  29.541  1.00  0.00     0.167 HD
ATOM     54  C   UNL A   1      43.806  28.184  30.308  1.00  0.00     0.074 A 
ATOM     55  C   UNL A   1      42.613  27.857  31.086  1.00  0.00     0.031 C 
ATOM     56  C   UNL A   1      43.946  28.719  29.058  1.00  0.00     0.037 A 
BRANCH  43  57
ATOM     57  C   UNL A   1      38.461  28.545  28.847  1.00  0.00     0.057 A 
ATOM     58  C   UNL A   1      37.552  29.505  28.377  1.00  0.00     0.134 A 
ATOM     59  C   UNL A   1      38.377  28.267  30.230  1.00  0.00     0.134 A 
ATOM     60  F   UNL A   1      37.531  29.856  27.082  1.00  0.00    -0.206 F 
ATOM     61  C   UNL A   1      36.689  30.200  29.232  1.00  0.00     0.040 A 
ATOM     62  C   UNL A   1      37.486  28.919  31.084  1.00  0.00     0.040 A 
ATOM     63  F   UNL A   1      39.211  27.425  30.853  1.00  0.00    -0.206 F 
ATOM     64  C   UNL A   1      36.663  29.917  30.593  1.00  0.00     0.006 A 
ENDBRANCH  43  57
BRANCH  44  65
ATOM     65  C   UNL A   1      44.855  24.660  33.320  1.00  0.00     0.057 A 
ATOM     66  C   UNL A   1      45.668  25.243  34.299  1.00  0.00     0.134 A 
ATOM     67  C   UNL A   1      44.020  23.611  33.755  1.00  0.00     0.134 A 
ATOM     68  F   UNL A   1      46.458  26.281  33.993  1.00  0.00    -0.206 F 
ATOM     69  C   UNL A   1      45.656  24.804  35.632  1.00  0.00     0.040 A 
ATOM     70  C   UNL A   1      44.007  23.158  35.077  1.00  0.00     0.040 A 
ATOM     71  F   UNL A   1      43.131  23.042  32.929  1.00  0.00    -0.206 F 
ATOM     72  C   UNL A   1      44.822  23.762  36.025  1.00  0.00     0.006 A 
ENDBRANCH  44  65
BRANCH  56  73
ATOM     73  C   UNL A   1      45.306  28.655  28.412  1.00  0.00     0.057 A 
ATOM     74  C   UNL A   1      45.710  27.620  27.553  1.00  0.00     0.134 A 
ATOM     75  C   UNL A   1      46.155  29.760  28.500  1.00  0.00     0.134 A 
ATOM     76  F   UNL A   1      44.914  26.575  27.312  1.00  0.00    -0.206 F 
ATOM     77  C   UNL A   1      46.916  27.662  26.848  1.00  0.00     0.040 A 
ATOM     78  C   UNL A   1      47.348  29.833  27.775  1.00  0.00     0.040 A 
ATOM     79  F   UNL A   1      45.805  30.821  29.244  1.00  0.00    -0.206 F 
ATOM     80  C   UNL A   1      47.738  28.778  26.952  1.00  0.00     0.006 A 
ENDBRANCH  56  73
ENDBRANCH  30  31
ENDBRANCH  23  25
ENDBRANCH  22  23
ENDBRANCH  21  22
ENDBRANCH   1  21
TORSDOF 14
ENDMDL
MODEL 2
REMARK VINA RESULT:     -11.2      1.226      2.999
REMARK SMILES COc1ccccc1Nc1snc(C)c1C(=O)OCCOC(=O)c1ccc(-c2c3nc(c(-c4c(F)cccc4F)c4ccc([nH]4)c(-c4c(F)cccc4F)c4nc(c(-c5c(F)cccc5F)c5ccc2[nH]5)C=C4)C=C3)cc1
REMARK SMILES IDX 19 1 18 2 16 3 17 4 15 5 10 6 11 7 12 8 13 9 14 10 9 11 8 13
REMARK SMILES IDX 3 14 4 15 5 16 7 17 6 18 2 19 1 20 20 21 21 22 22 23 23 24
REMARK SMILES IDX 24 25 25 26 77 27 26 28 76 29 27 30 28 31 29 32 70 33 30 34
REMARK SMILES IDX 75 35 69 36 71 37 31 38 74 39 68 40 67 41 32 43 58 44 41 45
REMARK SMILES IDX 57 46 42 47 45 48 56 49 72 50 43 51 44 52 55 54 73 55 46 56
REMARK SMILES IDX 33 57 34 58 39 59 35 60 36 61 38 62 40 63 37 64 59 65 60 66
REMARK SMILES IDX 65 67 61 68 62 69 64 70 66 71 63 72 47 73 48 74 53 75 49 76
REMARK SMILES IDX 50 77 52 78 54 79 51 80
REMARK H PARENT 9 12 71 42 45 53
REMARK Flexibility Score: inf
ROOT
ATOM      1  C   UNL A   1      36.431  21.040  25.450  1.00  0.00     0.275 C 
ENDROOT
BRANCH   1   2
ATOM      2  O   UNL A   1      35.793  22.310  25.683  1.00  0.00    -0.458 OA
BRANCH   2   3
ATOM      3  C   UNL A   1      34.808  22.726  24.830  1.00  0.00     0.343 C 
ATOM      4  O   UNL A   1      34.948  22.796  23.609  1.00  0.00    -0.246 OA
BRANCH   3   5
ATOM      5  C   UNL A   1      33.549  23.034  25.505  1.00  0.00     0.117 A 
ATOM      6  C   UNL A   1      32.575  22.091  25.844  1.00  0.00     0.128 A 
ATOM      7  S   UNL A   1      31.191  22.947  26.403  1.00  0.00    -0.017 S 
ATOM      8  N   UNL A   1      31.892  24.433  26.449  1.00  0.00    -0.195 NA
ATOM      9  C   UNL A   1      33.130  24.350  25.960  1.00  0.00     0.068 A 
ATOM     10  C   UNL A   1      33.905  25.627  25.941  1.00  0.00     0.069 C 
BRANCH   6  11
ATOM     11  N   UNL A   1      32.551  20.728  25.797  1.00  0.00    -0.342 N 
ATOM     12  H   UNL A   1      32.533  20.264  26.666  1.00  0.00     0.168 HD
BRANCH  11  13
ATOM     13  C   UNL A   1      32.549  19.901  24.651  1.00  0.00     0.082 A 
ATOM     14  C   UNL A   1      32.647  18.500  24.753  1.00  0.00     0.142 A 
ATOM     15  C   UNL A   1      32.518  17.701  23.608  1.00  0.00     0.048 A 
ATOM     16  C   UNL A   1      32.265  18.271  22.361  1.00  0.00     0.004 A 
ATOM     17  C   UNL A   1      32.365  20.451  23.366  1.00  0.00     0.030 A 
ATOM     18  C   UNL A   1      32.198  19.650  22.237  1.00  0.00     0.002 A 
BRANCH  14  19
ATOM     19  O   UNL A   1      32.988  17.819  25.895  1.00  0.00    -0.495 OA
ATOM     20  C   UNL A   1      33.173  16.414  25.745  1.00  0.00     0.278 C 
ENDBRANCH  14  19
ENDBRANCH  11  13
ENDBRANCH   6  11
ENDBRANCH   3   5
ENDBRANCH   2   3
ENDBRANCH   1   2
BRANCH   1  21
ATOM     21  C   UNL A   1      37.808  21.227  24.835  1.00  0.00     0.275 C 
BRANCH  21  22
ATOM     22  O   UNL A   1      38.784  21.227  25.870  1.00  0.00    -0.458 OA
BRANCH  22  23
ATOM     23  C   UNL A   1      39.641  20.191  25.774  1.00  0.00     0.338 C 
ATOM     24  O   UNL A   1      39.398  19.044  25.432  1.00  0.00    -0.246 OA
BRANCH  23  25
ATOM     25  C   UNL A   1      40.921  20.551  26.367  1.00  0.00     0.060 A 
ATOM     26  C   UNL A   1      40.866  20.639  27.763  1.00  0.00     0.016 A 
ATOM     27  C   UNL A   1      41.657  21.431  25.570  1.00  0.00     0.016 A 
ATOM     28  C   UNL A   1      41.247  21.817  28.342  1.00  0.00     0.010 A 
ATOM     29  C   UNL A   1      42.006  22.620  26.140  1.00  0.00     0.010 A 
ATOM     30  C   UNL A   1      41.714  22.818  27.496  1.00  0.00    -0.014 A 
BRANCH  30  31
ATOM     31  C   UNL A   1      42.116  24.069  28.085  1.00  0.00     0.031 A 
ATOM     32  C   UNL A   1      41.041  25.098  27.961  1.00  0.00     0.074 A 
ATOM     33  C   UNL A   1      43.228  24.067  28.844  1.00  0.00     0.049 A 
ATOM     34  N   UNL A   1      41.137  26.359  27.701  1.00  0.00    -0.248 NA
ATOM     35  C   UNL A   1      39.636  24.614  27.989  1.00  0.00     0.031 C 
ATOM     36  C   UNL A   1      44.133  22.940  29.126  1.00  0.00     0.029 A 
ATOM     37  N   UNL A   1      43.673  25.025  29.691  1.00  0.00    -0.354 N 
ATOM     38  C   UNL A   1      39.830  26.848  27.736  1.00  0.00     0.074 A 
ATOM     39  C   UNL A   1      38.949  25.721  27.741  1.00  0.00     0.031 C 
ATOM     40  C   UNL A   1      44.835  23.202  30.251  1.00  0.00     0.029 A 
ATOM     41  C   UNL A   1      44.509  24.543  30.692  1.00  0.00     0.049 A 
ATOM     42  H   UNL A   1      43.427  25.974  29.606  1.00  0.00     0.167 HD
ATOM     43  C   UNL A   1      39.566  28.147  28.023  1.00  0.00     0.037 A 
ATOM     44  C   UNL A   1      44.749  25.185  31.861  1.00  0.00     0.037 A 
ATOM     45  C   UNL A   1      40.682  28.984  27.682  1.00  0.00     0.049 A 
ATOM     46  C   UNL A   1      44.309  26.598  31.670  1.00  0.00     0.074 A 
ATOM     47  C   UNL A   1      41.317  29.276  26.491  1.00  0.00     0.029 A 
ATOM     48  N   UNL A   1      41.564  29.329  28.677  1.00  0.00    -0.354 N 
ATOM     49  N   UNL A   1      44.879  27.423  30.833  1.00  0.00    -0.248 NA
ATOM     50  C   UNL A   1      42.930  26.919  32.020  1.00  0.00     0.031 C 
ATOM     51  C   UNL A   1      42.703  29.312  26.815  1.00  0.00     0.029 A 
ATOM     52  C   UNL A   1      42.829  29.109  28.190  1.00  0.00     0.049 A 
ATOM     53  H   UNL A   1      41.333  29.671  29.572  1.00  0.00     0.167 HD
ATOM     54  C   UNL A   1      43.832  28.131  30.251  1.00  0.00     0.074 A 
ATOM     55  C   UNL A   1      42.658  27.807  31.059  1.00  0.00     0.031 C 
ATOM     56  C   UNL A   1      43.942  28.678  29.004  1.00  0.00     0.037 A 
BRANCH  43  57
ATOM     57  C   UNL A   1      38.451  28.566  28.946  1.00  0.00     0.057 A 
ATOM     58  C   UNL A   1      37.523  29.519  28.501  1.00  0.00     0.134 A 
ATOM     59  C   UNL A   1      38.418  28.298  30.333  1.00  0.00     0.134 A 
ATOM     60  F   UNL A   1      37.454  29.860  27.206  1.00  0.00    -0.206 F 
ATOM     61  C   UNL A   1      36.687  30.216  29.382  1.00  0.00     0.040 A 
ATOM     62  C   UNL A   1      37.555  28.953  31.213  1.00  0.00     0.040 A 
ATOM     63  F   UNL A   1      39.276  27.464  30.933  1.00  0.00    -0.206 F 
ATOM     64  C   UNL A   1      36.711  29.943  30.744  1.00  0.00     0.006 A 
ENDBRANCH  43  57
BRANCH  44  65
ATOM     65  C   UNL A   1      44.926  24.561  33.193  1.00  0.00     0.057 A 
ATOM     66  C   UNL A   1      45.817  25.090  34.133  1.00  0.00     0.134 A 
ATOM     67  C   UNL A   1      44.056  23.557  33.663  1.00  0.00     0.134 A 
ATOM     68  F   UNL A   1      46.648  26.085  33.794  1.00  0.00    -0.206 F 
ATOM     69  C   UNL A   1      45.845  24.643  35.463  1.00  0.00     0.040 A 
ATOM     70  C   UNL A   1      44.081  23.096  34.982  1.00  0.00     0.040 A 
ATOM     71  F   UNL A   1      43.096  23.045  32.879  1.00  0.00    -0.206 F 
ATOM     72  C   UNL A   1      44.975  23.646  35.891  1.00  0.00     0.006 A 
ENDBRANCH  44  65
BRANCH  56  73
ATOM     73  C   UNL A   1      45.282  28.607  28.319  1.00  0.00     0.057 A 
ATOM     74  C   UNL A   1      45.660  27.565  27.458  1.00  0.00     0.134 A 
ATOM     75  C   UNL A   1      46.135  29.712  28.372  1.00  0.00     0.134 A 
ATOM     76  F   UNL A   1      44.857  26.518  27.249  1.00  0.00    -0.206 F 
ATOM     77  C   UNL A   1      46.845  27.599  26.717  1.00  0.00     0.040 A 
ATOM     78  C   UNL A   1      47.306  29.777  27.612  1.00  0.00     0.040 A 
ATOM     79  F   UNL A   1      45.808  30.780  29.117  1.00  0.00    -0.206 F 
ATOM     80  C   UNL A   1      47.670  28.714  26.788  1.00  0.00     0.006 A 
ENDBRANCH  56  73
ENDBRANCH  30  31
ENDBRANCH  23  25
ENDBRANCH  22  23
ENDBRANCH  21  22
ENDBRANCH   1  21
TORSDOF 14
ENDMDL
MODEL 3
REMARK VINA RESULT:     -11.0      4.187      8.916
REMARK SMILES COc1ccccc1Nc1snc(C)c1C(=O)OCCOC(=O)c1ccc(-c2c3nc(c(-c4c(F)cccc4F)c4ccc([nH]4)c(-c4c(F)cccc4F)c4nc(c(-c5c(F)cccc5F)c5ccc2[nH]5)C=C4)C=C3)cc1
REMARK SMILES IDX 19 1 18 2 16 3 17 4 15 5 10 6 11 7 12 8 13 9 14 10 9 11 8 13
REMARK SMILES IDX 3 14 4 15 5 16 7 17 6 18 2 19 1 20 20 21 21 22 22 23 23 24
REMARK SMILES IDX 24 25 25 26 77 27 26 28 76 29 27 30 28 31 29 32 70 33 30 34
REMARK SMILES IDX 75 35 69 36 71 37 31 38 74 39 68 40 67 41 32 43 58 44 41 45
REMARK SMILES IDX 57 46 42 47 45 48 56 49 72 50 43 51 44 52 55 54 73 55 46 56
REMARK SMILES IDX 33 57 34 58 39 59 35 60 36 61 38 62 40 63 37 64 59 65 60 66
REMARK SMILES IDX 65 67 61 68 62 69 64 70 66 71 63 72 47 73 48 74 53 75 49 76
REMARK SMILES IDX 50 77 52 78 54 79 51 80
REMARK H PARENT 9 12 71 42 45 53
REMARK Flexibility Score: inf
ROOT
ATOM      1  C   UNL A   1      32.329  29.638  27.203  1.00  0.00     0.275 C 
ENDROOT
BRANCH   1   2
ATOM      2  O   UNL A   1      32.385  28.834  26.009  1.00  0.00    -0.458 OA
BRANCH   2   3
ATOM      3  C   UNL A   1      31.541  27.763  25.887  1.00  0.00     0.343 C 
ATOM      4  O   UNL A   1      31.014  27.199  26.845  1.00  0.00    -0.246 OA
BRANCH   3   5
ATOM      5  C   UNL A   1      31.284  27.384  24.500  1.00  0.00     0.117 A 
ATOM      6  C   UNL A   1      31.542  26.122  23.957  1.00  0.00     0.128 A 
ATOM      7  S   UNL A   1      31.296  26.225  22.258  1.00  0.00    -0.017 S 
ATOM      8  N   UNL A   1      30.646  27.734  22.250  1.00  0.00    -0.195 NA
ATOM      9  C   UNL A   1      30.688  28.237  23.484  1.00  0.00     0.068 A 
ATOM     10  C   UNL A   1      30.124  29.611  23.642  1.00  0.00     0.069 C 
BRANCH   6  11
ATOM     11  N   UNL A   1      31.931  24.938  24.512  1.00  0.00    -0.342 N 
ATOM     12  H   UNL A   1      31.232  24.431  24.985  1.00  0.00     0.168 HD
BRANCH  11  13
ATOM     13  C   UNL A   1      33.217  24.353  24.489  1.00  0.00     0.082 A 
ATOM     14  C   UNL A   1      33.572  23.390  23.526  1.00  0.00     0.142 A 
ATOM     15  C   UNL A   1      34.891  22.919  23.453  1.00  0.00     0.048 A 
ATOM     16  C   UNL A   1      35.876  23.412  24.309  1.00  0.00     0.004 A 
ATOM     17  C   UNL A   1      34.218  24.777  25.387  1.00  0.00     0.030 A 
ATOM     18  C   UNL A   1      35.537  24.337  25.285  1.00  0.00     0.002 A 
BRANCH  14  19
ATOM     19  O   UNL A   1      32.687  22.753  22.691  1.00  0.00    -0.495 OA
ATOM     20  C   UNL A   1      32.446  21.378  22.978  1.00  0.00     0.278 C 
ENDBRANCH  14  19
ENDBRANCH  11  13
ENDBRANCH   6  11
ENDBRANCH   3   5
ENDBRANCH   2   3
ENDBRANCH   1   2
BRANCH   1  21
ATOM     21  C   UNL A   1      32.208  31.113  26.860  1.00  0.00     0.275 C 
BRANCH  21  22
ATOM     22  O   UNL A   1      33.241  31.831  27.524  1.00  0.00    -0.458 OA
BRANCH  22  23
ATOM     23  C   UNL A   1      32.888  33.099  27.814  1.00  0.00     0.338 C 
ATOM     24  O   UNL A   1      31.935  33.731  27.383  1.00  0.00    -0.246 OA
BRANCH  23  25
ATOM     25  C   UNL A   1      33.948  33.747  28.574  1.00  0.00     0.060 A 
ATOM     26  C   UNL A   1      35.045  34.100  27.779  1.00  0.00     0.016 A 
ATOM     27  C   UNL A   1      34.069  33.244  29.871  1.00  0.00     0.016 A 
ATOM     28  C   UNL A   1      36.271  33.613  28.134  1.00  0.00     0.010 A 
ATOM     29  C   UNL A   1      35.285  32.728  30.211  1.00  0.00     0.010 A 
ATOM     30  C   UNL A   1      36.339  32.850  29.296  1.00  0.00    -0.014 A 
BRANCH  30  31
ATOM     31  C   UNL A   1      37.620  32.323  29.686  1.00  0.00     0.031 A 
ATOM     32  C   UNL A   1      37.774  30.898  29.265  1.00  0.00     0.074 A 
ATOM     33  C   UNL A   1      38.544  33.201  30.120  1.00  0.00     0.049 A 
ATOM     34  N   UNL A   1      38.318  29.910  29.893  1.00  0.00    -0.248 NA
ATOM     35  C   UNL A   1      37.085  30.486  28.014  1.00  0.00     0.031 C 
ATOM     36  C   UNL A   1      38.404  34.657  30.291  1.00  0.00     0.029 A 
ATOM     37  N   UNL A   1      39.871  33.007  30.305  1.00  0.00    -0.354 N 
ATOM     38  C   UNL A   1      38.216  28.818  29.031  1.00  0.00     0.074 A 
ATOM     39  C   UNL A   1      37.309  29.179  27.985  1.00  0.00     0.031 C 
ATOM     40  C   UNL A   1      39.630  35.226  30.293  1.00  0.00     0.029 A 
ATOM     41  C   UNL A   1      40.623  34.174  30.237  1.00  0.00     0.049 A 
ATOM     42  H   UNL A   1      40.266  32.121  30.473  1.00  0.00     0.167 HD
ATOM     43  C   UNL A   1      39.087  27.780  29.093  1.00  0.00     0.037 A 
ATOM     44  C   UNL A   1      41.954  34.211  29.984  1.00  0.00     0.037 A 
ATOM     45  C   UNL A   1      39.646  27.659  30.410  1.00  0.00     0.049 A 
ATOM     46  C   UNL A   1      42.471  32.830  30.213  1.00  0.00     0.074 A 
ATOM     47  C   UNL A   1      39.098  27.398  31.650  1.00  0.00     0.029 A 
ATOM     48  N   UNL A   1      40.875  28.223  30.650  1.00  0.00    -0.354 N 
ATOM     49  N   UNL A   1      42.474  32.246  31.381  1.00  0.00    -0.248 NA
ATOM     50  C   UNL A   1      42.492  31.928  29.066  1.00  0.00     0.031 C 
ATOM     51  C   UNL A   1      39.795  28.257  32.547  1.00  0.00     0.029 A 
ATOM     52  C   UNL A   1      40.771  28.939  31.818  1.00  0.00     0.049 A 
ATOM     53  H   UNL A   1      41.680  28.133  30.090  1.00  0.00     0.167 HD
ATOM     54  C   UNL A   1      42.104  30.928  31.130  1.00  0.00     0.074 A 
ATOM     55  C   UNL A   1      42.175  30.783  29.677  1.00  0.00     0.031 C 
ATOM     56  C   UNL A   1      41.495  30.161  32.081  1.00  0.00     0.037 A 
BRANCH  43  57
ATOM     57  C   UNL A   1      39.683  27.144  27.865  1.00  0.00     0.057 A 
ATOM     58  C   UNL A   1      39.666  25.747  27.747  1.00  0.00     0.134 A 
ATOM     59  C   UNL A   1      40.521  27.813  26.943  1.00  0.00     0.134 A 
ATOM     60  F   UNL A   1      38.911  24.997  28.563  1.00  0.00    -0.206 F 
ATOM     61  C   UNL A   1      40.486  25.062  26.842  1.00  0.00     0.040 A 
ATOM     62  C   UNL A   1      41.306  27.143  26.004  1.00  0.00     0.040 A 
ATOM     63  F   UNL A   1      40.703  29.140  26.957  1.00  0.00    -0.206 F 
ATOM     64  C   UNL A   1      41.320  25.760  25.976  1.00  0.00     0.006 A 
ENDBRANCH  43  57
BRANCH  44  65
ATOM     65  C   UNL A   1      42.674  35.226  29.181  1.00  0.00     0.057 A 
ATOM     66  C   UNL A   1      43.975  35.624  29.506  1.00  0.00     0.134 A 
ATOM     67  C   UNL A   1      42.187  35.668  27.935  1.00  0.00     0.134 A 
ATOM     68  F   UNL A   1      44.546  35.210  30.646  1.00  0.00    -0.206 F 
ATOM     69  C   UNL A   1      44.746  36.421  28.645  1.00  0.00     0.040 A 
ATOM     70  C   UNL A   1      42.940  36.471  27.073  1.00  0.00     0.040 A 
ATOM     71  F   UNL A   1      40.991  35.271  27.475  1.00  0.00    -0.206 F 
ATOM     72  C   UNL A   1      44.230  36.844  27.425  1.00  0.00     0.006 A 
ENDBRANCH  44  65
BRANCH  56  73
ATOM     73  C   UNL A   1      41.347  30.739  33.465  1.00  0.00     0.057 A 
ATOM     74  C   UNL A   1      40.217  31.456  33.890  1.00  0.00     0.134 A 
ATOM     75  C   UNL A   1      42.276  30.397  34.450  1.00  0.00     0.134 A 
ATOM     76  F   UNL A   1      39.217  31.730  33.048  1.00  0.00    -0.206 F 
ATOM     77  C   UNL A   1      40.038  31.849  35.220  1.00  0.00     0.040 A 
ATOM     78  C   UNL A   1      42.094  30.753  35.790  1.00  0.00     0.040 A 
ATOM     79  F   UNL A   1      43.347  29.651  34.136  1.00  0.00    -0.206 F 
ATOM     80  C   UNL A   1      40.978  31.489  36.178  1.00  0.00     0.006 A 
ENDBRANCH  56  73
ENDBRANCH  30  31
ENDBRANCH  23  25
ENDBRANCH  22  23
ENDBRANCH  21  22
ENDBRANCH   1  21
TORSDOF 14
ENDMDL
