MODEL 1
REMARK VINA RESULT:     -12.3      0.000      0.000
REMARK SMILES NS(=O)(=O)c1ccc(-n2nc(C(F)(F)F)cc2-c2ccc(CC(=O)OCCOC(=O)c3ccc(-c4c5nc(c(-c6c(F)cccc6F)c6ccc([nH]6)c(-c6c(F)cccc6F)c6nc(c(-c7c(F)cccc7F)c7ccc4[nH]7)C=C6)C=C5)cc3)cc2)cc1
REMARK SMILES IDX 25 1 23 2 24 3 22 4 21 5 18 6 19 7 86 8 20 9 85 10 17 11
REMARK SMILES IDX 9 12 10 13 11 14 16 15 8 16 5 17 6 18 88 19 7 20 87 21 2 22
REMARK SMILES IDX 3 23 4 24 1 25 12 28 13 29 14 30 15 31 26 32 27 33 28 34
REMARK SMILES IDX 29 35 30 36 31 37 32 38 84 39 33 40 83 41 34 42 35 43 36 44
REMARK SMILES IDX 77 45 37 46 82 47 76 48 78 49 38 50 81 51 75 52 74 53 39 55
REMARK SMILES IDX 65 56 48 57 64 58 49 59 52 60 63 61 79 62 50 63 51 64 62 66
REMARK SMILES IDX 80 67 53 68 40 69 41 70 46 71 42 72 43 73 45 74 47 75 44 76
REMARK SMILES IDX 66 77 67 78 72 79 68 80 69 81 71 82 73 83 70 84 54 85 55 86
REMARK SMILES IDX 60 87 56 88 57 89 59 90 61 91 58 92
REMARK H PARENT 1 26 1 27 78 54 52 65
REMARK Flexibility Score: inf
ROOT
ATOM      1  O   UNL A   1      41.234  20.790  26.094  1.00  0.00    -0.462 OA
ENDROOT
BRANCH   1   2
ATOM      2  C   UNL A   1      39.879  20.919  26.060  1.00  0.00     0.310 C 
ATOM      3  O   UNL A   1      39.111  20.013  25.742  1.00  0.00    -0.252 OA
BRANCH   2   4
ATOM      4  C   UNL A   1      39.381  22.321  26.342  1.00  0.00     0.158 C 
BRANCH   4   5
ATOM      5  C   UNL A   1      38.084  22.757  25.702  1.00  0.00    -0.037 A 
ATOM      6  C   UNL A   1      35.655  23.525  24.487  1.00  0.00     0.000 A 
ATOM      7  C   UNL A   1      36.571  22.732  23.793  1.00  0.00     0.010 A 
ATOM      8  C   UNL A   1      35.981  23.972  25.771  1.00  0.00     0.010 A 
ATOM      9  C   UNL A   1      37.782  22.380  24.389  1.00  0.00     0.005 A 
ATOM     10  C   UNL A   1      37.176  23.573  26.382  1.00  0.00     0.005 A 
BRANCH   6  11
ATOM     11  C   UNL A   1      34.383  23.881  23.865  1.00  0.00     0.075 A 
ATOM     12  N   UNL A   1      33.418  22.981  23.423  1.00  0.00    -0.233 N 
ATOM     13  N   UNL A   1      32.489  23.592  22.637  1.00  0.00    -0.163 NA
ATOM     14  C   UNL A   1      32.740  24.910  22.757  1.00  0.00     0.167 A 
ATOM     15  C   UNL A   1      33.934  25.128  23.484  1.00  0.00     0.064 A 
BRANCH  12  16
ATOM     16  C   UNL A   1      33.280  21.599  23.728  1.00  0.00     0.065 A 
ATOM     17  C   UNL A   1      33.005  18.882  24.315  1.00  0.00     0.082 A 
ATOM     18  C   UNL A   1      33.917  19.656  25.035  1.00  0.00     0.024 A 
ATOM     19  C   UNL A   1      32.216  19.460  23.313  1.00  0.00     0.024 A 
ATOM     20  C   UNL A   1      34.061  21.011  24.732  1.00  0.00     0.030 A 
ATOM     21  C   UNL A   1      32.333  20.827  23.038  1.00  0.00     0.030 A 
BRANCH  17  22
ATOM     22  S   UNL A   1      32.831  17.153  24.632  1.00  0.00     0.238 S 
ATOM     23  O   UNL A   1      33.574  16.422  23.618  1.00  0.00    -0.207 OA
ATOM     24  O   UNL A   1      31.460  16.876  24.944  1.00  0.00    -0.207 OA
BRANCH  22  25
ATOM     25  N   UNL A   1      33.687  16.887  26.059  1.00  0.00    -0.225 NA
ATOM     26  H   UNL A   1      33.250  16.128  26.581  1.00  0.00     0.137 HD
ATOM     27  H   UNL A   1      33.681  17.736  26.622  1.00  0.00     0.137 HD
ENDBRANCH  22  25
ENDBRANCH  17  22
ENDBRANCH  12  16
BRANCH  14  28
ATOM     28  C   UNL A   1      31.851  25.974  22.171  1.00  0.00     0.435 C 
ATOM     29  F   UNL A   1      31.723  25.883  20.822  1.00  0.00    -0.164 F 
ATOM     30  F   UNL A   1      30.596  25.934  22.696  1.00  0.00    -0.164 F 
ATOM     31  F   UNL A   1      32.328  27.224  22.429  1.00  0.00    -0.164 F 
ENDBRANCH  14  28
ENDBRANCH   6  11
ENDBRANCH   4   5
ENDBRANCH   2   4
ENDBRANCH   1   2
BRANCH   1  32
ATOM     32  C   UNL A   1      41.738  19.571  26.684  1.00  0.00     0.274 C 
BRANCH  32  33
ATOM     33  C   UNL A   1      42.952  18.996  25.957  1.00  0.00     0.275 C 
BRANCH  33  34
ATOM     34  O   UNL A   1      43.124  19.551  24.653  1.00  0.00    -0.458 OA
BRANCH  34  35
ATOM     35  C   UNL A   1      44.412  19.844  24.376  1.00  0.00     0.338 C 
ATOM     36  O   UNL A   1      45.293  19.053  24.084  1.00  0.00    -0.246 OA
BRANCH  35  37
ATOM     37  C   UNL A   1      44.719  21.236  24.693  1.00  0.00     0.060 A 
ATOM     38  C   UNL A   1      45.665  21.467  25.697  1.00  0.00     0.016 A 
ATOM     39  C   UNL A   1      43.822  22.224  24.278  1.00  0.00     0.016 A 
ATOM     40  C   UNL A   1      45.587  22.630  26.426  1.00  0.00     0.010 A 
ATOM     41  C   UNL A   1      43.741  23.385  25.010  1.00  0.00     0.010 A 
ATOM     42  C   UNL A   1      44.569  23.535  26.123  1.00  0.00    -0.014 A 
BRANCH  42  43
ATOM     43  C   UNL A   1      44.436  24.702  26.966  1.00  0.00     0.031 A 
ATOM     44  C   UNL A   1      45.562  25.656  26.835  1.00  0.00     0.074 A 
ATOM     45  C   UNL A   1      43.324  24.944  27.680  1.00  0.00     0.049 A 
ATOM     46  N   UNL A   1      46.388  26.042  27.747  1.00  0.00    -0.248 NA
ATOM     47  C   UNL A   1      45.893  26.126  25.480  1.00  0.00     0.031 C 
ATOM     48  C   UNL A   1      42.053  24.215  27.669  1.00  0.00     0.029 A 
ATOM     49  N   UNL A   1      43.064  25.996  28.497  1.00  0.00    -0.354 N 
ATOM     50  C   UNL A   1      47.232  26.956  27.125  1.00  0.00     0.074 A 
ATOM     51  C   UNL A   1      46.994  26.840  25.711  1.00  0.00     0.031 C 
ATOM     52  C   UNL A   1      41.100  24.983  28.245  1.00  0.00     0.029 A 
ATOM     53  C   UNL A   1      41.717  26.191  28.766  1.00  0.00     0.049 A 
ATOM     54  H   UNL A   1      43.771  26.571  28.868  1.00  0.00     0.167 HD
ATOM     55  C   UNL A   1      47.893  27.908  27.834  1.00  0.00     0.037 A 
ATOM     56  C   UNL A   1      41.171  27.316  29.294  1.00  0.00     0.037 A 
ATOM     57  C   UNL A   1      47.970  27.570  29.231  1.00  0.00     0.049 A 
ATOM     58  C   UNL A   1      42.271  28.083  29.939  1.00  0.00     0.074 A 
ATOM     59  C   UNL A   1      48.496  26.506  29.938  1.00  0.00     0.029 A 
ATOM     60  N   UNL A   1      47.123  28.211  30.102  1.00  0.00    -0.354 N 
ATOM     61  N   UNL A   1      42.881  27.701  31.026  1.00  0.00    -0.248 NA
ATOM     62  C   UNL A   1      43.005  29.037  29.116  1.00  0.00     0.031 C 
ATOM     63  C   UNL A   1      47.569  26.273  30.997  1.00  0.00     0.029 A 
ATOM     64  C   UNL A   1      46.571  27.242  30.902  1.00  0.00     0.049 A 
ATOM     65  H   UNL A   1      46.945  29.178  30.145  1.00  0.00     0.167 HD
ATOM     66  C   UNL A   1      44.216  28.015  30.813  1.00  0.00     0.074 A 
ATOM     67  C   UNL A   1      44.220  28.912  29.660  1.00  0.00     0.031 C 
ATOM     68  C   UNL A   1      45.217  27.291  31.397  1.00  0.00     0.037 A 
BRANCH  55  69
ATOM     69  C   UNL A   1      48.137  29.303  27.320  1.00  0.00     0.057 A 
ATOM     70  C   UNL A   1      49.434  29.839  27.379  1.00  0.00     0.134 A 
ATOM     71  C   UNL A   1      47.113  30.233  27.044  1.00  0.00     0.134 A 
ATOM     72  F   UNL A   1      50.490  29.058  27.653  1.00  0.00    -0.206 F 
ATOM     73  C   UNL A   1      49.683  31.209  27.243  1.00  0.00     0.040 A 
ATOM     74  C   UNL A   1      47.357  31.595  26.852  1.00  0.00     0.040 A 
ATOM     75  F   UNL A   1      45.816  29.901  27.050  1.00  0.00    -0.206 F 
ATOM     76  C   UNL A   1      48.641  32.093  26.984  1.00  0.00     0.006 A 
ENDBRANCH  55  69
BRANCH  56  77
ATOM     77  C   UNL A   1      39.845  27.918  29.023  1.00  0.00     0.057 A 
ATOM     78  C   UNL A   1      38.887  28.040  30.042  1.00  0.00     0.134 A 
ATOM     79  C   UNL A   1      39.575  28.628  27.840  1.00  0.00     0.134 A 
ATOM     80  F   UNL A   1      39.070  27.433  31.224  1.00  0.00    -0.206 F 
ATOM     81  C   UNL A   1      37.747  28.842  29.903  1.00  0.00     0.040 A 
ATOM     82  C   UNL A   1      38.434  29.424  27.685  1.00  0.00     0.040 A 
ATOM     83  F   UNL A   1      40.449  28.652  26.825  1.00  0.00    -0.206 F 
ATOM     84  C   UNL A   1      37.523  29.547  28.726  1.00  0.00     0.006 A 
ENDBRANCH  56  77
BRANCH  68  85
ATOM     85  C   UNL A   1      44.838  26.281  32.445  1.00  0.00     0.057 A 
ATOM     86  C   UNL A   1      44.592  26.602  33.788  1.00  0.00     0.134 A 
ATOM     87  C   UNL A   1      44.562  24.968  32.051  1.00  0.00     0.134 A 
ATOM     88  F   UNL A   1      44.718  27.857  34.236  1.00  0.00    -0.206 F 
ATOM     89  C   UNL A   1      44.143  25.649  34.708  1.00  0.00     0.040 A 
ATOM     90  C   UNL A   1      44.078  24.014  32.951  1.00  0.00     0.040 A 
ATOM     91  F   UNL A   1      44.711  24.600  30.769  1.00  0.00    -0.206 F 
ATOM     92  C   UNL A   1      43.879  24.350  34.287  1.00  0.00     0.006 A 
ENDBRANCH  68  85
ENDBRANCH  42  43
ENDBRANCH  35  37
ENDBRANCH  34  35
ENDBRANCH  33  34
ENDBRANCH  32  33
ENDBRANCH   1  32
TORSDOF 17
ENDMDL
MODEL 2
REMARK VINA RESULT:     -12.2      6.683     11.027
REMARK SMILES NS(=O)(=O)c1ccc(-n2nc(C(F)(F)F)cc2-c2ccc(CC(=O)OCCOC(=O)c3ccc(-c4c5nc(c(-c6c(F)cccc6F)c6ccc([nH]6)c(-c6c(F)cccc6F)c6nc(c(-c7c(F)cccc7F)c7ccc4[nH]7)C=C6)C=C5)cc3)cc2)cc1
REMARK SMILES IDX 25 1 23 2 24 3 22 4 21 5 18 6 19 7 86 8 20 9 85 10 17 11
REMARK SMILES IDX 9 12 10 13 11 14 16 15 8 16 5 17 6 18 88 19 7 20 87 21 2 22
REMARK SMILES IDX 3 23 4 24 1 25 12 28 13 29 14 30 15 31 26 32 27 33 28 34
REMARK SMILES IDX 29 35 30 36 31 37 32 38 84 39 33 40 83 41 34 42 35 43 36 44
REMARK SMILES IDX 77 45 37 46 82 47 76 48 78 49 38 50 81 51 75 52 74 53 39 55
REMARK SMILES IDX 65 56 48 57 64 58 49 59 52 60 63 61 79 62 50 63 51 64 62 66
REMARK SMILES IDX 80 67 53 68 40 69 41 70 46 71 42 72 43 73 45 74 47 75 44 76
REMARK SMILES IDX 66 77 67 78 72 79 68 80 69 81 71 82 73 83 70 84 54 85 55 86
REMARK SMILES IDX 60 87 56 88 57 89 59 90 61 91 58 92
REMARK H PARENT 1 26 1 27 78 54 52 65
REMARK Flexibility Score: inf
ROOT
ATOM      1  O   UNL A   1      32.554  34.169  29.097  1.00  0.00    -0.462 OA
ENDROOT
BRANCH   1   2
ATOM      2  C   UNL A   1      32.793  33.413  27.990  1.00  0.00     0.310 C 
ATOM      3  O   UNL A   1      32.114  33.460  26.967  1.00  0.00    -0.252 OA
BRANCH   2   4
ATOM      4  C   UNL A   1      33.915  32.409  28.154  1.00  0.00     0.158 C 
BRANCH   4   5
ATOM      5  C   UNL A   1      33.749  31.047  27.520  1.00  0.00    -0.037 A 
ATOM      6  C   UNL A   1      33.403  28.523  26.306  1.00  0.00     0.000 A 
ATOM      7  C   UNL A   1      32.295  29.309  26.627  1.00  0.00     0.010 A 
ATOM      8  C   UNL A   1      34.680  28.983  26.639  1.00  0.00     0.010 A 
ATOM      9  C   UNL A   1      32.471  30.543  27.253  1.00  0.00     0.005 A 
ATOM     10  C   UNL A   1      34.854  30.245  27.221  1.00  0.00     0.005 A 
BRANCH   6  11
ATOM     11  C   UNL A   1      33.215  27.238  25.639  1.00  0.00     0.075 A 
ATOM     12  N   UNL A   1      32.173  26.919  24.774  1.00  0.00    -0.233 N 
ATOM     13  N   UNL A   1      32.107  25.579  24.545  1.00  0.00    -0.163 NA
ATOM     14  C   UNL A   1      33.231  25.073  25.088  1.00  0.00     0.167 A 
ATOM     15  C   UNL A   1      33.929  26.070  25.811  1.00  0.00     0.064 A 
BRANCH  12  16
ATOM     16  C   UNL A   1      31.267  27.791  24.108  1.00  0.00     0.065 A 
ATOM     17  C   UNL A   1      29.479  29.498  22.809  1.00  0.00     0.082 A 
ATOM     18  C   UNL A   1      30.849  29.758  22.751  1.00  0.00     0.024 A 
ATOM     19  C   UNL A   1      28.996  28.379  23.498  1.00  0.00     0.024 A 
ATOM     20  C   UNL A   1      31.740  28.910  23.411  1.00  0.00     0.030 A 
ATOM     21  C   UNL A   1      29.893  27.508  24.125  1.00  0.00     0.030 A 
BRANCH  17  22
ATOM     22  S   UNL A   1      28.316  30.577  22.032  1.00  0.00     0.238 S 
ATOM     23  O   UNL A   1      27.279  30.906  22.997  1.00  0.00    -0.207 OA
ATOM     24  O   UNL A   1      28.029  30.079  20.719  1.00  0.00    -0.207 OA
BRANCH  22  25
ATOM     25  N   UNL A   1      29.153  32.021  21.801  1.00  0.00    -0.225 NA
ATOM     26  H   UNL A   1      28.500  32.803  21.842  1.00  0.00     0.137 HD
ATOM     27  H   UNL A   1      29.609  32.007  20.889  1.00  0.00     0.137 HD
ENDBRANCH  22  25
ENDBRANCH  17  22
ENDBRANCH  12  16
BRANCH  14  28
ATOM     28  C   UNL A   1      33.646  23.635  24.934  1.00  0.00     0.435 C 
ATOM     29  F   UNL A   1      32.914  22.781  25.695  1.00  0.00    -0.164 F 
ATOM     30  F   UNL A   1      33.543  23.212  23.645  1.00  0.00    -0.164 F 
ATOM     31  F   UNL A   1      34.949  23.448  25.289  1.00  0.00    -0.164 F 
ENDBRANCH  14  28
ENDBRANCH   6  11
ENDBRANCH   4   5
ENDBRANCH   2   4
ENDBRANCH   1   2
BRANCH   1  32
ATOM     32  C   UNL A   1      32.900  35.567  28.994  1.00  0.00     0.274 C 
BRANCH  32  33
ATOM     33  C   UNL A   1      33.815  36.055  30.115  1.00  0.00     0.275 C 
BRANCH  33  34
ATOM     34  O   UNL A   1      33.089  36.510  31.257  1.00  0.00    -0.458 OA
BRANCH  34  35
ATOM     35  C   UNL A   1      32.742  35.506  32.089  1.00  0.00     0.338 C 
ATOM     36  O   UNL A   1      31.638  35.304  32.567  1.00  0.00    -0.246 OA
BRANCH  35  37
ATOM     37  C   UNL A   1      33.916  34.781  32.564  1.00  0.00     0.060 A 
ATOM     38  C   UNL A   1      35.060  35.535  32.847  1.00  0.00     0.016 A 
ATOM     39  C   UNL A   1      33.972  33.400  32.357  1.00  0.00     0.016 A 
ATOM     40  C   UNL A   1      36.293  34.939  32.730  1.00  0.00     0.010 A 
ATOM     41  C   UNL A   1      35.206  32.805  32.235  1.00  0.00     0.010 A 
ATOM     42  C   UNL A   1      36.347  33.600  32.342  1.00  0.00    -0.014 A 
BRANCH  42  43
ATOM     43  C   UNL A   1      37.652  33.017  32.122  1.00  0.00     0.031 A 
ATOM     44  C   UNL A   1      38.509  33.014  33.330  1.00  0.00     0.074 A 
ATOM     45  C   UNL A   1      37.979  32.414  30.966  1.00  0.00     0.049 A 
ATOM     46  N   UNL A   1      39.648  33.596  33.501  1.00  0.00    -0.248 NA
ATOM     47  C   UNL A   1      37.954  32.404  34.550  1.00  0.00     0.031 C 
ATOM     48  C   UNL A   1      37.123  32.119  29.814  1.00  0.00     0.029 A 
ATOM     49  N   UNL A   1      39.154  31.823  30.632  1.00  0.00    -0.354 N 
ATOM     50  C   UNL A   1      40.047  33.266  34.791  1.00  0.00     0.074 A 
ATOM     51  C   UNL A   1      38.904  32.682  35.440  1.00  0.00     0.031 C 
ATOM     52  C   UNL A   1      37.738  31.202  29.032  1.00  0.00     0.029 A 
ATOM     53  C   UNL A   1      39.066  30.944  29.563  1.00  0.00     0.049 A 
ATOM     54  H   UNL A   1      39.996  32.002  31.108  1.00  0.00     0.167 HD
ATOM     55  C   UNL A   1      41.357  33.279  35.153  1.00  0.00     0.037 A 
ATOM     56  C   UNL A   1      39.998  30.018  29.222  1.00  0.00     0.037 A 
ATOM     57  C   UNL A   1      42.149  34.069  34.247  1.00  0.00     0.049 A 
ATOM     58  C   UNL A   1      41.274  30.410  29.878  1.00  0.00     0.074 A 
ATOM     59  C   UNL A   1      42.122  35.391  33.843  1.00  0.00     0.029 A 
ATOM     60  N   UNL A   1      42.922  33.415  33.320  1.00  0.00    -0.354 N 
ATOM     61  N   UNL A   1      41.979  31.451  29.530  1.00  0.00    -0.248 NA
ATOM     62  C   UNL A   1      41.526  29.911  31.225  1.00  0.00     0.031 C 
ATOM     63  C   UNL A   1      42.442  35.357  32.453  1.00  0.00     0.029 A 
ATOM     64  C   UNL A   1      42.700  34.029  32.114  1.00  0.00     0.049 A 
ATOM     65  H   UNL A   1      43.520  32.651  33.487  1.00  0.00     0.167 HD
ATOM     66  C   UNL A   1      42.429  31.991  30.726  1.00  0.00     0.074 A 
ATOM     67  C   UNL A   1      42.193  30.954  31.729  1.00  0.00     0.031 C 
ATOM     68  C   UNL A   1      42.676  33.329  30.853  1.00  0.00     0.037 A 
BRANCH  55  69
ATOM     69  C   UNL A   1      41.963  32.282  36.106  1.00  0.00     0.057 A 
ATOM     70  C   UNL A   1      42.749  32.743  37.174  1.00  0.00     0.134 A 
ATOM     71  C   UNL A   1      42.047  30.897  35.850  1.00  0.00     0.134 A 
ATOM     72  F   UNL A   1      42.769  34.044  37.503  1.00  0.00    -0.206 F 
ATOM     73  C   UNL A   1      43.606  31.900  37.890  1.00  0.00     0.040 A 
ATOM     74  C   UNL A   1      42.858  30.037  36.594  1.00  0.00     0.040 A 
ATOM     75  F   UNL A   1      41.437  30.318  34.809  1.00  0.00    -0.206 F 
ATOM     76  C   UNL A   1      43.668  30.542  37.596  1.00  0.00     0.006 A 
ENDBRANCH  55  69
BRANCH  56  77
ATOM     77  C   UNL A   1      39.797  28.675  28.630  1.00  0.00     0.057 A 
ATOM     78  C   UNL A   1      40.335  28.352  27.375  1.00  0.00     0.134 A 
ATOM     79  C   UNL A   1      39.308  27.592  29.384  1.00  0.00     0.134 A 
ATOM     80  F   UNL A   1      40.864  29.307  26.595  1.00  0.00    -0.206 F 
ATOM     81  C   UNL A   1      40.410  27.033  26.911  1.00  0.00     0.040 A 
ATOM     82  C   UNL A   1      39.367  26.271  28.926  1.00  0.00     0.040 A 
ATOM     83  F   UNL A   1      38.840  27.763  30.627  1.00  0.00    -0.206 F 
ATOM     84  C   UNL A   1      39.934  25.985  27.692  1.00  0.00     0.006 A 
ENDBRANCH  56  77
BRANCH  68  85
ATOM     85  C   UNL A   1      42.653  34.171  29.606  1.00  0.00     0.057 A 
ATOM     86  C   UNL A   1      41.518  34.852  29.143  1.00  0.00     0.134 A 
ATOM     87  C   UNL A   1      43.856  34.428  28.941  1.00  0.00     0.134 A 
ATOM     88  F   UNL A   1      40.345  34.761  29.780  1.00  0.00    -0.206 F 
ATOM     89  C   UNL A   1      41.566  35.706  28.036  1.00  0.00     0.040 A 
ATOM     90  C   UNL A   1      43.927  35.307  27.857  1.00  0.00     0.040 A 
ATOM     91  F   UNL A   1      44.998  33.864  29.366  1.00  0.00    -0.206 F 
ATOM     92  C   UNL A   1      42.777  35.940  27.393  1.00  0.00     0.006 A 
ENDBRANCH  68  85
ENDBRANCH  42  43
ENDBRANCH  35  37
ENDBRANCH  34  35
ENDBRANCH  33  34
ENDBRANCH  32  33
ENDBRANCH   1  32
TORSDOF 17
ENDMDL
MODEL 3
REMARK VINA RESULT:     -12.2      3.570      7.190
REMARK SMILES NS(=O)(=O)c1ccc(-n2nc(C(F)(F)F)cc2-c2ccc(CC(=O)OCCOC(=O)c3ccc(-c4c5nc(c(-c6c(F)cccc6F)c6ccc([nH]6)c(-c6c(F)cccc6F)c6nc(c(-c7c(F)cccc7F)c7ccc4[nH]7)C=C6)C=C5)cc3)cc2)cc1
REMARK SMILES IDX 25 1 23 2 24 3 22 4 21 5 18 6 19 7 86 8 20 9 85 10 17 11
REMARK SMILES IDX 9 12 10 13 11 14 16 15 8 16 5 17 6 18 88 19 7 20 87 21 2 22
REMARK SMILES IDX 3 23 4 24 1 25 12 28 13 29 14 30 15 31 26 32 27 33 28 34
REMARK SMILES IDX 29 35 30 36 31 37 32 38 84 39 33 40 83 41 34 42 35 43 36 44
REMARK SMILES IDX 77 45 37 46 82 47 76 48 78 49 38 50 81 51 75 52 74 53 39 55
REMARK SMILES IDX 65 56 48 57 64 58 49 59 52 60 63 61 79 62 50 63 51 64 62 66
REMARK SMILES IDX 80 67 53 68 40 69 41 70 46 71 42 72 43 73 45 74 47 75 44 76
REMARK SMILES IDX 66 77 67 78 72 79 68 80 69 81 71 82 73 83 70 84 54 85 55 86
REMARK SMILES IDX 60 87 56 88 57 89 59 90 61 91 58 92
REMARK H PARENT 1 26 1 27 78 54 52 65
REMARK Flexibility Score: inf
ROOT
ATOM      1  O   UNL A   1      33.453  27.468  26.563  1.00  0.00    -0.462 OA
ENDROOT
BRANCH   1   2
ATOM      2  C   UNL A   1      32.288  27.197  25.913  1.00  0.00     0.310 C 
ATOM      3  O   UNL A   1      31.319  27.953  25.896  1.00  0.00    -0.252 OA
BRANCH   2   4
ATOM      4  C   UNL A   1      32.232  25.818  25.289  1.00  0.00     0.158 C 
BRANCH   4   5
ATOM      5  C   UNL A   1      33.459  24.942  25.388  1.00  0.00    -0.037 A 
ATOM      6  C   UNL A   1      35.779  23.343  25.554  1.00  0.00     0.000 A 
ATOM      7  C   UNL A   1      35.541  24.125  24.423  1.00  0.00     0.010 A 
ATOM      8  C   UNL A   1      34.829  23.327  26.580  1.00  0.00     0.010 A 
ATOM      9  C   UNL A   1      34.378  24.891  24.335  1.00  0.00     0.005 A 
ATOM     10  C   UNL A   1      33.689  24.137  26.507  1.00  0.00     0.005 A 
BRANCH   6  11
ATOM     11  C   UNL A   1      37.003  22.553  25.648  1.00  0.00     0.075 A 
ATOM     12  N   UNL A   1      37.080  21.166  25.578  1.00  0.00    -0.233 N 
ATOM     13  N   UNL A   1      38.297  20.712  25.984  1.00  0.00    -0.163 NA
ATOM     14  C   UNL A   1      39.061  21.815  26.106  1.00  0.00     0.167 A 
ATOM     15  C   UNL A   1      38.281  22.984  25.941  1.00  0.00     0.064 A 
BRANCH  12  16
ATOM     16  C   UNL A   1      36.106  20.242  25.107  1.00  0.00     0.065 A 
ATOM     17  C   UNL A   1      34.201  18.418  24.188  1.00  0.00     0.082 A 
ATOM     18  C   UNL A   1      33.836  19.747  24.404  1.00  0.00     0.024 A 
ATOM     19  C   UNL A   1      35.517  17.996  24.411  1.00  0.00     0.024 A 
ATOM     20  C   UNL A   1      34.787  20.655  24.875  1.00  0.00     0.030 A 
ATOM     21  C   UNL A   1      36.478  18.915  24.844  1.00  0.00     0.030 A 
BRANCH  17  22
ATOM     22  S   UNL A   1      33.015  17.228  23.643  1.00  0.00     0.238 S 
ATOM     23  O   UNL A   1      33.554  15.898  23.883  1.00  0.00    -0.207 OA
ATOM     24  O   UNL A   1      32.496  17.640  22.373  1.00  0.00    -0.207 OA
BRANCH  22  25
ATOM     25  N   UNL A   1      31.733  17.367  24.728  1.00  0.00    -0.225 NA
ATOM     26  H   UNL A   1      32.018  17.006  25.639  1.00  0.00     0.137 HD
ATOM     27  H   UNL A   1      30.937  16.832  24.384  1.00  0.00     0.137 HD
ENDBRANCH  22  25
ENDBRANCH  17  22
ENDBRANCH  12  16
BRANCH  14  28
ATOM     28  C   UNL A   1      40.537  21.766  26.391  1.00  0.00     0.435 C 
ATOM     29  F   UNL A   1      41.021  20.501  26.501  1.00  0.00    -0.164 F 
ATOM     30  F   UNL A   1      41.263  22.389  25.424  1.00  0.00    -0.164 F 
ATOM     31  F   UNL A   1      40.844  22.398  27.559  1.00  0.00    -0.164 F 
ENDBRANCH  14  28
ENDBRANCH   6  11
ENDBRANCH   4   5
ENDBRANCH   2   4
ENDBRANCH   1   2
BRANCH   1  32
ATOM     32  C   UNL A   1      33.542  28.770  27.182  1.00  0.00     0.274 C 
BRANCH  32  33
ATOM     33  C   UNL A   1      34.951  29.360  27.167  1.00  0.00     0.275 C 
BRANCH  33  34
ATOM     34  O   UNL A   1      35.504  29.494  28.476  1.00  0.00    -0.458 OA
BRANCH  34  35
ATOM     35  C   UNL A   1      36.674  30.165  28.482  1.00  0.00     0.338 C 
ATOM     36  O   UNL A   1      36.820  31.375  28.522  1.00  0.00    -0.246 OA
BRANCH  35  37
ATOM     37  C   UNL A   1      37.797  29.276  28.199  1.00  0.00     0.060 A 
ATOM     38  C   UNL A   1      38.251  28.469  29.247  1.00  0.00     0.016 A 
ATOM     39  C   UNL A   1      38.578  29.535  27.070  1.00  0.00     0.016 A 
ATOM     40  C   UNL A   1      39.569  28.076  29.258  1.00  0.00     0.010 A 
ATOM     41  C   UNL A   1      39.898  29.146  27.083  1.00  0.00     0.010 A 
ATOM     42  C   UNL A   1      40.393  28.495  28.213  1.00  0.00    -0.014 A 
BRANCH  42  43
ATOM     43  C   UNL A   1      41.798  28.161  28.292  1.00  0.00     0.031 A 
ATOM     44  C   UNL A   1      42.140  26.882  27.629  1.00  0.00     0.074 A 
ATOM     45  C   UNL A   1      42.706  29.014  28.797  1.00  0.00     0.049 A 
ATOM     46  N   UNL A   1      42.649  25.821  28.159  1.00  0.00    -0.248 NA
ATOM     47  C   UNL A   1      41.728  26.718  26.225  1.00  0.00     0.031 C 
ATOM     48  C   UNL A   1      42.519  30.403  29.224  1.00  0.00     0.029 A 
ATOM     49  N   UNL A   1      44.046  28.835  28.921  1.00  0.00    -0.354 N 
ATOM     50  C   UNL A   1      42.799  24.916  27.114  1.00  0.00     0.074 A 
ATOM     51  C   UNL A   1      42.068  25.451  25.996  1.00  0.00     0.031 C 
ATOM     52  C   UNL A   1      43.729  31.000  29.322  1.00  0.00     0.029 A 
ATOM     53  C   UNL A   1      44.765  30.010  29.085  1.00  0.00     0.049 A 
ATOM     54  H   UNL A   1      44.470  27.948  28.898  1.00  0.00     0.167 HD
ATOM     55  C   UNL A   1      43.712  23.912  27.172  1.00  0.00     0.037 A 
ATOM     56  C   UNL A   1      46.108  30.141  28.937  1.00  0.00     0.037 A 
ATOM     57  C   UNL A   1      44.123  23.646  28.525  1.00  0.00     0.049 A 
ATOM     58  C   UNL A   1      46.700  28.779  29.027  1.00  0.00     0.074 A 
ATOM     59  C   UNL A   1      43.459  23.274  29.680  1.00  0.00     0.029 A 
ATOM     60  N   UNL A   1      45.346  24.116  28.938  1.00  0.00    -0.354 N 
ATOM     61  N   UNL A   1      46.750  28.081  30.127  1.00  0.00    -0.248 NA
ATOM     62  C   UNL A   1      46.817  28.007  27.796  1.00  0.00     0.031 C 
ATOM     63  C   UNL A   1      44.102  24.001  30.725  1.00  0.00     0.029 A 
ATOM     64  C   UNL A   1      45.148  24.723  30.152  1.00  0.00     0.049 A 
ATOM     65  H   UNL A   1      46.199  24.035  28.455  1.00  0.00     0.167 HD
ATOM     66  C   UNL A   1      46.470  26.780  29.736  1.00  0.00     0.074 A 
ATOM     67  C   UNL A   1      46.606  26.780  28.280  1.00  0.00     0.031 C 
ATOM     68  C   UNL A   1      45.867  25.897  30.585  1.00  0.00     0.037 A 
BRANCH  55  69
ATOM     69  C   UNL A   1      44.494  23.433  25.977  1.00  0.00     0.057 A 
ATOM     70  C   UNL A   1      44.558  22.057  25.703  1.00  0.00     0.134 A 
ATOM     71  C   UNL A   1      45.414  24.231  25.264  1.00  0.00     0.134 A 
ATOM     72  F   UNL A   1      43.747  21.192  26.333  1.00  0.00    -0.206 F 
ATOM     73  C   UNL A   1      45.511  21.509  24.838  1.00  0.00     0.040 A 
ATOM     74  C   UNL A   1      46.333  23.700  24.356  1.00  0.00     0.040 A 
ATOM     75  F   UNL A   1      45.547  25.545  25.480  1.00  0.00    -0.206 F 
ATOM     76  C   UNL A   1      46.408  22.332  24.166  1.00  0.00     0.006 A 
ENDBRANCH  55  69
BRANCH  56  77
ATOM     77  C   UNL A   1      46.875  31.301  28.427  1.00  0.00     0.057 A 
ATOM     78  C   UNL A   1      46.785  31.690  27.082  1.00  0.00     0.134 A 
ATOM     79  C   UNL A   1      47.504  32.218  29.289  1.00  0.00     0.134 A 
ATOM     80  F   UNL A   1      46.169  30.905  26.186  1.00  0.00    -0.206 F 
ATOM     81  C   UNL A   1      47.264  32.926  26.627  1.00  0.00     0.040 A 
ATOM     82  C   UNL A   1      47.996  33.450  28.845  1.00  0.00     0.040 A 
ATOM     83  F   UNL A   1      47.583  31.994  30.607  1.00  0.00    -0.206 F 
ATOM     84  C   UNL A   1      47.862  33.816  27.512  1.00  0.00     0.006 A 
ENDBRANCH  56  77
BRANCH  68  85
ATOM     85  C   UNL A   1      45.706  26.301  32.025  1.00  0.00     0.057 A 
ATOM     86  C   UNL A   1      44.577  26.963  32.531  1.00  0.00     0.134 A 
ATOM     87  C   UNL A   1      46.653  25.868  32.959  1.00  0.00     0.134 A 
ATOM     88  F   UNL A   1      43.564  27.316  31.732  1.00  0.00    -0.206 F 
ATOM     89  C   UNL A   1      44.423  27.229  33.895  1.00  0.00     0.040 A 
ATOM     90  C   UNL A   1      46.495  26.095  34.329  1.00  0.00     0.040 A 
ATOM     91  F   UNL A   1      47.729  25.172  32.560  1.00  0.00    -0.206 F 
ATOM     92  C   UNL A   1      45.383  26.789  34.800  1.00  0.00     0.006 A 
ENDBRANCH  68  85
ENDBRANCH  42  43
ENDBRANCH  35  37
ENDBRANCH  34  35
ENDBRANCH  33  34
ENDBRANCH  32  33
ENDBRANCH   1  32
TORSDOF 17
ENDMDL
