MODEL 1
REMARK VINA RESULT:     -12.6      0.000      0.000
REMARK SMILES CC(C)Oc1ccc(-c2ccc(/C(=C\c3ccc(S(C)(=O)=O)cc3)C(=O)OCCOC(=O)c3ccc(-c4c5nc(c(-c6c(F)cccc6F)c6ccc([nH]6)c(-c6c(F)cccc6F)c6nc(c(-c7c(F)cccc7F)c7ccc4[nH]7)C=C6)C=C5)cc3)cc2)cc1
REMARK SMILES IDX 28 1 27 2 25 3 26 4 13 5 14 6 12 7 9 8 10 9 88 10 11 11
REMARK SMILES IDX 87 12 8 13 5 14 6 15 90 16 7 17 89 18 4 19 2 20 1 21 3 22
REMARK SMILES IDX 15 23 16 24 24 25 17 26 23 27 18 28 19 29 20 30 21 31 22 32
REMARK SMILES IDX 29 33 30 34 31 35 32 36 33 37 34 38 86 39 35 40 85 41 36 42
REMARK SMILES IDX 37 43 38 44 79 45 39 46 84 47 78 48 80 49 40 50 83 51 77 52
REMARK SMILES IDX 76 53 41 55 67 56 50 57 66 58 51 59 54 60 65 61 81 62 52 63
REMARK SMILES IDX 53 64 64 66 82 67 55 68 42 69 43 70 48 71 44 72 45 73 47 74
REMARK SMILES IDX 49 75 46 76 68 77 69 78 74 79 70 80 71 81 73 82 75 83 72 84
REMARK SMILES IDX 56 85 57 86 62 87 58 88 59 89 61 90 63 91 60 92
REMARK H PARENT 80 54 54 65
REMARK Flexibility Score: inf
ROOT
ATOM      1  C   UNL A   1      34.114  22.020  25.162  1.00  0.00     0.275 C 
ENDROOT
BRANCH   1   2
ATOM      2  O   UNL A   1      33.743  23.413  25.119  1.00  0.00    -0.458 OA
BRANCH   2   3
ATOM      3  C   UNL A   1      32.740  23.823  25.948  1.00  0.00     0.338 C 
ATOM      4  O   UNL A   1      32.377  23.229  26.952  1.00  0.00    -0.246 OA
BRANCH   3   5
ATOM      5  C   UNL A   1      32.134  25.126  25.470  1.00  0.00     0.067 C 
ATOM      6  C   UNL A   1      31.305  24.945  24.406  1.00  0.00     0.024 C 
BRANCH   5   7
ATOM      7  C   UNL A   1      32.479  26.427  26.171  1.00  0.00    -0.011 A 
ATOM      8  C   UNL A   1      33.016  29.123  27.068  1.00  0.00    -0.018 A 
ATOM      9  C   UNL A   1      31.804  28.499  27.341  1.00  0.00     0.009 A 
ATOM     10  C   UNL A   1      34.009  28.335  26.480  1.00  0.00     0.009 A 
ATOM     11  C   UNL A   1      31.566  27.175  26.932  1.00  0.00     0.009 A 
ATOM     12  C   UNL A   1      33.743  27.023  26.030  1.00  0.00     0.009 A 
BRANCH   8  13
ATOM     13  C   UNL A   1      33.206  30.559  27.326  1.00  0.00    -0.018 A 
ATOM     14  C   UNL A   1      33.658  33.319  27.791  1.00  0.00     0.119 A 
ATOM     15  C   UNL A   1      32.412  32.858  27.360  1.00  0.00     0.047 A 
ATOM     16  C   UNL A   1      34.673  32.402  28.012  1.00  0.00     0.047 A 
ATOM     17  C   UNL A   1      32.187  31.495  27.119  1.00  0.00     0.012 A 
ATOM     18  C   UNL A   1      34.448  31.044  27.765  1.00  0.00     0.012 A 
BRANCH  14  19
ATOM     19  O   UNL A   1      33.744  34.652  28.061  1.00  0.00    -0.491 OA
BRANCH  19  20
ATOM     20  C   UNL A   1      33.312  35.167  29.332  1.00  0.00     0.167 C 
ATOM     21  C   UNL A   1      34.058  34.592  30.531  1.00  0.00     0.052 C 
ATOM     22  C   UNL A   1      33.199  36.688  29.374  1.00  0.00     0.052 C 
ENDBRANCH  19  20
ENDBRANCH  14  19
ENDBRANCH   8  13
ENDBRANCH   5   7
BRANCH   6  23
ATOM     23  C   UNL A   1      30.501  25.949  23.702  1.00  0.00    -0.025 A 
ATOM     24  C   UNL A   1      29.149  26.078  24.053  1.00  0.00     0.009 A 
ATOM     25  C   UNL A   1      31.093  26.874  22.833  1.00  0.00     0.009 A 
ATOM     26  C   UNL A   1      28.431  27.203  23.651  1.00  0.00     0.021 A 
ATOM     27  C   UNL A   1      30.378  28.008  22.434  1.00  0.00     0.021 A 
ATOM     28  C   UNL A   1      29.063  28.182  22.878  1.00  0.00     0.067 A 
BRANCH  28  29
ATOM     29  S   UNL A   1      28.255  29.754  22.666  1.00  0.00     0.175 S 
ATOM     30  C   UNL A   1      29.265  30.887  23.574  1.00  0.00     0.163 C 
ATOM     31  O   UNL A   1      28.350  30.093  21.259  1.00  0.00    -0.224 OA
ATOM     32  O   UNL A   1      26.964  29.675  23.322  1.00  0.00    -0.224 OA
ENDBRANCH  28  29
ENDBRANCH   6  23
ENDBRANCH   3   5
ENDBRANCH   2   3
ENDBRANCH   1   2
BRANCH   1  33
ATOM     33  C   UNL A   1      35.579  21.848  24.752  1.00  0.00     0.275 C 
BRANCH  33  34
ATOM     34  O   UNL A   1      36.412  21.815  25.925  1.00  0.00    -0.458 OA
BRANCH  34  35
ATOM     35  C   UNL A   1      37.700  21.470  25.692  1.00  0.00     0.338 C 
ATOM     36  O   UNL A   1      38.106  20.512  25.054  1.00  0.00    -0.246 OA
BRANCH  35  37
ATOM     37  C   UNL A   1      38.578  22.561  26.148  1.00  0.00     0.060 A 
ATOM     38  C   UNL A   1      38.186  23.854  25.812  1.00  0.00     0.016 A 
ATOM     39  C   UNL A   1      39.748  22.347  26.884  1.00  0.00     0.016 A 
ATOM     40  C   UNL A   1      38.949  24.936  26.234  1.00  0.00     0.010 A 
ATOM     41  C   UNL A   1      40.521  23.444  27.295  1.00  0.00     0.010 A 
ATOM     42  C   UNL A   1      40.118  24.751  26.980  1.00  0.00    -0.014 A 
BRANCH  42  43
ATOM     43  C   UNL A   1      40.933  25.937  27.349  1.00  0.00     0.031 A 
ATOM     44  C   UNL A   1      40.334  26.999  28.225  1.00  0.00     0.074 A 
ATOM     45  C   UNL A   1      42.228  26.026  26.993  1.00  0.00     0.049 A 
ATOM     46  N   UNL A   1      40.878  28.098  28.685  1.00  0.00    -0.248 NA
ATOM     47  C   UNL A   1      38.944  26.785  28.651  1.00  0.00     0.031 C 
ATOM     48  C   UNL A   1      42.964  25.025  26.223  1.00  0.00     0.029 A 
ATOM     49  N   UNL A   1      43.163  26.998  27.260  1.00  0.00    -0.354 N 
ATOM     50  C   UNL A   1      39.899  28.703  29.461  1.00  0.00     0.074 A 
ATOM     51  C   UNL A   1      38.729  27.852  29.407  1.00  0.00     0.031 C 
ATOM     52  C   UNL A   1      44.242  25.427  26.095  1.00  0.00     0.029 A 
ATOM     53  C   UNL A   1      44.403  26.734  26.731  1.00  0.00     0.049 A 
ATOM     54  H   UNL A   1      42.961  27.809  27.781  1.00  0.00     0.167 HD
ATOM     55  C   UNL A   1      39.964  29.867  30.149  1.00  0.00     0.037 A 
ATOM     56  C   UNL A   1      45.530  27.473  26.737  1.00  0.00     0.037 A 
ATOM     57  C   UNL A   1      41.102  30.744  30.176  1.00  0.00     0.049 A 
ATOM     58  C   UNL A   1      45.536  28.821  27.412  1.00  0.00     0.074 A 
ATOM     59  C   UNL A   1      41.242  31.957  30.830  1.00  0.00     0.029 A 
ATOM     60  N   UNL A   1      42.295  30.509  29.512  1.00  0.00    -0.354 N 
ATOM     61  N   UNL A   1      44.585  29.411  28.096  1.00  0.00    -0.248 NA
ATOM     62  C   UNL A   1      46.768  29.618  27.294  1.00  0.00     0.031 C 
ATOM     63  C   UNL A   1      42.514  32.465  30.546  1.00  0.00     0.029 A 
ATOM     64  C   UNL A   1      43.180  31.549  29.749  1.00  0.00     0.049 A 
ATOM     65  H   UNL A   1      42.485  29.720  28.954  1.00  0.00     0.167 HD
ATOM     66  C   UNL A   1      45.112  30.630  28.508  1.00  0.00     0.074 A 
ATOM     67  C   UNL A   1      46.467  30.696  28.005  1.00  0.00     0.031 C 
ATOM     68  C   UNL A   1      44.524  31.607  29.239  1.00  0.00     0.037 A 
BRANCH  55  69
ATOM     69  C   UNL A   1      38.739  30.273  30.909  1.00  0.00     0.057 A 
ATOM     70  C   UNL A   1      38.547  29.898  32.244  1.00  0.00     0.134 A 
ATOM     71  C   UNL A   1      37.754  31.060  30.303  1.00  0.00     0.134 A 
ATOM     72  F   UNL A   1      39.452  29.133  32.872  1.00  0.00    -0.206 F 
ATOM     73  C   UNL A   1      37.402  30.277  32.946  1.00  0.00     0.040 A 
ATOM     74  C   UNL A   1      36.615  31.461  31.000  1.00  0.00     0.040 A 
ATOM     75  F   UNL A   1      37.885  31.452  29.027  1.00  0.00    -0.206 F 
ATOM     76  C   UNL A   1      36.434  31.066  32.324  1.00  0.00     0.006 A 
ENDBRANCH  55  69
BRANCH  56  77
ATOM     77  C   UNL A   1      46.749  26.991  26.037  1.00  0.00     0.057 A 
ATOM     78  C   UNL A   1      46.973  27.271  24.684  1.00  0.00     0.134 A 
ATOM     79  C   UNL A   1      47.690  26.185  26.690  1.00  0.00     0.134 A 
ATOM     80  F   UNL A   1      46.091  28.007  23.991  1.00  0.00    -0.206 F 
ATOM     81  C   UNL A   1      48.077  26.754  24.002  1.00  0.00     0.040 A 
ATOM     82  C   UNL A   1      48.810  25.681  26.028  1.00  0.00     0.040 A 
ATOM     83  F   UNL A   1      47.528  25.869  27.984  1.00  0.00    -0.206 F 
ATOM     84  C   UNL A   1      49.001  25.959  24.677  1.00  0.00     0.006 A 
ENDBRANCH  56  77
BRANCH  68  85
ATOM     85  C   UNL A   1      45.346  32.820  29.563  1.00  0.00     0.057 A 
ATOM     86  C   UNL A   1      46.204  32.855  30.669  1.00  0.00     0.134 A 
ATOM     87  C   UNL A   1      45.311  33.949  28.735  1.00  0.00     0.134 A 
ATOM     88  F   UNL A   1      46.274  31.811  31.508  1.00  0.00    -0.206 F 
ATOM     89  C   UNL A   1      46.990  33.975  30.946  1.00  0.00     0.040 A 
ATOM     90  C   UNL A   1      46.106  35.067  28.990  1.00  0.00     0.040 A 
ATOM     91  F   UNL A   1      44.515  33.977  27.654  1.00  0.00    -0.206 F 
ATOM     92  C   UNL A   1      46.948  35.082  30.101  1.00  0.00     0.006 A 
ENDBRANCH  68  85
ENDBRANCH  42  43
ENDBRANCH  35  37
ENDBRANCH  34  35
ENDBRANCH  33  34
ENDBRANCH   1  33
TORSDOF 17
ENDMDL
MODEL 2
REMARK VINA RESULT:     -12.2      0.870      5.988
REMARK SMILES CC(C)Oc1ccc(-c2ccc(/C(=C\c3ccc(S(C)(=O)=O)cc3)C(=O)OCCOC(=O)c3ccc(-c4c5nc(c(-c6c(F)cccc6F)c6ccc([nH]6)c(-c6c(F)cccc6F)c6nc(c(-c7c(F)cccc7F)c7ccc4[nH]7)C=C6)C=C5)cc3)cc2)cc1
REMARK SMILES IDX 28 1 27 2 25 3 26 4 13 5 14 6 12 7 9 8 10 9 88 10 11 11
REMARK SMILES IDX 87 12 8 13 5 14 6 15 90 16 7 17 89 18 4 19 2 20 1 21 3 22
REMARK SMILES IDX 15 23 16 24 24 25 17 26 23 27 18 28 19 29 20 30 21 31 22 32
REMARK SMILES IDX 29 33 30 34 31 35 32 36 33 37 34 38 86 39 35 40 85 41 36 42
REMARK SMILES IDX 37 43 38 44 79 45 39 46 84 47 78 48 80 49 40 50 83 51 77 52
REMARK SMILES IDX 76 53 41 55 67 56 50 57 66 58 51 59 54 60 65 61 81 62 52 63
REMARK SMILES IDX 53 64 64 66 82 67 55 68 42 69 43 70 48 71 44 72 45 73 47 74
REMARK SMILES IDX 49 75 46 76 68 77 69 78 74 79 70 80 71 81 73 82 75 83 72 84
REMARK SMILES IDX 56 85 57 86 62 87 58 88 59 89 61 90 63 91 60 92
REMARK H PARENT 80 54 54 65
REMARK Flexibility Score: inf
ROOT
ATOM      1  C   UNL A   1      34.358  21.876  25.129  1.00  0.00     0.275 C 
ENDROOT
BRANCH   1   2
ATOM      2  O   UNL A   1      33.736  23.081  24.638  1.00  0.00    -0.458 OA
BRANCH   2   3
ATOM      3  C   UNL A   1      32.391  23.215  24.826  1.00  0.00     0.338 C 
ATOM      4  O   UNL A   1      31.632  22.305  25.123  1.00  0.00    -0.246 OA
BRANCH   3   5
ATOM      5  C   UNL A   1      31.953  24.653  24.632  1.00  0.00     0.067 C 
ATOM      6  C   UNL A   1      31.007  24.772  23.662  1.00  0.00     0.024 C 
BRANCH   5   7
ATOM      7  C   UNL A   1      32.565  25.754  25.478  1.00  0.00    -0.011 A 
ATOM      8  C   UNL A   1      33.586  28.160  26.716  1.00  0.00    -0.018 A 
ATOM      9  C   UNL A   1      32.343  27.641  27.061  1.00  0.00     0.009 A 
ATOM     10  C   UNL A   1      34.374  27.383  25.863  1.00  0.00     0.009 A 
ATOM     11  C   UNL A   1      31.871  26.452  26.480  1.00  0.00     0.009 A 
ATOM     12  C   UNL A   1      33.872  26.216  25.248  1.00  0.00     0.009 A 
BRANCH   8  13
ATOM     13  C   UNL A   1      34.007  29.492  27.175  1.00  0.00    -0.018 A 
ATOM     14  C   UNL A   1      34.738  32.070  28.104  1.00  0.00     0.119 A 
ATOM     15  C   UNL A   1      35.682  31.044  28.014  1.00  0.00     0.047 A 
ATOM     16  C   UNL A   1      33.434  31.817  27.709  1.00  0.00     0.047 A 
ATOM     17  C   UNL A   1      35.322  29.765  27.565  1.00  0.00     0.012 A 
ATOM     18  C   UNL A   1      33.077  30.539  27.268  1.00  0.00     0.012 A 
BRANCH  14  19
ATOM     19  O   UNL A   1      35.212  33.289  28.485  1.00  0.00    -0.491 OA
BRANCH  19  20
ATOM     20  C   UNL A   1      34.317  34.290  28.999  1.00  0.00     0.167 C 
ATOM     21  C   UNL A   1      34.361  34.457  30.514  1.00  0.00     0.052 C 
ATOM     22  C   UNL A   1      34.384  35.619  28.251  1.00  0.00     0.052 C 
ENDBRANCH  19  20
ENDBRANCH  14  19
ENDBRANCH   8  13
ENDBRANCH   5   7
BRANCH   6  23
ATOM     23  C   UNL A   1      30.306  25.983  23.223  1.00  0.00    -0.025 A 
ATOM     24  C   UNL A   1      29.007  26.206  23.704  1.00  0.00     0.009 A 
ATOM     25  C   UNL A   1      30.965  26.980  22.492  1.00  0.00     0.009 A 
ATOM     26  C   UNL A   1      28.425  27.465  23.576  1.00  0.00     0.021 A 
ATOM     27  C   UNL A   1      30.387  28.247  22.369  1.00  0.00     0.021 A 
ATOM     28  C   UNL A   1      29.137  28.491  22.946  1.00  0.00     0.067 A 
BRANCH  28  29
ATOM     29  S   UNL A   1      28.538  30.161  23.095  1.00  0.00     0.175 S 
ATOM     30  C   UNL A   1      28.629  30.802  21.450  1.00  0.00     0.163 C 
ATOM     31  O   UNL A   1      27.139  30.078  23.470  1.00  0.00    -0.224 OA
ATOM     32  O   UNL A   1      29.482  30.893  23.918  1.00  0.00    -0.224 OA
ENDBRANCH  28  29
ENDBRANCH   6  23
ENDBRANCH   3   5
ENDBRANCH   2   3
ENDBRANCH   1   2
BRANCH   1  33
ATOM     33  C   UNL A   1      35.845  21.861  24.767  1.00  0.00     0.275 C 
BRANCH  33  34
ATOM     34  O   UNL A   1      36.638  21.931  25.965  1.00  0.00    -0.458 OA
BRANCH  34  35
ATOM     35  C   UNL A   1      37.945  21.622  25.794  1.00  0.00     0.338 C 
ATOM     36  O   UNL A   1      38.410  20.712  25.125  1.00  0.00    -0.246 OA
BRANCH  35  37
ATOM     37  C   UNL A   1      38.771  22.695  26.374  1.00  0.00     0.060 A 
ATOM     38  C   UNL A   1      38.374  24.000  26.098  1.00  0.00     0.016 A 
ATOM     39  C   UNL A   1      39.898  22.452  27.166  1.00  0.00     0.016 A 
ATOM     40  C   UNL A   1      39.086  25.065  26.635  1.00  0.00     0.010 A 
ATOM     41  C   UNL A   1      40.622  23.533  27.694  1.00  0.00     0.010 A 
ATOM     42  C   UNL A   1      40.211  24.851  27.439  1.00  0.00    -0.014 A 
BRANCH  42  43
ATOM     43  C   UNL A   1      40.977  26.024  27.934  1.00  0.00     0.031 A 
ATOM     44  C   UNL A   1      42.404  26.207  27.504  1.00  0.00     0.074 A 
ATOM     45  C   UNL A   1      40.383  26.975  28.679  1.00  0.00     0.049 A 
ATOM     46  N   UNL A   1      43.240  27.171  27.797  1.00  0.00    -0.248 NA
ATOM     47  C   UNL A   1      42.954  25.176  26.613  1.00  0.00     0.031 C 
ATOM     48  C   UNL A   1      38.981  26.973  29.091  1.00  0.00     0.029 A 
ATOM     49  N   UNL A   1      40.885  28.145  29.198  1.00  0.00    -0.354 N 
ATOM     50  C   UNL A   1      44.414  26.866  27.122  1.00  0.00     0.074 A 
ATOM     51  C   UNL A   1      44.182  25.628  26.407  1.00  0.00     0.031 C 
ATOM     52  C   UNL A   1      38.730  28.099  29.785  1.00  0.00     0.029 A 
ATOM     53  C   UNL A   1      39.962  28.876  29.907  1.00  0.00     0.049 A 
ATOM     54  H   UNL A   1      41.818  28.432  29.073  1.00  0.00     0.167 HD
ATOM     55  C   UNL A   1      45.583  27.549  27.104  1.00  0.00     0.037 A 
ATOM     56  C   UNL A   1      40.103  30.026  30.596  1.00  0.00     0.037 A 
ATOM     57  C   UNL A   1      45.842  28.754  27.843  1.00  0.00     0.049 A 
ATOM     58  C   UNL A   1      41.450  30.701  30.656  1.00  0.00     0.074 A 
ATOM     59  C   UNL A   1      47.009  29.497  27.899  1.00  0.00     0.029 A 
ATOM     60  N   UNL A   1      44.924  29.389  28.663  1.00  0.00    -0.354 N 
ATOM     61  N   UNL A   1      42.570  30.373  30.058  1.00  0.00    -0.248 NA
ATOM     62  C   UNL A   1      41.557  31.896  31.508  1.00  0.00     0.031 C 
ATOM     63  C   UNL A   1      46.803  30.573  28.770  1.00  0.00     0.029 A 
ATOM     64  C   UNL A   1      45.495  30.521  29.222  1.00  0.00     0.049 A 
ATOM     65  H   UNL A   1      44.002  29.082  28.825  1.00  0.00     0.167 HD
ATOM     66  C   UNL A   1      43.502  31.332  30.442  1.00  0.00     0.074 A 
ATOM     67  C   UNL A   1      42.817  32.258  31.317  1.00  0.00     0.031 C 
ATOM     68  C   UNL A   1      44.807  31.434  30.096  1.00  0.00     0.037 A 
BRANCH  55  69
ATOM     69  C   UNL A   1      46.689  26.976  26.273  1.00  0.00     0.057 A 
ATOM     70  C   UNL A   1      47.619  26.077  26.810  1.00  0.00     0.134 A 
ATOM     71  C   UNL A   1      46.813  27.315  24.921  1.00  0.00     0.134 A 
ATOM     72  F   UNL A   1      47.556  25.727  28.103  1.00  0.00    -0.206 F 
ATOM     73  C   UNL A   1      48.650  25.551  26.031  1.00  0.00     0.040 A 
ATOM     74  C   UNL A   1      47.827  26.780  24.129  1.00  0.00     0.040 A 
ATOM     75  F   UNL A   1      45.950  28.169  24.351  1.00  0.00    -0.206 F 
ATOM     76  C   UNL A   1      48.753  25.898  24.684  1.00  0.00     0.006 A 
ENDBRANCH  55  69
BRANCH  56  77
ATOM     77  C   UNL A   1      38.954  30.601  31.342  1.00  0.00     0.057 A 
ATOM     78  C   UNL A   1      38.603  30.138  32.615  1.00  0.00     0.134 A 
ATOM     79  C   UNL A   1      38.139  31.587  30.770  1.00  0.00     0.134 A 
ATOM     80  F   UNL A   1      39.320  29.168  33.203  1.00  0.00    -0.206 F 
ATOM     81  C   UNL A   1      37.476  30.620  33.286  1.00  0.00     0.040 A 
ATOM     82  C   UNL A   1      37.025  32.095  31.438  1.00  0.00     0.040 A 
ATOM     83  F   UNL A   1      38.412  32.065  29.547  1.00  0.00    -0.206 F 
ATOM     84  C   UNL A   1      36.686  31.605  32.697  1.00  0.00     0.006 A 
ENDBRANCH  56  77
BRANCH  68  85
ATOM     85  C   UNL A   1      45.579  32.599  30.643  1.00  0.00     0.057 A 
ATOM     86  C   UNL A   1      45.616  33.833  29.983  1.00  0.00     0.134 A 
ATOM     87  C   UNL A   1      46.257  32.498  31.865  1.00  0.00     0.134 A 
ATOM     88  F   UNL A   1      44.999  33.992  28.803  1.00  0.00    -0.206 F 
ATOM     89  C   UNL A   1      46.310  34.923  30.513  1.00  0.00     0.040 A 
ATOM     90  C   UNL A   1      46.937  33.585  32.415  1.00  0.00     0.040 A 
ATOM     91  F   UNL A   1      46.253  31.345  32.552  1.00  0.00    -0.206 F 
ATOM     92  C   UNL A   1      46.966  34.802  31.737  1.00  0.00     0.006 A 
ENDBRANCH  68  85
ENDBRANCH  42  43
ENDBRANCH  35  37
ENDBRANCH  34  35
ENDBRANCH  33  34
ENDBRANCH   1  33
TORSDOF 17
ENDMDL
MODEL 3
REMARK VINA RESULT:     -11.5      3.702      8.585
REMARK SMILES CC(C)Oc1ccc(-c2ccc(/C(=C\c3ccc(S(C)(=O)=O)cc3)C(=O)OCCOC(=O)c3ccc(-c4c5nc(c(-c6c(F)cccc6F)c6ccc([nH]6)c(-c6c(F)cccc6F)c6nc(c(-c7c(F)cccc7F)c7ccc4[nH]7)C=C6)C=C5)cc3)cc2)cc1
REMARK SMILES IDX 28 1 27 2 25 3 26 4 13 5 14 6 12 7 9 8 10 9 88 10 11 11
REMARK SMILES IDX 87 12 8 13 5 14 6 15 90 16 7 17 89 18 4 19 2 20 1 21 3 22
REMARK SMILES IDX 15 23 16 24 24 25 17 26 23 27 18 28 19 29 20 30 21 31 22 32
REMARK SMILES IDX 29 33 30 34 31 35 32 36 33 37 34 38 86 39 35 40 85 41 36 42
REMARK SMILES IDX 37 43 38 44 79 45 39 46 84 47 78 48 80 49 40 50 83 51 77 52
REMARK SMILES IDX 76 53 41 55 67 56 50 57 66 58 51 59 54 60 65 61 81 62 52 63
REMARK SMILES IDX 53 64 64 66 82 67 55 68 42 69 43 70 48 71 44 72 45 73 47 74
REMARK SMILES IDX 49 75 46 76 68 77 69 78 74 79 70 80 71 81 73 82 75 83 72 84
REMARK SMILES IDX 56 85 57 86 62 87 58 88 59 89 61 90 63 91 60 92
REMARK H PARENT 80 54 54 65
REMARK Flexibility Score: inf
ROOT
ATOM      1  C   UNL A   1      34.835  33.769  31.281  1.00  0.00     0.275 C 
ENDROOT
BRANCH   1   2
ATOM      2  O   UNL A   1      34.470  32.660  30.434  1.00  0.00    -0.458 OA
BRANCH   2   3
ATOM      3  C   UNL A   1      34.351  32.903  29.097  1.00  0.00     0.338 C 
ATOM      4  O   UNL A   1      34.133  33.998  28.601  1.00  0.00    -0.246 OA
BRANCH   3   5
ATOM      5  C   UNL A   1      34.538  31.632  28.292  1.00  0.00     0.067 C 
ATOM      6  C   UNL A   1      33.354  31.135  27.841  1.00  0.00     0.024 C 
BRANCH   5   7
ATOM      7  C   UNL A   1      35.930  31.068  28.075  1.00  0.00    -0.011 A 
ATOM      8  C   UNL A   1      38.486  29.719  28.073  1.00  0.00    -0.018 A 
ATOM      9  C   UNL A   1      37.437  29.278  27.276  1.00  0.00     0.009 A 
ATOM     10  C   UNL A   1      38.295  30.925  28.751  1.00  0.00     0.009 A 
ATOM     11  C   UNL A   1      36.209  29.962  27.256  1.00  0.00     0.009 A 
ATOM     12  C   UNL A   1      37.043  31.578  28.763  1.00  0.00     0.009 A 
BRANCH   8  13
ATOM     13  C   UNL A   1      39.704  28.910  28.242  1.00  0.00    -0.018 A 
ATOM     14  C   UNL A   1      41.997  27.277  28.584  1.00  0.00     0.119 A 
ATOM     15  C   UNL A   1      41.977  28.297  27.629  1.00  0.00     0.047 A 
ATOM     16  C   UNL A   1      40.883  27.086  29.384  1.00  0.00     0.047 A 
ATOM     17  C   UNL A   1      40.841  29.100  27.450  1.00  0.00     0.012 A 
ATOM     18  C   UNL A   1      39.749  27.884  29.199  1.00  0.00     0.012 A 
BRANCH  14  19
ATOM     19  O   UNL A   1      43.176  26.607  28.720  1.00  0.00    -0.491 OA
BRANCH  19  20
ATOM     20  C   UNL A   1      43.298  25.248  28.267  1.00  0.00     0.167 C 
ATOM     21  C   UNL A   1      43.490  25.101  26.761  1.00  0.00     0.052 C 
ATOM     22  C   UNL A   1      44.285  24.415  29.078  1.00  0.00     0.052 C 
ENDBRANCH  19  20
ENDBRANCH  14  19
ENDBRANCH   8  13
ENDBRANCH   5   7
BRANCH   6  23
ATOM     23  C   UNL A   1      33.129  29.960  26.992  1.00  0.00    -0.025 A 
ATOM     24  C   UNL A   1      32.826  28.742  27.616  1.00  0.00     0.009 A 
ATOM     25  C   UNL A   1      33.042  30.078  25.599  1.00  0.00     0.009 A 
ATOM     26  C   UNL A   1      32.304  27.688  26.867  1.00  0.00     0.021 A 
ATOM     27  C   UNL A   1      32.511  29.026  24.846  1.00  0.00     0.021 A 
ATOM     28  C   UNL A   1      32.109  27.852  25.493  1.00  0.00     0.067 A 
BRANCH  28  29
ATOM     29  S   UNL A   1      31.133  26.646  24.619  1.00  0.00     0.175 S 
ATOM     30  C   UNL A   1      30.758  25.425  25.840  1.00  0.00     0.163 C 
ATOM     31  O   UNL A   1      29.895  27.299  24.238  1.00  0.00    -0.224 OA
ATOM     32  O   UNL A   1      31.986  26.036  23.617  1.00  0.00    -0.224 OA
ENDBRANCH  28  29
ENDBRANCH   6  23
ENDBRANCH   3   5
ENDBRANCH   2   3
ENDBRANCH   1   2
BRANCH   1  33
ATOM     33  C   UNL A   1      34.764  33.358  32.753  1.00  0.00     0.275 C 
BRANCH  33  34
ATOM     34  O   UNL A   1      35.552  32.173  32.966  1.00  0.00    -0.458 OA
BRANCH  34  35
ATOM     35  C   UNL A   1      36.578  32.327  33.836  1.00  0.00     0.338 C 
ATOM     36  O   UNL A   1      36.528  32.789  34.965  1.00  0.00    -0.246 OA
BRANCH  35  37
ATOM     37  C   UNL A   1      37.768  31.644  33.301  1.00  0.00     0.060 A 
ATOM     38  C   UNL A   1      39.002  32.172  33.666  1.00  0.00     0.016 A 
ATOM     39  C   UNL A   1      37.698  30.521  32.471  1.00  0.00     0.016 A 
ATOM     40  C   UNL A   1      40.170  31.563  33.225  1.00  0.00     0.010 A 
ATOM     41  C   UNL A   1      38.883  29.918  32.016  1.00  0.00     0.010 A 
ATOM     42  C   UNL A   1      40.131  30.432  32.401  1.00  0.00    -0.014 A 
BRANCH  42  43
ATOM     43  C   UNL A   1      41.407  29.859  31.902  1.00  0.00     0.031 A 
ATOM     44  C   UNL A   1      42.139  30.548  30.787  1.00  0.00     0.074 A 
ATOM     45  C   UNL A   1      41.966  28.790  32.499  1.00  0.00     0.049 A 
ATOM     46  N   UNL A   1      43.276  30.232  30.222  1.00  0.00    -0.248 NA
ATOM     47  C   UNL A   1      41.512  31.765  30.251  1.00  0.00     0.031 C 
ATOM     48  C   UNL A   1      41.414  28.078  33.649  1.00  0.00     0.029 A 
ATOM     49  N   UNL A   1      43.144  28.133  32.232  1.00  0.00    -0.354 N 
ATOM     50  C   UNL A   1      43.506  31.213  29.268  1.00  0.00     0.074 A 
ATOM     51  C   UNL A   1      42.389  32.133  29.329  1.00  0.00     0.031 C 
ATOM     52  C   UNL A   1      42.261  27.094  34.001  1.00  0.00     0.029 A 
ATOM     53  C   UNL A   1      43.391  27.075  33.072  1.00  0.00     0.049 A 
ATOM     54  H   UNL A   1      43.754  28.397  31.505  1.00  0.00     0.167 HD
ATOM     55  C   UNL A   1      44.547  31.335  28.412  1.00  0.00     0.037 A 
ATOM     56  C   UNL A   1      44.398  26.180  33.077  1.00  0.00     0.037 A 
ATOM     57  C   UNL A   1      45.640  30.406  28.309  1.00  0.00     0.049 A 
ATOM     58  C   UNL A   1      45.483  26.271  32.033  1.00  0.00     0.074 A 
ATOM     59  C   UNL A   1      46.725  30.442  27.449  1.00  0.00     0.029 A 
ATOM     60  N   UNL A   1      45.783  29.268  29.085  1.00  0.00    -0.354 N 
ATOM     61  N   UNL A   1      45.660  27.172  31.097  1.00  0.00    -0.248 NA
ATOM     62  C   UNL A   1      46.496  25.203  32.033  1.00  0.00     0.031 C 
ATOM     63  C   UNL A   1      47.515  29.314  27.693  1.00  0.00     0.029 A 
ATOM     64  C   UNL A   1      46.944  28.599  28.732  1.00  0.00     0.049 A 
ATOM     65  H   UNL A   1      45.153  28.977  29.784  1.00  0.00     0.167 HD
ATOM     66  C   UNL A   1      46.814  26.793  30.417  1.00  0.00     0.074 A 
ATOM     67  C   UNL A   1      47.299  25.586  31.050  1.00  0.00     0.031 C 
ATOM     68  C   UNL A   1      47.416  27.395  29.364  1.00  0.00     0.037 A 
BRANCH  55  69
ATOM     69  C   UNL A   1      44.529  32.511  27.486  1.00  0.00     0.057 A 
ATOM     70  C   UNL A   1      45.094  33.740  27.851  1.00  0.00     0.134 A 
ATOM     71  C   UNL A   1      43.957  32.408  26.214  1.00  0.00     0.134 A 
ATOM     72  F   UNL A   1      45.645  33.901  29.063  1.00  0.00    -0.206 F 
ATOM     73  C   UNL A   1      45.071  34.834  26.986  1.00  0.00     0.040 A 
ATOM     74  C   UNL A   1      43.946  33.489  25.333  1.00  0.00     0.040 A 
ATOM     75  F   UNL A   1      43.403  31.256  25.808  1.00  0.00    -0.206 F 
ATOM     76  C   UNL A   1      44.500  34.708  25.720  1.00  0.00     0.006 A 
ENDBRANCH  55  69
BRANCH  56  77
ATOM     77  C   UNL A   1      44.417  25.072  34.067  1.00  0.00     0.057 A 
ATOM     78  C   UNL A   1      44.866  25.271  35.378  1.00  0.00     0.134 A 
ATOM     79  C   UNL A   1      44.045  23.771  33.707  1.00  0.00     0.134 A 
ATOM     80  F   UNL A   1      45.272  26.486  35.775  1.00  0.00    -0.206 F 
ATOM     81  C   UNL A   1      44.961  24.216  36.288  1.00  0.00     0.040 A 
ATOM     82  C   UNL A   1      44.111  22.711  34.612  1.00  0.00     0.040 A 
ATOM     83  F   UNL A   1      43.617  23.509  32.463  1.00  0.00    -0.206 F 
ATOM     84  C   UNL A   1      44.579  22.932  35.906  1.00  0.00     0.006 A 
ENDBRANCH  56  77
BRANCH  68  85
ATOM     85  C   UNL A   1      48.678  26.777  28.841  1.00  0.00     0.057 A 
ATOM     86  C   UNL A   1      48.658  25.776  27.862  1.00  0.00     0.134 A 
ATOM     87  C   UNL A   1      49.930  27.218  29.290  1.00  0.00     0.134 A 
ATOM     88  F   UNL A   1      47.492  25.300  27.400  1.00  0.00    -0.206 F 
ATOM     89  C   UNL A   1      49.838  25.227  27.356  1.00  0.00     0.040 A 
ATOM     90  C   UNL A   1      51.116  26.692  28.778  1.00  0.00     0.040 A 
ATOM     91  F   UNL A   1      50.019  28.180  30.221  1.00  0.00    -0.206 F 
ATOM     92  C   UNL A   1      51.072  25.691  27.809  1.00  0.00     0.006 A 
ENDBRANCH  68  85
ENDBRANCH  42  43
ENDBRANCH  35  37
ENDBRANCH  34  35
ENDBRANCH  33  34
ENDBRANCH   1  33
TORSDOF 17
ENDMDL
