MODEL 1
REMARK VINA RESULT:     -11.3      0.000      0.000
REMARK SMILES Cc1cccc(S(=O)(=O)N[C@@H](CCC(N)=O)C(=O)OCCOC(=O)c2ccc(-c3c4nc(c(-c5c(F)cccc5F)c5ccc([nH]5)c(-c5c(F)cccc5F)c5nc(c(-c6c(F)cccc6F)c6ccc3[nH]6)C=C5)C=C4)cc2)c1
REMARK SMILES IDX 20 1 19 2 17 3 18 4 11 5 10 6 7 8 8 9 9 10 6 11 1 12 2 13
REMARK SMILES IDX 3 14 79 15 4 16 5 17 12 18 13 19 14 20 15 21 16 22 21 25
REMARK SMILES IDX 22 26 23 27 24 28 25 29 26 30 78 31 27 32 77 33 28 34 29 35
REMARK SMILES IDX 30 36 71 37 31 38 76 39 70 40 72 41 32 42 75 43 69 44 68 45
REMARK SMILES IDX 33 47 59 48 42 49 58 50 43 51 46 52 57 53 73 54 44 55 45 56
REMARK SMILES IDX 56 58 74 59 47 60 34 61 35 62 40 63 36 64 37 65 39 66 41 67
REMARK SMILES IDX 38 68 60 69 61 70 66 71 62 72 63 73 65 74 67 75 64 76 48 77
REMARK SMILES IDX 49 78 54 79 50 80 51 81 53 82 55 83 52 84
REMARK H PARENT 10 7 15 23 15 24 72 46 46 57
REMARK Flexibility Score: inf
ROOT
ATOM      1  C   UNL A   1      33.349  27.971  26.901  1.00  0.00     0.274 C 
ENDROOT
BRANCH   1   2
ATOM      2  O   UNL A   1      32.838  27.301  25.751  1.00  0.00    -0.461 OA
BRANCH   2   3
ATOM      3  C   UNL A   1      31.809  26.451  25.939  1.00  0.00     0.324 C 
ATOM      4  O   UNL A   1      30.993  26.529  26.850  1.00  0.00    -0.250 OA
BRANCH   3   5
ATOM      5  C   UNL A   1      31.912  25.274  24.955  1.00  0.00     0.180 C 
BRANCH   5   6
ATOM      6  N   UNL A   1      31.201  24.155  25.581  1.00  0.00    -0.197 NA
ATOM      7  H   UNL A   1      30.657  24.587  26.329  1.00  0.00     0.142 HD
BRANCH   6   8
ATOM      8  S   UNL A   1      31.819  22.786  26.261  1.00  0.00     0.241 S 
ATOM      9  O   UNL A   1      31.084  21.667  25.739  1.00  0.00    -0.207 OA
ATOM     10  O   UNL A   1      31.827  23.074  27.689  1.00  0.00    -0.207 OA
BRANCH   8  11
ATOM     11  C   UNL A   1      33.532  22.512  25.835  1.00  0.00     0.082 A 
ATOM     12  C   UNL A   1      37.139  23.810  26.000  1.00  0.00     0.044 C 
ATOM     13  C   UNL A   1      35.917  22.975  25.726  1.00  0.00    -0.050 A 
ATOM     14  C   UNL A   1      36.111  21.776  25.018  1.00  0.00     0.003 A 
ATOM     15  C   UNL A   1      34.617  23.331  26.166  1.00  0.00     0.025 A 
ATOM     16  C   UNL A   1      35.037  20.948  24.724  1.00  0.00     0.002 A 
ATOM     17  C   UNL A   1      33.756  21.321  25.120  1.00  0.00     0.022 A 
ENDBRANCH   8  11
ENDBRANCH   6   8
ENDBRANCH   5   6
BRANCH   5  18
ATOM     18  C   UNL A   1      31.577  25.627  23.497  1.00  0.00     0.042 C 
BRANCH  18  19
ATOM     19  C   UNL A   1      32.191  24.839  22.337  1.00  0.00     0.102 C 
BRANCH  19  20
ATOM     20  C   UNL A   1      32.714  25.696  21.193  1.00  0.00     0.217 C 
ATOM     21  N   UNL A   1      32.063  25.598  20.000  1.00  0.00    -0.370 N 
ATOM     22  O   UNL A   1      33.686  26.434  21.305  1.00  0.00    -0.275 OA
ATOM     23  H   UNL A   1      31.281  25.005  19.912  1.00  0.00     0.159 HD
ATOM     24  H   UNL A   1      32.372  26.122  19.227  1.00  0.00     0.159 HD
ENDBRANCH  19  20
ENDBRANCH  18  19
ENDBRANCH   5  18
ENDBRANCH   3   5
ENDBRANCH   2   3
ENDBRANCH   1   2
BRANCH   1  25
ATOM     25  C   UNL A   1      33.186  29.509  26.888  1.00  0.00     0.275 C 
BRANCH  25  26
ATOM     26  O   UNL A   1      34.337  30.396  27.143  1.00  0.00    -0.458 OA
BRANCH  26  27
ATOM     27  C   UNL A   1      34.950  30.917  28.243  1.00  0.00     0.338 C 
ATOM     28  O   UNL A   1      34.393  31.740  28.961  1.00  0.00    -0.246 OA
BRANCH  27  29
ATOM     29  C   UNL A   1      36.234  30.354  28.690  1.00  0.00     0.060 A 
ATOM     30  C   UNL A   1      36.422  29.795  29.973  1.00  0.00     0.016 A 
ATOM     31  C   UNL A   1      37.219  30.227  27.753  1.00  0.00     0.016 A 
ATOM     32  C   UNL A   1      37.558  29.024  30.243  1.00  0.00     0.010 A 
ATOM     33  C   UNL A   1      38.071  29.171  27.884  1.00  0.00     0.010 A 
ATOM     34  C   UNL A   1      38.372  28.703  29.164  1.00  0.00    -0.014 A 
BRANCH  34  35
ATOM     35  C   UNL A   1      39.754  28.252  29.193  1.00  0.00     0.031 A 
ATOM     36  C   UNL A   1      40.191  26.912  28.802  1.00  0.00     0.074 A 
ATOM     37  C   UNL A   1      40.607  29.307  29.317  1.00  0.00     0.049 A 
ATOM     38  N   UNL A   1      41.436  26.662  28.655  1.00  0.00    -0.248 NA
ATOM     39  C   UNL A   1      39.360  25.763  28.459  1.00  0.00     0.031 C 
ATOM     40  C   UNL A   1      42.035  29.462  29.116  1.00  0.00     0.029 A 
ATOM     41  N   UNL A   1      40.230  30.585  29.779  1.00  0.00    -0.354 N 
ATOM     42  C   UNL A   1      41.610  25.406  28.146  1.00  0.00     0.074 A 
ATOM     43  C   UNL A   1      40.270  24.910  27.949  1.00  0.00     0.031 C 
ATOM     44  C   UNL A   1      42.441  30.538  29.824  1.00  0.00     0.029 A 
ATOM     45  C   UNL A   1      41.286  31.058  30.548  1.00  0.00     0.049 A 
ATOM     46  H   UNL A   1      39.382  31.051  29.593  1.00  0.00     0.167 HD
ATOM     47  C   UNL A   1      42.905  25.032  27.957  1.00  0.00     0.037 A 
ATOM     48  C   UNL A   1      41.051  31.049  31.891  1.00  0.00     0.037 A 
ATOM     49  C   UNL A   1      43.752  25.853  28.841  1.00  0.00     0.049 A 
ATOM     50  C   UNL A   1      41.831  29.925  32.543  1.00  0.00     0.074 A 
ATOM     51  C   UNL A   1      44.558  26.965  28.668  1.00  0.00     0.029 A 
ATOM     52  N   UNL A   1      43.479  25.792  30.210  1.00  0.00    -0.354 N 
ATOM     53  N   UNL A   1      42.356  28.910  31.904  1.00  0.00    -0.248 NA
ATOM     54  C   UNL A   1      42.152  29.911  33.958  1.00  0.00     0.031 C 
ATOM     55  C   UNL A   1      44.683  27.616  29.938  1.00  0.00     0.029 A 
ATOM     56  C   UNL A   1      43.979  26.888  30.888  1.00  0.00     0.049 A 
ATOM     57  H   UNL A   1      42.989  25.055  30.641  1.00  0.00     0.167 HD
ATOM     58  C   UNL A   1      43.106  28.143  32.757  1.00  0.00     0.074 A 
ATOM     59  C   UNL A   1      42.960  28.839  34.027  1.00  0.00     0.031 C 
ATOM     60  C   UNL A   1      43.775  27.017  32.340  1.00  0.00     0.037 A 
BRANCH  47  61
ATOM     61  C   UNL A   1      43.431  24.035  26.955  1.00  0.00     0.057 A 
ATOM     62  C   UNL A   1      44.057  24.493  25.774  1.00  0.00     0.134 A 
ATOM     63  C   UNL A   1      43.273  22.640  27.015  1.00  0.00     0.134 A 
ATOM     64  F   UNL A   1      44.260  25.798  25.547  1.00  0.00    -0.206 F 
ATOM     65  C   UNL A   1      44.474  23.640  24.741  1.00  0.00     0.040 A 
ATOM     66  C   UNL A   1      43.682  21.774  25.985  1.00  0.00     0.040 A 
ATOM     67  F   UNL A   1      42.717  22.037  28.069  1.00  0.00    -0.206 F 
ATOM     68  C   UNL A   1      44.282  22.273  24.840  1.00  0.00     0.006 A 
ENDBRANCH  47  61
BRANCH  48  69
ATOM     69  C   UNL A   1      39.660  31.545  32.231  1.00  0.00     0.057 A 
ATOM     70  C   UNL A   1      38.779  30.654  32.898  1.00  0.00     0.134 A 
ATOM     71  C   UNL A   1      39.269  32.887  32.232  1.00  0.00     0.134 A 
ATOM     72  F   UNL A   1      39.071  29.344  32.964  1.00  0.00    -0.206 F 
ATOM     73  C   UNL A   1      37.648  31.080  33.609  1.00  0.00     0.040 A 
ATOM     74  C   UNL A   1      38.109  33.322  32.910  1.00  0.00     0.040 A 
ATOM     75  F   UNL A   1      40.035  33.824  31.659  1.00  0.00    -0.206 F 
ATOM     76  C   UNL A   1      37.319  32.427  33.632  1.00  0.00     0.006 A 
ENDBRANCH  48  69
BRANCH  60  77
ATOM     77  C   UNL A   1      44.353  25.927  33.244  1.00  0.00     0.057 A 
ATOM     78  C   UNL A   1      43.642  25.224  34.228  1.00  0.00     0.134 A 
ATOM     79  C   UNL A   1      45.676  25.445  33.051  1.00  0.00     0.134 A 
ATOM     80  F   UNL A   1      42.343  25.429  34.459  1.00  0.00    -0.206 F 
ATOM     81  C   UNL A   1      44.209  24.199  35.000  1.00  0.00     0.040 A 
ATOM     82  C   UNL A   1      46.218  24.360  33.746  1.00  0.00     0.040 A 
ATOM     83  F   UNL A   1      46.515  25.979  32.154  1.00  0.00    -0.206 F 
ATOM     84  C   UNL A   1      45.493  23.748  34.749  1.00  0.00     0.006 A 
ENDBRANCH  60  77
ENDBRANCH  34  35
ENDBRANCH  27  29
ENDBRANCH  26  27
ENDBRANCH  25  26
ENDBRANCH   1  25
TORSDOF 17
ENDMDL
MODEL 2
REMARK VINA RESULT:     -11.2      1.945      3.734
REMARK SMILES Cc1cccc(S(=O)(=O)N[C@@H](CCC(N)=O)C(=O)OCCOC(=O)c2ccc(-c3c4nc(c(-c5c(F)cccc5F)c5ccc([nH]5)c(-c5c(F)cccc5F)c5nc(c(-c6c(F)cccc6F)c6ccc3[nH]6)C=C5)C=C4)cc2)c1
REMARK SMILES IDX 20 1 19 2 17 3 18 4 11 5 10 6 7 8 8 9 9 10 6 11 1 12 2 13
REMARK SMILES IDX 3 14 79 15 4 16 5 17 12 18 13 19 14 20 15 21 16 22 21 25
REMARK SMILES IDX 22 26 23 27 24 28 25 29 26 30 78 31 27 32 77 33 28 34 29 35
REMARK SMILES IDX 30 36 71 37 31 38 76 39 70 40 72 41 32 42 75 43 69 44 68 45
REMARK SMILES IDX 33 47 59 48 42 49 58 50 43 51 46 52 57 53 73 54 44 55 45 56
REMARK SMILES IDX 56 58 74 59 47 60 34 61 35 62 40 63 36 64 37 65 39 66 41 67
REMARK SMILES IDX 38 68 60 69 61 70 66 71 62 72 63 73 65 74 67 75 64 76 48 77
REMARK SMILES IDX 49 78 54 79 50 80 51 81 53 82 55 83 52 84
REMARK H PARENT 10 7 15 23 15 24 72 46 46 57
REMARK Flexibility Score: inf
ROOT
ATOM      1  C   UNL A   1      32.788  29.489  27.087  1.00  0.00     0.274 C 
ENDROOT
BRANCH   1   2
ATOM      2  O   UNL A   1      33.495  28.710  26.126  1.00  0.00    -0.461 OA
BRANCH   2   3
ATOM      3  C   UNL A   1      33.099  27.433  25.954  1.00  0.00     0.324 C 
ATOM      4  O   UNL A   1      33.823  26.452  26.087  1.00  0.00    -0.250 OA
BRANCH   3   5
ATOM      5  C   UNL A   1      31.666  27.394  25.399  1.00  0.00     0.180 C 
BRANCH   5   6
ATOM      6  N   UNL A   1      31.784  26.987  23.996  1.00  0.00    -0.197 NA
ATOM      7  H   UNL A   1      32.772  26.766  23.877  1.00  0.00     0.142 HD
BRANCH   6   8
ATOM      8  S   UNL A   1      31.387  27.831  22.636  1.00  0.00     0.241 S 
ATOM      9  O   UNL A   1      31.163  26.882  21.581  1.00  0.00    -0.207 OA
ATOM     10  O   UNL A   1      32.435  28.837  22.526  1.00  0.00    -0.207 OA
BRANCH   8  11
ATOM     11  C   UNL A   1      29.871  28.760  22.814  1.00  0.00     0.082 A 
ATOM     12  C   UNL A   1      28.187  32.209  22.796  1.00  0.00     0.044 C 
ATOM     13  C   UNL A   1      28.442  30.727  22.880  1.00  0.00    -0.050 A 
ATOM     14  C   UNL A   1      27.332  29.904  23.142  1.00  0.00     0.003 A 
ATOM     15  C   UNL A   1      29.720  30.145  22.682  1.00  0.00     0.025 A 
ATOM     16  C   UNL A   1      27.481  28.527  23.234  1.00  0.00     0.002 A 
ATOM     17  C   UNL A   1      28.744  27.962  23.082  1.00  0.00     0.022 A 
ENDBRANCH   8  11
ENDBRANCH   6   8
ENDBRANCH   5   6
BRANCH   5  18
ATOM     18  C   UNL A   1      30.654  26.657  26.290  1.00  0.00     0.042 C 
BRANCH  18  19
ATOM     19  C   UNL A   1      30.231  25.219  25.975  1.00  0.00     0.102 C 
BRANCH  19  20
ATOM     20  C   UNL A   1      31.255  24.159  26.350  1.00  0.00     0.217 C 
ATOM     21  N   UNL A   1      32.201  23.856  25.418  1.00  0.00    -0.370 N 
ATOM     22  O   UNL A   1      31.242  23.572  27.427  1.00  0.00    -0.275 OA
ATOM     23  H   UNL A   1      32.210  24.329  24.554  1.00  0.00     0.159 HD
ATOM     24  H   UNL A   1      32.877  23.166  25.608  1.00  0.00     0.159 HD
ENDBRANCH  19  20
ENDBRANCH  18  19
ENDBRANCH   5  18
ENDBRANCH   3   5
ENDBRANCH   2   3
ENDBRANCH   1   2
BRANCH   1  25
ATOM     25  C   UNL A   1      33.320  30.929  27.280  1.00  0.00     0.275 C 
BRANCH  25  26
ATOM     26  O   UNL A   1      34.698  31.172  27.747  1.00  0.00    -0.458 OA
BRANCH  26  27
ATOM     27  C   UNL A   1      35.297  31.444  28.940  1.00  0.00     0.338 C 
ATOM     28  O   UNL A   1      34.771  32.172  29.774  1.00  0.00    -0.246 OA
BRANCH  27  29
ATOM     29  C   UNL A   1      36.515  30.709  29.322  1.00  0.00     0.060 A 
ATOM     30  C   UNL A   1      36.562  29.814  30.413  1.00  0.00     0.016 A 
ATOM     31  C   UNL A   1      37.581  30.785  28.471  1.00  0.00     0.016 A 
ATOM     32  C   UNL A   1      37.642  28.937  30.555  1.00  0.00     0.010 A 
ATOM     33  C   UNL A   1      38.383  29.687  28.379  1.00  0.00     0.010 A 
ATOM     34  C   UNL A   1      38.545  28.874  29.502  1.00  0.00    -0.014 A 
BRANCH  34  35
ATOM     35  C   UNL A   1      39.903  28.356  29.522  1.00  0.00     0.031 A 
ATOM     36  C   UNL A   1      40.284  27.026  29.047  1.00  0.00     0.074 A 
ATOM     37  C   UNL A   1      40.803  29.357  29.731  1.00  0.00     0.049 A 
ATOM     38  N   UNL A   1      41.518  26.726  28.904  1.00  0.00    -0.248 NA
ATOM     39  C   UNL A   1      39.406  25.944  28.614  1.00  0.00     0.031 C 
ATOM     40  C   UNL A   1      42.240  29.456  29.563  1.00  0.00     0.029 A 
ATOM     41  N   UNL A   1      40.479  30.618  30.273  1.00  0.00    -0.354 N 
ATOM     42  C   UNL A   1      41.641  25.500  28.313  1.00  0.00     0.074 A 
ATOM     43  C   UNL A   1      40.283  25.084  28.061  1.00  0.00     0.031 C 
ATOM     44  C   UNL A   1      42.684  30.461  30.348  1.00  0.00     0.029 A 
ATOM     45  C   UNL A   1      41.541  30.987  31.088  1.00  0.00     0.049 A 
ATOM     46  H   UNL A   1      39.658  31.136  30.105  1.00  0.00     0.167 HD
ATOM     47  C   UNL A   1      42.921  25.076  28.119  1.00  0.00     0.037 A 
ATOM     48  C   UNL A   1      41.280  30.899  32.423  1.00  0.00     0.037 A 
ATOM     49  C   UNL A   1      43.789  25.795  29.070  1.00  0.00     0.049 A 
ATOM     50  C   UNL A   1      41.994  29.697  33.010  1.00  0.00     0.074 A 
ATOM     51  C   UNL A   1      44.650  26.875  28.986  1.00  0.00     0.029 A 
ATOM     52  N   UNL A   1      43.487  25.655  30.427  1.00  0.00    -0.354 N 
ATOM     53  N   UNL A   1      42.482  28.702  32.312  1.00  0.00    -0.248 NA
ATOM     54  C   UNL A   1      42.287  29.572  34.426  1.00  0.00     0.031 C 
ATOM     55  C   UNL A   1      44.782  27.432  30.299  1.00  0.00     0.029 A 
ATOM     56  C   UNL A   1      44.026  26.677  31.186  1.00  0.00     0.049 A 
ATOM     57  H   UNL A   1      42.955  24.916  30.800  1.00  0.00     0.167 HD
ATOM     58  C   UNL A   1      43.178  27.845  33.122  1.00  0.00     0.074 A 
ATOM     59  C   UNL A   1      43.042  28.460  34.434  1.00  0.00     0.031 C 
ATOM     60  C   UNL A   1      43.801  26.718  32.640  1.00  0.00     0.037 A 
BRANCH  47  61
ATOM     61  C   UNL A   1      43.418  24.125  27.060  1.00  0.00     0.057 A 
ATOM     62  C   UNL A   1      43.978  24.635  25.867  1.00  0.00     0.134 A 
ATOM     63  C   UNL A   1      43.289  22.725  27.079  1.00  0.00     0.134 A 
ATOM     64  F   UNL A   1      44.144  25.951  25.676  1.00  0.00    -0.206 F 
ATOM     65  C   UNL A   1      44.361  23.826  24.787  1.00  0.00     0.040 A 
ATOM     66  C   UNL A   1      43.666  21.904  26.002  1.00  0.00     0.040 A 
ATOM     67  F   UNL A   1      42.795  22.076  28.137  1.00  0.00    -0.206 F 
ATOM     68  C   UNL A   1      44.201  22.453  24.848  1.00  0.00     0.006 A 
ENDBRANCH  47  61
BRANCH  48  69
ATOM     69  C   UNL A   1      39.909  31.438  32.775  1.00  0.00     0.057 A 
ATOM     70  C   UNL A   1      38.962  30.540  33.334  1.00  0.00     0.134 A 
ATOM     71  C   UNL A   1      39.589  32.794  32.892  1.00  0.00     0.134 A 
ATOM     72  F   UNL A   1      39.182  29.215  33.284  1.00  0.00    -0.206 F 
ATOM     73  C   UNL A   1      37.835  30.961  34.054  1.00  0.00     0.040 A 
ATOM     74  C   UNL A   1      38.435  33.228  33.580  1.00  0.00     0.040 A 
ATOM     75  F   UNL A   1      40.421  33.736  32.428  1.00  0.00    -0.206 F 
ATOM     76  C   UNL A   1      37.577  32.316  34.195  1.00  0.00     0.006 A 
ENDBRANCH  48  69
BRANCH  60  77
ATOM     77  C   UNL A   1      44.309  25.542  33.477  1.00  0.00     0.057 A 
ATOM     78  C   UNL A   1      43.561  24.842  34.435  1.00  0.00     0.134 A 
ATOM     79  C   UNL A   1      45.590  24.977  33.237  1.00  0.00     0.134 A 
ATOM     80  F   UNL A   1      42.284  25.128  34.698  1.00  0.00    -0.206 F 
ATOM     81  C   UNL A   1      44.062  23.740  35.143  1.00  0.00     0.040 A 
ATOM     82  C   UNL A   1      46.061  23.821  33.866  1.00  0.00     0.040 A 
ATOM     83  F   UNL A   1      46.455  25.496  32.354  1.00  0.00    -0.206 F 
ATOM     84  C   UNL A   1      45.306  23.211  34.847  1.00  0.00     0.006 A 
ENDBRANCH  60  77
ENDBRANCH  34  35
ENDBRANCH  27  29
ENDBRANCH  26  27
ENDBRANCH  25  26
ENDBRANCH   1  25
TORSDOF 17
ENDMDL
MODEL 3
REMARK VINA RESULT:     -11.1      1.784      2.332
REMARK SMILES Cc1cccc(S(=O)(=O)N[C@@H](CCC(N)=O)C(=O)OCCOC(=O)c2ccc(-c3c4nc(c(-c5c(F)cccc5F)c5ccc([nH]5)c(-c5c(F)cccc5F)c5nc(c(-c6c(F)cccc6F)c6ccc3[nH]6)C=C5)C=C4)cc2)c1
REMARK SMILES IDX 20 1 19 2 17 3 18 4 11 5 10 6 7 8 8 9 9 10 6 11 1 12 2 13
REMARK SMILES IDX 3 14 79 15 4 16 5 17 12 18 13 19 14 20 15 21 16 22 21 25
REMARK SMILES IDX 22 26 23 27 24 28 25 29 26 30 78 31 27 32 77 33 28 34 29 35
REMARK SMILES IDX 30 36 71 37 31 38 76 39 70 40 72 41 32 42 75 43 69 44 68 45
REMARK SMILES IDX 33 47 59 48 42 49 58 50 43 51 46 52 57 53 73 54 44 55 45 56
REMARK SMILES IDX 56 58 74 59 47 60 34 61 35 62 40 63 36 64 37 65 39 66 41 67
REMARK SMILES IDX 38 68 60 69 61 70 66 71 62 72 63 73 65 74 67 75 64 76 48 77
REMARK SMILES IDX 49 78 54 79 50 80 51 81 53 82 55 83 52 84
REMARK H PARENT 10 7 15 23 15 24 72 46 46 57
REMARK Flexibility Score: inf
ROOT
ATOM      1  C   UNL A   1      31.830  29.412  26.550  1.00  0.00     0.274 C 
ENDROOT
BRANCH   1   2
ATOM      2  O   UNL A   1      31.892  29.040  25.176  1.00  0.00    -0.461 OA
BRANCH   2   3
ATOM      3  C   UNL A   1      31.263  27.903  24.816  1.00  0.00     0.324 C 
ATOM      4  O   UNL A   1      31.005  26.976  25.574  1.00  0.00    -0.250 OA
BRANCH   3   5
ATOM      5  C   UNL A   1      31.079  27.863  23.290  1.00  0.00     0.180 C 
BRANCH   5   6
ATOM      6  N   UNL A   1      31.684  26.606  22.839  1.00  0.00    -0.197 NA
ATOM      7  H   UNL A   1      31.393  25.920  23.535  1.00  0.00     0.142 HD
BRANCH   6   8
ATOM      8  S   UNL A   1      33.273  26.262  22.564  1.00  0.00     0.241 S 
ATOM      9  O   UNL A   1      34.059  27.282  23.201  1.00  0.00    -0.207 OA
ATOM     10  O   UNL A   1      33.345  26.054  21.124  1.00  0.00    -0.207 OA
BRANCH   8  11
ATOM     11  C   UNL A   1      33.781  24.707  23.282  1.00  0.00     0.082 A 
ATOM     12  C   UNL A   1      36.235  22.878  25.597  1.00  0.00     0.044 C 
ATOM     13  C   UNL A   1      35.110  23.196  24.648  1.00  0.00    -0.050 A 
ATOM     14  C   UNL A   1      34.306  22.121  24.230  1.00  0.00     0.003 A 
ATOM     15  C   UNL A   1      34.825  24.508  24.193  1.00  0.00     0.025 A 
ATOM     16  C   UNL A   1      33.248  22.329  23.356  1.00  0.00     0.002 A 
ATOM     17  C   UNL A   1      32.996  23.611  22.877  1.00  0.00     0.022 A 
ENDBRANCH   8  11
ENDBRANCH   6   8
ENDBRANCH   5   6
BRANCH   5  18
ATOM     18  C   UNL A   1      29.661  28.204  22.807  1.00  0.00     0.042 C 
BRANCH  18  19
ATOM     19  C   UNL A   1      29.132  29.640  22.875  1.00  0.00     0.102 C 
BRANCH  19  20
ATOM     20  C   UNL A   1      27.636  29.755  23.123  1.00  0.00     0.217 C 
ATOM     21  N   UNL A   1      26.871  28.673  22.809  1.00  0.00    -0.370 N 
ATOM     22  O   UNL A   1      27.112  30.771  23.567  1.00  0.00    -0.275 OA
ATOM     23  H   UNL A   1      27.294  27.857  22.454  1.00  0.00     0.159 HD
ATOM     24  H   UNL A   1      25.896  28.705  22.939  1.00  0.00     0.159 HD
ENDBRANCH  19  20
ENDBRANCH  18  19
ENDBRANCH   5  18
ENDBRANCH   3   5
ENDBRANCH   2   3
ENDBRANCH   1   2
BRANCH   1  25
ATOM     25  C   UNL A   1      32.739  30.599  26.948  1.00  0.00     0.275 C 
BRANCH  25  26
ATOM     26  O   UNL A   1      34.054  30.370  27.576  1.00  0.00    -0.458 OA
BRANCH  26  27
ATOM     27  C   UNL A   1      34.936  31.109  28.306  1.00  0.00     0.338 C 
ATOM     28  O   UNL A   1      34.646  32.220  28.732  1.00  0.00    -0.246 OA
BRANCH  27  29
ATOM     29  C   UNL A   1      36.199  30.495  28.751  1.00  0.00     0.060 A 
ATOM     30  C   UNL A   1      36.308  29.740  29.938  1.00  0.00     0.016 A 
ATOM     31  C   UNL A   1      37.250  30.532  27.880  1.00  0.00     0.016 A 
ATOM     32  C   UNL A   1      37.440  28.949  30.165  1.00  0.00     0.010 A 
ATOM     33  C   UNL A   1      38.115  29.479  27.904  1.00  0.00     0.010 A 
ATOM     34  C   UNL A   1      38.335  28.815  29.112  1.00  0.00    -0.014 A 
BRANCH  34  35
ATOM     35  C   UNL A   1      39.722  28.381  29.170  1.00  0.00     0.031 A 
ATOM     36  C   UNL A   1      40.190  27.060  28.750  1.00  0.00     0.074 A 
ATOM     37  C   UNL A   1      40.556  29.442  29.354  1.00  0.00     0.049 A 
ATOM     38  N   UNL A   1      41.442  26.831  28.635  1.00  0.00    -0.248 NA
ATOM     39  C   UNL A   1      39.386  25.912  28.345  1.00  0.00     0.031 C 
ATOM     40  C   UNL A   1      41.987  29.623  29.203  1.00  0.00     0.029 A 
ATOM     41  N   UNL A   1      40.147  30.700  29.844  1.00  0.00    -0.354 N 
ATOM     42  C   UNL A   1      41.649  25.594  28.092  1.00  0.00     0.074 A 
ATOM     43  C   UNL A   1      40.323  25.088  27.837  1.00  0.00     0.031 C 
ATOM     44  C   UNL A   1      42.356  30.681  29.957  1.00  0.00     0.029 A 
ATOM     45  C   UNL A   1      41.172  31.162  30.660  1.00  0.00     0.049 A 
ATOM     46  H   UNL A   1      39.299  31.160  29.646  1.00  0.00     0.167 HD
ATOM     47  C   UNL A   1      42.955  25.243  27.933  1.00  0.00     0.037 A 
ATOM     48  C   UNL A   1      40.895  31.107  31.994  1.00  0.00     0.037 A 
ATOM     49  C   UNL A   1      43.762  26.047  28.869  1.00  0.00     0.049 A 
ATOM     50  C   UNL A   1      41.670  29.973  32.635  1.00  0.00     0.074 A 
ATOM     51  C   UNL A   1      44.558  27.174  28.756  1.00  0.00     0.029 A 
ATOM     52  N   UNL A   1      43.448  25.938  30.226  1.00  0.00    -0.354 N 
ATOM     53  N   UNL A   1      42.229  28.985  31.981  1.00  0.00    -0.248 NA
ATOM     54  C   UNL A   1      41.947  29.918  34.058  1.00  0.00     0.031 C 
ATOM     55  C   UNL A   1      44.634  27.785  30.050  1.00  0.00     0.029 A 
ATOM     56  C   UNL A   1      43.911  27.018  30.953  1.00  0.00     0.049 A 
ATOM     57  H   UNL A   1      42.954  25.182  30.618  1.00  0.00     0.167 HD
ATOM     58  C   UNL A   1      42.962  28.202  32.832  1.00  0.00     0.074 A 
ATOM     59  C   UNL A   1      42.767  28.854  34.119  1.00  0.00     0.031 C 
ATOM     60  C   UNL A   1      43.660  27.098  32.401  1.00  0.00     0.037 A 
BRANCH  47  61
ATOM     61  C   UNL A   1      43.525  24.286  26.917  1.00  0.00     0.057 A 
ATOM     62  C   UNL A   1      43.110  24.365  25.568  1.00  0.00     0.134 A 
ATOM     63  C   UNL A   1      44.387  23.209  27.188  1.00  0.00     0.134 A 
ATOM     64  F   UNL A   1      42.266  25.318  25.149  1.00  0.00    -0.206 F 
ATOM     65  C   UNL A   1      43.504  23.448  24.584  1.00  0.00     0.040 A 
ATOM     66  C   UNL A   1      44.786  22.279  26.211  1.00  0.00     0.040 A 
ATOM     67  F   UNL A   1      44.889  22.996  28.407  1.00  0.00    -0.206 F 
ATOM     68  C   UNL A   1      44.342  22.394  24.904  1.00  0.00     0.006 A 
ENDBRANCH  47  61
BRANCH  48  69
ATOM     69  C   UNL A   1      39.488  31.573  32.306  1.00  0.00     0.057 A 
ATOM     70  C   UNL A   1      38.595  30.647  32.905  1.00  0.00     0.134 A 
ATOM     71  C   UNL A   1      39.080  32.910  32.347  1.00  0.00     0.134 A 
ATOM     72  F   UNL A   1      38.900  29.339  32.928  1.00  0.00    -0.206 F 
ATOM     73  C   UNL A   1      37.435  31.032  33.594  1.00  0.00     0.040 A 
ATOM     74  C   UNL A   1      37.893  33.304  33.002  1.00  0.00     0.040 A 
ATOM     75  F   UNL A   1      39.854  33.878  31.839  1.00  0.00    -0.206 F 
ATOM     76  C   UNL A   1      37.089  32.373  33.659  1.00  0.00     0.006 A 
ENDBRANCH  48  69
BRANCH  60  77
ATOM     77  C   UNL A   1      44.225  25.987  33.289  1.00  0.00     0.057 A 
ATOM     78  C   UNL A   1      43.523  25.321  34.305  1.00  0.00     0.134 A 
ATOM     79  C   UNL A   1      45.515  25.445  33.045  1.00  0.00     0.134 A 
ATOM     80  F   UNL A   1      42.245  25.586  34.587  1.00  0.00    -0.206 F 
ATOM     81  C   UNL A   1      44.074  24.276  35.060  1.00  0.00     0.040 A 
ATOM     82  C   UNL A   1      46.036  24.340  33.725  1.00  0.00     0.040 A 
ATOM     83  F   UNL A   1      46.341  25.937  32.112  1.00  0.00    -0.206 F 
ATOM     84  C   UNL A   1      45.325  23.766  34.760  1.00  0.00     0.006 A 
ENDBRANCH  60  77
ENDBRANCH  34  35
ENDBRANCH  27  29
ENDBRANCH  26  27
ENDBRANCH  25  26
ENDBRANCH   1  25
TORSDOF 17
ENDMDL
