MODEL 1
REMARK VINA RESULT:     -11.8      0.000      0.000
REMARK SMILES Cc1ccc(S(=O)(=O)Nc2cc(C(=O)OCCOC(=O)c3ccc(-c4c5nc(c(-c6c(F)cccc6F)c6ccc([nH]6)c(-c6c(F)cccc6F)c6nc(c(-c7c(F)cccc7F)c7ccc4[nH]7)C=C6)C=C5)cc3)cnc2N2CCCC2)c(C)c1
REMARK SMILES IDX 16 1 15 2 13 3 14 4 12 5 10 6 11 7 77 8 76 9 75 10 9 11 6 13
REMARK SMILES IDX 7 14 8 15 5 16 1 17 2 18 3 19 85 20 4 21 83 22 84 23 78 24
REMARK SMILES IDX 79 25 82 26 80 27 81 28 17 29 18 30 19 31 20 32 21 33 22 34
REMARK SMILES IDX 74 35 23 36 73 37 24 38 25 39 26 40 67 41 27 42 72 43 66 44
REMARK SMILES IDX 68 45 28 46 71 47 65 48 64 49 29 51 55 52 38 53 54 54 39 55
REMARK SMILES IDX 42 56 53 57 69 58 40 59 41 60 52 62 70 63 43 64 30 65 31 66
REMARK SMILES IDX 36 67 32 68 33 69 35 70 37 71 34 72 56 73 57 74 62 75 58 76
REMARK SMILES IDX 59 77 61 78 63 79 60 80 44 81 45 82 50 83 46 84 47 85 49 86
REMARK SMILES IDX 51 87 48 88
REMARK H PARENT 9 12 68 50 42 61
REMARK Flexibility Score: inf
ROOT
ATOM      1  C   UNL A   1      37.759  20.181  25.033  1.00  0.00     0.275 C 
ENDROOT
BRANCH   1   2
ATOM      2  O   UNL A   1      36.961  21.293  24.577  1.00  0.00    -0.458 OA
BRANCH   2   3
ATOM      3  C   UNL A   1      35.645  21.229  24.882  1.00  0.00     0.339 C 
ATOM      4  O   UNL A   1      34.960  20.225  24.993  1.00  0.00    -0.246 OA
BRANCH   3   5
ATOM      5  C   UNL A   1      35.100  22.574  25.111  1.00  0.00     0.080 A 
ATOM      6  C   UNL A   1      34.384  24.695  24.300  1.00  0.00     0.092 A 
ATOM      7  C   UNL A   1      35.178  23.563  24.142  1.00  0.00     0.048 A 
ATOM      8  C   UNL A   1      33.679  24.912  25.509  1.00  0.00     0.153 A 
ATOM      9  N   UNL A   1      33.653  23.972  26.474  1.00  0.00    -0.236 NA
ATOM     10  C   UNL A   1      34.314  22.813  26.233  1.00  0.00     0.129 A 
BRANCH   6  11
ATOM     11  N   UNL A   1      34.226  25.596  23.196  1.00  0.00    -0.276 N 
ATOM     12  H   UNL A   1      34.945  26.233  22.980  1.00  0.00     0.180 HD
BRANCH  11  13
ATOM     13  S   UNL A   1      32.799  25.575  22.252  1.00  0.00     0.262 S 
ATOM     14  O   UNL A   1      32.217  24.281  22.553  1.00  0.00    -0.201 OA
ATOM     15  O   UNL A   1      33.188  25.897  20.896  1.00  0.00    -0.201 OA
BRANCH  13  16
ATOM     16  C   UNL A   1      31.625  26.845  22.749  1.00  0.00     0.090 A 
ATOM     17  C   UNL A   1      28.554  29.853  23.158  1.00  0.00     0.044 C 
ATOM     18  C   UNL A   1      29.626  28.807  23.082  1.00  0.00    -0.051 A 
ATOM     19  C   UNL A   1      29.331  27.459  23.283  1.00  0.00     0.005 A 
ATOM     20  C   UNL A   1      30.960  29.174  22.892  1.00  0.00     0.008 A 
ATOM     21  C   UNL A   1      30.332  26.488  23.150  1.00  0.00     0.023 A 
ATOM     22  C   UNL A   1      31.980  28.207  22.768  1.00  0.00    -0.030 A 
ATOM     23  C   UNL A   1      33.394  28.717  22.730  1.00  0.00     0.046 C 
ENDBRANCH  13  16
ENDBRANCH  11  13
ENDBRANCH   6  11
BRANCH   8  24
ATOM     24  N   UNL A   1      33.000  26.105  25.710  1.00  0.00    -0.355 N 
ATOM     25  C   UNL A   1      31.777  26.069  26.501  1.00  0.00     0.118 C 
ATOM     26  C   UNL A   1      33.792  27.256  26.160  1.00  0.00     0.118 C 
ATOM     27  C   UNL A   1      31.408  27.545  26.553  1.00  0.00     0.023 C 
ATOM     28  C   UNL A   1      32.755  28.241  26.718  1.00  0.00     0.023 C 
ENDBRANCH   8  24
ENDBRANCH   3   5
ENDBRANCH   2   3
ENDBRANCH   1   2
BRANCH   1  29
ATOM     29  C   UNL A   1      39.172  20.644  25.381  1.00  0.00     0.275 C 
BRANCH  29  30
ATOM     30  O   UNL A   1      39.905  19.550  25.960  1.00  0.00    -0.458 OA
BRANCH  30  31
ATOM     31  C   UNL A   1      41.252  19.679  25.991  1.00  0.00     0.338 C 
ATOM     32  O   UNL A   1      42.086  18.888  25.588  1.00  0.00    -0.246 OA
BRANCH  31  33
ATOM     33  C   UNL A   1      41.596  20.978  26.598  1.00  0.00     0.060 A 
ATOM     34  C   UNL A   1      41.932  22.053  25.778  1.00  0.00     0.016 A 
ATOM     35  C   UNL A   1      41.656  21.116  27.981  1.00  0.00     0.016 A 
ATOM     36  C   UNL A   1      42.383  23.249  26.323  1.00  0.00     0.010 A 
ATOM     37  C   UNL A   1      42.009  22.353  28.533  1.00  0.00     0.010 A 
ATOM     38  C   UNL A   1      42.386  23.431  27.710  1.00  0.00    -0.014 A 
BRANCH  38  39
ATOM     39  C   UNL A   1      42.761  24.746  28.294  1.00  0.00     0.031 A 
ATOM     40  C   UNL A   1      41.708  25.781  28.566  1.00  0.00     0.074 A 
ATOM     41  C   UNL A   1      44.052  25.024  28.565  1.00  0.00     0.049 A 
ATOM     42  N   UNL A   1      41.849  27.051  28.844  1.00  0.00    -0.248 NA
ATOM     43  C   UNL A   1      40.308  25.331  28.500  1.00  0.00     0.031 C 
ATOM     44  C   UNL A   1      45.175  24.100  28.394  1.00  0.00     0.029 A 
ATOM     45  N   UNL A   1      44.641  26.173  29.035  1.00  0.00    -0.354 N 
ATOM     46  C   UNL A   1      40.563  27.568  28.919  1.00  0.00     0.074 A 
ATOM     47  C   UNL A   1      39.651  26.470  28.672  1.00  0.00     0.031 C 
ATOM     48  C   UNL A   1      46.309  24.707  28.773  1.00  0.00     0.029 A 
ATOM     49  C   UNL A   1      46.009  26.090  29.121  1.00  0.00     0.049 A 
ATOM     50  H   UNL A   1      44.131  26.977  29.286  1.00  0.00     0.167 HD
ATOM     51  C   UNL A   1      40.182  28.844  29.163  1.00  0.00     0.037 A 
ATOM     52  C   UNL A   1      46.933  27.033  29.385  1.00  0.00     0.037 A 
ATOM     53  C   UNL A   1      41.091  29.917  29.470  1.00  0.00     0.049 A 
ATOM     54  C   UNL A   1      46.492  28.446  29.621  1.00  0.00     0.074 A 
ATOM     55  C   UNL A   1      40.798  31.233  29.785  1.00  0.00     0.029 A 
ATOM     56  N   UNL A   1      42.472  29.794  29.509  1.00  0.00    -0.354 N 
ATOM     57  N   UNL A   1      45.276  28.936  29.641  1.00  0.00    -0.248 NA
ATOM     58  C   UNL A   1      47.549  29.443  29.837  1.00  0.00     0.031 C 
ATOM     59  C   UNL A   1      42.005  31.915  29.980  1.00  0.00     0.029 A 
ATOM     60  C   UNL A   1      43.047  31.017  29.817  1.00  0.00     0.049 A 
ATOM     61  H   UNL A   1      42.970  28.961  29.343  1.00  0.00     0.167 HD
ATOM     62  C   UNL A   1      45.421  30.299  29.855  1.00  0.00     0.074 A 
ATOM     63  C   UNL A   1      46.841  30.554  29.990  1.00  0.00     0.031 C 
ATOM     64  C   UNL A   1      44.463  31.255  29.923  1.00  0.00     0.037 A 
BRANCH  51  65
ATOM     65  C   UNL A   1      38.720  29.160  29.061  1.00  0.00     0.057 A 
ATOM     66  C   UNL A   1      37.859  29.091  30.162  1.00  0.00     0.134 A 
ATOM     67  C   UNL A   1      38.173  29.563  27.835  1.00  0.00     0.134 A 
ATOM     68  F   UNL A   1      38.318  28.696  31.359  1.00  0.00    -0.206 F 
ATOM     69  C   UNL A   1      36.501  29.393  30.044  1.00  0.00     0.040 A 
ATOM     70  C   UNL A   1      36.822  29.889  27.710  1.00  0.00     0.040 A 
ATOM     71  F   UNL A   1      38.945  29.653  26.742  1.00  0.00    -0.206 F 
ATOM     72  C   UNL A   1      35.981  29.798  28.817  1.00  0.00     0.006 A 
ENDBRANCH  51  65
BRANCH  52  73
ATOM     73  C   UNL A   1      48.372  26.672  29.358  1.00  0.00     0.057 A 
ATOM     74  C   UNL A   1      48.999  26.109  30.473  1.00  0.00     0.134 A 
ATOM     75  C   UNL A   1      49.140  26.845  28.200  1.00  0.00     0.134 A 
ATOM     76  F   UNL A   1      48.321  25.941  31.617  1.00  0.00    -0.206 F 
ATOM     77  C   UNL A   1      50.341  25.724  30.435  1.00  0.00     0.040 A 
ATOM     78  C   UNL A   1      50.474  26.443  28.140  1.00  0.00     0.040 A 
ATOM     79  F   UNL A   1      48.592  27.378  27.097  1.00  0.00    -0.206 F 
ATOM     80  C   UNL A   1      51.079  25.880  29.263  1.00  0.00     0.006 A 
ENDBRANCH  52  73
BRANCH  64  81
ATOM     81  C   UNL A   1      44.926  32.663  30.137  1.00  0.00     0.057 A 
ATOM     82  C   UNL A   1      45.143  33.168  31.425  1.00  0.00     0.134 A 
ATOM     83  C   UNL A   1      45.185  33.507  29.052  1.00  0.00     0.134 A 
ATOM     84  F   UNL A   1      44.897  32.410  32.503  1.00  0.00    -0.206 F 
ATOM     85  C   UNL A   1      45.591  34.475  31.626  1.00  0.00     0.040 A 
ATOM     86  C   UNL A   1      45.650  34.809  29.240  1.00  0.00     0.040 A 
ATOM     87  F   UNL A   1      44.999  33.078  27.794  1.00  0.00    -0.206 F 
ATOM     88  C   UNL A   1      45.850  35.297  30.530  1.00  0.00     0.006 A 
ENDBRANCH  64  81
ENDBRANCH  38  39
ENDBRANCH  31  33
ENDBRANCH  30  31
ENDBRANCH  29  30
ENDBRANCH   1  29
TORSDOF 15
ENDMDL
MODEL 2
REMARK VINA RESULT:     -11.7      4.769      9.411
REMARK SMILES Cc1ccc(S(=O)(=O)Nc2cc(C(=O)OCCOC(=O)c3ccc(-c4c5nc(c(-c6c(F)cccc6F)c6ccc([nH]6)c(-c6c(F)cccc6F)c6nc(c(-c7c(F)cccc7F)c7ccc4[nH]7)C=C6)C=C5)cc3)cnc2N2CCCC2)c(C)c1
REMARK SMILES IDX 16 1 15 2 13 3 14 4 12 5 10 6 11 7 77 8 76 9 75 10 9 11 6 13
REMARK SMILES IDX 7 14 8 15 5 16 1 17 2 18 3 19 85 20 4 21 83 22 84 23 78 24
REMARK SMILES IDX 79 25 82 26 80 27 81 28 17 29 18 30 19 31 20 32 21 33 22 34
REMARK SMILES IDX 74 35 23 36 73 37 24 38 25 39 26 40 67 41 27 42 72 43 66 44
REMARK SMILES IDX 68 45 28 46 71 47 65 48 64 49 29 51 55 52 38 53 54 54 39 55
REMARK SMILES IDX 42 56 53 57 69 58 40 59 41 60 52 62 70 63 43 64 30 65 31 66
REMARK SMILES IDX 36 67 32 68 33 69 35 70 37 71 34 72 56 73 57 74 62 75 58 76
REMARK SMILES IDX 59 77 61 78 63 79 60 80 44 81 45 82 50 83 46 84 47 85 49 86
REMARK SMILES IDX 51 87 48 88
REMARK H PARENT 9 12 68 50 42 61
REMARK Flexibility Score: inf
ROOT
ATOM      1  C   UNL A   1      32.722  31.158  26.907  1.00  0.00     0.275 C 
ENDROOT
BRANCH   1   2
ATOM      2  O   UNL A   1      31.757  30.088  26.851  1.00  0.00    -0.458 OA
BRANCH   2   3
ATOM      3  C   UNL A   1      31.594  29.514  25.637  1.00  0.00     0.339 C 
ATOM      4  O   UNL A   1      30.917  29.927  24.709  1.00  0.00    -0.246 OA
BRANCH   3   5
ATOM      5  C   UNL A   1      32.392  28.284  25.533  1.00  0.00     0.080 A 
ATOM      6  C   UNL A   1      32.787  26.007  26.106  1.00  0.00     0.092 A 
ATOM      7  C   UNL A   1      32.237  27.243  26.436  1.00  0.00     0.048 A 
ATOM      8  C   UNL A   1      33.643  25.881  24.984  1.00  0.00     0.153 A 
ATOM      9  N   UNL A   1      33.835  26.913  24.140  1.00  0.00    -0.236 NA
ATOM     10  C   UNL A   1      33.169  28.064  24.402  1.00  0.00     0.129 A 
BRANCH   6  11
ATOM     11  N   UNL A   1      32.414  24.852  26.867  1.00  0.00    -0.276 N 
ATOM     12  H   UNL A   1      32.801  24.712  27.762  1.00  0.00     0.180 HD
BRANCH  11  13
ATOM     13  S   UNL A   1      31.302  23.714  26.236  1.00  0.00     0.262 S 
ATOM     14  O   UNL A   1      30.655  24.440  25.161  1.00  0.00    -0.201 OA
ATOM     15  O   UNL A   1      30.522  23.225  27.352  1.00  0.00    -0.201 OA
BRANCH  13  16
ATOM     16  C   UNL A   1      32.117  22.274  25.528  1.00  0.00     0.090 A 
ATOM     17  C   UNL A   1      33.388  18.419  24.054  1.00  0.00     0.044 C 
ATOM     18  C   UNL A   1      32.997  19.786  24.534  1.00  0.00    -0.051 A 
ATOM     19  C   UNL A   1      32.266  20.651  23.720  1.00  0.00     0.005 A 
ATOM     20  C   UNL A   1      33.434  20.252  25.775  1.00  0.00     0.008 A 
ATOM     21  C   UNL A   1      31.857  21.900  24.204  1.00  0.00     0.023 A 
ATOM     22  C   UNL A   1      33.040  21.513  26.269  1.00  0.00    -0.030 A 
ATOM     23  C   UNL A   1      33.698  21.978  27.539  1.00  0.00     0.046 C 
ENDBRANCH  13  16
ENDBRANCH  11  13
ENDBRANCH   6  11
BRANCH   8  24
ATOM     24  N   UNL A   1      34.292  24.679  24.741  1.00  0.00    -0.355 N 
ATOM     25  C   UNL A   1      34.461  24.264  23.355  1.00  0.00     0.118 C 
ATOM     26  C   UNL A   1      35.567  24.458  25.435  1.00  0.00     0.118 C 
ATOM     27  C   UNL A   1      35.271  22.985  23.520  1.00  0.00     0.023 C 
ATOM     28  C   UNL A   1      36.239  23.323  24.649  1.00  0.00     0.023 C 
ENDBRANCH   8  24
ENDBRANCH   3   5
ENDBRANCH   2   3
ENDBRANCH   1   2
BRANCH   1  29
ATOM     29  C   UNL A   1      32.041  32.471  27.289  1.00  0.00     0.275 C 
BRANCH  29  30
ATOM     30  O   UNL A   1      33.004  33.539  27.247  1.00  0.00    -0.458 OA
BRANCH  30  31
ATOM     31  C   UNL A   1      33.154  34.260  28.382  1.00  0.00     0.338 C 
ATOM     32  O   UNL A   1      32.433  35.146  28.804  1.00  0.00    -0.246 OA
BRANCH  31  33
ATOM     33  C   UNL A   1      34.363  33.796  29.088  1.00  0.00     0.060 A 
ATOM     34  C   UNL A   1      35.612  34.273  28.699  1.00  0.00     0.016 A 
ATOM     35  C   UNL A   1      34.269  32.835  30.090  1.00  0.00     0.016 A 
ATOM     36  C   UNL A   1      36.776  33.759  29.259  1.00  0.00     0.010 A 
ATOM     37  C   UNL A   1      35.433  32.393  30.729  1.00  0.00     0.010 A 
ATOM     38  C   UNL A   1      36.701  32.843  30.314  1.00  0.00    -0.014 A 
BRANCH  38  39
ATOM     39  C   UNL A   1      37.939  32.376  30.991  1.00  0.00     0.031 A 
ATOM     40  C   UNL A   1      38.721  31.224  30.429  1.00  0.00     0.074 A 
ATOM     41  C   UNL A   1      38.356  32.970  32.128  1.00  0.00     0.049 A 
ATOM     42  N   UNL A   1      39.676  30.523  30.984  1.00  0.00    -0.248 NA
ATOM     43  C   UNL A   1      38.373  30.793  29.065  1.00  0.00     0.031 C 
ATOM     44  C   UNL A   1      37.722  34.126  32.765  1.00  0.00     0.029 A 
ATOM     45  N   UNL A   1      39.412  32.677  32.956  1.00  0.00    -0.354 N 
ATOM     46  C   UNL A   1      39.996  29.528  30.070  1.00  0.00     0.074 A 
ATOM     47  C   UNL A   1      39.143  29.724  28.916  1.00  0.00     0.031 C 
ATOM     48  C   UNL A   1      38.410  34.457  33.866  1.00  0.00     0.029 A 
ATOM     49  C   UNL A   1      39.474  33.481  34.068  1.00  0.00     0.049 A 
ATOM     50  H   UNL A   1      40.061  31.960  32.770  1.00  0.00     0.167 HD
ATOM     51  C   UNL A   1      40.911  28.538  30.191  1.00  0.00     0.037 A 
ATOM     52  C   UNL A   1      40.252  33.410  35.164  1.00  0.00     0.037 A 
ATOM     53  C   UNL A   1      41.798  28.386  31.314  1.00  0.00     0.049 A 
ATOM     54  C   UNL A   1      41.237  32.287  35.292  1.00  0.00     0.074 A 
ATOM     55  C   UNL A   1      42.797  27.446  31.504  1.00  0.00     0.029 A 
ATOM     56  N   UNL A   1      41.799  29.203  32.434  1.00  0.00    -0.354 N 
ATOM     57  N   UNL A   1      41.498  31.321  34.444  1.00  0.00    -0.248 NA
ATOM     58  C   UNL A   1      42.010  32.222  36.539  1.00  0.00     0.031 C 
ATOM     59  C   UNL A   1      43.378  27.673  32.756  1.00  0.00     0.029 A 
ATOM     60  C   UNL A   1      42.763  28.773  33.332  1.00  0.00     0.049 A 
ATOM     61  H   UNL A   1      41.203  29.974  32.572  1.00  0.00     0.167 HD
ATOM     62  C   UNL A   1      42.453  30.525  35.061  1.00  0.00     0.074 A 
ATOM     63  C   UNL A   1      42.748  31.138  36.340  1.00  0.00     0.031 C 
ATOM     64  C   UNL A   1      43.025  29.382  34.610  1.00  0.00     0.037 A 
BRANCH  51  65
ATOM     65  C   UNL A   1      40.965  27.511  29.099  1.00  0.00     0.057 A 
ATOM     66  C   UNL A   1      40.023  26.483  28.990  1.00  0.00     0.134 A 
ATOM     67  C   UNL A   1      41.971  27.575  28.126  1.00  0.00     0.134 A 
ATOM     68  F   UNL A   1      39.044  26.358  29.899  1.00  0.00    -0.206 F 
ATOM     69  C   UNL A   1      40.091  25.541  27.961  1.00  0.00     0.040 A 
ATOM     70  C   UNL A   1      42.037  26.652  27.081  1.00  0.00     0.040 A 
ATOM     71  F   UNL A   1      42.904  28.539  28.172  1.00  0.00    -0.206 F 
ATOM     72  C   UNL A   1      41.097  25.627  27.001  1.00  0.00     0.006 A 
ENDBRANCH  51  65
BRANCH  52  73
ATOM     73  C   UNL A   1      40.064  34.395  36.257  1.00  0.00     0.057 A 
ATOM     74  C   UNL A   1      39.206  34.134  37.329  1.00  0.00     0.134 A 
ATOM     75  C   UNL A   1      40.771  35.604  36.272  1.00  0.00     0.134 A 
ATOM     76  F   UNL A   1      38.485  33.004  37.357  1.00  0.00    -0.206 F 
ATOM     77  C   UNL A   1      39.063  35.038  38.383  1.00  0.00     0.040 A 
ATOM     78  C   UNL A   1      40.656  36.505  37.330  1.00  0.00     0.040 A 
ATOM     79  F   UNL A   1      41.611  35.909  35.271  1.00  0.00    -0.206 F 
ATOM     80  C   UNL A   1      39.798  36.223  38.391  1.00  0.00     0.006 A 
ENDBRANCH  52  73
BRANCH  64  81
ATOM     81  C   UNL A   1      44.013  28.718  35.518  1.00  0.00     0.057 A 
ATOM     82  C   UNL A   1      45.376  29.034  35.462  1.00  0.00     0.134 A 
ATOM     83  C   UNL A   1      43.599  27.781  36.470  1.00  0.00     0.134 A 
ATOM     84  F   UNL A   1      45.835  29.912  34.559  1.00  0.00    -0.206 F 
ATOM     85  C   UNL A   1      46.298  28.428  36.318  1.00  0.00     0.040 A 
ATOM     86  C   UNL A   1      44.507  27.183  37.343  1.00  0.00     0.040 A 
ATOM     87  F   UNL A   1      42.305  27.441  36.574  1.00  0.00    -0.206 F 
ATOM     88  C   UNL A   1      45.862  27.503  37.266  1.00  0.00     0.006 A 
ENDBRANCH  64  81
ENDBRANCH  38  39
ENDBRANCH  31  33
ENDBRANCH  30  31
ENDBRANCH  29  30
ENDBRANCH   1  29
TORSDOF 15
ENDMDL
MODEL 3
REMARK VINA RESULT:     -11.7      4.627      6.187
REMARK SMILES Cc1ccc(S(=O)(=O)Nc2cc(C(=O)OCCOC(=O)c3ccc(-c4c5nc(c(-c6c(F)cccc6F)c6ccc([nH]6)c(-c6c(F)cccc6F)c6nc(c(-c7c(F)cccc7F)c7ccc4[nH]7)C=C6)C=C5)cc3)cnc2N2CCCC2)c(C)c1
REMARK SMILES IDX 16 1 15 2 13 3 14 4 12 5 10 6 11 7 77 8 76 9 75 10 9 11 6 13
REMARK SMILES IDX 7 14 8 15 5 16 1 17 2 18 3 19 85 20 4 21 83 22 84 23 78 24
REMARK SMILES IDX 79 25 82 26 80 27 81 28 17 29 18 30 19 31 20 32 21 33 22 34
REMARK SMILES IDX 74 35 23 36 73 37 24 38 25 39 26 40 67 41 27 42 72 43 66 44
REMARK SMILES IDX 68 45 28 46 71 47 65 48 64 49 29 51 55 52 38 53 54 54 39 55
REMARK SMILES IDX 42 56 53 57 69 58 40 59 41 60 52 62 70 63 43 64 30 65 31 66
REMARK SMILES IDX 36 67 32 68 33 69 35 70 37 71 34 72 56 73 57 74 62 75 58 76
REMARK SMILES IDX 59 77 61 78 63 79 60 80 44 81 45 82 50 83 46 84 47 85 49 86
REMARK SMILES IDX 51 87 48 88
REMARK H PARENT 9 12 68 50 42 61
REMARK Flexibility Score: inf
ROOT
ATOM      1  C   UNL A   1      39.684  21.776  26.249  1.00  0.00     0.275 C 
ENDROOT
BRANCH   1   2
ATOM      2  O   UNL A   1      38.347  22.271  26.032  1.00  0.00    -0.458 OA
BRANCH   2   3
ATOM      3  C   UNL A   1      37.562  21.503  25.242  1.00  0.00     0.339 C 
ATOM      4  O   UNL A   1      37.697  20.314  24.999  1.00  0.00    -0.246 OA
BRANCH   3   5
ATOM      5  C   UNL A   1      36.443  22.288  24.703  1.00  0.00     0.080 A 
ATOM      6  C   UNL A   1      34.611  23.778  25.005  1.00  0.00     0.092 A 
ATOM      7  C   UNL A   1      35.454  22.801  25.528  1.00  0.00     0.048 A 
ATOM      8  C   UNL A   1      34.639  24.082  23.623  1.00  0.00     0.153 A 
ATOM      9  N   UNL A   1      35.567  23.538  22.812  1.00  0.00    -0.236 NA
ATOM     10  C   UNL A   1      36.473  22.702  23.376  1.00  0.00     0.129 A 
BRANCH   6  11
ATOM     11  N   UNL A   1      33.771  24.524  25.896  1.00  0.00    -0.276 N 
ATOM     12  H   UNL A   1      34.167  25.217  26.473  1.00  0.00     0.180 HD
BRANCH  11  13
ATOM     13  S   UNL A   1      32.088  24.221  25.965  1.00  0.00     0.262 S 
ATOM     14  O   UNL A   1      31.819  24.147  27.388  1.00  0.00    -0.201 OA
ATOM     15  O   UNL A   1      31.832  23.076  25.118  1.00  0.00    -0.201 OA
BRANCH  13  16
ATOM     16  C   UNL A   1      31.117  25.573  25.281  1.00  0.00     0.090 A 
ATOM     17  C   UNL A   1      29.288  28.744  22.989  1.00  0.00     0.044 C 
ATOM     18  C   UNL A   1      29.872  27.645  23.827  1.00  0.00    -0.051 A 
ATOM     19  C   UNL A   1      29.441  26.326  23.685  1.00  0.00     0.005 A 
ATOM     20  C   UNL A   1      30.800  27.935  24.829  1.00  0.00     0.008 A 
ATOM     21  C   UNL A   1      30.037  25.302  24.431  1.00  0.00     0.023 A 
ATOM     22  C   UNL A   1      31.399  26.915  25.597  1.00  0.00    -0.030 A 
ATOM     23  C   UNL A   1      32.258  27.353  26.751  1.00  0.00     0.046 C 
ENDBRANCH  13  16
ENDBRANCH  11  13
ENDBRANCH   6  11
BRANCH   8  24
ATOM     24  N   UNL A   1      33.705  24.958  23.088  1.00  0.00    -0.355 N 
ATOM     25  C   UNL A   1      34.140  26.313  22.776  1.00  0.00     0.118 C 
ATOM     26  C   UNL A   1      32.907  24.471  21.955  1.00  0.00     0.118 C 
ATOM     27  C   UNL A   1      32.882  26.897  22.149  1.00  0.00     0.023 C 
ATOM     28  C   UNL A   1      32.335  25.744  21.314  1.00  0.00     0.023 C 
ENDBRANCH   8  24
ENDBRANCH   3   5
ENDBRANCH   2   3
ENDBRANCH   1   2
BRANCH   1  29
ATOM     29  C   UNL A   1      40.646  22.933  26.509  1.00  0.00     0.275 C 
BRANCH  29  30
ATOM     30  O   UNL A   1      39.951  24.181  26.338  1.00  0.00    -0.458 OA
BRANCH  30  31
ATOM     31  C   UNL A   1      40.722  25.281  26.176  1.00  0.00     0.338 C 
ATOM     32  O   UNL A   1      41.441  25.556  25.232  1.00  0.00    -0.246 OA
BRANCH  31  33
ATOM     33  C   UNL A   1      40.557  26.159  27.349  1.00  0.00     0.060 A 
ATOM     34  C   UNL A   1      39.669  25.799  28.360  1.00  0.00     0.016 A 
ATOM     35  C   UNL A   1      41.228  27.377  27.418  1.00  0.00     0.016 A 
ATOM     36  C   UNL A   1      39.398  26.666  29.412  1.00  0.00     0.010 A 
ATOM     37  C   UNL A   1      41.037  28.204  28.531  1.00  0.00     0.010 A 
ATOM     38  C   UNL A   1      40.111  27.862  29.536  1.00  0.00    -0.014 A 
BRANCH  38  39
ATOM     39  C   UNL A   1      39.907  28.739  30.718  1.00  0.00     0.031 A 
ATOM     40  C   UNL A   1      38.865  29.820  30.688  1.00  0.00     0.074 A 
ATOM     41  C   UNL A   1      40.670  28.582  31.819  1.00  0.00     0.049 A 
ATOM     42  N   UNL A   1      38.692  30.825  31.507  1.00  0.00    -0.248 NA
ATOM     43  C   UNL A   1      37.898  29.773  29.580  1.00  0.00     0.031 C 
ATOM     44  C   UNL A   1      41.690  27.548  32.007  1.00  0.00     0.029 A 
ATOM     45  N   UNL A   1      40.713  29.301  32.989  1.00  0.00    -0.354 N 
ATOM     46  C   UNL A   1      37.645  31.568  30.980  1.00  0.00     0.074 A 
ATOM     47  C   UNL A   1      37.210  30.890  29.776  1.00  0.00     0.031 C 
ATOM     48  C   UNL A   1      42.239  27.683  33.222  1.00  0.00     0.029 A 
ATOM     49  C   UNL A   1      41.683  28.869  33.861  1.00  0.00     0.049 A 
ATOM     50  H   UNL A   1      40.107  30.053  33.183  1.00  0.00     0.167 HD
ATOM     51  C   UNL A   1      37.106  32.716  31.454  1.00  0.00     0.037 A 
ATOM     52  C   UNL A   1      42.127  29.400  35.015  1.00  0.00     0.037 A 
ATOM     53  C   UNL A   1      37.501  33.351  32.683  1.00  0.00     0.049 A 
ATOM     54  C   UNL A   1      41.538  30.687  35.506  1.00  0.00     0.074 A 
ATOM     55  C   UNL A   1      36.976  34.487  33.275  1.00  0.00     0.029 A 
ATOM     56  N   UNL A   1      38.514  32.897  33.515  1.00  0.00    -0.354 N 
ATOM     57  N   UNL A   1      40.582  31.410  34.974  1.00  0.00    -0.248 NA
ATOM     58  C   UNL A   1      42.110  31.252  36.736  1.00  0.00     0.031 C 
ATOM     59  C   UNL A   1      37.697  34.741  34.448  1.00  0.00     0.029 A 
ATOM     60  C   UNL A   1      38.648  33.745  34.602  1.00  0.00     0.049 A 
ATOM     61  H   UNL A   1      39.057  32.091  33.356  1.00  0.00     0.167 HD
ATOM     62  C   UNL A   1      40.447  32.522  35.794  1.00  0.00     0.074 A 
ATOM     63  C   UNL A   1      41.398  32.363  36.875  1.00  0.00     0.031 C 
ATOM     64  C   UNL A   1      39.617  33.583  35.655  1.00  0.00     0.037 A 
BRANCH  51  65
ATOM     65  C   UNL A   1      36.059  33.385  30.613  1.00  0.00     0.057 A 
ATOM     66  C   UNL A   1      34.703  33.375  30.957  1.00  0.00     0.134 A 
ATOM     67  C   UNL A   1      36.428  34.072  29.449  1.00  0.00     0.134 A 
ATOM     68  F   UNL A   1      34.284  32.722  32.051  1.00  0.00    -0.206 F 
ATOM     69  C   UNL A   1      33.747  34.009  30.161  1.00  0.00     0.040 A 
ATOM     70  C   UNL A   1      35.485  34.727  28.657  1.00  0.00     0.040 A 
ATOM     71  F   UNL A   1      37.713  34.122  29.066  1.00  0.00    -0.206 F 
ATOM     72  C   UNL A   1      34.137  34.692  29.011  1.00  0.00     0.006 A 
ENDBRANCH  51  65
BRANCH  52  73
ATOM     73  C   UNL A   1      43.245  28.742  35.736  1.00  0.00     0.057 A 
ATOM     74  C   UNL A   1      43.017  27.672  36.606  1.00  0.00     0.134 A 
ATOM     75  C   UNL A   1      44.572  29.146  35.539  1.00  0.00     0.134 A 
ATOM     76  F   UNL A   1      41.767  27.257  36.853  1.00  0.00    -0.206 F 
ATOM     77  C   UNL A   1      44.072  27.021  37.249  1.00  0.00     0.040 A 
ATOM     78  C   UNL A   1      45.636  28.489  36.156  1.00  0.00     0.040 A 
ATOM     79  F   UNL A   1      44.853  30.166  34.713  1.00  0.00    -0.206 F 
ATOM     80  C   UNL A   1      45.387  27.422  37.016  1.00  0.00     0.006 A 
ENDBRANCH  52  73
BRANCH  64  81
ATOM     81  C   UNL A   1      39.717  34.659  36.692  1.00  0.00     0.057 A 
ATOM     82  C   UNL A   1      38.991  34.586  37.887  1.00  0.00     0.134 A 
ATOM     83  C   UNL A   1      40.563  35.758  36.509  1.00  0.00     0.134 A 
ATOM     84  F   UNL A   1      38.152  33.564  38.111  1.00  0.00    -0.206 F 
ATOM     85  C   UNL A   1      39.096  35.579  38.862  1.00  0.00     0.040 A 
ATOM     86  C   UNL A   1      40.690  36.748  37.483  1.00  0.00     0.040 A 
ATOM     87  F   UNL A   1      41.287  35.882  35.385  1.00  0.00    -0.206 F 
ATOM     88  C   UNL A   1      39.951  36.662  38.662  1.00  0.00     0.006 A 
ENDBRANCH  64  81
ENDBRANCH  38  39
ENDBRANCH  31  33
ENDBRANCH  30  31
ENDBRANCH  29  30
ENDBRANCH   1  29
TORSDOF 15
ENDMDL
