MODEL 1
REMARK VINA RESULT:     -10.6      0.000      0.000
REMARK SMILES CC[C@H](c1ccccc1)[C@@H](C)OC(=O)c1ccccc1C(=O)OCCOC(=O)c1ccc(-c2c3nc(c(-c4c(F)cccc4F)c4ccc([nH]4)c(-c4c(F)cccc4F)c4nc(c(-c5c(F)cccc5F)c5ccc2[nH]5)C=C4)C=C3)cc1
REMARK SMILES IDX 23 1 21 2 22 3 20 4 15 5 16 6 17 7 19 8 18 9 13 10 14 11
REMARK SMILES IDX 12 12 10 13 11 14 3 15 2 16 1 17 4 18 5 19 9 20 6 21 8 22
REMARK SMILES IDX 7 23 24 24 25 25 26 26 27 27 28 28 29 29 30 30 82 31 31 32
REMARK SMILES IDX 81 33 32 34 33 35 34 36 75 37 35 38 80 39 74 40 76 41 36 42
REMARK SMILES IDX 79 43 73 44 72 45 37 47 63 48 46 49 62 50 47 51 50 52 61 53
REMARK SMILES IDX 77 54 48 55 49 56 60 58 78 59 51 60 38 61 39 62 44 63 40 64
REMARK SMILES IDX 41 65 43 66 45 67 42 68 64 69 65 70 70 71 66 72 67 73 69 74
REMARK SMILES IDX 71 75 68 76 52 77 53 78 58 79 54 80 55 81 57 82 59 83 56 84
REMARK H PARENT 76 46 50 57
REMARK Flexibility Score: inf
ROOT
ATOM      1  O   UNL A   1      36.814  21.565  24.311  1.00  0.00    -0.458 OA
ENDROOT
BRANCH   1   2
ATOM      2  C   UNL A   1      35.880  22.427  24.781  1.00  0.00     0.339 C 
ATOM      3  O   UNL A   1      36.021  23.199  25.718  1.00  0.00    -0.246 OA
BRANCH   2   4
ATOM      4  C   UNL A   1      34.671  22.465  23.924  1.00  0.00     0.074 A 
ATOM      5  C   UNL A   1      33.491  21.736  24.133  1.00  0.00     0.074 A 
ATOM      6  C   UNL A   1      32.417  21.918  23.232  1.00  0.00     0.016 A 
ATOM      7  C   UNL A   1      32.510  22.788  22.147  1.00  0.00     0.001 A 
ATOM      8  C   UNL A   1      34.736  23.371  22.841  1.00  0.00     0.016 A 
ATOM      9  C   UNL A   1      33.675  23.513  21.947  1.00  0.00     0.001 A 
BRANCH   5  10
ATOM     10  C   UNL A   1      33.224  20.775  25.233  1.00  0.00     0.339 C 
ATOM     11  O   UNL A   1      33.667  19.635  25.217  1.00  0.00    -0.246 OA
BRANCH  10  12
ATOM     12  O   UNL A   1      32.448  21.295  26.202  1.00  0.00    -0.458 OA
BRANCH  12  13
ATOM     13  C   UNL A   1      32.850  22.546  26.827  1.00  0.00     0.181 C 
ATOM     14  C   UNL A   1      33.336  22.274  28.256  1.00  0.00     0.053 C 
BRANCH  13  15
ATOM     15  C   UNL A   1      31.788  23.675  26.628  1.00  0.00     0.060 C 
BRANCH  15  16
ATOM     16  C   UNL A   1      30.445  22.991  26.232  1.00  0.00     0.009 C 
ATOM     17  C   UNL A   1      29.434  22.750  27.343  1.00  0.00     0.005 C 
ENDBRANCH  15  16
BRANCH  15  18
ATOM     18  C   UNL A   1      32.192  24.782  25.657  1.00  0.00    -0.041 A 
ATOM     19  C   UNL A   1      31.297  25.140  24.630  1.00  0.00     0.004 A 
ATOM     20  C   UNL A   1      33.413  25.469  25.723  1.00  0.00     0.004 A 
ATOM     21  C   UNL A   1      31.615  26.129  23.699  1.00  0.00     0.000 A 
ATOM     22  C   UNL A   1      33.714  26.492  24.817  1.00  0.00     0.000 A 
ATOM     23  C   UNL A   1      32.821  26.813  23.799  1.00  0.00     0.000 A 
ENDBRANCH  15  18
ENDBRANCH  13  15
ENDBRANCH  12  13
ENDBRANCH  10  12
ENDBRANCH   5  10
ENDBRANCH   2   4
ENDBRANCH   1   2
BRANCH   1  24
ATOM     24  C   UNL A   1      36.933  20.317  25.030  1.00  0.00     0.275 C 
BRANCH  24  25
ATOM     25  C   UNL A   1      38.352  19.764  24.919  1.00  0.00     0.275 C 
BRANCH  25  26
ATOM     26  O   UNL A   1      38.943  19.727  26.230  1.00  0.00    -0.458 OA
BRANCH  26  27
ATOM     27  C   UNL A   1      40.284  19.893  26.237  1.00  0.00     0.338 C 
ATOM     28  O   UNL A   1      41.134  19.181  25.731  1.00  0.00    -0.246 OA
BRANCH  27  29
ATOM     29  C   UNL A   1      40.596  21.211  26.796  1.00  0.00     0.060 A 
ATOM     30  C   UNL A   1      39.907  22.297  26.263  1.00  0.00     0.016 A 
ATOM     31  C   UNL A   1      41.638  21.404  27.697  1.00  0.00     0.016 A 
ATOM     32  C   UNL A   1      40.306  23.592  26.564  1.00  0.00     0.010 A 
ATOM     33  C   UNL A   1      41.998  22.711  28.050  1.00  0.00     0.010 A 
ATOM     34  C   UNL A   1      41.363  23.821  27.457  1.00  0.00    -0.014 A 
BRANCH  34  35
ATOM     35  C   UNL A   1      41.835  25.214  27.692  1.00  0.00     0.031 A 
ATOM     36  C   UNL A   1      43.156  25.676  27.129  1.00  0.00     0.074 A 
ATOM     37  C   UNL A   1      41.053  26.092  28.352  1.00  0.00     0.049 A 
ATOM     38  N   UNL A   1      43.777  26.817  27.299  1.00  0.00    -0.248 NA
ATOM     39  C   UNL A   1      43.881  24.727  26.269  1.00  0.00     0.031 C 
ATOM     40  C   UNL A   1      39.733  25.796  28.914  1.00  0.00     0.029 A 
ATOM     41  N   UNL A   1      41.244  27.420  28.645  1.00  0.00    -0.354 N 
ATOM     42  C   UNL A   1      44.979  26.705  26.608  1.00  0.00     0.074 A 
ATOM     43  C   UNL A   1      45.009  25.379  26.030  1.00  0.00     0.031 C 
ATOM     44  C   UNL A   1      39.215  26.917  29.437  1.00  0.00     0.029 A 
ATOM     45  C   UNL A   1      40.195  27.991  29.327  1.00  0.00     0.049 A 
ATOM     46  H   UNL A   1      42.056  27.917  28.392  1.00  0.00     0.167 HD
ATOM     47  C   UNL A   1      45.962  27.627  26.460  1.00  0.00     0.037 A 
ATOM     48  C   UNL A   1      40.049  29.229  29.836  1.00  0.00     0.037 A 
ATOM     49  C   UNL A   1      45.910  28.964  26.994  1.00  0.00     0.049 A 
ATOM     50  C   UNL A   1      41.172  30.217  29.689  1.00  0.00     0.074 A 
ATOM     51  C   UNL A   1      46.857  29.970  26.898  1.00  0.00     0.029 A 
ATOM     52  N   UNL A   1      44.845  29.488  27.713  1.00  0.00    -0.354 N 
ATOM     53  N   UNL A   1      42.321  30.081  29.072  1.00  0.00    -0.248 NA
ATOM     54  C   UNL A   1      40.982  31.529  30.324  1.00  0.00     0.031 C 
ATOM     55  C   UNL A   1      46.381  31.090  27.589  1.00  0.00     0.029 A 
ATOM     56  C   UNL A   1      45.117  30.799  28.073  1.00  0.00     0.049 A 
ATOM     57  H   UNL A   1      44.020  29.001  27.934  1.00  0.00     0.167 HD
ATOM     58  C   UNL A   1      42.982  31.292  29.230  1.00  0.00     0.074 A 
ATOM     59  C   UNL A   1      42.091  32.161  29.971  1.00  0.00     0.031 C 
ATOM     60  C   UNL A   1      44.219  31.651  28.809  1.00  0.00     0.037 A 
BRANCH  47  61
ATOM     61  C   UNL A   1      47.195  27.218  25.704  1.00  0.00     0.057 A 
ATOM     62  C   UNL A   1      47.360  27.493  24.340  1.00  0.00     0.134 A 
ATOM     63  C   UNL A   1      48.253  26.580  26.365  1.00  0.00     0.134 A 
ATOM     64  F   UNL A   1      46.380  28.088  23.644  1.00  0.00    -0.206 F 
ATOM     65  C   UNL A   1      48.524  27.133  23.658  1.00  0.00     0.040 A 
ATOM     66  C   UNL A   1      49.433  26.241  25.700  1.00  0.00     0.040 A 
ATOM     67  F   UNL A   1      48.166  26.292  27.672  1.00  0.00    -0.206 F 
ATOM     68  C   UNL A   1      49.569  26.513  24.341  1.00  0.00     0.006 A 
ENDBRANCH  47  61
BRANCH  48  69
ATOM     69  C   UNL A   1      38.811  29.599  30.571  1.00  0.00     0.057 A 
ATOM     70  C   UNL A   1      37.755  30.257  29.931  1.00  0.00     0.134 A 
ATOM     71  C   UNL A   1      38.670  29.338  31.940  1.00  0.00     0.134 A 
ATOM     72  F   UNL A   1      37.839  30.559  28.627  1.00  0.00    -0.206 F 
ATOM     73  C   UNL A   1      36.614  30.661  30.627  1.00  0.00     0.040 A 
ATOM     74  C   UNL A   1      37.521  29.706  32.642  1.00  0.00     0.040 A 
ATOM     75  F   UNL A   1      39.645  28.711  32.616  1.00  0.00    -0.206 F 
ATOM     76  C   UNL A   1      36.493  30.381  31.987  1.00  0.00     0.006 A 
ENDBRANCH  48  69
BRANCH  60  77
ATOM     77  C   UNL A   1      44.656  33.056  29.114  1.00  0.00     0.057 A 
ATOM     78  C   UNL A   1      45.336  33.381  30.295  1.00  0.00     0.134 A 
ATOM     79  C   UNL A   1      44.379  34.097  28.220  1.00  0.00     0.134 A 
ATOM     80  F   UNL A   1      45.618  32.431  31.201  1.00  0.00    -0.206 F 
ATOM     81  C   UNL A   1      45.684  34.698  30.597  1.00  0.00     0.040 A 
ATOM     82  C   UNL A   1      44.751  35.414  28.496  1.00  0.00     0.040 A 
ATOM     83  F   UNL A   1      43.740  33.854  27.065  1.00  0.00    -0.206 F 
ATOM     84  C   UNL A   1      45.395  35.719  29.694  1.00  0.00     0.006 A 
ENDBRANCH  60  77
ENDBRANCH  34  35
ENDBRANCH  27  29
ENDBRANCH  26  27
ENDBRANCH  25  26
ENDBRANCH  24  25
ENDBRANCH   1  24
TORSDOF 17
ENDMDL
MODEL 2
REMARK VINA RESULT:     -10.4      1.253      2.786
REMARK SMILES CC[C@H](c1ccccc1)[C@@H](C)OC(=O)c1ccccc1C(=O)OCCOC(=O)c1ccc(-c2c3nc(c(-c4c(F)cccc4F)c4ccc([nH]4)c(-c4c(F)cccc4F)c4nc(c(-c5c(F)cccc5F)c5ccc2[nH]5)C=C4)C=C3)cc1
REMARK SMILES IDX 23 1 21 2 22 3 20 4 15 5 16 6 17 7 19 8 18 9 13 10 14 11
REMARK SMILES IDX 12 12 10 13 11 14 3 15 2 16 1 17 4 18 5 19 9 20 6 21 8 22
REMARK SMILES IDX 7 23 24 24 25 25 26 26 27 27 28 28 29 29 30 30 82 31 31 32
REMARK SMILES IDX 81 33 32 34 33 35 34 36 75 37 35 38 80 39 74 40 76 41 36 42
REMARK SMILES IDX 79 43 73 44 72 45 37 47 63 48 46 49 62 50 47 51 50 52 61 53
REMARK SMILES IDX 77 54 48 55 49 56 60 58 78 59 51 60 38 61 39 62 44 63 40 64
REMARK SMILES IDX 41 65 43 66 45 67 42 68 64 69 65 70 70 71 66 72 67 73 69 74
REMARK SMILES IDX 71 75 68 76 52 77 53 78 58 79 54 80 55 81 57 82 59 83 56 84
REMARK H PARENT 76 46 50 57
REMARK Flexibility Score: inf
ROOT
ATOM      1  O   UNL A   1      35.571  21.807  25.995  1.00  0.00    -0.458 OA
ENDROOT
BRANCH   1   2
ATOM      2  C   UNL A   1      35.060  22.975  25.538  1.00  0.00     0.339 C 
ATOM      3  O   UNL A   1      35.683  23.858  24.967  1.00  0.00    -0.246 OA
BRANCH   2   4
ATOM      4  C   UNL A   1      33.584  23.026  25.659  1.00  0.00     0.074 A 
ATOM      5  C   UNL A   1      32.673  23.094  24.594  1.00  0.00     0.074 A 
ATOM      6  C   UNL A   1      31.291  23.102  24.888  1.00  0.00     0.016 A 
ATOM      7  C   UNL A   1      30.820  23.055  26.199  1.00  0.00     0.001 A 
ATOM      8  C   UNL A   1      33.090  22.941  26.980  1.00  0.00     0.016 A 
ATOM      9  C   UNL A   1      31.722  22.980  27.250  1.00  0.00     0.001 A 
BRANCH   5  10
ATOM     10  C   UNL A   1      33.002  23.147  23.146  1.00  0.00     0.339 C 
ATOM     11  O   UNL A   1      32.888  22.168  22.422  1.00  0.00    -0.246 OA
BRANCH  10  12
ATOM     12  O   UNL A   1      33.438  24.358  22.755  1.00  0.00    -0.458 OA
BRANCH  12  13
ATOM     13  C   UNL A   1      32.539  25.216  21.998  1.00  0.00     0.181 C 
ATOM     14  C   UNL A   1      32.877  25.122  20.504  1.00  0.00     0.053 C 
BRANCH  13  15
ATOM     15  C   UNL A   1      32.419  26.644  22.622  1.00  0.00     0.060 C 
BRANCH  15  16
ATOM     16  C   UNL A   1      33.708  27.433  22.244  1.00  0.00     0.009 C 
ATOM     17  C   UNL A   1      33.662  28.947  22.387  1.00  0.00     0.005 C 
ENDBRANCH  15  16
BRANCH  15  18
ATOM     18  C   UNL A   1      32.130  26.674  24.122  1.00  0.00    -0.041 A 
ATOM     19  C   UNL A   1      33.216  26.712  25.018  1.00  0.00     0.004 A 
ATOM     20  C   UNL A   1      30.838  26.662  24.667  1.00  0.00     0.004 A 
ATOM     21  C   UNL A   1      33.020  26.719  26.399  1.00  0.00     0.000 A 
ATOM     22  C   UNL A   1      30.640  26.715  26.051  1.00  0.00     0.000 A 
ATOM     23  C   UNL A   1      31.730  26.732  26.916  1.00  0.00     0.000 A 
ENDBRANCH  15  18
ENDBRANCH  13  15
ENDBRANCH  12  13
ENDBRANCH  10  12
ENDBRANCH   5  10
ENDBRANCH   2   4
ENDBRANCH   1   2
BRANCH   1  24
ATOM     24  C   UNL A   1      35.729  20.764  25.007  1.00  0.00     0.275 C 
BRANCH  24  25
ATOM     25  C   UNL A   1      37.163  20.237  25.003  1.00  0.00     0.275 C 
BRANCH  25  26
ATOM     26  O   UNL A   1      38.066  21.340  25.194  1.00  0.00    -0.458 OA
BRANCH  26  27
ATOM     27  C   UNL A   1      39.131  21.053  25.975  1.00  0.00     0.338 C 
ATOM     28  O   UNL A   1      39.745  20.003  26.055  1.00  0.00    -0.246 OA
BRANCH  27  29
ATOM     29  C   UNL A   1      39.603  22.289  26.607  1.00  0.00     0.060 A 
ATOM     30  C   UNL A   1      39.056  23.480  26.139  1.00  0.00     0.016 A 
ATOM     31  C   UNL A   1      40.658  22.298  27.513  1.00  0.00     0.016 A 
ATOM     32  C   UNL A   1      39.611  24.697  26.511  1.00  0.00     0.010 A 
ATOM     33  C   UNL A   1      41.176  23.528  27.938  1.00  0.00     0.010 A 
ATOM     34  C   UNL A   1      40.686  24.741  27.411  1.00  0.00    -0.014 A 
BRANCH  34  35
ATOM     35  C   UNL A   1      41.326  26.049  27.724  1.00  0.00     0.031 A 
ATOM     36  C   UNL A   1      42.718  26.354  27.226  1.00  0.00     0.074 A 
ATOM     37  C   UNL A   1      40.641  26.996  28.397  1.00  0.00     0.049 A 
ATOM     38  N   UNL A   1      43.476  27.395  27.467  1.00  0.00    -0.248 NA
ATOM     39  C   UNL A   1      43.345  25.352  26.349  1.00  0.00     0.031 C 
ATOM     40  C   UNL A   1      39.274  26.855  28.901  1.00  0.00     0.029 A 
ATOM     41  N   UNL A   1      40.993  28.274  28.755  1.00  0.00    -0.354 N 
ATOM     42  C   UNL A   1      44.678  27.153  26.811  1.00  0.00     0.074 A 
ATOM     43  C   UNL A   1      44.557  25.859  26.176  1.00  0.00     0.031 C 
ATOM     44  C   UNL A   1      38.887  28.013  29.456  1.00  0.00     0.029 A 
ATOM     45  C   UNL A   1      40.002  28.951  29.426  1.00  0.00     0.049 A 
ATOM     46  H   UNL A   1      41.872  28.669  28.551  1.00  0.00     0.167 HD
ATOM     47  C   UNL A   1      45.778  27.942  26.736  1.00  0.00     0.037 A 
ATOM     48  C   UNL A   1      40.000  30.177  29.985  1.00  0.00     0.037 A 
ATOM     49  C   UNL A   1      45.881  29.252  27.328  1.00  0.00     0.049 A 
ATOM     50  C   UNL A   1      41.247  31.012  29.919  1.00  0.00     0.074 A 
ATOM     51  C   UNL A   1      46.955  30.127  27.308  1.00  0.00     0.029 A 
ATOM     52  N   UNL A   1      44.867  29.883  28.034  1.00  0.00    -0.354 N 
ATOM     53  N   UNL A   1      42.391  30.750  29.334  1.00  0.00    -0.248 NA
ATOM     54  C   UNL A   1      41.206  32.311  30.605  1.00  0.00     0.031 C 
ATOM     55  C   UNL A   1      46.603  31.271  28.032  1.00  0.00     0.029 A 
ATOM     56  C   UNL A   1      45.294  31.131  28.460  1.00  0.00     0.049 A 
ATOM     57  H   UNL A   1      43.977  29.501  28.206  1.00  0.00     0.167 HD
ATOM     58  C   UNL A   1      43.198  31.856  29.567  1.00  0.00     0.074 A 
ATOM     59  C   UNL A   1      42.401  32.805  30.317  1.00  0.00     0.031 C 
ATOM     60  C   UNL A   1      44.487  32.065  29.204  1.00  0.00     0.037 A 
BRANCH  47  61
ATOM     61  C   UNL A   1      46.975  27.404  26.004  1.00  0.00     0.057 A 
ATOM     62  C   UNL A   1      47.992  26.695  26.657  1.00  0.00     0.134 A 
ATOM     63  C   UNL A   1      47.086  27.557  24.616  1.00  0.00     0.134 A 
ATOM     64  F   UNL A   1      47.956  26.525  27.987  1.00  0.00    -0.206 F 
ATOM     65  C   UNL A   1      49.084  26.175  25.958  1.00  0.00     0.040 A 
ATOM     66  C   UNL A   1      48.158  27.017  23.903  1.00  0.00     0.040 A 
ATOM     67  F   UNL A   1      46.145  28.219  23.925  1.00  0.00    -0.206 F 
ATOM     68  C   UNL A   1      49.164  26.328  24.576  1.00  0.00     0.006 A 
ENDBRANCH  47  61
BRANCH  48  69
ATOM     69  C   UNL A   1      38.794  30.678  30.694  1.00  0.00     0.057 A 
ATOM     70  C   UNL A   1      37.844  31.472  30.042  1.00  0.00     0.134 A 
ATOM     71  C   UNL A   1      38.581  30.406  32.052  1.00  0.00     0.134 A 
ATOM     72  F   UNL A   1      38.003  31.789  28.749  1.00  0.00    -0.206 F 
ATOM     73  C   UNL A   1      36.740  31.996  30.717  1.00  0.00     0.040 A 
ATOM     74  C   UNL A   1      37.464  30.895  32.731  1.00  0.00     0.040 A 
ATOM     75  F   UNL A   1      39.452  29.652  32.738  1.00  0.00    -0.206 F 
ATOM     76  C   UNL A   1      36.545  31.703  32.065  1.00  0.00     0.006 A 
ENDBRANCH  48  69
BRANCH  60  77
ATOM     77  C   UNL A   1      45.092  33.386  29.585  1.00  0.00     0.057 A 
ATOM     78  C   UNL A   1      45.010  34.508  28.750  1.00  0.00     0.134 A 
ATOM     79  C   UNL A   1      45.776  33.531  30.798  1.00  0.00     0.134 A 
ATOM     80  F   UNL A   1      44.381  34.431  27.567  1.00  0.00    -0.206 F 
ATOM     81  C   UNL A   1      45.625  35.714  29.087  1.00  0.00     0.040 A 
ATOM     82  C   UNL A   1      46.368  34.742  31.161  1.00  0.00     0.040 A 
ATOM     83  F   UNL A   1      45.883  32.500  31.651  1.00  0.00    -0.206 F 
ATOM     84  C   UNL A   1      46.305  35.834  30.298  1.00  0.00     0.006 A 
ENDBRANCH  60  77
ENDBRANCH  34  35
ENDBRANCH  27  29
ENDBRANCH  26  27
ENDBRANCH  25  26
ENDBRANCH  24  25
ENDBRANCH   1  24
TORSDOF 17
ENDMDL
MODEL 3
REMARK VINA RESULT:     -10.4      4.447      8.197
REMARK SMILES CC[C@H](c1ccccc1)[C@@H](C)OC(=O)c1ccccc1C(=O)OCCOC(=O)c1ccc(-c2c3nc(c(-c4c(F)cccc4F)c4ccc([nH]4)c(-c4c(F)cccc4F)c4nc(c(-c5c(F)cccc5F)c5ccc2[nH]5)C=C4)C=C3)cc1
REMARK SMILES IDX 23 1 21 2 22 3 20 4 15 5 16 6 17 7 19 8 18 9 13 10 14 11
REMARK SMILES IDX 12 12 10 13 11 14 3 15 2 16 1 17 4 18 5 19 9 20 6 21 8 22
REMARK SMILES IDX 7 23 24 24 25 25 26 26 27 27 28 28 29 29 30 30 82 31 31 32
REMARK SMILES IDX 81 33 32 34 33 35 34 36 75 37 35 38 80 39 74 40 76 41 36 42
REMARK SMILES IDX 79 43 73 44 72 45 37 47 63 48 46 49 62 50 47 51 50 52 61 53
REMARK SMILES IDX 77 54 48 55 49 56 60 58 78 59 51 60 38 61 39 62 44 63 40 64
REMARK SMILES IDX 41 65 43 66 45 67 42 68 64 69 65 70 70 71 66 72 67 73 69 74
REMARK SMILES IDX 71 75 68 76 52 77 53 78 58 79 54 80 55 81 57 82 59 83 56 84
REMARK H PARENT 76 46 50 57
REMARK Flexibility Score: inf
ROOT
ATOM      1  O   UNL A   1      36.613  22.464  25.208  1.00  0.00    -0.458 OA
ENDROOT
BRANCH   1   2
ATOM      2  C   UNL A   1      36.066  22.584  23.974  1.00  0.00     0.339 C 
ATOM      3  O   UNL A   1      36.645  22.953  22.964  1.00  0.00    -0.246 OA
BRANCH   2   4
ATOM      4  C   UNL A   1      34.682  22.057  23.922  1.00  0.00     0.074 A 
ATOM      5  C   UNL A   1      33.608  22.631  23.225  1.00  0.00     0.074 A 
ATOM      6  C   UNL A   1      32.356  21.976  23.255  1.00  0.00     0.016 A 
ATOM      7  C   UNL A   1      32.167  20.790  23.962  1.00  0.00     0.001 A 
ATOM      8  C   UNL A   1      34.483  20.835  24.603  1.00  0.00     0.016 A 
ATOM      9  C   UNL A   1      33.232  20.220  24.643  1.00  0.00     0.001 A 
BRANCH   5  10
ATOM     10  C   UNL A   1      33.637  23.881  22.423  1.00  0.00     0.339 C 
ATOM     11  O   UNL A   1      33.383  23.887  21.227  1.00  0.00    -0.246 OA
BRANCH  10  12
ATOM     12  O   UNL A   1      33.981  24.960  23.151  1.00  0.00    -0.458 OA
BRANCH  12  13
ATOM     13  C   UNL A   1      32.983  25.991  23.392  1.00  0.00     0.181 C 
ATOM     14  C   UNL A   1      33.316  27.234  22.556  1.00  0.00     0.053 C 
BRANCH  13  15
ATOM     15  C   UNL A   1      32.703  26.199  24.916  1.00  0.00     0.060 C 
BRANCH  15  16
ATOM     16  C   UNL A   1      33.942  26.921  25.527  1.00  0.00     0.009 C 
ATOM     17  C   UNL A   1      33.672  28.081  26.473  1.00  0.00     0.005 C 
ENDBRANCH  15  16
BRANCH  15  18
ATOM     18  C   UNL A   1      32.323  24.934  25.684  1.00  0.00    -0.041 A 
ATOM     19  C   UNL A   1      33.318  24.270  26.427  1.00  0.00     0.004 A 
ATOM     20  C   UNL A   1      31.032  24.386  25.692  1.00  0.00     0.004 A 
ATOM     21  C   UNL A   1      33.040  23.099  27.133  1.00  0.00     0.000 A 
ATOM     22  C   UNL A   1      30.742  23.238  26.436  1.00  0.00     0.000 A 
ATOM     23  C   UNL A   1      31.747  22.589  27.146  1.00  0.00     0.000 A 
ENDBRANCH  15  18
ENDBRANCH  13  15
ENDBRANCH  12  13
ENDBRANCH  10  12
ENDBRANCH   5  10
ENDBRANCH   2   4
ENDBRANCH   1   2
BRANCH   1  24
ATOM     24  C   UNL A   1      37.234  23.657  25.737  1.00  0.00     0.275 C 
BRANCH  24  25
ATOM     25  C   UNL A   1      38.670  23.372  26.167  1.00  0.00     0.275 C 
BRANCH  25  26
ATOM     26  O   UNL A   1      39.504  24.477  25.777  1.00  0.00    -0.458 OA
BRANCH  26  27
ATOM     27  C   UNL A   1      40.546  24.704  26.606  1.00  0.00     0.338 C 
ATOM     28  O   UNL A   1      41.677  24.254  26.534  1.00  0.00    -0.246 OA
BRANCH  27  29
ATOM     29  C   UNL A   1      40.183  25.770  27.544  1.00  0.00     0.060 A 
ATOM     30  C   UNL A   1      40.879  26.970  27.430  1.00  0.00     0.016 A 
ATOM     31  C   UNL A   1      39.307  25.554  28.603  1.00  0.00     0.016 A 
ATOM     32  C   UNL A   1      40.766  27.938  28.418  1.00  0.00     0.010 A 
ATOM     33  C   UNL A   1      39.145  26.558  29.565  1.00  0.00     0.010 A 
ATOM     34  C   UNL A   1      39.903  27.745  29.507  1.00  0.00    -0.014 A 
BRANCH  34  35
ATOM     35  C   UNL A   1      39.868  28.755  30.602  1.00  0.00     0.031 A 
ATOM     36  C   UNL A   1      38.860  29.876  30.571  1.00  0.00     0.074 A 
ATOM     37  C   UNL A   1      40.694  28.635  31.662  1.00  0.00     0.049 A 
ATOM     38  N   UNL A   1      38.730  30.898  31.381  1.00  0.00    -0.248 NA
ATOM     39  C   UNL A   1      37.872  29.853  29.481  1.00  0.00     0.031 C 
ATOM     40  C   UNL A   1      41.689  27.577  31.844  1.00  0.00     0.029 A 
ATOM     41  N   UNL A   1      40.813  29.398  32.797  1.00  0.00    -0.354 N 
ATOM     42  C   UNL A   1      37.680  31.657  30.875  1.00  0.00     0.074 A 
ATOM     43  C   UNL A   1      37.219  30.989  29.677  1.00  0.00     0.031 C 
ATOM     44  C   UNL A   1      42.280  27.729  33.039  1.00  0.00     0.029 A 
ATOM     45  C   UNL A   1      41.770  28.939  33.671  1.00  0.00     0.049 A 
ATOM     46  H   UNL A   1      40.266  30.198  32.969  1.00  0.00     0.167 HD
ATOM     47  C   UNL A   1      37.145  32.800  31.368  1.00  0.00     0.037 A 
ATOM     48  C   UNL A   1      42.213  29.452  34.836  1.00  0.00     0.037 A 
ATOM     49  C   UNL A   1      37.573  33.440  32.586  1.00  0.00     0.049 A 
ATOM     50  C   UNL A   1      41.626  30.741  35.337  1.00  0.00     0.074 A 
ATOM     51  C   UNL A   1      37.091  34.602  33.167  1.00  0.00     0.029 A 
ATOM     52  N   UNL A   1      38.573  32.963  33.421  1.00  0.00    -0.354 N 
ATOM     53  N   UNL A   1      40.665  31.470  34.823  1.00  0.00    -0.248 NA
ATOM     54  C   UNL A   1      42.196  31.285  36.577  1.00  0.00     0.031 C 
ATOM     55  C   UNL A   1      37.825  34.846  34.333  1.00  0.00     0.029 A 
ATOM     56  C   UNL A   1      38.729  33.812  34.506  1.00  0.00     0.049 A 
ATOM     57  H   UNL A   1      39.094  32.143  33.266  1.00  0.00     0.167 HD
ATOM     58  C   UNL A   1      40.506  32.549  35.683  1.00  0.00     0.074 A 
ATOM     59  C   UNL A   1      41.445  32.359  36.769  1.00  0.00     0.031 C 
ATOM     60  C   UNL A   1      39.666  33.608  35.580  1.00  0.00     0.037 A 
BRANCH  47  61
ATOM     61  C   UNL A   1      36.044  33.453  30.579  1.00  0.00     0.057 A 
ATOM     62  C   UNL A   1      34.711  33.443  31.009  1.00  0.00     0.134 A 
ATOM     63  C   UNL A   1      36.334  34.144  29.394  1.00  0.00     0.134 A 
ATOM     64  F   UNL A   1      34.362  32.788  32.126  1.00  0.00    -0.206 F 
ATOM     65  C   UNL A   1      33.704  34.080  30.279  1.00  0.00     0.040 A 
ATOM     66  C   UNL A   1      35.340  34.808  28.672  1.00  0.00     0.040 A 
ATOM     67  F   UNL A   1      37.590  34.200  28.928  1.00  0.00    -0.206 F 
ATOM     68  C   UNL A   1      34.019  34.772  29.112  1.00  0.00     0.006 A 
ENDBRANCH  47  61
BRANCH  48  69
ATOM     69  C   UNL A   1      43.298  28.773  35.592  1.00  0.00     0.057 A 
ATOM     70  C   UNL A   1      44.641  29.115  35.400  1.00  0.00     0.134 A 
ATOM     71  C   UNL A   1      43.021  27.739  36.496  1.00  0.00     0.134 A 
ATOM     72  F   UNL A   1      44.975  30.078  34.529  1.00  0.00    -0.206 F 
ATOM     73  C   UNL A   1      45.670  28.442  36.062  1.00  0.00     0.040 A 
ATOM     74  C   UNL A   1      44.036  27.080  37.190  1.00  0.00     0.040 A 
ATOM     75  F   UNL A   1      41.755  27.361  36.727  1.00  0.00    -0.206 F 
ATOM     76  C   UNL A   1      45.368  27.424  36.965  1.00  0.00     0.006 A 
ENDBRANCH  48  69
BRANCH  60  77
ATOM     77  C   UNL A   1      39.708  34.615  36.693  1.00  0.00     0.057 A 
ATOM     78  C   UNL A   1      40.491  35.774  36.615  1.00  0.00     0.134 A 
ATOM     79  C   UNL A   1      38.966  34.414  37.863  1.00  0.00     0.134 A 
ATOM     80  F   UNL A   1      41.238  36.018  35.527  1.00  0.00    -0.206 F 
ATOM     81  C   UNL A   1      40.569  36.674  37.678  1.00  0.00     0.040 A 
ATOM     82  C   UNL A   1      39.011  35.323  38.921  1.00  0.00     0.040 A 
ATOM     83  F   UNL A   1      38.187  33.330  38.000  1.00  0.00    -0.206 F 
ATOM     84  C   UNL A   1      39.825  36.451  38.835  1.00  0.00     0.006 A 
ENDBRANCH  60  77
ENDBRANCH  34  35
ENDBRANCH  27  29
ENDBRANCH  26  27
ENDBRANCH  25  26
ENDBRANCH  24  25
ENDBRANCH   1  24
TORSDOF 17
ENDMDL
