MODEL 1
REMARK VINA RESULT:     -13.0      0.000      0.000
REMARK SMILES Cc1ccc(-c2cc(Cl)cc3c2O[C@H](C(F)(F)F)C(C(=O)OCCOC(=O)c2ccc(-c4c5nc(c(-c6c(F)cccc6F)c6ccc([nH]6)c(-c6c(F)cccc6F)c6nc(c(-c7c(F)cccc7F)c7ccc4[nH]7)C=C6)C=C5)cc2)=C3)cc1
REMARK SMILES IDX 24 1 23 2 22 3 20 4 21 5 19 6 6 7 7 8 12 9 8 10 11 11 13 12
REMARK SMILES IDX 9 13 10 14 82 15 14 16 5 17 1 18 2 19 3 20 84 21 4 22 83 23
REMARK SMILES IDX 15 24 16 25 17 26 18 27 25 28 26 29 27 30 28 31 29 32 81 33
REMARK SMILES IDX 30 34 80 35 31 36 32 37 33 38 74 39 34 40 79 41 73 42 75 43
REMARK SMILES IDX 35 44 78 45 72 46 71 47 36 49 62 50 45 51 61 52 46 53 49 54
REMARK SMILES IDX 60 55 76 56 47 57 48 58 59 60 77 61 50 62 37 63 38 64 43 65
REMARK SMILES IDX 39 66 40 67 42 68 44 69 41 70 63 71 64 72 69 73 65 74 66 75
REMARK SMILES IDX 68 76 70 77 67 78 51 79 52 80 57 81 53 82 54 83 56 84 58 85
REMARK SMILES IDX 55 86
REMARK H PARENT 75 48 49 59
REMARK Flexibility Score: inf
ROOT
ATOM      1  C   UNL A   1      34.409  28.285  26.302  1.00  0.00     0.275 C 
ENDROOT
BRANCH   1   2
ATOM      2  C   UNL A   1      33.366  27.093  26.251  1.00  0.00     0.275 C 
BRANCH   2   3
ATOM      3  O   UNL A   1      33.860  25.409  25.947  1.00  0.00    -0.459 OA
BRANCH   3   4
ATOM      4  C   UNL A   1      35.452  24.220  25.930  1.00  0.00     0.338 C 
ATOM      5  O   UNL A   1      36.494  24.306  25.196  1.00  0.00    -0.246 OA
BRANCH   4   6
ATOM      6  C   UNL A   1      35.380  22.771  26.584  1.00  0.00     0.087 C 
ATOM      7  C   UNL A   1      33.584  22.510  23.373  1.00  0.00     0.026 A 
ATOM      8  C   UNL A   1      32.715  21.412  23.169  1.00  0.00     0.033 A 
ATOM      9  C   UNL A   1      34.729  22.203  24.127  1.00  0.00     0.135 A 
ATOM     10  C   UNL A   1      32.961  20.145  23.733  1.00  0.00     0.042 A 
ATOM     11  C   UNL A   1      34.795  21.066  24.902  1.00  0.00     0.019 A 
ATOM     12  O   UNL A   1      35.881  22.914  24.279  1.00  0.00    -0.475 OA
ATOM     13  Cl  UNL A   1      31.779  18.904  23.571  1.00  0.00    -0.084 Cl
ATOM     14  C   UNL A   1      34.013  19.957  24.624  1.00  0.00     0.032 A 
ATOM     15  C   UNL A   1      35.174  21.456  26.262  1.00  0.00     0.027 C 
ATOM     16  C   UNL A   1      36.481  23.644  25.881  1.00  0.00     0.316 C 
BRANCH   7  17
ATOM     17  C   UNL A   1      33.056  23.902  23.114  1.00  0.00    -0.015 A 
ATOM     18  C   UNL A   1      31.244  27.896  22.752  1.00  0.00     0.044 C 
ATOM     19  C   UNL A   1      31.887  26.544  22.901  1.00  0.00    -0.051 A 
ATOM     20  C   UNL A   1      33.214  26.288  22.525  1.00  0.00     0.004 A 
ATOM     21  C   UNL A   1      31.136  25.475  23.361  1.00  0.00     0.004 A 
ATOM     22  C   UNL A   1      33.792  24.991  22.639  1.00  0.00     0.009 A 
ATOM     23  C   UNL A   1      31.707  24.196  23.439  1.00  0.00     0.009 A 
ENDBRANCH   7  17
BRANCH  16  24
ATOM     24  C   UNL A   1      38.479  24.132  26.682  1.00  0.00     0.430 C 
ATOM     25  F   UNL A   1      39.267  25.191  26.114  1.00  0.00    -0.167 F 
ATOM     26  F   UNL A   1      38.540  24.539  28.042  1.00  0.00    -0.167 F 
ATOM     27  F   UNL A   1      39.536  23.228  26.620  1.00  0.00    -0.167 F 
ENDBRANCH  16  24
ENDBRANCH   4   6
ENDBRANCH   3   4
ENDBRANCH   2   3
ENDBRANCH   1   2
BRANCH   1  28
ATOM     28  O   UNL A   1      35.348  28.533  27.414  1.00  0.00    -0.458 OA
BRANCH  28  29
ATOM     29  C   UNL A   1      35.857  29.688  27.904  1.00  0.00     0.338 C 
ATOM     30  O   UNL A   1      35.302  30.768  27.945  1.00  0.00    -0.246 OA
BRANCH  29  31
ATOM     31  C   UNL A   1      37.205  29.471  28.359  1.00  0.00     0.060 A 
ATOM     32  C   UNL A   1      37.726  28.972  30.233  1.00  0.00     0.016 A 
ATOM     33  C   UNL A   1      38.423  29.703  26.832  1.00  0.00     0.016 A 
ATOM     34  C   UNL A   1      39.606  28.322  30.388  1.00  0.00     0.010 A 
ATOM     35  C   UNL A   1      40.245  28.938  26.909  1.00  0.00     0.010 A 
ATOM     36  C   UNL A   1      40.684  28.261  28.704  1.00  0.00    -0.014 A 
BRANCH  36  37
ATOM     37  C   UNL A   1      42.160  28.040  28.561  1.00  0.00     0.031 A 
ATOM     38  C   UNL A   1      42.980  29.263  28.512  1.00  0.00     0.074 A 
ATOM     39  C   UNL A   1      42.645  26.832  29.009  1.00  0.00     0.049 A 
ATOM     40  N   UNL A   1      44.115  29.399  27.902  1.00  0.00    -0.248 NA
ATOM     41  C   UNL A   1      42.439  30.536  29.004  1.00  0.00     0.031 C 
ATOM     42  C   UNL A   1      43.605  26.634  30.116  1.00  0.00     0.029 A 
ATOM     43  N   UNL A   1      42.155  25.516  28.843  1.00  0.00    -0.354 N 
ATOM     44  C   UNL A   1      44.550  30.653  28.314  1.00  0.00     0.074 A 
ATOM     45  C   UNL A   1      43.344  31.393  28.537  1.00  0.00     0.031 C 
ATOM     46  C   UNL A   1      43.778  25.316  30.358  1.00  0.00     0.029 A 
ATOM     47  C   UNL A   1      43.098  24.574  29.319  1.00  0.00     0.049 A 
ATOM     48  H   UNL A   1      41.281  25.288  28.452  1.00  0.00     0.167 HD
ATOM     49  C   UNL A   1      45.675  30.769  29.090  1.00  0.00     0.037 A 
ATOM     50  C   UNL A   1      43.698  23.643  28.504  1.00  0.00     0.037 A 
ATOM     51  C   UNL A   1      46.195  29.449  29.436  1.00  0.00     0.049 A 
ATOM     52  C   UNL A   1      45.145  23.930  28.231  1.00  0.00     0.074 A 
ATOM     53  C   UNL A   1      46.263  28.708  30.602  1.00  0.00     0.029 A 
ATOM     54  N   UNL A   1      46.522  28.578  28.424  1.00  0.00    -0.354 N 
ATOM     55  N   UNL A   1      45.775  24.961  28.700  1.00  0.00    -0.248 NA
ATOM     56  C   UNL A   1      45.851  23.248  27.148  1.00  0.00     0.031 C 
ATOM     57  C   UNL A   1      46.751  27.411  30.262  1.00  0.00     0.029 A 
ATOM     58  C   UNL A   1      47.001  27.383  28.901  1.00  0.00     0.049 A 
ATOM     59  H   UNL A   1      46.425  28.788  27.467  1.00  0.00     0.167 HD
ATOM     60  C   UNL A   1      46.793  25.253  27.838  1.00  0.00     0.074 A 
ATOM     61  C   UNL A   1      46.790  24.161  26.875  1.00  0.00     0.031 C 
ATOM     62  C   UNL A   1      47.489  26.423  27.924  1.00  0.00     0.037 A 
BRANCH  49  63
ATOM     63  C   UNL A   1      46.203  32.016  29.786  1.00  0.00     0.057 A 
ATOM     64  C   UNL A   1      46.992  32.916  29.038  1.00  0.00     0.134 A 
ATOM     65  C   UNL A   1      45.980  32.434  31.113  1.00  0.00     0.134 A 
ATOM     66  F   UNL A   1      47.234  32.719  27.734  1.00  0.00    -0.206 F 
ATOM     67  C   UNL A   1      47.549  34.087  29.570  1.00  0.00     0.040 A 
ATOM     68  C   UNL A   1      46.529  33.605  31.660  1.00  0.00     0.040 A 
ATOM     69  F   UNL A   1      45.203  31.768  31.969  1.00  0.00    -0.206 F 
ATOM     70  C   UNL A   1      47.321  34.436  30.889  1.00  0.00     0.006 A 
ENDBRANCH  49  63
BRANCH  50  71
ATOM     71  C   UNL A   1      42.872  23.278  27.330  1.00  0.00     0.057 A 
ATOM     72  C   UNL A   1      43.024  23.984  26.140  1.00  0.00     0.134 A 
ATOM     73  C   UNL A   1      42.454  21.938  27.304  1.00  0.00     0.134 A 
ATOM     74  F   UNL A   1      43.336  25.287  26.131  1.00  0.00    -0.206 F 
ATOM     75  C   UNL A   1      43.028  23.294  24.951  1.00  0.00     0.040 A 
ATOM     76  C   UNL A   1      42.634  21.221  26.153  1.00  0.00     0.040 A 
ATOM     77  F   UNL A   1      42.209  21.255  28.430  1.00  0.00    -0.206 F 
ATOM     78  C   UNL A   1      42.972  21.911  25.001  1.00  0.00     0.006 A 
ENDBRANCH  50  71
BRANCH  62  79
ATOM     79  C   UNL A   1      48.630  26.768  27.001  1.00  0.00     0.057 A 
ATOM     80  C   UNL A   1      49.956  26.813  27.446  1.00  0.00     0.134 A 
ATOM     81  C   UNL A   1      48.454  27.157  25.654  1.00  0.00     0.134 A 
ATOM     82  F   UNL A   1      50.263  26.715  28.748  1.00  0.00    -0.206 F 
ATOM     83  C   UNL A   1      51.035  27.026  26.585  1.00  0.00     0.040 A 
ATOM     84  C   UNL A   1      49.515  27.453  24.802  1.00  0.00     0.040 A 
ATOM     85  F   UNL A   1      47.254  27.287  25.077  1.00  0.00    -0.206 F 
ATOM     86  C   UNL A   1      50.816  27.346  25.255  1.00  0.00     0.006 A 
ENDBRANCH  62  79
ENDBRANCH  36  37
ENDBRANCH  29  31
ENDBRANCH  28  29
ENDBRANCH   1  28
TORSDOF 13
ENDMDL
MODEL 2
REMARK VINA RESULT:     -12.9      1.921      6.101
REMARK SMILES Cc1ccc(-c2cc(Cl)cc3c2O[C@H](C(F)(F)F)C(C(=O)OCCOC(=O)c2ccc(-c4c5nc(c(-c6c(F)cccc6F)c6ccc([nH]6)c(-c6c(F)cccc6F)c6nc(c(-c7c(F)cccc7F)c7ccc4[nH]7)C=C6)C=C5)cc2)=C3)cc1
REMARK SMILES IDX 24 1 23 2 22 3 20 4 21 5 19 6 6 7 7 8 12 9 8 10 11 11 13 12
REMARK SMILES IDX 9 13 10 14 82 15 14 16 5 17 1 18 2 19 3 20 84 21 4 22 83 23
REMARK SMILES IDX 15 24 16 25 17 26 18 27 25 28 26 29 27 30 28 31 29 32 81 33
REMARK SMILES IDX 30 34 80 35 31 36 32 37 33 38 74 39 34 40 79 41 73 42 75 43
REMARK SMILES IDX 35 44 78 45 72 46 71 47 36 49 62 50 45 51 61 52 46 53 49 54
REMARK SMILES IDX 60 55 76 56 47 57 48 58 59 60 77 61 50 62 37 63 38 64 43 65
REMARK SMILES IDX 39 66 40 67 42 68 44 69 41 70 63 71 64 72 69 73 65 74 66 75
REMARK SMILES IDX 68 76 70 77 67 78 51 79 52 80 57 81 53 82 54 83 56 84 58 85
REMARK SMILES IDX 55 86
REMARK H PARENT 75 48 49 59
REMARK Flexibility Score: inf
ROOT
ATOM      1  C   UNL A   1      33.519  28.058  26.878  1.00  0.00     0.275 C 
ENDROOT
BRANCH   1   2
ATOM      2  C   UNL A   1      33.271  27.001  25.723  1.00  0.00     0.275 C 
BRANCH   2   3
ATOM      3  O   UNL A   1      33.731  25.289  25.884  1.00  0.00    -0.459 OA
BRANCH   3   4
ATOM      4  C   UNL A   1      35.298  24.071  25.796  1.00  0.00     0.338 C 
ATOM      5  O   UNL A   1      36.270  24.094  24.966  1.00  0.00    -0.246 OA
BRANCH   4   6
ATOM      6  C   UNL A   1      35.268  22.665  26.540  1.00  0.00     0.087 C 
ATOM      7  C   UNL A   1      33.482  22.150  23.353  1.00  0.00     0.026 A 
ATOM      8  C   UNL A   1      32.644  21.018  23.220  1.00  0.00     0.033 A 
ATOM      9  C   UNL A   1      34.635  21.924  24.124  1.00  0.00     0.135 A 
ATOM     10  C   UNL A   1      32.926  19.796  23.863  1.00  0.00     0.042 A 
ATOM     11  C   UNL A   1      34.733  20.841  24.969  1.00  0.00     0.019 A 
ATOM     12  O   UNL A   1      35.766  22.676  24.230  1.00  0.00    -0.475 OA
ATOM     13  Cl  UNL A   1      31.780  18.515  23.780  1.00  0.00    -0.084 Cl
ATOM     14  C   UNL A   1      33.982  19.695  24.763  1.00  0.00     0.032 A 
ATOM     15  C   UNL A   1      35.099  21.327  26.301  1.00  0.00     0.027 C 
ATOM     16  C   UNL A   1      36.344  23.523  25.782  1.00  0.00     0.316 C 
BRANCH   7  17
ATOM     17  C   UNL A   1      32.915  23.508  23.008  1.00  0.00    -0.015 A 
ATOM     18  C   UNL A   1      31.008  27.428  22.408  1.00  0.00     0.044 C 
ATOM     19  C   UNL A   1      31.684  26.104  22.637  1.00  0.00    -0.051 A 
ATOM     20  C   UNL A   1      32.999  25.840  22.222  1.00  0.00     0.004 A 
ATOM     21  C   UNL A   1      30.976  25.063  23.215  1.00  0.00     0.004 A 
ATOM     22  C   UNL A   1      33.607  24.567  22.413  1.00  0.00     0.009 A 
ATOM     23  C   UNL A   1      31.576  23.805  23.369  1.00  0.00     0.009 A 
ENDBRANCH   7  17
BRANCH  16  24
ATOM     24  C   UNL A   1      38.326  24.116  26.549  1.00  0.00     0.430 C 
ATOM     25  F   UNL A   1      38.450  24.971  27.698  1.00  0.00    -0.167 F 
ATOM     26  F   UNL A   1      39.185  23.070  26.979  1.00  0.00    -0.167 F 
ATOM     27  F   UNL A   1      39.202  24.896  25.797  1.00  0.00    -0.167 F 
ENDBRANCH  16  24
ENDBRANCH   4   6
ENDBRANCH   3   4
ENDBRANCH   2   3
ENDBRANCH   1   2
BRANCH   1  28
ATOM     28  O   UNL A   1      34.840  28.597  27.255  1.00  0.00    -0.458 OA
BRANCH  28  29
ATOM     29  C   UNL A   1      35.186  29.766  27.844  1.00  0.00     0.338 C 
ATOM     30  O   UNL A   1      34.548  30.799  27.841  1.00  0.00    -0.246 OA
BRANCH  29  31
ATOM     31  C   UNL A   1      36.475  29.631  28.472  1.00  0.00     0.060 A 
ATOM     32  C   UNL A   1      36.777  29.283  30.425  1.00  0.00     0.016 A 
ATOM     33  C   UNL A   1      37.862  29.802  27.089  1.00  0.00     0.016 A 
ATOM     34  C   UNL A   1      38.642  28.715  30.852  1.00  0.00     0.010 A 
ATOM     35  C   UNL A   1      39.683  29.113  27.438  1.00  0.00     0.010 A 
ATOM     36  C   UNL A   1      39.919  28.578  29.318  1.00  0.00    -0.014 A 
BRANCH  36  37
ATOM     37  C   UNL A   1      41.407  28.403  29.369  1.00  0.00     0.031 A 
ATOM     38  C   UNL A   1      41.903  27.080  28.950  1.00  0.00     0.074 A 
ATOM     39  C   UNL A   1      42.162  29.550  29.271  1.00  0.00     0.049 A 
ATOM     40  N   UNL A   1      42.985  26.503  29.367  1.00  0.00    -0.248 NA
ATOM     41  C   UNL A   1      41.054  26.193  28.146  1.00  0.00     0.031 C 
ATOM     42  C   UNL A   1      43.112  29.878  28.187  1.00  0.00     0.029 A 
ATOM     43  N   UNL A   1      42.014  30.814  29.887  1.00  0.00    -0.354 N 
ATOM     44  C   UNL A   1      43.088  25.388  28.544  1.00  0.00     0.074 A 
ATOM     45  C   UNL A   1      41.732  25.051  28.227  1.00  0.00     0.031 C 
ATOM     46  C   UNL A   1      43.598  31.129  28.350  1.00  0.00     0.029 A 
ATOM     47  C   UNL A   1      43.147  31.623  29.632  1.00  0.00     0.049 A 
ATOM     48  H   UNL A   1      41.233  31.091  30.418  1.00  0.00     0.167 HD
ATOM     49  C   UNL A   1      44.130  25.283  27.657  1.00  0.00     0.037 A 
ATOM     50  C   UNL A   1      43.978  32.078  30.629  1.00  0.00     0.037 A 
ATOM     51  C   UNL A   1      44.950  26.492  27.687  1.00  0.00     0.049 A 
ATOM     52  C   UNL A   1      45.317  31.401  30.649  1.00  0.00     0.074 A 
ATOM     53  C   UNL A   1      45.167  27.537  26.808  1.00  0.00     0.029 A 
ATOM     54  N   UNL A   1      45.506  26.888  28.880  1.00  0.00    -0.354 N 
ATOM     55  N   UNL A   1      45.662  30.467  29.820  1.00  0.00    -0.248 NA
ATOM     56  C   UNL A   1      46.195  31.516  31.811  1.00  0.00     0.031 C 
ATOM     57  C   UNL A   1      45.967  28.508  27.482  1.00  0.00     0.029 A 
ATOM     58  C   UNL A   1      46.251  28.033  28.751  1.00  0.00     0.049 A 
ATOM     59  H   UNL A   1      45.384  26.405  29.729  1.00  0.00     0.167 HD
ATOM     60  C   UNL A   1      46.599  29.689  30.438  1.00  0.00     0.074 A 
ATOM     61  C   UNL A   1      46.888  30.378  31.688  1.00  0.00     0.031 C 
ATOM     62  C   UNL A   1      46.984  28.487  29.922  1.00  0.00     0.037 A 
BRANCH  49  63
ATOM     63  C   UNL A   1      44.319  24.246  26.558  1.00  0.00     0.057 A 
ATOM     64  C   UNL A   1      45.310  23.257  26.733  1.00  0.00     0.134 A 
ATOM     65  C   UNL A   1      43.592  24.107  25.358  1.00  0.00     0.134 A 
ATOM     66  F   UNL A   1      46.039  23.187  27.857  1.00  0.00    -0.206 F 
ATOM     67  C   UNL A   1      45.589  22.262  25.787  1.00  0.00     0.040 A 
ATOM     68  C   UNL A   1      43.859  23.114  24.402  1.00  0.00     0.040 A 
ATOM     69  F   UNL A   1      42.564  24.891  25.029  1.00  0.00    -0.206 F 
ATOM     70  C   UNL A   1      44.864  22.189  24.612  1.00  0.00     0.006 A 
ENDBRANCH  49  63
BRANCH  50  71
ATOM     71  C   UNL A   1      43.296  32.215  31.938  1.00  0.00     0.057 A 
ATOM     72  C   UNL A   1      43.333  31.157  32.842  1.00  0.00     0.134 A 
ATOM     73  C   UNL A   1      43.185  33.535  32.403  1.00  0.00     0.134 A 
ATOM     74  F   UNL A   1      43.350  29.882  32.433  1.00  0.00    -0.206 F 
ATOM     75  C   UNL A   1      43.533  31.428  34.175  1.00  0.00     0.040 A 
ATOM     76  C   UNL A   1      43.562  33.807  33.690  1.00  0.00     0.040 A 
ATOM     77  F   UNL A   1      43.055  34.569  31.562  1.00  0.00    -0.206 F 
ATOM     78  C   UNL A   1      43.781  32.739  34.544  1.00  0.00     0.006 A 
ENDBRANCH  50  71
BRANCH  62  79
ATOM     79  C   UNL A   1      48.029  27.613  30.568  1.00  0.00     0.057 A 
ATOM     80  C   UNL A   1      47.724  26.754  31.630  1.00  0.00     0.134 A 
ATOM     81  C   UNL A   1      49.399  27.651  30.224  1.00  0.00     0.134 A 
ATOM     82  F   UNL A   1      46.528  26.785  32.236  1.00  0.00    -0.206 F 
ATOM     83  C   UNL A   1      48.652  25.861  32.170  1.00  0.00     0.040 A 
ATOM     84  C   UNL A   1      50.354  26.824  30.811  1.00  0.00     0.040 A 
ATOM     85  F   UNL A   1      49.906  28.490  29.313  1.00  0.00    -0.206 F 
ATOM     86  C   UNL A   1      49.975  25.893  31.758  1.00  0.00     0.006 A 
ENDBRANCH  62  79
ENDBRANCH  36  37
ENDBRANCH  29  31
ENDBRANCH  28  29
ENDBRANCH   1  28
TORSDOF 13
ENDMDL
MODEL 3
REMARK VINA RESULT:     -12.6      9.573     14.204
REMARK SMILES Cc1ccc(-c2cc(Cl)cc3c2O[C@H](C(F)(F)F)C(C(=O)OCCOC(=O)c2ccc(-c4c5nc(c(-c6c(F)cccc6F)c6ccc([nH]6)c(-c6c(F)cccc6F)c6nc(c(-c7c(F)cccc7F)c7ccc4[nH]7)C=C6)C=C5)cc2)=C3)cc1
REMARK SMILES IDX 24 1 23 2 22 3 20 4 21 5 19 6 6 7 7 8 12 9 8 10 11 11 13 12
REMARK SMILES IDX 9 13 10 14 82 15 14 16 5 17 1 18 2 19 3 20 84 21 4 22 83 23
REMARK SMILES IDX 15 24 16 25 17 26 18 27 25 28 26 29 27 30 28 31 29 32 81 33
REMARK SMILES IDX 30 34 80 35 31 36 32 37 33 38 74 39 34 40 79 41 73 42 75 43
REMARK SMILES IDX 35 44 78 45 72 46 71 47 36 49 62 50 45 51 61 52 46 53 49 54
REMARK SMILES IDX 60 55 76 56 47 57 48 58 59 60 77 61 50 62 37 63 38 64 43 65
REMARK SMILES IDX 39 66 40 67 42 68 44 69 41 70 63 71 64 72 69 73 65 74 66 75
REMARK SMILES IDX 68 76 70 77 67 78 51 79 52 80 57 81 53 82 54 83 56 84 58 85
REMARK SMILES IDX 55 86
REMARK H PARENT 75 48 49 59
REMARK Flexibility Score: inf
ROOT
ATOM      1  C   UNL A   1      45.948  22.861  38.882  1.00  0.00     0.275 C 
ENDROOT
BRANCH   1   2
ATOM      2  C   UNL A   1      45.317  22.414  40.266  1.00  0.00     0.275 C 
BRANCH   2   3
ATOM      3  O   UNL A   1      45.619  20.810  40.976  1.00  0.00    -0.459 OA
BRANCH   3   4
ATOM      4  C   UNL A   1      45.513  19.807  42.688  1.00  0.00     0.338 C 
ATOM      5  O   UNL A   1      46.469  19.289  43.360  1.00  0.00    -0.246 OA
BRANCH   4   6
ATOM      6  C   UNL A   1      44.127  19.199  43.180  1.00  0.00     0.087 C 
ATOM      7  C   UNL A   1      45.342  16.917  40.548  1.00  0.00     0.026 A 
ATOM      8  C   UNL A   1      44.423  16.026  39.947  1.00  0.00     0.033 A 
ATOM      9  C   UNL A   1      45.110  17.145  41.915  1.00  0.00     0.135 A 
ATOM     10  C   UNL A   1      43.339  15.472  40.657  1.00  0.00     0.042 A 
ATOM     11  C   UNL A   1      43.900  16.841  42.499  1.00  0.00     0.019 A 
ATOM     12  O   UNL A   1      45.928  17.704  42.850  1.00  0.00    -0.475 OA
ATOM     13  Cl  UNL A   1      42.176  14.521  39.817  1.00  0.00    -0.084 Cl
ATOM     14  C   UNL A   1      43.057  15.885  41.955  1.00  0.00     0.032 A 
ATOM     15  C   UNL A   1      43.412  18.032  43.198  1.00  0.00     0.027 C 
ATOM     16  C   UNL A   1      45.588  19.296  43.750  1.00  0.00     0.316 C 
BRANCH   7  17
ATOM     17  C   UNL A   1      46.193  17.786  39.651  1.00  0.00    -0.015 A 
ATOM     18  C   UNL A   1      48.267  20.552  36.929  1.00  0.00     0.044 C 
ATOM     19  C   UNL A   1      47.560  19.633  37.886  1.00  0.00    -0.051 A 
ATOM     20  C   UNL A   1      48.174  19.113  39.036  1.00  0.00     0.004 A 
ATOM     21  C   UNL A   1      46.271  19.210  37.604  1.00  0.00     0.004 A 
ATOM     22  C   UNL A   1      47.498  18.213  39.908  1.00  0.00     0.009 A 
ATOM     23  C   UNL A   1      45.628  18.299  38.455  1.00  0.00     0.009 A 
ENDBRANCH   7  17
BRANCH  16  24
ATOM     24  C   UNL A   1      46.176  20.089  45.724  1.00  0.00     0.430 C 
ATOM     25  F   UNL A   1      47.232  21.057  45.849  1.00  0.00    -0.167 F 
ATOM     26  F   UNL A   1      45.177  20.782  46.458  1.00  0.00    -0.167 F 
ATOM     27  F   UNL A   1      46.723  19.273  46.710  1.00  0.00    -0.167 F 
ENDBRANCH  16  24
ENDBRANCH   4   6
ENDBRANCH   3   4
ENDBRANCH   2   3
ENDBRANCH   1   2
BRANCH   1  28
ATOM     28  O   UNL A   1      45.293  23.760  37.912  1.00  0.00    -0.458 OA
BRANCH  28  29
ATOM     29  C   UNL A   1      44.933  23.561  36.622  1.00  0.00     0.338 C 
ATOM     30  O   UNL A   1      44.934  22.506  36.021  1.00  0.00    -0.246 OA
BRANCH  29  31
ATOM     31  C   UNL A   1      44.565  24.817  36.021  1.00  0.00     0.060 A 
ATOM     32  C   UNL A   1      45.857  26.203  35.359  1.00  0.00     0.016 A 
ATOM     33  C   UNL A   1      42.603  24.909  35.924  1.00  0.00     0.016 A 
ATOM     34  C   UNL A   1      45.010  27.587  34.196  1.00  0.00     0.010 A 
ATOM     35  C   UNL A   1      41.743  26.174  34.669  1.00  0.00     0.010 A 
ATOM     36  C   UNL A   1      43.046  27.408  33.861  1.00  0.00    -0.014 A 
BRANCH  36  37
ATOM     37  C   UNL A   1      42.123  28.408  33.231  1.00  0.00     0.031 A 
ATOM     38  C   UNL A   1      41.528  29.389  34.155  1.00  0.00     0.074 A 
ATOM     39  C   UNL A   1      42.319  28.664  31.893  1.00  0.00     0.049 A 
ATOM     40  N   UNL A   1      40.381  29.974  34.014  1.00  0.00    -0.248 NA
ATOM     41  C   UNL A   1      42.134  29.628  35.471  1.00  0.00     0.031 C 
ATOM     42  C   UNL A   1      42.716  29.961  31.303  1.00  0.00     0.029 A 
ATOM     43  N   UNL A   1      42.560  27.793  30.806  1.00  0.00    -0.354 N 
ATOM     44  C   UNL A   1      40.378  30.920  35.032  1.00  0.00     0.074 A 
ATOM     45  C   UNL A   1      41.176  30.333  36.067  1.00  0.00     0.031 C 
ATOM     46  C   UNL A   1      42.924  29.829  29.974  1.00  0.00     0.029 A 
ATOM     47  C   UNL A   1      42.503  28.501  29.582  1.00  0.00     0.049 A 
ATOM     48  H   UNL A   1      42.742  26.829  30.890  1.00  0.00     0.167 HD
ATOM     49  C   UNL A   1      40.384  32.257  34.727  1.00  0.00     0.037 A 
ATOM     50  C   UNL A   1      41.571  28.234  28.609  1.00  0.00     0.037 A 
ATOM     51  C   UNL A   1      40.485  32.451  33.283  1.00  0.00     0.049 A 
ATOM     52  C   UNL A   1      40.515  29.293  28.483  1.00  0.00     0.074 A 
ATOM     53  C   UNL A   1      41.470  32.923  32.435  1.00  0.00     0.029 A 
ATOM     54  N   UNL A   1      39.536  31.881  32.468  1.00  0.00    -0.354 N 
ATOM     55  N   UNL A   1      40.470  30.354  29.226  1.00  0.00    -0.248 NA
ATOM     56  C   UNL A   1      39.281  29.035  27.744  1.00  0.00     0.031 C 
ATOM     57  C   UNL A   1      41.021  32.720  31.095  1.00  0.00     0.029 A 
ATOM     58  C   UNL A   1      39.759  32.153  31.141  1.00  0.00     0.049 A 
ATOM     59  H   UNL A   1      38.783  31.340  32.799  1.00  0.00     0.167 HD
ATOM     60  C   UNL A   1      39.167  30.757  29.295  1.00  0.00     0.074 A 
ATOM     61  C   UNL A   1      38.460  29.890  28.363  1.00  0.00     0.031 C 
ATOM     62  C   UNL A   1      38.757  31.700  30.190  1.00  0.00     0.037 A 
BRANCH  49  63
ATOM     63  C   UNL A   1      40.565  33.431  35.680  1.00  0.00     0.057 A 
ATOM     64  C   UNL A   1      39.422  33.954  36.323  1.00  0.00     0.134 A 
ATOM     65  C   UNL A   1      41.763  34.073  36.053  1.00  0.00     0.134 A 
ATOM     66  F   UNL A   1      38.210  33.408  36.149  1.00  0.00    -0.206 F 
ATOM     67  C   UNL A   1      39.458  35.041  37.206  1.00  0.00     0.040 A 
ATOM     68  C   UNL A   1      41.814  35.162  36.938  1.00  0.00     0.040 A 
ATOM     69  F   UNL A   1      42.965  33.690  35.620  1.00  0.00    -0.206 F 
ATOM     70  C   UNL A   1      40.658  35.653  37.516  1.00  0.00     0.006 A 
ENDBRANCH  49  63
BRANCH  50  71
ATOM     71  C   UNL A   1      41.089  26.832  28.632  1.00  0.00     0.057 A 
ATOM     72  C   UNL A   1      39.895  26.529  29.281  1.00  0.00     0.134 A 
ATOM     73  C   UNL A   1      41.520  26.049  27.550  1.00  0.00     0.134 A 
ATOM     74  F   UNL A   1      39.498  27.200  30.370  1.00  0.00    -0.206 F 
ATOM     75  C   UNL A   1      39.023  25.645  28.692  1.00  0.00     0.040 A 
ATOM     76  C   UNL A   1      40.591  25.311  26.868  1.00  0.00     0.040 A 
ATOM     77  F   UNL A   1      42.706  26.253  26.961  1.00  0.00    -0.206 F 
ATOM     78  C   UNL A   1      39.334  25.165  27.431  1.00  0.00     0.006 A 
ENDBRANCH  50  71
BRANCH  62  79
ATOM     79  C   UNL A   1      37.330  32.181  30.280  1.00  0.00     0.057 A 
ATOM     80  C   UNL A   1      36.398  31.583  31.136  1.00  0.00     0.134 A 
ATOM     81  C   UNL A   1      36.798  33.199  29.459  1.00  0.00     0.134 A 
ATOM     82  F   UNL A   1      36.678  30.450  31.795  1.00  0.00    -0.206 F 
ATOM     83  C   UNL A   1      35.105  32.081  31.310  1.00  0.00     0.040 A 
ATOM     84  C   UNL A   1      35.485  33.653  29.563  1.00  0.00     0.040 A 
ATOM     85  F   UNL A   1      37.500  33.813  28.499  1.00  0.00    -0.206 F 
ATOM     86  C   UNL A   1      34.644  33.123  30.522  1.00  0.00     0.006 A 
ENDBRANCH  62  79
ENDBRANCH  36  37
ENDBRANCH  29  31
ENDBRANCH  28  29
ENDBRANCH   1  28
TORSDOF 13
ENDMDL
