MODEL 1
REMARK VINA RESULT:     -13.7      0.000      0.000
REMARK SMILES CS(=O)(=O)c1ccc(C2=NN(c3ccc(C(=O)OCCOC(=O)c4ccc(-c5c6nc(c(-c7c(F)cccc7F)c7ccc([nH]7)c(-c7c(F)cccc7F)c7nc(c(-c8c(F)cccc8F)c8ccc5[nH]8)C=C7)C=C6)cc4)cc3)[C@H](c3ccc(Cl)cc3)C2)cc1
REMARK SMILES IDX 19 1 18 2 16 3 17 4 15 5 12 6 13 7 79 8 14 9 78 10 11 11
REMARK SMILES IDX 9 12 10 13 88 14 80 15 8 16 5 17 6 18 90 19 7 20 89 21 2 22
REMARK SMILES IDX 1 23 3 24 4 25 81 26 82 27 87 28 83 29 86 30 84 31 85 32
REMARK SMILES IDX 20 33 21 34 22 35 23 36 24 37 25 38 77 39 26 40 76 41 27 42
REMARK SMILES IDX 28 43 29 44 70 45 30 46 75 47 69 48 71 49 31 50 74 51 68 52
REMARK SMILES IDX 67 53 32 55 58 56 41 57 57 58 42 59 45 60 56 61 72 62 43 63
REMARK SMILES IDX 44 64 55 66 73 67 46 68 33 69 34 70 39 71 35 72 36 73 38 74
REMARK SMILES IDX 40 75 37 76 59 77 60 78 65 79 61 80 62 81 64 82 66 83 63 84
REMARK SMILES IDX 47 85 48 86 53 87 49 88 50 89 52 90 54 91 51 92
REMARK H PARENT 71 54 45 65
REMARK Flexibility Score: inf
ROOT
ATOM      1  C   UNL A   1      40.422  22.667  27.011  1.00  0.00     0.275 C 
ENDROOT
BRANCH   1   2
ATOM      2  O   UNL A   1      39.216  23.138  26.380  1.00  0.00    -0.458 OA
BRANCH   2   3
ATOM      3  C   UNL A   1      38.504  22.204  25.706  1.00  0.00     0.338 C 
ATOM      4  O   UNL A   1      38.815  21.033  25.543  1.00  0.00    -0.246 OA
BRANCH   3   5
ATOM      5  C   UNL A   1      37.217  22.758  25.216  1.00  0.00     0.060 A 
ATOM      6  C   UNL A   1      34.674  23.673  24.457  1.00  0.00     0.060 A 
ATOM      7  C   UNL A   1      35.143  23.898  25.752  1.00  0.00     0.029 A 
ATOM      8  C   UNL A   1      35.522  23.057  23.524  1.00  0.00     0.029 A 
ATOM      9  C   UNL A   1      36.391  23.418  26.138  1.00  0.00     0.018 A 
ATOM     10  C   UNL A   1      36.789  22.602  23.896  1.00  0.00     0.018 A 
BRANCH   6  11
ATOM     11  N   UNL A   1      33.334  23.887  24.138  1.00  0.00    -0.257 N 
ATOM     12  C   UNL A   1      31.658  25.188  23.974  1.00  0.00     0.071 C 
ATOM     13  N   UNL A   1      32.924  25.102  23.703  1.00  0.00    -0.176 NA
ATOM     14  C   UNL A   1      31.078  24.035  24.752  1.00  0.00     0.091 C 
ATOM     15  C   UNL A   1      32.300  23.114  24.839  1.00  0.00     0.144 C 
BRANCH  12  16
ATOM     16  C   UNL A   1      30.824  26.325  23.532  1.00  0.00    -0.002 A 
ATOM     17  C   UNL A   1      29.194  28.489  22.861  1.00  0.00     0.067 A 
ATOM     18  C   UNL A   1      28.651  27.395  23.541  1.00  0.00     0.021 A 
ATOM     19  C   UNL A   1      30.543  28.499  22.493  1.00  0.00     0.021 A 
ATOM     20  C   UNL A   1      29.466  26.312  23.869  1.00  0.00     0.011 A 
ATOM     21  C   UNL A   1      31.361  27.413  22.834  1.00  0.00     0.011 A 
BRANCH  17  22
ATOM     22  S   UNL A   1      28.126  29.868  22.513  1.00  0.00     0.175 S 
ATOM     23  C   UNL A   1      28.852  31.285  23.286  1.00  0.00     0.163 C 
ATOM     24  O   UNL A   1      26.869  29.586  23.178  1.00  0.00    -0.224 OA
ATOM     25  O   UNL A   1      28.183  30.095  21.080  1.00  0.00    -0.224 OA
ENDBRANCH  17  22
ENDBRANCH  12  16
BRANCH  15  26
ATOM     26  C   UNL A   1      32.219  21.722  24.227  1.00  0.00    -0.023 A 
ATOM     27  C   UNL A   1      32.074  21.489  22.853  1.00  0.00     0.007 A 
ATOM     28  C   UNL A   1      32.433  20.611  25.070  1.00  0.00     0.007 A 
ATOM     29  C   UNL A   1      32.146  20.188  22.339  1.00  0.00     0.021 A 
ATOM     30  C   UNL A   1      32.536  19.317  24.555  1.00  0.00     0.021 A 
ATOM     31  C   UNL A   1      32.392  19.112  23.189  1.00  0.00     0.041 A 
ATOM     32  Cl  UNL A   1      32.548  17.526  22.543  1.00  0.00    -0.084 Cl
ENDBRANCH  15  26
ENDBRANCH   6  11
ENDBRANCH   3   5
ENDBRANCH   2   3
ENDBRANCH   1   2
BRANCH   1  33
ATOM     33  C   UNL A   1      41.644  23.027  26.169  1.00  0.00     0.275 C 
BRANCH  33  34
ATOM     34  O   UNL A   1      42.284  24.199  26.707  1.00  0.00    -0.458 OA
BRANCH  34  35
ATOM     35  C   UNL A   1      41.933  25.376  26.139  1.00  0.00     0.338 C 
ATOM     36  O   UNL A   1      41.941  25.668  24.957  1.00  0.00    -0.246 OA
BRANCH  35  37
ATOM     37  C   UNL A   1      41.496  26.308  27.190  1.00  0.00     0.060 A 
ATOM     38  C   UNL A   1      42.127  27.543  27.303  1.00  0.00     0.016 A 
ATOM     39  C   UNL A   1      40.555  25.912  28.137  1.00  0.00     0.016 A 
ATOM     40  C   UNL A   1      41.869  28.369  28.394  1.00  0.00     0.010 A 
ATOM     41  C   UNL A   1      40.238  26.775  29.193  1.00  0.00     0.010 A 
ATOM     42  C   UNL A   1      40.913  28.001  29.350  1.00  0.00    -0.014 A 
BRANCH  42  43
ATOM     43  C   UNL A   1      40.658  28.872  30.531  1.00  0.00     0.031 A 
ATOM     44  C   UNL A   1      39.533  29.873  30.502  1.00  0.00     0.074 A 
ATOM     45  C   UNL A   1      41.412  28.759  31.643  1.00  0.00     0.049 A 
ATOM     46  N   UNL A   1      39.252  30.830  31.351  1.00  0.00    -0.248 NA
ATOM     47  C   UNL A   1      38.609  29.795  29.360  1.00  0.00     0.031 C 
ATOM     48  C   UNL A   1      42.499  27.799  31.836  1.00  0.00     0.029 A 
ATOM     49  N   UNL A   1      41.373  29.458  32.824  1.00  0.00    -0.354 N 
ATOM     50  C   UNL A   1      38.156  31.499  30.819  1.00  0.00     0.074 A 
ATOM     51  C   UNL A   1      37.825  30.841  29.573  1.00  0.00     0.031 C 
ATOM     52  C   UNL A   1      42.999  27.944  33.072  1.00  0.00     0.029 A 
ATOM     53  C   UNL A   1      42.328  29.060  33.729  1.00  0.00     0.049 A 
ATOM     54  H   UNL A   1      40.723  30.174  33.006  1.00  0.00     0.167 HD
ATOM     55  C   UNL A   1      37.489  32.565  31.323  1.00  0.00     0.037 A 
ATOM     56  C   UNL A   1      42.656  29.561  34.935  1.00  0.00     0.037 A 
ATOM     57  C   UNL A   1      37.784  33.186  32.588  1.00  0.00     0.049 A 
ATOM     58  C   UNL A   1      41.927  30.766  35.457  1.00  0.00     0.074 A 
ATOM     59  C   UNL A   1      37.155  34.263  33.190  1.00  0.00     0.029 A 
ATOM     60  N   UNL A   1      38.785  32.775  33.455  1.00  0.00    -0.354 N 
ATOM     61  N   UNL A   1      40.933  31.426  34.918  1.00  0.00    -0.248 NA
ATOM     62  C   UNL A   1      42.384  31.309  36.744  1.00  0.00     0.031 C 
ATOM     63  C   UNL A   1      37.796  34.522  34.407  1.00  0.00     0.029 A 
ATOM     64  C   UNL A   1      38.798  33.582  34.580  1.00  0.00     0.049 A 
ATOM     65  H   UNL A   1      39.396  32.020  33.293  1.00  0.00     0.167 HD
ATOM     66  C   UNL A   1      40.639  32.457  35.800  1.00  0.00     0.074 A 
ATOM     67  C   UNL A   1      41.546  32.321  36.921  1.00  0.00     0.031 C 
ATOM     68  C   UNL A   1      39.706  33.434  35.687  1.00  0.00     0.037 A 
BRANCH  55  69
ATOM     69  C   UNL A   1      36.389  33.151  30.485  1.00  0.00     0.057 A 
ATOM     70  C   UNL A   1      35.037  32.916  30.757  1.00  0.00     0.134 A 
ATOM     71  C   UNL A   1      36.695  33.989  29.403  1.00  0.00     0.134 A 
ATOM     72  F   UNL A   1      34.676  32.114  31.770  1.00  0.00    -0.206 F 
ATOM     73  C   UNL A   1      34.027  33.471  29.968  1.00  0.00     0.040 A 
ATOM     74  C   UNL A   1      35.695  34.570  28.623  1.00  0.00     0.040 A 
ATOM     75  F   UNL A   1      37.971  34.262  29.094  1.00  0.00    -0.206 F 
ATOM     76  C   UNL A   1      34.356  34.306  28.901  1.00  0.00     0.006 A 
ENDBRANCH  55  69
BRANCH  56  77
ATOM     77  C   UNL A   1      43.760  28.945  35.716  1.00  0.00     0.057 A 
ATOM     78  C   UNL A   1      43.519  27.877  36.586  1.00  0.00     0.134 A 
ATOM     79  C   UNL A   1      45.077  29.406  35.606  1.00  0.00     0.134 A 
ATOM     80  F   UNL A   1      42.274  27.408  36.755  1.00  0.00    -0.206 F 
ATOM     81  C   UNL A   1      44.550  27.290  37.324  1.00  0.00     0.040 A 
ATOM     82  C   UNL A   1      46.121  28.811  36.316  1.00  0.00     0.040 A 
ATOM     83  F   UNL A   1      45.371  30.427  34.790  1.00  0.00    -0.206 F 
ATOM     84  C   UNL A   1      45.858  27.752  37.182  1.00  0.00     0.006 A 
ENDBRANCH  56  77
BRANCH  68  85
ATOM     85  C   UNL A   1      39.607  34.413  36.818  1.00  0.00     0.057 A 
ATOM     86  C   UNL A   1      40.240  35.661  36.769  1.00  0.00     0.134 A 
ATOM     87  C   UNL A   1      38.850  34.114  37.958  1.00  0.00     0.134 A 
ATOM     88  F   UNL A   1      40.992  36.001  35.712  1.00  0.00    -0.206 F 
ATOM     89  C   UNL A   1      40.140  36.570  37.824  1.00  0.00     0.040 A 
ATOM     90  C   UNL A   1      38.725  35.023  39.009  1.00  0.00     0.040 A 
ATOM     91  F   UNL A   1      38.215  32.937  38.065  1.00  0.00    -0.206 F 
ATOM     92  C   UNL A   1      39.376  36.253  38.946  1.00  0.00     0.006 A 
ENDBRANCH  68  85
ENDBRANCH  42  43
ENDBRANCH  35  37
ENDBRANCH  34  35
ENDBRANCH  33  34
ENDBRANCH   1  33
TORSDOF 15
ENDMDL
MODEL 2
REMARK VINA RESULT:     -13.5      3.438      8.215
REMARK SMILES CS(=O)(=O)c1ccc(C2=NN(c3ccc(C(=O)OCCOC(=O)c4ccc(-c5c6nc(c(-c7c(F)cccc7F)c7ccc([nH]7)c(-c7c(F)cccc7F)c7nc(c(-c8c(F)cccc8F)c8ccc5[nH]8)C=C7)C=C6)cc4)cc3)[C@H](c3ccc(Cl)cc3)C2)cc1
REMARK SMILES IDX 19 1 18 2 16 3 17 4 15 5 12 6 13 7 79 8 14 9 78 10 11 11
REMARK SMILES IDX 9 12 10 13 88 14 80 15 8 16 5 17 6 18 90 19 7 20 89 21 2 22
REMARK SMILES IDX 1 23 3 24 4 25 81 26 82 27 87 28 83 29 86 30 84 31 85 32
REMARK SMILES IDX 20 33 21 34 22 35 23 36 24 37 25 38 77 39 26 40 76 41 27 42
REMARK SMILES IDX 28 43 29 44 70 45 30 46 75 47 69 48 71 49 31 50 74 51 68 52
REMARK SMILES IDX 67 53 32 55 58 56 41 57 57 58 42 59 45 60 56 61 72 62 43 63
REMARK SMILES IDX 44 64 55 66 73 67 46 68 33 69 34 70 39 71 35 72 36 73 38 74
REMARK SMILES IDX 40 75 37 76 59 77 60 78 65 79 61 80 62 81 64 82 66 83 63 84
REMARK SMILES IDX 47 85 48 86 53 87 49 88 50 89 52 90 54 91 51 92
REMARK H PARENT 71 54 45 65
REMARK Flexibility Score: inf
ROOT
ATOM      1  C   UNL A   1      31.982  31.593  26.676  1.00  0.00     0.275 C 
ENDROOT
BRANCH   1   2
ATOM      2  O   UNL A   1      32.732  30.936  27.716  1.00  0.00    -0.458 OA
BRANCH   2   3
ATOM      3  C   UNL A   1      33.863  30.308  27.317  1.00  0.00     0.338 C 
ATOM      4  O   UNL A   1      35.005  30.732  27.425  1.00  0.00    -0.246 OA
BRANCH   3   5
ATOM      5  C   UNL A   1      33.566  28.963  26.765  1.00  0.00     0.060 A 
ATOM      6  C   UNL A   1      32.964  26.524  25.510  1.00  0.00     0.060 A 
ATOM      7  C   UNL A   1      34.030  27.303  25.057  1.00  0.00     0.029 A 
ATOM      8  C   UNL A   1      32.255  26.940  26.647  1.00  0.00     0.029 A 
ATOM      9  C   UNL A   1      34.310  28.526  25.659  1.00  0.00     0.018 A 
ATOM     10  C   UNL A   1      32.551  28.151  27.277  1.00  0.00     0.018 A 
BRANCH   6  11
ATOM     11  N   UNL A   1      32.493  25.453  24.754  1.00  0.00    -0.257 N 
ATOM     12  C   UNL A   1      32.752  23.497  23.956  1.00  0.00     0.071 C 
ATOM     13  N   UNL A   1      32.884  24.190  25.046  1.00  0.00    -0.176 NA
ATOM     14  C   UNL A   1      32.346  24.277  22.733  1.00  0.00     0.091 C 
ATOM     15  C   UNL A   1      32.152  25.670  23.342  1.00  0.00     0.144 C 
BRANCH  12  16
ATOM     16  C   UNL A   1      32.962  22.035  23.913  1.00  0.00    -0.002 A 
ATOM     17  C   UNL A   1      33.349  19.272  24.004  1.00  0.00     0.067 A 
ATOM     18  C   UNL A   1      34.161  20.113  24.770  1.00  0.00     0.021 A 
ATOM     19  C   UNL A   1      32.358  19.805  23.173  1.00  0.00     0.021 A 
ATOM     20  C   UNL A   1      33.970  21.493  24.718  1.00  0.00     0.011 A 
ATOM     21  C   UNL A   1      32.163  21.193  23.131  1.00  0.00     0.011 A 
BRANCH  17  22
ATOM     22  S   UNL A   1      33.596  17.516  24.147  1.00  0.00     0.175 S 
ATOM     23  C   UNL A   1      32.514  16.950  25.427  1.00  0.00     0.163 C 
ATOM     24  O   UNL A   1      34.962  17.334  24.597  1.00  0.00    -0.224 OA
ATOM     25  O   UNL A   1      33.129  16.923  22.907  1.00  0.00    -0.224 OA
ENDBRANCH  17  22
ENDBRANCH  12  16
BRANCH  15  26
ATOM     26  C   UNL A   1      30.781  26.327  23.257  1.00  0.00    -0.023 A 
ATOM     27  C   UNL A   1      29.631  25.799  23.858  1.00  0.00     0.007 A 
ATOM     28  C   UNL A   1      30.690  27.601  22.654  1.00  0.00     0.007 A 
ATOM     29  C   UNL A   1      28.432  26.522  23.861  1.00  0.00     0.021 A 
ATOM     30  C   UNL A   1      29.503  28.335  22.685  1.00  0.00     0.021 A 
ATOM     31  C   UNL A   1      28.377  27.791  23.289  1.00  0.00     0.041 A 
ATOM     32  Cl  UNL A   1      26.920  28.702  23.357  1.00  0.00    -0.084 Cl
ENDBRANCH  15  26
ENDBRANCH   6  11
ENDBRANCH   3   5
ENDBRANCH   2   3
ENDBRANCH   1   2
BRANCH   1  33
ATOM     33  C   UNL A   1      31.859  33.087  26.965  1.00  0.00     0.275 C 
BRANCH  33  34
ATOM     34  O   UNL A   1      33.152  33.635  27.281  1.00  0.00    -0.458 OA
BRANCH  34  35
ATOM     35  C   UNL A   1      33.228  34.340  28.433  1.00  0.00     0.338 C 
ATOM     36  O   UNL A   1      32.486  35.224  28.820  1.00  0.00    -0.246 OA
BRANCH  35  37
ATOM     37  C   UNL A   1      34.378  33.861  29.216  1.00  0.00     0.060 A 
ATOM     38  C   UNL A   1      35.647  34.351  28.923  1.00  0.00     0.016 A 
ATOM     39  C   UNL A   1      34.220  32.838  30.149  1.00  0.00     0.016 A 
ATOM     40  C   UNL A   1      36.774  33.787  29.512  1.00  0.00     0.010 A 
ATOM     41  C   UNL A   1      35.348  32.323  30.800  1.00  0.00     0.010 A 
ATOM     42  C   UNL A   1      36.640  32.771  30.467  1.00  0.00    -0.014 A 
BRANCH  42  43
ATOM     43  C   UNL A   1      37.848  32.149  31.078  1.00  0.00     0.031 A 
ATOM     44  C   UNL A   1      38.628  31.107  30.318  1.00  0.00     0.074 A 
ATOM     45  C   UNL A   1      38.269  32.524  32.302  1.00  0.00     0.049 A 
ATOM     46  N   UNL A   1      39.599  30.333  30.732  1.00  0.00    -0.248 NA
ATOM     47  C   UNL A   1      38.257  30.904  28.909  1.00  0.00     0.031 C 
ATOM     48  C   UNL A   1      37.648  33.557  33.133  1.00  0.00     0.029 A 
ATOM     49  N   UNL A   1      39.326  32.082  33.059  1.00  0.00    -0.354 N 
ATOM     50  C   UNL A   1      39.917  29.514  29.654  1.00  0.00     0.074 A 
ATOM     51  C   UNL A   1      39.033  29.885  28.569  1.00  0.00     0.031 C 
ATOM     52  C   UNL A   1      38.354  33.694  34.265  1.00  0.00     0.029 A 
ATOM     53  C   UNL A   1      39.425  32.704  34.281  1.00  0.00     0.049 A 
ATOM     54  H   UNL A   1      39.953  31.387  32.756  1.00  0.00     0.167 HD
ATOM     55  C   UNL A   1      40.857  28.542  29.578  1.00  0.00     0.037 A 
ATOM     56  C   UNL A   1      40.257  32.478  35.316  1.00  0.00     0.037 A 
ATOM     57  C   UNL A   1      41.772  28.210  30.639  1.00  0.00     0.049 A 
ATOM     58  C   UNL A   1      41.267  31.371  35.222  1.00  0.00     0.074 A 
ATOM     59  C   UNL A   1      42.769  27.249  30.651  1.00  0.00     0.029 A 
ATOM     60  N   UNL A   1      41.811  28.839  31.873  1.00  0.00    -0.354 N 
ATOM     61  N   UNL A   1      41.518  30.565  34.220  1.00  0.00    -0.248 NA
ATOM     62  C   UNL A   1      42.092  31.126  36.414  1.00  0.00     0.031 C 
ATOM     63  C   UNL A   1      43.391  27.277  31.904  1.00  0.00     0.029 A 
ATOM     64  C   UNL A   1      42.807  28.282  32.658  1.00  0.00     0.049 A 
ATOM     65  H   UNL A   1      41.218  29.575  32.151  1.00  0.00     0.167 HD
ATOM     66  C   UNL A   1      42.532  29.723  34.655  1.00  0.00     0.074 A 
ATOM     67  C   UNL A   1      42.867  30.131  36.004  1.00  0.00     0.031 C 
ATOM     68  C   UNL A   1      43.128  28.699  33.998  1.00  0.00     0.037 A 
BRANCH  55  69
ATOM     69  C   UNL A   1      40.923  27.743  28.309  1.00  0.00     0.057 A 
ATOM     70  C   UNL A   1      40.199  26.558  28.134  1.00  0.00     0.134 A 
ATOM     71  C   UNL A   1      41.706  28.187  27.234  1.00  0.00     0.134 A 
ATOM     72  F   UNL A   1      39.441  26.072  29.128  1.00  0.00    -0.206 F 
ATOM     73  C   UNL A   1      40.271  25.827  26.945  1.00  0.00     0.040 A 
ATOM     74  C   UNL A   1      41.766  27.479  26.032  1.00  0.00     0.040 A 
ATOM     75  F   UNL A   1      42.418  29.319  27.332  1.00  0.00    -0.206 F 
ATOM     76  C   UNL A   1      41.051  26.292  25.888  1.00  0.00     0.006 A 
ENDBRANCH  55  69
BRANCH  56  77
ATOM     77  C   UNL A   1      40.139  33.296  36.551  1.00  0.00     0.057 A 
ATOM     78  C   UNL A   1      40.939  34.426  36.746  1.00  0.00     0.134 A 
ATOM     79  C   UNL A   1      39.224  32.969  37.558  1.00  0.00     0.134 A 
ATOM     80  F   UNL A   1      41.854  34.775  35.830  1.00  0.00    -0.206 F 
ATOM     81  C   UNL A   1      40.836  35.202  37.903  1.00  0.00     0.040 A 
ATOM     82  C   UNL A   1      39.090  33.751  38.706  1.00  0.00     0.040 A 
ATOM     83  F   UNL A   1      38.430  31.896  37.429  1.00  0.00    -0.206 F 
ATOM     84  C   UNL A   1      39.902  34.869  38.883  1.00  0.00     0.006 A 
ENDBRANCH  56  77
BRANCH  68  85
ATOM     85  C   UNL A   1      44.219  27.968  34.723  1.00  0.00     0.057 A 
ATOM     86  C   UNL A   1      45.550  28.400  34.679  1.00  0.00     0.134 A 
ATOM     87  C   UNL A   1      43.929  26.835  35.492  1.00  0.00     0.134 A 
ATOM     88  F   UNL A   1      45.894  29.469  33.946  1.00  0.00    -0.206 F 
ATOM     89  C   UNL A   1      46.560  27.717  35.359  1.00  0.00     0.040 A 
ATOM     90  C   UNL A   1      44.926  26.157  36.195  1.00  0.00     0.040 A 
ATOM     91  F   UNL A   1      42.672  26.373  35.580  1.00  0.00    -0.206 F 
ATOM     92  C   UNL A   1      46.247  26.595  36.124  1.00  0.00     0.006 A 
ENDBRANCH  68  85
ENDBRANCH  42  43
ENDBRANCH  35  37
ENDBRANCH  34  35
ENDBRANCH  33  34
ENDBRANCH   1  33
TORSDOF 15
ENDMDL
MODEL 3
REMARK VINA RESULT:     -13.5      5.189     10.123
REMARK SMILES CS(=O)(=O)c1ccc(C2=NN(c3ccc(C(=O)OCCOC(=O)c4ccc(-c5c6nc(c(-c7c(F)cccc7F)c7ccc([nH]7)c(-c7c(F)cccc7F)c7nc(c(-c8c(F)cccc8F)c8ccc5[nH]8)C=C7)C=C6)cc4)cc3)[C@H](c3ccc(Cl)cc3)C2)cc1
REMARK SMILES IDX 19 1 18 2 16 3 17 4 15 5 12 6 13 7 79 8 14 9 78 10 11 11
REMARK SMILES IDX 9 12 10 13 88 14 80 15 8 16 5 17 6 18 90 19 7 20 89 21 2 22
REMARK SMILES IDX 1 23 3 24 4 25 81 26 82 27 87 28 83 29 86 30 84 31 85 32
REMARK SMILES IDX 20 33 21 34 22 35 23 36 24 37 25 38 77 39 26 40 76 41 27 42
REMARK SMILES IDX 28 43 29 44 70 45 30 46 75 47 69 48 71 49 31 50 74 51 68 52
REMARK SMILES IDX 67 53 32 55 58 56 41 57 57 58 42 59 45 60 56 61 72 62 43 63
REMARK SMILES IDX 44 64 55 66 73 67 46 68 33 69 34 70 39 71 35 72 36 73 38 74
REMARK SMILES IDX 40 75 37 76 59 77 60 78 65 79 61 80 62 81 64 82 66 83 63 84
REMARK SMILES IDX 47 85 48 86 53 87 49 88 50 89 52 90 54 91 51 92
REMARK H PARENT 71 54 45 65
REMARK Flexibility Score: inf
ROOT
ATOM      1  C   UNL A   1      33.988  33.648  29.332  1.00  0.00     0.275 C 
ENDROOT
BRANCH   1   2
ATOM      2  O   UNL A   1      33.689  32.306  28.904  1.00  0.00    -0.458 OA
BRANCH   2   3
ATOM      3  C   UNL A   1      34.437  31.838  27.877  1.00  0.00     0.338 C 
ATOM      4  O   UNL A   1      35.456  32.346  27.431  1.00  0.00    -0.246 OA
BRANCH   3   5
ATOM      5  C   UNL A   1      33.905  30.551  27.365  1.00  0.00     0.060 A 
ATOM      6  C   UNL A   1      33.043  28.142  26.208  1.00  0.00     0.060 A 
ATOM      7  C   UNL A   1      34.385  28.316  26.549  1.00  0.00     0.029 A 
ATOM      8  C   UNL A   1      32.125  29.154  26.525  1.00  0.00     0.029 A 
ATOM      9  C   UNL A   1      34.819  29.521  27.095  1.00  0.00     0.018 A 
ATOM     10  C   UNL A   1      32.547  30.354  27.103  1.00  0.00     0.018 A 
BRANCH   6  11
ATOM     11  N   UNL A   1      32.645  27.072  25.409  1.00  0.00    -0.257 N 
ATOM     12  C   UNL A   1      32.862  25.049  24.785  1.00  0.00     0.071 C 
ATOM     13  N   UNL A   1      32.812  25.800  25.843  1.00  0.00    -0.176 NA
ATOM     14  C   UNL A   1      32.845  25.777  23.467  1.00  0.00     0.091 C 
ATOM     15  C   UNL A   1      32.672  27.222  23.948  1.00  0.00     0.144 C 
BRANCH  12  16
ATOM     16  C   UNL A   1      32.910  23.574  24.859  1.00  0.00    -0.002 A 
ATOM     17  C   UNL A   1      33.081  20.787  24.843  1.00  0.00     0.067 A 
ATOM     18  C   UNL A   1      32.534  21.456  23.744  1.00  0.00     0.021 A 
ATOM     19  C   UNL A   1      33.523  21.502  25.961  1.00  0.00     0.021 A 
ATOM     20  C   UNL A   1      32.443  22.847  23.757  1.00  0.00     0.011 A 
ATOM     21  C   UNL A   1      33.440  22.902  25.966  1.00  0.00     0.011 A 
BRANCH  17  22
ATOM     22  S   UNL A   1      33.224  19.017  24.756  1.00  0.00     0.175 S 
ATOM     23  C   UNL A   1      32.405  18.510  23.272  1.00  0.00     0.163 C 
ATOM     24  O   UNL A   1      32.479  18.493  25.884  1.00  0.00    -0.224 OA
ATOM     25  O   UNL A   1      34.634  18.716  24.583  1.00  0.00    -0.224 OA
ENDBRANCH  17  22
ENDBRANCH  12  16
BRANCH  15  26
ATOM     26  C   UNL A   1      31.444  28.004  23.505  1.00  0.00    -0.023 A 
ATOM     27  C   UNL A   1      31.504  29.143  22.690  1.00  0.00     0.007 A 
ATOM     28  C   UNL A   1      30.171  27.481  23.820  1.00  0.00     0.007 A 
ATOM     29  C   UNL A   1      30.332  29.734  22.202  1.00  0.00     0.021 A 
ATOM     30  C   UNL A   1      29.004  28.051  23.309  1.00  0.00     0.021 A 
ATOM     31  C   UNL A   1      29.090  29.177  22.501  1.00  0.00     0.041 A 
ATOM     32  Cl  UNL A   1      27.659  29.868  21.843  1.00  0.00    -0.084 Cl
ENDBRANCH  15  26
ENDBRANCH   6  11
ENDBRANCH   3   5
ENDBRANCH   2   3
ENDBRANCH   1   2
BRANCH   1  33
ATOM     33  C   UNL A   1      34.405  33.664  30.801  1.00  0.00     0.275 C 
BRANCH  33  34
ATOM     34  O   UNL A   1      34.589  32.316  31.273  1.00  0.00    -0.458 OA
BRANCH  34  35
ATOM     35  C   UNL A   1      35.579  32.138  32.177  1.00  0.00     0.338 C 
ATOM     36  O   UNL A   1      35.583  32.451  33.354  1.00  0.00    -0.246 OA
BRANCH  35  37
ATOM     37  C   UNL A   1      36.712  31.462  31.526  1.00  0.00     0.060 A 
ATOM     38  C   UNL A   1      37.620  30.757  32.311  1.00  0.00     0.016 A 
ATOM     39  C   UNL A   1      36.945  31.629  30.163  1.00  0.00     0.016 A 
ATOM     40  C   UNL A   1      38.798  30.265  31.756  1.00  0.00     0.010 A 
ATOM     41  C   UNL A   1      38.092  31.067  29.589  1.00  0.00     0.010 A 
ATOM     42  C   UNL A   1      39.046  30.404  30.384  1.00  0.00    -0.014 A 
BRANCH  42  43
ATOM     43  C   UNL A   1      40.319  29.901  29.796  1.00  0.00     0.031 A 
ATOM     44  C   UNL A   1      41.505  30.820  29.663  1.00  0.00     0.074 A 
ATOM     45  C   UNL A   1      40.431  28.617  29.398  1.00  0.00     0.049 A 
ATOM     46  N   UNL A   1      42.637  30.627  29.033  1.00  0.00    -0.248 NA
ATOM     47  C   UNL A   1      41.399  32.133  30.317  1.00  0.00     0.031 C 
ATOM     48  C   UNL A   1      39.386  27.599  29.514  1.00  0.00     0.029 A 
ATOM     49  N   UNL A   1      41.481  27.949  28.819  1.00  0.00    -0.354 N 
ATOM     50  C   UNL A   1      43.352  31.811  29.167  1.00  0.00     0.074 A 
ATOM     51  C   UNL A   1      42.525  32.717  29.936  1.00  0.00     0.031 C 
ATOM     52  C   UNL A   1      39.858  26.430  29.056  1.00  0.00     0.029 A 
ATOM     53  C   UNL A   1      41.206  26.632  28.538  1.00  0.00     0.049 A 
ATOM     54  H   UNL A   1      42.349  28.372  28.625  1.00  0.00     0.167 HD
ATOM     55  C   UNL A   1      44.583  32.115  28.691  1.00  0.00     0.037 A 
ATOM     56  C   UNL A   1      41.938  25.700  27.897  1.00  0.00     0.037 A 
ATOM     57  C   UNL A   1      45.428  31.196  27.972  1.00  0.00     0.049 A 
ATOM     58  C   UNL A   1      43.285  26.071  27.346  1.00  0.00     0.074 A 
ATOM     59  C   UNL A   1      46.697  31.408  27.462  1.00  0.00     0.029 A 
ATOM     60  N   UNL A   1      45.094  29.884  27.676  1.00  0.00    -0.354 N 
ATOM     61  N   UNL A   1      43.925  27.211  27.427  1.00  0.00    -0.248 NA
ATOM     62  C   UNL A   1      44.000  25.031  26.592  1.00  0.00     0.031 C 
ATOM     63  C   UNL A   1      47.118  30.233  26.829  1.00  0.00     0.029 A 
ATOM     64  C   UNL A   1      46.126  29.277  26.980  1.00  0.00     0.049 A 
ATOM     65  H   UNL A   1      44.246  29.448  27.923  1.00  0.00     0.167 HD
ATOM     66  C   UNL A   1      45.119  27.026  26.744  1.00  0.00     0.074 A 
ATOM     67  C   UNL A   1      45.124  25.656  26.273  1.00  0.00     0.031 C 
ATOM     68  C   UNL A   1      46.118  27.914  26.519  1.00  0.00     0.037 A 
BRANCH  55  69
ATOM     69  C   UNL A   1      45.081  33.515  28.905  1.00  0.00     0.057 A 
ATOM     70  C   UNL A   1      45.860  33.870  30.012  1.00  0.00     0.134 A 
ATOM     71  C   UNL A   1      44.793  34.518  27.968  1.00  0.00     0.134 A 
ATOM     72  F   UNL A   1      46.160  32.962  30.951  1.00  0.00    -0.206 F 
ATOM     73  C   UNL A   1      46.315  35.178  30.194  1.00  0.00     0.040 A 
ATOM     74  C   UNL A   1      45.264  35.822  28.125  1.00  0.00     0.040 A 
ATOM     75  F   UNL A   1      44.059  34.243  26.880  1.00  0.00    -0.206 F 
ATOM     76  C   UNL A   1      46.023  36.157  29.245  1.00  0.00     0.006 A 
ENDBRANCH  55  69
BRANCH  56  77
ATOM     77  C   UNL A   1      41.390  24.332  27.707  1.00  0.00     0.057 A 
ATOM     78  C   UNL A   1      41.857  23.256  28.469  1.00  0.00     0.134 A 
ATOM     79  C   UNL A   1      40.388  24.072  26.766  1.00  0.00     0.134 A 
ATOM     80  F   UNL A   1      42.835  23.437  29.368  1.00  0.00    -0.206 F 
ATOM     81  C   UNL A   1      41.348  21.967  28.298  1.00  0.00     0.040 A 
ATOM     82  C   UNL A   1      39.850  22.794  26.604  1.00  0.00     0.040 A 
ATOM     83  F   UNL A   1      39.900  25.062  26.004  1.00  0.00    -0.206 F 
ATOM     84  C   UNL A   1      40.334  21.736  27.369  1.00  0.00     0.006 A 
ENDBRANCH  56  77
BRANCH  68  85
ATOM     85  C   UNL A   1      47.308  27.420  25.753  1.00  0.00     0.057 A 
ATOM     86  C   UNL A   1      48.377  26.777  26.387  1.00  0.00     0.134 A 
ATOM     87  C   UNL A   1      47.372  27.568  24.362  1.00  0.00     0.134 A 
ATOM     88  F   UNL A   1      48.382  26.618  27.719  1.00  0.00    -0.206 F 
ATOM     89  C   UNL A   1      49.481  26.316  25.666  1.00  0.00     0.040 A 
ATOM     90  C   UNL A   1      48.459  27.092  23.628  1.00  0.00     0.040 A 
ATOM     91  F   UNL A   1      46.377  28.171  23.693  1.00  0.00    -0.206 F 
ATOM     92  C   UNL A   1      49.520  26.469  24.282  1.00  0.00     0.006 A 
ENDBRANCH  68  85
ENDBRANCH  42  43
ENDBRANCH  35  37
ENDBRANCH  34  35
ENDBRANCH  33  34
ENDBRANCH   1  33
TORSDOF 15
ENDMDL
