MODEL 1
REMARK VINA RESULT:     -12.2      0.000      0.000
REMARK SMILES NS(=O)(=O)c1ccc(C#Cc2cc(Cl)cc3c2O[C@H](C(F)(F)F)C(C(=O)OCCOC(=O)c2ccc(-c4c5nc(c(-c6c(F)cccc6F)c6ccc([nH]6)c(-c6c(F)cccc6F)c6nc(c(-c7c(F)cccc7F)c7ccc4[nH]7)C=C6)C=C5)cc2)=C3)cc1
REMARK SMILES IDX 28 1 27 2 25 3 26 4 24 5 11 6 12 7 17 8 13 9 16 10 18 11
REMARK SMILES IDX 14 12 15 13 87 14 19 15 10 16 9 17 8 18 5 19 6 20 89 21 7 22
REMARK SMILES IDX 88 23 2 24 3 25 4 26 1 27 20 30 21 31 22 32 23 33 29 34
REMARK SMILES IDX 30 35 31 36 32 37 33 38 34 39 86 40 35 41 85 42 36 43 37 44
REMARK SMILES IDX 38 45 79 46 39 47 84 48 78 49 80 50 40 51 83 52 77 53 76 54
REMARK SMILES IDX 41 56 67 57 50 58 66 59 51 60 54 61 65 62 81 63 52 64 53 65
REMARK SMILES IDX 64 67 82 68 55 69 42 70 43 71 48 72 44 73 45 74 47 75 49 76
REMARK SMILES IDX 46 77 68 78 69 79 74 80 70 81 71 82 73 83 75 84 72 85 56 86
REMARK SMILES IDX 57 87 62 88 58 89 59 90 61 91 63 92 60 93
REMARK H PARENT 1 28 1 29 80 55 54 66
REMARK Flexibility Score: inf
ROOT
ATOM      1  C   UNL A   1      30.651  31.381  25.385  1.00  0.00     0.275 C 
ENDROOT
BRANCH   1   2
ATOM      2  O   UNL A   1      31.132  30.026  25.547  1.00  0.00    -0.459 OA
BRANCH   2   3
ATOM      3  C   UNL A   1      31.110  29.256  24.433  1.00  0.00     0.338 C 
ATOM      4  O   UNL A   1      30.806  29.620  23.307  1.00  0.00    -0.246 OA
BRANCH   3   5
ATOM      5  C   UNL A   1      31.542  27.875  24.737  1.00  0.00     0.087 C 
ATOM      6  C   UNL A   1      32.764  24.086  26.033  1.00  0.00     0.069 A 
ATOM      7  C   UNL A   1      31.820  23.204  26.578  1.00  0.00     0.041 A 
ATOM      8  C   UNL A   1      32.378  25.340  25.546  1.00  0.00     0.143 A 
ATOM      9  C   UNL A   1      30.479  23.564  26.610  1.00  0.00     0.043 A 
ATOM     10  C   UNL A   1      31.034  25.686  25.598  1.00  0.00     0.020 A 
ATOM     11  O   UNL A   1      33.339  26.172  25.029  1.00  0.00    -0.474 OA
ATOM     12  Cl  UNL A   1      29.316  22.494  27.286  1.00  0.00    -0.084 Cl
ATOM     13  C   UNL A   1      30.078  24.798  26.113  1.00  0.00     0.032 A 
ATOM     14  C   UNL A   1      30.623  26.999  25.157  1.00  0.00     0.027 C 
ATOM     15  C   UNL A   1      33.007  27.558  24.724  1.00  0.00     0.316 C 
BRANCH   6  16
ATOM     16  C   UNL A   1      34.131  23.695  26.028  1.00  0.00    -0.058 C 
ATOM     17  C   UNL A   1      35.267  23.307  26.014  1.00  0.00    -0.062 C 
BRANCH  17  18
ATOM     18  C   UNL A   1      36.577  22.758  25.981  1.00  0.00     0.025 A 
ATOM     19  C   UNL A   1      39.104  21.624  26.083  1.00  0.00     0.082 A 
ATOM     20  C   UNL A   1      38.925  22.944  26.510  1.00  0.00     0.023 A 
ATOM     21  C   UNL A   1      38.034  20.881  25.577  1.00  0.00     0.023 A 
ATOM     22  C   UNL A   1      37.653  23.511  26.458  1.00  0.00     0.018 A 
ATOM     23  C   UNL A   1      36.764  21.451  25.530  1.00  0.00     0.018 A 
BRANCH  19  24
ATOM     24  S   UNL A   1      40.683  20.842  26.165  1.00  0.00     0.238 S 
ATOM     25  O   UNL A   1      41.666  21.737  25.600  1.00  0.00    -0.207 OA
ATOM     26  O   UNL A   1      40.531  19.472  25.736  1.00  0.00    -0.207 OA
BRANCH  24  27
ATOM     27  N   UNL A   1      41.039  20.772  27.805  1.00  0.00    -0.225 NA
ATOM     28  H   UNL A   1      40.228  21.078  28.343  1.00  0.00     0.137 HD
ATOM     29  H   UNL A   1      41.831  21.382  28.008  1.00  0.00     0.137 HD
ENDBRANCH  24  27
ENDBRANCH  19  24
ENDBRANCH  17  18
ENDBRANCH   6  16
BRANCH  15  30
ATOM     30  C   UNL A   1      33.767  28.485  25.688  1.00  0.00     0.430 C 
ATOM     31  F   UNL A   1      35.011  28.023  25.946  1.00  0.00    -0.167 F 
ATOM     32  F   UNL A   1      33.916  29.728  25.168  1.00  0.00    -0.167 F 
ATOM     33  F   UNL A   1      33.124  28.620  26.871  1.00  0.00    -0.167 F 
ENDBRANCH  15  30
ENDBRANCH   3   5
ENDBRANCH   2   3
ENDBRANCH   1   2
BRANCH   1  34
ATOM     34  C   UNL A   1      31.118  32.286  26.528  1.00  0.00     0.275 C 
BRANCH  34  35
ATOM     35  O   UNL A   1      32.478  32.000  26.900  1.00  0.00    -0.458 OA
BRANCH  35  36
ATOM     36  C   UNL A   1      33.102  32.998  27.561  1.00  0.00     0.338 C 
ATOM     37  O   UNL A   1      32.647  34.086  27.874  1.00  0.00    -0.246 OA
BRANCH  36  38
ATOM     38  C   UNL A   1      34.412  32.535  28.024  1.00  0.00     0.060 A 
ATOM     39  C   UNL A   1      35.494  33.388  28.174  1.00  0.00     0.016 A 
ATOM     40  C   UNL A   1      34.494  31.228  28.479  1.00  0.00     0.016 A 
ATOM     41  C   UNL A   1      36.658  32.891  28.770  1.00  0.00     0.010 A 
ATOM     42  C   UNL A   1      35.556  30.807  29.258  1.00  0.00     0.010 A 
ATOM     43  C   UNL A   1      36.691  31.606  29.356  1.00  0.00    -0.014 A 
BRANCH  43  44
ATOM     44  C   UNL A   1      37.912  31.074  30.019  1.00  0.00     0.031 A 
ATOM     45  C   UNL A   1      38.217  31.403  31.465  1.00  0.00     0.074 A 
ATOM     46  C   UNL A   1      38.758  30.297  29.314  1.00  0.00     0.049 A 
ATOM     47  N   UNL A   1      39.196  30.969  32.222  1.00  0.00    -0.248 NA
ATOM     48  C   UNL A   1      37.338  32.371  32.146  1.00  0.00     0.031 C 
ATOM     49  C   UNL A   1      38.633  29.987  27.888  1.00  0.00     0.029 A 
ATOM     50  N   UNL A   1      39.871  29.600  29.707  1.00  0.00    -0.354 N 
ATOM     51  C   UNL A   1      39.045  31.613  33.446  1.00  0.00     0.074 A 
ATOM     52  C   UNL A   1      37.955  32.545  33.303  1.00  0.00     0.031 C 
ATOM     53  C   UNL A   1      39.569  29.088  27.549  1.00  0.00     0.029 A 
ATOM     54  C   UNL A   1      40.398  28.807  28.715  1.00  0.00     0.049 A 
ATOM     55  H   UNL A   1      40.256  29.662  30.610  1.00  0.00     0.167 HD
ATOM     56  C   UNL A   1      39.714  31.412  34.607  1.00  0.00     0.037 A 
ATOM     57  C   UNL A   1      41.429  27.943  28.747  1.00  0.00     0.037 A 
ATOM     58  C   UNL A   1      40.786  30.467  34.753  1.00  0.00     0.049 A 
ATOM     59  C   UNL A   1      42.174  27.756  30.040  1.00  0.00     0.074 A 
ATOM     60  C   UNL A   1      41.500  30.140  35.892  1.00  0.00     0.029 A 
ATOM     61  N   UNL A   1      41.307  29.706  33.718  1.00  0.00    -0.354 N 
ATOM     62  N   UNL A   1      41.948  28.294  31.215  1.00  0.00    -0.248 NA
ATOM     63  C   UNL A   1      43.321  26.838  30.009  1.00  0.00     0.031 C 
ATOM     64  C   UNL A   1      42.497  29.229  35.531  1.00  0.00     0.029 A 
ATOM     65  C   UNL A   1      42.360  28.938  34.183  1.00  0.00     0.049 A 
ATOM     66  H   UNL A   1      40.978  29.713  32.790  1.00  0.00     0.167 HD
ATOM     67  C   UNL A   1      42.910  27.766  32.066  1.00  0.00     0.074 A 
ATOM     68  C   UNL A   1      43.699  26.840  31.278  1.00  0.00     0.031 C 
ATOM     69  C   UNL A   1      43.132  28.026  33.378  1.00  0.00     0.037 A 
BRANCH  56  70
ATOM     70  C   UNL A   1      39.289  32.221  35.803  1.00  0.00     0.057 A 
ATOM     71  C   UNL A   1      38.349  31.720  36.712  1.00  0.00     0.134 A 
ATOM     72  C   UNL A   1      39.806  33.500  36.055  1.00  0.00     0.134 A 
ATOM     73  F   UNL A   1      37.801  30.509  36.530  1.00  0.00    -0.206 F 
ATOM     74  C   UNL A   1      37.947  32.455  37.830  1.00  0.00     0.040 A 
ATOM     75  C   UNL A   1      39.441  34.230  37.189  1.00  0.00     0.040 A 
ATOM     76  F   UNL A   1      40.717  34.042  35.231  1.00  0.00    -0.206 F 
ATOM     77  C   UNL A   1      38.503  33.708  38.078  1.00  0.00     0.006 A 
ENDBRANCH  56  70
BRANCH  57  78
ATOM     78  C   UNL A   1      41.811  27.179  27.532  1.00  0.00     0.057 A 
ATOM     79  C   UNL A   1      41.339  25.880  27.306  1.00  0.00     0.134 A 
ATOM     80  C   UNL A   1      42.631  27.744  26.547  1.00  0.00     0.134 A 
ATOM     81  F   UNL A   1      40.562  25.274  28.217  1.00  0.00    -0.206 F 
ATOM     82  C   UNL A   1      41.663  25.173  26.149  1.00  0.00     0.040 A 
ATOM     83  C   UNL A   1      42.935  27.061  25.367  1.00  0.00     0.040 A 
ATOM     84  F   UNL A   1      43.108  28.987  26.697  1.00  0.00    -0.206 F 
ATOM     85  C   UNL A   1      42.451  25.770  25.167  1.00  0.00     0.006 A 
ENDBRANCH  57  78
BRANCH  69  86
ATOM     86  C   UNL A   1      44.254  27.282  34.041  1.00  0.00     0.057 A 
ATOM     87  C   UNL A   1      44.030  26.033  34.633  1.00  0.00     0.134 A 
ATOM     88  C   UNL A   1      45.548  27.811  34.118  1.00  0.00     0.134 A 
ATOM     89  F   UNL A   1      42.809  25.475  34.609  1.00  0.00    -0.206 F 
ATOM     90  C   UNL A   1      45.052  25.335  35.275  1.00  0.00     0.040 A 
ATOM     91  C   UNL A   1      46.589  27.107  34.725  1.00  0.00     0.040 A 
ATOM     92  F   UNL A   1      45.832  28.999  33.563  1.00  0.00    -0.206 F 
ATOM     93  C   UNL A   1      46.340  25.868  35.313  1.00  0.00     0.006 A 
ENDBRANCH  69  86
ENDBRANCH  43  44
ENDBRANCH  36  38
ENDBRANCH  35  36
ENDBRANCH  34  35
ENDBRANCH   1  34
TORSDOF 16
ENDMDL
MODEL 2
REMARK VINA RESULT:     -11.9      4.179      9.710
REMARK SMILES NS(=O)(=O)c1ccc(C#Cc2cc(Cl)cc3c2O[C@H](C(F)(F)F)C(C(=O)OCCOC(=O)c2ccc(-c4c5nc(c(-c6c(F)cccc6F)c6ccc([nH]6)c(-c6c(F)cccc6F)c6nc(c(-c7c(F)cccc7F)c7ccc4[nH]7)C=C6)C=C5)cc2)=C3)cc1
REMARK SMILES IDX 28 1 27 2 25 3 26 4 24 5 11 6 12 7 17 8 13 9 16 10 18 11
REMARK SMILES IDX 14 12 15 13 87 14 19 15 10 16 9 17 8 18 5 19 6 20 89 21 7 22
REMARK SMILES IDX 88 23 2 24 3 25 4 26 1 27 20 30 21 31 22 32 23 33 29 34
REMARK SMILES IDX 30 35 31 36 32 37 33 38 34 39 86 40 35 41 85 42 36 43 37 44
REMARK SMILES IDX 38 45 79 46 39 47 84 48 78 49 80 50 40 51 83 52 77 53 76 54
REMARK SMILES IDX 41 56 67 57 50 58 66 59 51 60 54 61 65 62 81 63 52 64 53 65
REMARK SMILES IDX 64 67 82 68 55 69 42 70 43 71 48 72 44 73 45 74 47 75 49 76
REMARK SMILES IDX 46 77 68 78 69 79 74 80 70 81 71 82 73 83 75 84 72 85 56 86
REMARK SMILES IDX 57 87 62 88 58 89 59 90 61 91 63 92 60 93
REMARK H PARENT 1 28 1 29 80 55 54 66
REMARK Flexibility Score: inf
ROOT
ATOM      1  C   UNL A   1      36.275  19.474  25.026  1.00  0.00     0.275 C 
ENDROOT
BRANCH   1   2
ATOM      2  O   UNL A   1      35.374  20.361  24.323  1.00  0.00    -0.459 OA
BRANCH   2   3
ATOM      3  C   UNL A   1      34.280  20.759  25.015  1.00  0.00     0.338 C 
ATOM      4  O   UNL A   1      33.674  20.105  25.850  1.00  0.00    -0.246 OA
BRANCH   3   5
ATOM      5  C   UNL A   1      33.900  22.141  24.654  1.00  0.00     0.087 C 
ATOM      6  C   UNL A   1      33.231  26.091  23.437  1.00  0.00     0.069 A 
ATOM      7  C   UNL A   1      32.890  26.355  22.103  1.00  0.00     0.041 A 
ATOM      8  C   UNL A   1      33.413  24.778  23.886  1.00  0.00     0.143 A 
ATOM      9  C   UNL A   1      32.700  25.302  21.219  1.00  0.00     0.043 A 
ATOM     10  C   UNL A   1      33.230  23.738  22.983  1.00  0.00     0.020 A 
ATOM     11  O   UNL A   1      33.755  24.570  25.198  1.00  0.00    -0.474 OA
ATOM     12  Cl  UNL A   1      32.293  25.615  19.579  1.00  0.00    -0.084 Cl
ATOM     13  C   UNL A   1      32.858  23.992  21.655  1.00  0.00     0.032 A 
ATOM     14  C   UNL A   1      33.472  22.380  23.410  1.00  0.00     0.027 C 
ATOM     15  C   UNL A   1      34.166  23.242  25.636  1.00  0.00     0.316 C 
BRANCH   6  16
ATOM     16  C   UNL A   1      33.434  27.192  24.315  1.00  0.00    -0.058 C 
ATOM     17  C   UNL A   1      33.544  28.134  25.051  1.00  0.00    -0.062 C 
BRANCH  17  18
ATOM     18  C   UNL A   1      33.579  29.261  25.915  1.00  0.00     0.025 A 
ATOM     19  C   UNL A   1      33.737  31.548  27.472  1.00  0.00     0.082 A 
ATOM     20  C   UNL A   1      34.740  30.579  27.571  1.00  0.00     0.023 A 
ATOM     21  C   UNL A   1      32.642  31.366  26.623  1.00  0.00     0.023 A 
ATOM     22  C   UNL A   1      34.657  29.430  26.787  1.00  0.00     0.018 A 
ATOM     23  C   UNL A   1      32.566  30.217  25.839  1.00  0.00     0.018 A 
BRANCH  19  24
ATOM     24  S   UNL A   1      33.811  33.041  28.410  1.00  0.00     0.238 S 
ATOM     25  O   UNL A   1      34.186  32.710  29.765  1.00  0.00    -0.207 OA
ATOM     26  O   UNL A   1      32.649  33.834  28.088  1.00  0.00    -0.207 OA
BRANCH  24  27
ATOM     27  N   UNL A   1      35.126  33.876  27.779  1.00  0.00    -0.225 NA
ATOM     28  H   UNL A   1      35.055  34.862  28.029  1.00  0.00     0.137 HD
ATOM     29  H   UNL A   1      35.132  33.782  26.763  1.00  0.00     0.137 HD
ENDBRANCH  24  27
ENDBRANCH  19  24
ENDBRANCH  17  18
ENDBRANCH   6  16
BRANCH  15  30
ATOM     30  C   UNL A   1      35.656  23.273  26.018  1.00  0.00     0.430 C 
ATOM     31  F   UNL A   1      36.450  23.065  24.943  1.00  0.00    -0.167 F 
ATOM     32  F   UNL A   1      36.012  24.475  26.535  1.00  0.00    -0.167 F 
ATOM     33  F   UNL A   1      35.961  22.333  26.943  1.00  0.00    -0.167 F 
ENDBRANCH  15  30
ENDBRANCH   3   5
ENDBRANCH   2   3
ENDBRANCH   1   2
BRANCH   1  34
ATOM     34  C   UNL A   1      37.739  19.853  24.790  1.00  0.00     0.275 C 
BRANCH  34  35
ATOM     35  O   UNL A   1      38.194  20.816  25.757  1.00  0.00    -0.458 OA
BRANCH  35  36
ATOM     36  C   UNL A   1      39.449  20.609  26.209  1.00  0.00     0.338 C 
ATOM     37  O   UNL A   1      40.138  19.612  26.069  1.00  0.00    -0.246 OA
BRANCH  36  38
ATOM     38  C   UNL A   1      39.975  21.850  26.782  1.00  0.00     0.060 A 
ATOM     39  C   UNL A   1      41.028  21.869  27.682  1.00  0.00     0.016 A 
ATOM     40  C   UNL A   1      39.493  23.039  26.257  1.00  0.00     0.016 A 
ATOM     41  C   UNL A   1      41.566  23.105  28.054  1.00  0.00     0.010 A 
ATOM     42  C   UNL A   1      40.163  24.233  26.456  1.00  0.00     0.010 A 
ATOM     43  C   UNL A   1      41.167  24.301  27.416  1.00  0.00    -0.014 A 
BRANCH  43  44
ATOM     44  C   UNL A   1      41.750  25.620  27.780  1.00  0.00     0.031 A 
ATOM     45  C   UNL A   1      43.122  26.027  27.286  1.00  0.00     0.074 A 
ATOM     46  C   UNL A   1      41.045  26.456  28.568  1.00  0.00     0.049 A 
ATOM     47  N   UNL A   1      43.755  27.164  27.447  1.00  0.00    -0.248 NA
ATOM     48  C   UNL A   1      43.910  25.021  26.550  1.00  0.00     0.031 C 
ATOM     49  C   UNL A   1      39.756  26.146  29.192  1.00  0.00     0.029 A 
ATOM     50  N   UNL A   1      41.296  27.748  28.953  1.00  0.00    -0.354 N 
ATOM     51  C   UNL A   1      44.996  26.999  26.840  1.00  0.00     0.074 A 
ATOM     52  C   UNL A   1      45.077  25.627  26.406  1.00  0.00     0.031 C 
ATOM     53  C   UNL A   1      39.285  27.246  29.798  1.00  0.00     0.029 A 
ATOM     54  C   UNL A   1      40.264  28.318  29.660  1.00  0.00     0.049 A 
ATOM     55  H   UNL A   1      42.132  28.221  28.743  1.00  0.00     0.167 HD
ATOM     56  C   UNL A   1      45.965  27.917  26.611  1.00  0.00     0.037 A 
ATOM     57  C   UNL A   1      40.121  29.568  30.136  1.00  0.00     0.037 A 
ATOM     58  C   UNL A   1      45.875  29.290  27.026  1.00  0.00     0.049 A 
ATOM     59  C   UNL A   1      41.221  30.563  29.893  1.00  0.00     0.074 A 
ATOM     60  C   UNL A   1      46.769  30.320  26.803  1.00  0.00     0.029 A 
ATOM     61  N   UNL A   1      44.827  29.817  27.765  1.00  0.00    -0.354 N 
ATOM     62  N   UNL A   1      42.341  30.418  29.224  1.00  0.00    -0.248 NA
ATOM     63  C   UNL A   1      41.038  31.900  30.474  1.00  0.00     0.031 C 
ATOM     64  C   UNL A   1      46.293  31.457  27.463  1.00  0.00     0.029 A 
ATOM     65  C   UNL A   1      45.070  31.152  28.039  1.00  0.00     0.049 A 
ATOM     66  H   UNL A   1      44.029  29.317  28.052  1.00  0.00     0.167 HD
ATOM     67  C   UNL A   1      42.983  31.647  29.287  1.00  0.00     0.074 A 
ATOM     68  C   UNL A   1      42.111  32.535  30.030  1.00  0.00     0.031 C 
ATOM     69  C   UNL A   1      44.189  32.013  28.785  1.00  0.00     0.037 A 
BRANCH  56  70
ATOM     70  C   UNL A   1      47.192  27.461  25.869  1.00  0.00     0.057 A 
ATOM     71  C   UNL A   1      48.289  26.923  26.555  1.00  0.00     0.134 A 
ATOM     72  C   UNL A   1      47.294  27.557  24.473  1.00  0.00     0.134 A 
ATOM     73  F   UNL A   1      48.269  26.811  27.892  1.00  0.00    -0.206 F 
ATOM     74  C   UNL A   1      49.433  26.490  25.881  1.00  0.00     0.040 A 
ATOM     75  C   UNL A   1      48.418  27.093  23.785  1.00  0.00     0.040 A 
ATOM     76  F   UNL A   1      46.280  28.055  23.748  1.00  0.00    -0.206 F 
ATOM     77  C   UNL A   1      49.495  26.562  24.492  1.00  0.00     0.006 A 
ENDBRANCH  56  70
BRANCH  57  78
ATOM     78  C   UNL A   1      38.891  29.959  30.872  1.00  0.00     0.057 A 
ATOM     79  C   UNL A   1      37.741  30.391  30.199  1.00  0.00     0.134 A 
ATOM     80  C   UNL A   1      38.824  29.878  32.268  1.00  0.00     0.134 A 
ATOM     81  F   UNL A   1      37.743  30.506  28.862  1.00  0.00    -0.206 F 
ATOM     82  C   UNL A   1      36.572  30.722  30.883  1.00  0.00     0.040 A 
ATOM     83  C   UNL A   1      37.649  30.172  32.964  1.00  0.00     0.040 A 
ATOM     84  F   UNL A   1      39.886  29.463  32.973  1.00  0.00    -0.206 F 
ATOM     85  C   UNL A   1      36.519  30.597  32.269  1.00  0.00     0.006 A 
ENDBRANCH  57  78
BRANCH  69  86
ATOM     86  C   UNL A   1      44.617  33.434  29.006  1.00  0.00     0.057 A 
ATOM     87  C   UNL A   1      44.278  34.433  28.084  1.00  0.00     0.134 A 
ATOM     88  C   UNL A   1      45.387  33.811  30.114  1.00  0.00     0.134 A 
ATOM     89  F   UNL A   1      43.555  34.138  26.993  1.00  0.00    -0.206 F 
ATOM     90  C   UNL A   1      44.686  35.755  28.258  1.00  0.00     0.040 A 
ATOM     91  C   UNL A   1      45.770  35.136  30.318  1.00  0.00     0.040 A 
ATOM     92  F   UNL A   1      45.738  32.904  31.039  1.00  0.00    -0.206 F 
ATOM     93  C   UNL A   1      45.425  36.112  29.384  1.00  0.00     0.006 A 
ENDBRANCH  69  86
ENDBRANCH  43  44
ENDBRANCH  36  38
ENDBRANCH  35  36
ENDBRANCH  34  35
ENDBRANCH   1  34
TORSDOF 16
ENDMDL
MODEL 3
REMARK VINA RESULT:     -11.8      5.243     11.068
REMARK SMILES NS(=O)(=O)c1ccc(C#Cc2cc(Cl)cc3c2O[C@H](C(F)(F)F)C(C(=O)OCCOC(=O)c2ccc(-c4c5nc(c(-c6c(F)cccc6F)c6ccc([nH]6)c(-c6c(F)cccc6F)c6nc(c(-c7c(F)cccc7F)c7ccc4[nH]7)C=C6)C=C5)cc2)=C3)cc1
REMARK SMILES IDX 28 1 27 2 25 3 26 4 24 5 11 6 12 7 17 8 13 9 16 10 18 11
REMARK SMILES IDX 14 12 15 13 87 14 19 15 10 16 9 17 8 18 5 19 6 20 89 21 7 22
REMARK SMILES IDX 88 23 2 24 3 25 4 26 1 27 20 30 21 31 22 32 23 33 29 34
REMARK SMILES IDX 30 35 31 36 32 37 33 38 34 39 86 40 35 41 85 42 36 43 37 44
REMARK SMILES IDX 38 45 79 46 39 47 84 48 78 49 80 50 40 51 83 52 77 53 76 54
REMARK SMILES IDX 41 56 67 57 50 58 66 59 51 60 54 61 65 62 81 63 52 64 53 65
REMARK SMILES IDX 64 67 82 68 55 69 42 70 43 71 48 72 44 73 45 74 47 75 49 76
REMARK SMILES IDX 46 77 68 78 69 79 74 80 70 81 71 82 73 83 75 84 72 85 56 86
REMARK SMILES IDX 57 87 62 88 58 89 59 90 61 91 63 92 60 93
REMARK H PARENT 1 28 1 29 80 55 54 66
REMARK Flexibility Score: inf
ROOT
ATOM      1  C   UNL A   1      34.446  34.814  28.817  1.00  0.00     0.275 C 
ENDROOT
BRANCH   1   2
ATOM      2  O   UNL A   1      34.151  34.737  30.231  1.00  0.00    -0.459 OA
BRANCH   2   3
ATOM      3  C   UNL A   1      34.704  33.693  30.892  1.00  0.00     0.338 C 
ATOM      4  O   UNL A   1      34.269  32.553  30.939  1.00  0.00    -0.246 OA
BRANCH   3   5
ATOM      5  C   UNL A   1      35.962  34.096  31.556  1.00  0.00     0.087 C 
ATOM      6  C   UNL A   1      39.594  34.800  33.518  1.00  0.00     0.069 A 
ATOM      7  C   UNL A   1      40.800  34.565  32.844  1.00  0.00     0.041 A 
ATOM      8  C   UNL A   1      38.364  34.622  32.874  1.00  0.00     0.143 A 
ATOM      9  C   UNL A   1      40.781  34.178  31.511  1.00  0.00     0.043 A 
ATOM     10  C   UNL A   1      38.365  34.222  31.543  1.00  0.00     0.020 A 
ATOM     11  O   UNL A   1      37.210  34.856  33.576  1.00  0.00    -0.474 OA
ATOM     12  Cl  UNL A   1      42.254  33.876  30.679  1.00  0.00    -0.084 Cl
ATOM     13  C   UNL A   1      39.568  34.015  30.852  1.00  0.00     0.032 A 
ATOM     14  C   UNL A   1      37.108  33.973  30.877  1.00  0.00     0.027 C 
ATOM     15  C   UNL A   1      35.926  34.467  33.008  1.00  0.00     0.316 C 
BRANCH   6  16
ATOM     16  C   UNL A   1      39.646  35.181  34.887  1.00  0.00    -0.058 C 
ATOM     17  C   UNL A   1      39.704  35.444  36.057  1.00  0.00    -0.062 C 
BRANCH  17  18
ATOM     18  C   UNL A   1      39.799  35.662  37.457  1.00  0.00     0.025 A 
ATOM     19  C   UNL A   1      39.845  36.202  40.176  1.00  0.00     0.082 A 
ATOM     20  C   UNL A   1      40.621  36.977  39.308  1.00  0.00     0.023 A 
ATOM     21  C   UNL A   1      39.071  35.141  39.696  1.00  0.00     0.023 A 
ATOM     22  C   UNL A   1      40.596  36.703  37.942  1.00  0.00     0.018 A 
ATOM     23  C   UNL A   1      39.047  34.874  38.329  1.00  0.00     0.018 A 
BRANCH  19  24
ATOM     24  S   UNL A   1      39.806  36.530  41.909  1.00  0.00     0.238 S 
ATOM     25  O   UNL A   1      41.101  36.210  42.463  1.00  0.00    -0.207 OA
ATOM     26  O   UNL A   1      38.573  36.002  42.440  1.00  0.00    -0.207 OA
BRANCH  24  27
ATOM     27  N   UNL A   1      39.676  38.201  42.023  1.00  0.00    -0.225 NA
ATOM     28  H   UNL A   1      39.339  38.454  42.952  1.00  0.00     0.137 HD
ATOM     29  H   UNL A   1      39.020  38.540  41.319  1.00  0.00     0.137 HD
ENDBRANCH  24  27
ENDBRANCH  19  24
ENDBRANCH  17  18
ENDBRANCH   6  16
BRANCH  15  30
ATOM     30  C   UNL A   1      35.330  33.318  33.841  1.00  0.00     0.430 C 
ATOM     31  F   UNL A   1      35.796  32.115  33.435  1.00  0.00    -0.167 F 
ATOM     32  F   UNL A   1      35.651  33.436  35.152  1.00  0.00    -0.167 F 
ATOM     33  F   UNL A   1      33.979  33.284  33.761  1.00  0.00    -0.167 F 
ENDBRANCH  15  30
ENDBRANCH   3   5
ENDBRANCH   2   3
ENDBRANCH   1   2
BRANCH   1  34
ATOM     34  C   UNL A   1      33.970  33.564  28.071  1.00  0.00     0.275 C 
BRANCH  34  35
ATOM     35  O   UNL A   1      35.081  32.777  27.605  1.00  0.00    -0.458 OA
BRANCH  35  36
ATOM     36  C   UNL A   1      34.925  31.444  27.749  1.00  0.00     0.338 C 
ATOM     37  O   UNL A   1      34.086  30.730  27.226  1.00  0.00    -0.246 OA
BRANCH  36  38
ATOM     38  C   UNL A   1      36.042  30.901  28.526  1.00  0.00     0.060 A 
ATOM     39  C   UNL A   1      35.943  29.725  29.250  1.00  0.00     0.016 A 
ATOM     40  C   UNL A   1      37.274  31.519  28.374  1.00  0.00     0.016 A 
ATOM     41  C   UNL A   1      37.102  29.200  29.831  1.00  0.00     0.010 A 
ATOM     42  C   UNL A   1      38.443  30.888  28.760  1.00  0.00     0.010 A 
ATOM     43  C   UNL A   1      38.374  29.753  29.561  1.00  0.00    -0.014 A 
BRANCH  43  44
ATOM     44  C   UNL A   1      39.619  29.189  30.148  1.00  0.00     0.031 A 
ATOM     45  C   UNL A   1      40.359  28.058  29.464  1.00  0.00     0.074 A 
ATOM     46  C   UNL A   1      40.085  29.690  31.310  1.00  0.00     0.049 A 
ATOM     47  N   UNL A   1      41.495  27.494  29.796  1.00  0.00    -0.248 NA
ATOM     48  C   UNL A   1      39.731  27.451  28.276  1.00  0.00     0.031 C 
ATOM     49  C   UNL A   1      39.415  30.710  32.120  1.00  0.00     0.029 A 
ATOM     50  N   UNL A   1      41.245  29.435  31.993  1.00  0.00    -0.354 N 
ATOM     51  C   UNL A   1      41.702  26.479  28.867  1.00  0.00     0.074 A 
ATOM     52  C   UNL A   1      40.532  26.428  28.027  1.00  0.00     0.031 C 
ATOM     53  C   UNL A   1      40.217  31.062  33.135  1.00  0.00     0.029 A 
ATOM     54  C   UNL A   1      41.428  30.251  33.084  1.00  0.00     0.049 A 
ATOM     55  H   UNL A   1      41.885  28.735  31.729  1.00  0.00     0.167 HD
ATOM     56  C   UNL A   1      42.790  25.693  28.687  1.00  0.00     0.037 A 
ATOM     57  C   UNL A   1      42.461  30.340  33.941  1.00  0.00     0.037 A 
ATOM     58  C   UNL A   1      43.964  25.759  29.513  1.00  0.00     0.049 A 
ATOM     59  C   UNL A   1      43.647  29.439  33.739  1.00  0.00     0.074 A 
ATOM     60  C   UNL A   1      45.146  25.051  29.392  1.00  0.00     0.029 A 
ATOM     61  N   UNL A   1      44.096  26.579  30.623  1.00  0.00    -0.354 N 
ATOM     62  N   UNL A   1      43.871  28.560  32.790  1.00  0.00    -0.248 NA
ATOM     63  C   UNL A   1      44.727  29.542  34.729  1.00  0.00     0.031 C 
ATOM     64  C   UNL A   1      45.968  25.395  30.470  1.00  0.00     0.029 A 
ATOM     65  C   UNL A   1      45.326  26.366  31.221  1.00  0.00     0.049 A 
ATOM     66  H   UNL A   1      43.416  27.216  30.940  1.00  0.00     0.167 HD
ATOM     67  C   UNL A   1      45.122  28.021  33.059  1.00  0.00     0.074 A 
ATOM     68  C   UNL A   1      45.622  28.698  34.238  1.00  0.00     0.031 C 
ATOM     69  C   UNL A   1      45.798  27.049  32.398  1.00  0.00     0.037 A 
BRANCH  56  70
ATOM     70  C   UNL A   1      42.756  24.709  27.549  1.00  0.00     0.057 A 
ATOM     71  C   UNL A   1      42.289  23.403  27.741  1.00  0.00     0.134 A 
ATOM     72  C   UNL A   1      43.190  25.051  26.259  1.00  0.00     0.134 A 
ATOM     73  F   UNL A   1      41.869  23.000  28.950  1.00  0.00    -0.206 F 
ATOM     74  C   UNL A   1      42.246  22.479  26.695  1.00  0.00     0.040 A 
ATOM     75  C   UNL A   1      43.116  24.148  25.196  1.00  0.00     0.040 A 
ATOM     76  F   UNL A   1      43.642  26.287  25.998  1.00  0.00    -0.206 F 
ATOM     77  C   UNL A   1      42.647  22.855  25.415  1.00  0.00     0.006 A 
ENDBRANCH  56  70
BRANCH  57  78
ATOM     78  C   UNL A   1      42.435  31.324  35.055  1.00  0.00     0.057 A 
ATOM     79  C   UNL A   1      41.888  31.002  36.302  1.00  0.00     0.134 A 
ATOM     80  C   UNL A   1      42.989  32.601  34.907  1.00  0.00     0.134 A 
ATOM     81  F   UNL A   1      41.327  29.800  36.506  1.00  0.00    -0.206 F 
ATOM     82  C   UNL A   1      41.896  31.908  37.362  1.00  0.00     0.040 A 
ATOM     83  C   UNL A   1      43.035  33.507  35.969  1.00  0.00     0.040 A 
ATOM     84  F   UNL A   1      43.537  32.970  33.741  1.00  0.00    -0.206 F 
ATOM     85  C   UNL A   1      42.485  33.160  37.202  1.00  0.00     0.006 A 
ENDBRANCH  57  78
BRANCH  69  86
ATOM     86  C   UNL A   1      47.155  26.682  32.926  1.00  0.00     0.057 A 
ATOM     87  C   UNL A   1      48.297  27.368  32.493  1.00  0.00     0.134 A 
ATOM     88  C   UNL A   1      47.335  25.636  33.839  1.00  0.00     0.134 A 
ATOM     89  F   UNL A   1      48.198  28.371  31.608  1.00  0.00    -0.206 F 
ATOM     90  C   UNL A   1      49.569  27.028  32.952  1.00  0.00     0.040 A 
ATOM     91  C   UNL A   1      48.598  25.310  34.334  1.00  0.00     0.040 A 
ATOM     92  F   UNL A   1      46.281  24.945  34.299  1.00  0.00    -0.206 F 
ATOM     93  C   UNL A   1      49.721  26.003  33.884  1.00  0.00     0.006 A 
ENDBRANCH  69  86
ENDBRANCH  43  44
ENDBRANCH  36  38
ENDBRANCH  35  36
ENDBRANCH  34  35
ENDBRANCH   1  34
TORSDOF 16
ENDMDL
