MODEL 1
REMARK VINA RESULT:     -11.8      0.000      0.000
REMARK SMILES Cc1ccc(C)c([C@@H](C)[C@](C)(O)C(=O)OCCOC(=O)c2ccc(-c3c4nc(c(-c5c(F)cccc5F)c5ccc([nH]5)c(-c5c(F)cccc5F)c5nc(c(-c6c(F)cccc6F)c6ccc3[nH]6)C=C5)C=C4)cc2)c1
REMARK SMILES IDX 16 1 15 2 13 3 14 4 10 5 11 6 8 7 9 8 7 9 1 10 2 11 3 12
REMARK SMILES IDX 75 13 4 14 5 15 6 16 12 17 17 19 18 20 19 21 20 22 21 23
REMARK SMILES IDX 22 24 74 25 23 26 73 27 24 28 25 29 26 30 67 31 27 32 72 33
REMARK SMILES IDX 66 34 68 35 28 36 71 37 65 38 64 39 29 41 55 42 38 43 54 44
REMARK SMILES IDX 39 45 42 46 53 47 69 48 40 49 41 50 52 52 70 53 43 54 30 55
REMARK SMILES IDX 31 56 36 57 32 58 33 59 35 60 37 61 34 62 56 63 57 64 62 65
REMARK SMILES IDX 58 66 59 67 61 68 63 69 60 70 44 71 45 72 50 73 46 74 47 75
REMARK SMILES IDX 49 76 51 77 48 78
REMARK H PARENT 12 18 68 40 42 51
REMARK Flexibility Score: inf
ROOT
ATOM      1  C   UNL A   1      33.964  31.510  27.928  1.00  0.00     0.274 C 
ENDROOT
BRANCH   1   2
ATOM      2  O   UNL A   1      33.763  30.811  26.687  1.00  0.00    -0.460 OA
BRANCH   2   3
ATOM      3  C   UNL A   1      32.563  30.135  26.678  1.00  0.00     0.338 C 
ATOM      4  O   UNL A   1      31.502  30.700  26.930  1.00  0.00    -0.249 OA
BRANCH   3   5
ATOM      5  C   UNL A   1      32.661  28.637  26.208  1.00  0.00     0.165 C 
ATOM      6  C   UNL A   1      34.074  28.176  26.674  1.00  0.00     0.055 C 
BRANCH   5   7
ATOM      7  C   UNL A   1      32.290  28.358  24.634  1.00  0.00     0.059 C 
ATOM      8  C   UNL A   1      33.358  28.884  23.650  1.00  0.00     0.016 C 
BRANCH   7   9
ATOM      9  C   UNL A   1      30.823  28.599  24.068  1.00  0.00    -0.039 A 
ATOM     10  C   UNL A   1      27.650  31.711  22.938  1.00  0.00     0.044 C 
ATOM     11  C   UNL A   1      28.297  30.449  23.388  1.00  0.00    -0.051 A 
ATOM     12  C   UNL A   1      27.299  28.963  23.299  1.00  0.00     0.004 A 
ATOM     13  C   UNL A   1      30.061  30.292  23.801  1.00  0.00     0.007 A 
ATOM     14  C   UNL A   1      28.065  27.313  23.518  1.00  0.00     0.004 A 
ATOM     15  C   UNL A   1      29.800  27.150  23.889  1.00  0.00    -0.048 A 
ATOM     16  C   UNL A   1      30.319  25.752  24.059  1.00  0.00     0.044 C 
ENDBRANCH   7   9
ENDBRANCH   5   7
BRANCH   5  17
ATOM     17  O   UNL A   1      31.772  27.764  26.947  1.00  0.00    -0.378 OA
ATOM     18  H   UNL A   1      31.689  26.917  26.481  1.00  0.00     0.212 HD
ENDBRANCH   5  17
ENDBRANCH   3   5
ENDBRANCH   2   3
ENDBRANCH   1   2
BRANCH   1  19
ATOM     19  C   UNL A   1      35.202  32.425  28.060  1.00  0.00     0.275 C 
BRANCH  19  20
ATOM     20  O   UNL A   1      36.469  31.791  28.316  1.00  0.00    -0.458 OA
BRANCH  20  21
ATOM     21  C   UNL A   1      36.623  30.646  29.031  1.00  0.00     0.338 C 
ATOM     22  O   UNL A   1      36.256  30.571  30.198  1.00  0.00    -0.246 OA
BRANCH  21  23
ATOM     23  C   UNL A   1      37.483  29.598  28.434  1.00  0.00     0.060 A 
ATOM     24  C   UNL A   1      37.773  28.601  29.303  1.00  0.00     0.016 A 
ATOM     25  C   UNL A   1      38.285  29.712  27.301  1.00  0.00     0.016 A 
ATOM     26  C   UNL A   1      39.098  28.198  29.325  1.00  0.00     0.010 A 
ATOM     27  C   UNL A   1      39.593  29.146  27.292  1.00  0.00     0.010 A 
ATOM     28  C   UNL A   1      40.171  28.597  28.454  1.00  0.00    -0.014 A 
BRANCH  28  29
ATOM     29  C   UNL A   1      41.968  28.251  28.630  1.00  0.00     0.031 A 
ATOM     30  C   UNL A   1      43.251  28.954  30.225  1.00  0.00     0.074 A 
ATOM     31  C   UNL A   1      42.074  27.147  27.584  1.00  0.00     0.049 A 
ATOM     32  N   UNL A   1      44.580  28.730  30.603  1.00  0.00    -0.248 NA
ATOM     33  C   UNL A   1      42.964  29.882  31.667  1.00  0.00     0.031 C 
ATOM     34  C   UNL A   1      41.233  26.801  26.396  1.00  0.00     0.029 A 
ATOM     35  N   UNL A   1      42.942  26.023  27.432  1.00  0.00    -0.354 N 
ATOM     36  C   UNL A   1      44.691  28.539  31.990  1.00  0.00     0.074 A 
ATOM     37  C   UNL A   1      43.728  29.357  32.617  1.00  0.00     0.031 C 
ATOM     38  C   UNL A   1      41.399  25.520  25.979  1.00  0.00     0.029 A 
ATOM     39  C   UNL A   1      42.453  24.917  26.742  1.00  0.00     0.049 A 
ATOM     40  H   UNL A   1      43.853  26.031  27.802  1.00  0.00     0.167 HD
ATOM     41  C   UNL A   1      45.467  27.541  32.499  1.00  0.00     0.037 A 
ATOM     42  C   UNL A   1      42.864  23.619  26.832  1.00  0.00     0.037 A 
ATOM     43  C   UNL A   1      46.538  27.211  31.598  1.00  0.00     0.049 A 
ATOM     44  C   UNL A   1      44.093  23.565  27.663  1.00  0.00     0.074 A 
ATOM     45  C   UNL A   1      47.506  27.999  31.015  1.00  0.00     0.029 A 
ATOM     46  N   UNL A   1      46.541  26.008  30.939  1.00  0.00    -0.354 N 
ATOM     47  N   UNL A   1      45.256  24.021  27.311  1.00  0.00    -0.248 NA
ATOM     48  C   UNL A   1      43.977  23.185  29.065  1.00  0.00     0.031 C 
ATOM     49  C   UNL A   1      47.801  27.386  29.778  1.00  0.00     0.029 A 
ATOM     50  C   UNL A   1      47.098  26.182  29.690  1.00  0.00     0.049 A 
ATOM     51  H   UNL A   1      46.200  25.158  31.299  1.00  0.00     0.167 HD
ATOM     52  C   UNL A   1      45.881  24.362  28.496  1.00  0.00     0.074 A 
ATOM     53  C   UNL A   1      45.115  23.697  29.539  1.00  0.00     0.031 C 
ATOM     54  C   UNL A   1      46.797  25.369  28.526  1.00  0.00     0.037 A 
BRANCH  41  55
ATOM     55  C   UNL A   1      45.141  26.688  33.700  1.00  0.00     0.057 A 
ATOM     56  C   UNL A   1      44.206  25.646  33.592  1.00  0.00     0.134 A 
ATOM     57  C   UNL A   1      45.467  27.062  35.016  1.00  0.00     0.134 A 
ATOM     58  F   UNL A   1      43.844  25.182  32.387  1.00  0.00    -0.206 F 
ATOM     59  C   UNL A   1      43.569  25.082  34.708  1.00  0.00     0.040 A 
ATOM     60  C   UNL A   1      44.820  26.527  36.141  1.00  0.00     0.040 A 
ATOM     61  F   UNL A   1      46.396  27.991  35.261  1.00  0.00    -0.206 F 
ATOM     62  C   UNL A   1      43.849  25.547  35.988  1.00  0.00     0.006 A 
ENDBRANCH  41  55
BRANCH  42  63
ATOM     63  C   UNL A   1      42.192  22.327  26.485  1.00  0.00     0.057 A 
ATOM     64  C   UNL A   1      42.899  21.275  25.863  1.00  0.00     0.134 A 
ATOM     65  C   UNL A   1      40.937  21.980  27.003  1.00  0.00     0.134 A 
ATOM     66  F   UNL A   1      44.125  21.480  25.358  1.00  0.00    -0.206 F 
ATOM     67  C   UNL A   1      42.407  19.962  25.796  1.00  0.00     0.040 A 
ATOM     68  C   UNL A   1      40.430  20.672  26.937  1.00  0.00     0.040 A 
ATOM     69  F   UNL A   1      40.197  22.876  27.670  1.00  0.00    -0.206 F 
ATOM     70  C   UNL A   1      41.170  19.654  26.349  1.00  0.00     0.006 A 
ENDBRANCH  42  63
BRANCH  54  71
ATOM     71  C   UNL A   1      47.385  25.812  27.202  1.00  0.00     0.057 A 
ATOM     72  C   UNL A   1      46.798  26.751  26.337  1.00  0.00     0.134 A 
ATOM     73  C   UNL A   1      48.664  25.360  26.850  1.00  0.00     0.134 A 
ATOM     74  F   UNL A   1      45.617  27.316  26.617  1.00  0.00    -0.206 F 
ATOM     75  C   UNL A   1      47.436  27.193  25.174  1.00  0.00     0.040 A 
ATOM     76  C   UNL A   1      49.332  25.829  25.717  1.00  0.00     0.040 A 
ATOM     77  F   UNL A   1      49.315  24.490  27.639  1.00  0.00    -0.206 F 
ATOM     78  C   UNL A   1      48.714  26.742  24.868  1.00  0.00     0.006 A 
ENDBRANCH  54  71
ENDBRANCH  28  29
ENDBRANCH  21  23
ENDBRANCH  20  21
ENDBRANCH  19  20
ENDBRANCH   1  19
TORSDOF 14
ENDMDL
MODEL 2
REMARK VINA RESULT:     -11.7      5.681     10.573
REMARK SMILES Cc1ccc(C)c([C@@H](C)[C@](C)(O)C(=O)OCCOC(=O)c2ccc(-c3c4nc(c(-c5c(F)cccc5F)c5ccc([nH]5)c(-c5c(F)cccc5F)c5nc(c(-c6c(F)cccc6F)c6ccc3[nH]6)C=C5)C=C4)cc2)c1
REMARK SMILES IDX 16 1 15 2 13 3 14 4 10 5 11 6 8 7 9 8 7 9 1 10 2 11 3 12
REMARK SMILES IDX 75 13 4 14 5 15 6 16 12 17 17 19 18 20 19 21 20 22 21 23
REMARK SMILES IDX 22 24 74 25 23 26 73 27 24 28 25 29 26 30 67 31 27 32 72 33
REMARK SMILES IDX 66 34 68 35 28 36 71 37 65 38 64 39 29 41 55 42 38 43 54 44
REMARK SMILES IDX 39 45 42 46 53 47 69 48 40 49 41 50 52 52 70 53 43 54 30 55
REMARK SMILES IDX 31 56 36 57 32 58 33 59 35 60 37 61 34 62 56 63 57 64 62 65
REMARK SMILES IDX 58 66 59 67 61 68 63 69 60 70 44 71 45 72 50 73 46 74 47 75
REMARK SMILES IDX 49 76 51 77 48 78
REMARK H PARENT 12 18 68 40 42 51
REMARK Flexibility Score: inf
ROOT
ATOM      1  C   UNL A   1      39.772  22.527  26.022  1.00  0.00     0.274 C 
ENDROOT
BRANCH   1   2
ATOM      2  O   UNL A   1      38.447  22.081  26.361  1.00  0.00    -0.460 OA
BRANCH   2   3
ATOM      3  C   UNL A   1      37.484  22.870  25.774  1.00  0.00     0.338 C 
ATOM      4  O   UNL A   1      37.422  24.078  25.984  1.00  0.00    -0.249 OA
BRANCH   3   5
ATOM      5  C   UNL A   1      36.565  22.119  24.740  1.00  0.00     0.165 C 
ATOM      6  C   UNL A   1      36.715  22.935  23.422  1.00  0.00     0.055 C 
BRANCH   5   7
ATOM      7  C   UNL A   1      35.029  21.821  25.238  1.00  0.00     0.059 C 
ATOM      8  C   UNL A   1      34.883  21.769  26.775  1.00  0.00     0.016 C 
BRANCH   7   9
ATOM      9  C   UNL A   1      34.127  20.713  24.540  1.00  0.00    -0.039 A 
ATOM     10  C   UNL A   1      33.511  16.231  23.794  1.00  0.00     0.044 C 
ATOM     11  C   UNL A   1      33.501  17.708  23.621  1.00  0.00    -0.051 A 
ATOM     12  C   UNL A   1      32.314  18.369  22.452  1.00  0.00     0.004 A 
ATOM     13  C   UNL A   1      34.444  18.868  24.657  1.00  0.00     0.007 A 
ATOM     14  C   UNL A   1      31.982  20.170  22.380  1.00  0.00     0.004 A 
ATOM     15  C   UNL A   1      32.877  21.308  23.417  1.00  0.00    -0.048 A 
ATOM     16  C   UNL A   1      32.532  22.762  23.267  1.00  0.00     0.044 C 
ENDBRANCH   7   9
ENDBRANCH   5   7
BRANCH   5  17
ATOM     17  O   UNL A   1      37.084  20.816  24.379  1.00  0.00    -0.378 OA
ATOM     18  H   UNL A   1      37.936  20.921  23.927  1.00  0.00     0.212 HD
ENDBRANCH   5  17
ENDBRANCH   3   5
ENDBRANCH   2   3
ENDBRANCH   1   2
BRANCH   1  19
ATOM     19  C   UNL A   1      40.766  22.805  27.172  1.00  0.00     0.275 C 
BRANCH  19  20
ATOM     20  O   UNL A   1      41.382  24.105  27.215  1.00  0.00    -0.458 OA
BRANCH  20  21
ATOM     21  C   UNL A   1      40.898  25.204  26.579  1.00  0.00     0.338 C 
ATOM     22  O   UNL A   1      41.355  25.567  25.501  1.00  0.00    -0.246 OA
BRANCH  21  23
ATOM     23  C   UNL A   1      39.996  26.082  27.359  1.00  0.00     0.060 A 
ATOM     24  C   UNL A   1      40.058  27.376  26.968  1.00  0.00     0.016 A 
ATOM     25  C   UNL A   1      39.435  25.818  28.606  1.00  0.00     0.016 A 
ATOM     26  C   UNL A   1      40.132  28.305  27.993  1.00  0.00     0.010 A 
ATOM     27  C   UNL A   1      39.377  26.843  29.595  1.00  0.00     0.010 A 
ATOM     28  C   UNL A   1      40.010  28.088  29.409  1.00  0.00    -0.014 A 
BRANCH  28  29
ATOM     29  C   UNL A   1      40.345  29.272  30.776  1.00  0.00     0.031 A 
ATOM     30  C   UNL A   1      42.297  29.932  31.440  1.00  0.00     0.074 A 
ATOM     31  C   UNL A   1      38.924  29.793  30.958  1.00  0.00     0.049 A 
ATOM     32  N   UNL A   1      42.766  30.877  32.358  1.00  0.00    -0.248 NA
ATOM     33  C   UNL A   1      43.915  29.619  30.886  1.00  0.00     0.031 C 
ATOM     34  C   UNL A   1      37.588  29.214  30.615  1.00  0.00     0.029 A 
ATOM     35  N   UNL A   1      38.388  31.032  31.421  1.00  0.00    -0.354 N 
ATOM     36  C   UNL A   1      43.834  31.619  31.827  1.00  0.00     0.074 A 
ATOM     37  C   UNL A   1      44.582  30.762  30.992  1.00  0.00     0.031 C 
ATOM     38  C   UNL A   1      36.606  30.147  30.537  1.00  0.00     0.029 A 
ATOM     39  C   UNL A   1      37.137  31.415  30.945  1.00  0.00     0.049 A 
ATOM     40  H   UNL A   1      38.886  31.596  32.056  1.00  0.00     0.167 HD
ATOM     41  C   UNL A   1      43.891  32.972  31.979  1.00  0.00     0.037 A 
ATOM     42  C   UNL A   1      36.615  32.673  30.864  1.00  0.00     0.037 A 
ATOM     43  C   UNL A   1      43.196  33.386  33.168  1.00  0.00     0.049 A 
ATOM     44  C   UNL A   1      37.527  33.613  31.564  1.00  0.00     0.074 A 
ATOM     45  C   UNL A   1      43.328  32.987  34.479  1.00  0.00     0.029 A 
ATOM     46  N   UNL A   1      42.021  34.087  33.072  1.00  0.00    -0.354 N 
ATOM     47  N   UNL A   1      37.717  33.659  32.846  1.00  0.00    -0.248 NA
ATOM     48  C   UNL A   1      38.462  34.404  30.773  1.00  0.00     0.031 C 
ATOM     49  C   UNL A   1      42.046  33.133  35.052  1.00  0.00     0.029 A 
ATOM     50  C   UNL A   1      41.196  33.726  34.116  1.00  0.00     0.049 A 
ATOM     51  H   UNL A   1      41.801  34.743  32.371  1.00  0.00     0.167 HD
ATOM     52  C   UNL A   1      39.004  34.139  33.003  1.00  0.00     0.074 A 
ATOM     53  C   UNL A   1      39.358  34.713  31.714  1.00  0.00     0.031 C 
ATOM     54  C   UNL A   1      39.746  33.780  34.085  1.00  0.00     0.037 A 
BRANCH  41  55
ATOM     55  C   UNL A   1      44.368  33.963  30.945  1.00  0.00     0.057 A 
ATOM     56  C   UNL A   1      43.591  34.220  29.805  1.00  0.00     0.134 A 
ATOM     57  C   UNL A   1      45.698  34.416  30.875  1.00  0.00     0.134 A 
ATOM     58  F   UNL A   1      42.298  33.864  29.771  1.00  0.00    -0.206 F 
ATOM     59  C   UNL A   1      44.122  34.801  28.643  1.00  0.00     0.040 A 
ATOM     60  C   UNL A   1      46.251  34.974  29.712  1.00  0.00     0.040 A 
ATOM     61  F   UNL A   1      46.525  34.299  31.919  1.00  0.00    -0.206 F 
ATOM     62  C   UNL A   1      45.466  35.148  28.581  1.00  0.00     0.006 A 
ENDBRANCH  41  55
BRANCH  42  63
ATOM     63  C   UNL A   1      35.512  33.251  30.034  1.00  0.00     0.057 A 
ATOM     64  C   UNL A   1      34.434  33.945  30.625  1.00  0.00     0.134 A 
ATOM     65  C   UNL A   1      35.624  33.390  28.644  1.00  0.00     0.134 A 
ATOM     66  F   UNL A   1      34.245  33.911  31.953  1.00  0.00    -0.206 F 
ATOM     67  C   UNL A   1      33.553  34.752  29.887  1.00  0.00     0.040 A 
ATOM     68  C   UNL A   1      34.746  34.189  27.893  1.00  0.00     0.040 A 
ATOM     69  F   UNL A   1      36.641  32.830  27.977  1.00  0.00    -0.206 F 
ATOM     70  C   UNL A   1      33.717  34.888  28.514  1.00  0.00     0.006 A 
ENDBRANCH  42  63
BRANCH  54  71
ATOM     71  C   UNL A   1      39.007  33.190  35.269  1.00  0.00     0.057 A 
ATOM     72  C   UNL A   1      38.738  31.822  35.447  1.00  0.00     0.134 A 
ATOM     73  C   UNL A   1      38.665  34.032  36.335  1.00  0.00     0.134 A 
ATOM     74  F   UNL A   1      39.099  30.915  34.531  1.00  0.00    -0.206 F 
ATOM     75  C   UNL A   1      38.137  31.326  36.607  1.00  0.00     0.040 A 
ATOM     76  C   UNL A   1      38.109  33.544  37.520  1.00  0.00     0.040 A 
ATOM     77  F   UNL A   1      38.921  35.349  36.267  1.00  0.00    -0.206 F 
ATOM     78  C   UNL A   1      37.833  32.187  37.655  1.00  0.00     0.006 A 
ENDBRANCH  54  71
ENDBRANCH  28  29
ENDBRANCH  21  23
ENDBRANCH  20  21
ENDBRANCH  19  20
ENDBRANCH   1  19
TORSDOF 14
ENDMDL
MODEL 3
REMARK VINA RESULT:     -11.7      1.433      2.701
REMARK SMILES Cc1ccc(C)c([C@@H](C)[C@](C)(O)C(=O)OCCOC(=O)c2ccc(-c3c4nc(c(-c5c(F)cccc5F)c5ccc([nH]5)c(-c5c(F)cccc5F)c5nc(c(-c6c(F)cccc6F)c6ccc3[nH]6)C=C5)C=C4)cc2)c1
REMARK SMILES IDX 16 1 15 2 13 3 14 4 10 5 11 6 8 7 9 8 7 9 1 10 2 11 3 12
REMARK SMILES IDX 75 13 4 14 5 15 6 16 12 17 17 19 18 20 19 21 20 22 21 23
REMARK SMILES IDX 22 24 74 25 23 26 73 27 24 28 25 29 26 30 67 31 27 32 72 33
REMARK SMILES IDX 66 34 68 35 28 36 71 37 65 38 64 39 29 41 55 42 38 43 54 44
REMARK SMILES IDX 39 45 42 46 53 47 69 48 40 49 41 50 52 52 70 53 43 54 30 55
REMARK SMILES IDX 31 56 36 57 32 58 33 59 35 60 37 61 34 62 56 63 57 64 62 65
REMARK SMILES IDX 58 66 59 67 61 68 63 69 60 70 44 71 45 72 50 73 46 74 47 75
REMARK SMILES IDX 49 76 51 77 48 78
REMARK H PARENT 12 18 68 40 42 51
REMARK Flexibility Score: inf
ROOT
ATOM      1  C   UNL A   1      33.707  30.249  26.650  1.00  0.00     0.274 C 
ENDROOT
BRANCH   1   2
ATOM      2  O   UNL A   1      33.490  29.460  25.467  1.00  0.00    -0.460 OA
BRANCH   2   3
ATOM      3  C   UNL A   1      32.150  29.371  25.159  1.00  0.00     0.338 C 
ATOM      4  O   UNL A   1      31.361  30.267  25.444  1.00  0.00    -0.249 OA
BRANCH   3   5
ATOM      5  C   UNL A   1      31.756  28.099  24.321  1.00  0.00     0.165 C 
ATOM      6  C   UNL A   1      30.479  28.528  23.541  1.00  0.00     0.055 C 
BRANCH   5   7
ATOM      7  C   UNL A   1      31.653  26.694  25.165  1.00  0.00     0.059 C 
ATOM      8  C   UNL A   1      31.493  26.906  26.687  1.00  0.00     0.016 C 
BRANCH   7   9
ATOM      9  C   UNL A   1      32.613  25.464  24.857  1.00  0.00    -0.039 A 
ATOM     10  C   UNL A   1      36.841  23.743  25.285  1.00  0.00     0.044 C 
ATOM     11  C   UNL A   1      35.480  24.037  24.762  1.00  0.00    -0.051 A 
ATOM     12  C   UNL A   1      34.794  22.853  23.605  1.00  0.00     0.004 A 
ATOM     13  C   UNL A   1      34.412  25.373  25.380  1.00  0.00     0.007 A 
ATOM     14  C   UNL A   1      33.023  22.927  23.137  1.00  0.00     0.004 A 
ATOM     15  C   UNL A   1      31.963  24.213  23.766  1.00  0.00    -0.048 A 
ATOM     16  C   UNL A   1      30.534  24.185  23.308  1.00  0.00     0.044 C 
ENDBRANCH   7   9
ENDBRANCH   5   7
BRANCH   5  17
ATOM     17  O   UNL A   1      32.705  27.814  23.264  1.00  0.00    -0.378 OA
ATOM     18  H   UNL A   1      32.278  27.270  22.584  1.00  0.00     0.212 HD
ENDBRANCH   5  17
ENDBRANCH   3   5
ENDBRANCH   2   3
ENDBRANCH   1   2
BRANCH   1  19
ATOM     19  C   UNL A   1      34.707  29.725  27.705  1.00  0.00     0.275 C 
BRANCH  19  20
ATOM     20  O   UNL A   1      35.341  30.697  28.556  1.00  0.00    -0.458 OA
BRANCH  20  21
ATOM     21  C   UNL A   1      36.599  30.574  29.057  1.00  0.00     0.338 C 
ATOM     22  O   UNL A   1      37.058  31.404  29.833  1.00  0.00    -0.246 OA
BRANCH  21  23
ATOM     23  C   UNL A   1      37.471  29.556  28.426  1.00  0.00     0.060 A 
ATOM     24  C   UNL A   1      37.768  28.533  29.260  1.00  0.00     0.016 A 
ATOM     25  C   UNL A   1      38.274  29.717  27.299  1.00  0.00     0.016 A 
ATOM     26  C   UNL A   1      39.098  28.142  29.272  1.00  0.00     0.010 A 
ATOM     27  C   UNL A   1      39.588  29.164  27.274  1.00  0.00     0.010 A 
ATOM     28  C   UNL A   1      40.168  28.582  28.418  1.00  0.00    -0.014 A 
BRANCH  28  29
ATOM     29  C   UNL A   1      41.969  28.248  28.586  1.00  0.00     0.031 A 
ATOM     30  C   UNL A   1      43.254  28.963  30.174  1.00  0.00     0.074 A 
ATOM     31  C   UNL A   1      42.077  27.143  27.541  1.00  0.00     0.049 A 
ATOM     32  N   UNL A   1      44.586  28.748  30.546  1.00  0.00    -0.248 NA
ATOM     33  C   UNL A   1      42.967  29.891  31.615  1.00  0.00     0.031 C 
ATOM     34  C   UNL A   1      41.232  26.789  26.358  1.00  0.00     0.029 A 
ATOM     35  N   UNL A   1      42.951  26.025  27.387  1.00  0.00    -0.354 N 
ATOM     36  C   UNL A   1      44.705  28.560  31.933  1.00  0.00     0.074 A 
ATOM     37  C   UNL A   1      43.739  29.372  32.563  1.00  0.00     0.031 C 
ATOM     38  C   UNL A   1      41.405  25.509  25.943  1.00  0.00     0.029 A 
ATOM     39  C   UNL A   1      42.466  24.914  26.701  1.00  0.00     0.049 A 
ATOM     40  H   UNL A   1      43.865  26.039  27.753  1.00  0.00     0.167 HD
ATOM     41  C   UNL A   1      45.490  27.568  32.440  1.00  0.00     0.037 A 
ATOM     42  C   UNL A   1      42.887  23.619  26.792  1.00  0.00     0.037 A 
ATOM     43  C   UNL A   1      46.559  27.244  31.534  1.00  0.00     0.049 A 
ATOM     44  C   UNL A   1      44.120  23.574  27.617  1.00  0.00     0.074 A 
ATOM     45  C   UNL A   1      47.519  28.037  30.946  1.00  0.00     0.029 A 
ATOM     46  N   UNL A   1      46.567  26.040  30.877  1.00  0.00    -0.354 N 
ATOM     47  N   UNL A   1      45.278  24.038  27.259  1.00  0.00    -0.248 NA
ATOM     48  C   UNL A   1      44.013  23.196  29.020  1.00  0.00     0.031 C 
ATOM     49  C   UNL A   1      47.812  27.423  29.709  1.00  0.00     0.029 A 
ATOM     50  C   UNL A   1      47.117  26.215  29.625  1.00  0.00     0.049 A 
ATOM     51  H   UNL A   1      46.233  25.187  31.241  1.00  0.00     0.167 HD
ATOM     52  C   UNL A   1      45.907  24.385  28.440  1.00  0.00     0.074 A 
ATOM     53  C   UNL A   1      45.150  23.717  29.488  1.00  0.00     0.031 C 
ATOM     54  C   UNL A   1      46.816  25.398  28.464  1.00  0.00     0.037 A 
BRANCH  41  55
ATOM     55  C   UNL A   1      45.175  26.715  33.644  1.00  0.00     0.057 A 
ATOM     56  C   UNL A   1      44.253  25.661  33.539  1.00  0.00     0.134 A 
ATOM     57  C   UNL A   1      45.496  27.097  34.959  1.00  0.00     0.134 A 
ATOM     58  F   UNL A   1      43.897  25.188  32.337  1.00  0.00    -0.206 F 
ATOM     59  C   UNL A   1      43.624  25.093  34.658  1.00  0.00     0.040 A 
ATOM     60  C   UNL A   1      44.857  26.558  36.086  1.00  0.00     0.040 A 
ATOM     61  F   UNL A   1      46.414  28.039  35.200  1.00  0.00    -0.206 F 
ATOM     62  C   UNL A   1      43.898  25.566  35.936  1.00  0.00     0.006 A 
ENDBRANCH  41  55
BRANCH  42  63
ATOM     63  C   UNL A   1      42.222  22.322  26.450  1.00  0.00     0.057 A 
ATOM     64  C   UNL A   1      42.937  21.268  25.842  1.00  0.00     0.134 A 
ATOM     65  C   UNL A   1      40.963  21.975  26.961  1.00  0.00     0.134 A 
ATOM     66  F   UNL A   1      44.167  21.472  25.345  1.00  0.00    -0.206 F 
ATOM     67  C   UNL A   1      42.450  19.952  25.783  1.00  0.00     0.040 A 
ATOM     68  C   UNL A   1      40.461  20.665  26.902  1.00  0.00     0.040 A 
ATOM     69  F   UNL A   1      40.216  22.874  27.614  1.00  0.00    -0.206 F 
ATOM     70  C   UNL A   1      41.209  19.644  26.328  1.00  0.00     0.006 A 
ENDBRANCH  42  63
BRANCH  54  71
ATOM     71  C   UNL A   1      47.395  25.843  27.137  1.00  0.00     0.057 A 
ATOM     72  C   UNL A   1      46.806  26.789  26.281  1.00  0.00     0.134 A 
ATOM     73  C   UNL A   1      48.667  25.384  26.772  1.00  0.00     0.134 A 
ATOM     74  F   UNL A   1      45.632  27.360  26.574  1.00  0.00    -0.206 F 
ATOM     75  C   UNL A   1      47.437  27.232  25.114  1.00  0.00     0.040 A 
ATOM     76  C   UNL A   1      49.329  25.853  25.635  1.00  0.00     0.040 A 
ATOM     77  F   UNL A   1      49.320  24.506  27.551  1.00  0.00    -0.206 F 
ATOM     78  C   UNL A   1      48.709  26.773  24.795  1.00  0.00     0.006 A 
ENDBRANCH  54  71
ENDBRANCH  28  29
ENDBRANCH  21  23
ENDBRANCH  20  21
ENDBRANCH  19  20
ENDBRANCH   1  19
TORSDOF 14
ENDMDL
