MODEL 1
REMARK VINA RESULT:     -11.5      0.000      0.000
REMARK SMILES CC1(C)CC2=NC(=O)[C@H](C(=O)OCCOC(=O)c3ccc(-c4c5nc(c(-c6c(F)cccc6F)c6ccc([nH]6)c(-c6c(F)cccc6F)c6nc(c(-c7c(F)cccc7F)c7ccc4[nH]7)C=C6)C=C5)cc3)C=C2CS1
REMARK SMILES IDX 14 1 13 2 12 3 10 4 11 5 9 6 1 7 2 8 3 9 4 10 75 11 5 12
REMARK SMILES IDX 74 13 6 14 73 15 7 16 72 17 8 18 15 19 16 20 17 21 18 22
REMARK SMILES IDX 19 23 71 24 20 25 70 26 21 27 22 28 23 29 64 30 24 31 69 32
REMARK SMILES IDX 63 33 65 34 25 35 68 36 62 37 61 38 26 40 52 41 35 42 51 43
REMARK SMILES IDX 36 44 39 45 50 46 66 47 37 48 38 49 49 51 67 52 40 53 27 54
REMARK SMILES IDX 28 55 33 56 29 57 30 58 32 59 34 60 31 61 53 62 54 63 59 64
REMARK SMILES IDX 55 65 56 66 58 67 60 68 57 69 41 70 42 71 47 72 43 73 44 74
REMARK SMILES IDX 46 75 48 76 45 77
REMARK H PARENT 65 39 39 50
REMARK Flexibility Score: inf
ROOT
ATOM      1  C   UNL A   1      34.479  33.191  32.785  1.00  0.00     0.275 C 
ENDROOT
BRANCH   1   2
ATOM      2  C   UNL A   1      34.621  34.103  31.567  1.00  0.00     0.274 C 
BRANCH   2   3
ATOM      3  O   UNL A   1      34.399  33.386  30.334  1.00  0.00    -0.461 OA
BRANCH   3   4
ATOM      4  C   UNL A   1      33.601  34.009  29.414  1.00  0.00     0.322 C 
ATOM      5  O   UNL A   1      32.748  34.838  29.699  1.00  0.00    -0.251 OA
BRANCH   4   6
ATOM      6  C   UNL A   1      33.943  33.553  28.005  1.00  0.00     0.213 C 
ATOM      7  C   UNL A   1      33.242  27.177  26.040  1.00  0.00     0.023 C 
ATOM      8  C   UNL A   1      32.835  28.533  26.642  1.00  0.00     0.016 C 
ATOM      9  C   UNL A   1      31.898  28.250  27.820  1.00  0.00     0.023 C 
ATOM     10  C   UNL A   1      34.090  29.297  27.071  1.00  0.00     0.074 C 
ATOM     11  S   UNL A   1      31.979  29.489  25.342  1.00  0.00    -0.150 SA
ATOM     12  C   UNL A   1      34.003  30.805  27.318  1.00  0.00     0.049 C 
ATOM     13  C   UNL A   1      31.584  30.963  26.302  1.00  0.00     0.107 C 
ATOM     14  N   UNL A   1      35.083  31.331  27.806  1.00  0.00    -0.217 NA
ATOM     15  C   UNL A   1      32.773  31.569  26.977  1.00  0.00    -0.019 C 
ATOM     16  C   UNL A   1      35.194  32.690  28.002  1.00  0.00     0.264 C 
ATOM     17  C   UNL A   1      32.783  32.864  27.340  1.00  0.00     0.004 C 
ATOM     18  O   UNL A   1      36.292  33.215  28.184  1.00  0.00    -0.271 OA
ENDBRANCH   4   6
ENDBRANCH   3   4
ENDBRANCH   2   3
ENDBRANCH   1   2
BRANCH   1  19
ATOM     19  O   UNL A   1      35.217  31.966  32.612  1.00  0.00    -0.458 OA
BRANCH  19  20
ATOM     20  C   UNL A   1      36.416  31.914  33.232  1.00  0.00     0.338 C 
ATOM     21  O   UNL A   1      36.694  32.290  34.357  1.00  0.00    -0.246 OA
BRANCH  20  22
ATOM     22  C   UNL A   1      37.384  31.214  32.377  1.00  0.00     0.060 A 
ATOM     23  C   UNL A   1      38.468  30.597  32.992  1.00  0.00     0.016 A 
ATOM     24  C   UNL A   1      37.312  31.294  30.985  1.00  0.00     0.016 A 
ATOM     25  C   UNL A   1      39.526  30.123  32.224  1.00  0.00     0.010 A 
ATOM     26  C   UNL A   1      38.357  30.768  30.211  1.00  0.00     0.010 A 
ATOM     27  C   UNL A   1      39.497  30.220  30.825  1.00  0.00    -0.014 A 
BRANCH  27  28
ATOM     28  C   UNL A   1      40.696  29.791  30.050  1.00  0.00     0.031 A 
ATOM     29  C   UNL A   1      40.795  28.396  29.484  1.00  0.00     0.074 A 
ATOM     30  C   UNL A   1      41.650  30.693  29.749  1.00  0.00     0.049 A 
ATOM     31  N   UNL A   1      41.716  27.889  28.701  1.00  0.00    -0.248 NA
ATOM     32  C   UNL A   1      39.712  27.455  29.812  1.00  0.00     0.031 C 
ATOM     33  C   UNL A   1      41.662  32.090  30.188  1.00  0.00     0.029 A 
ATOM     34  N   UNL A   1      42.785  30.576  28.982  1.00  0.00    -0.354 N 
ATOM     35  C   UNL A   1      41.313  26.589  28.425  1.00  0.00     0.074 A 
ATOM     36  C   UNL A   1      40.079  26.368  29.147  1.00  0.00     0.031 C 
ATOM     37  C   UNL A   1      42.728  32.708  29.656  1.00  0.00     0.029 A 
ATOM     38  C   UNL A   1      43.507  31.740  28.891  1.00  0.00     0.049 A 
ATOM     39  H   UNL A   1      43.053  29.738  28.541  1.00  0.00     0.167 HD
ATOM     40  C   UNL A   1      41.901  25.665  27.629  1.00  0.00     0.037 A 
ATOM     41  C   UNL A   1      44.680  32.000  28.285  1.00  0.00     0.037 A 
ATOM     42  C   UNL A   1      43.140  25.855  26.924  1.00  0.00     0.049 A 
ATOM     43  C   UNL A   1      45.393  30.906  27.547  1.00  0.00     0.074 A 
ATOM     44  C   UNL A   1      43.805  24.968  26.093  1.00  0.00     0.029 A 
ATOM     45  N   UNL A   1      43.910  27.003  26.981  1.00  0.00    -0.354 N 
ATOM     46  N   UNL A   1      44.991  29.686  27.293  1.00  0.00    -0.248 NA
ATOM     47  C   UNL A   1      46.735  31.219  27.034  1.00  0.00     0.031 C 
ATOM     48  C   UNL A   1      45.004  25.565  25.686  1.00  0.00     0.029 A 
ATOM     49  C   UNL A   1      45.066  26.833  26.239  1.00  0.00     0.049 A 
ATOM     50  H   UNL A   1      43.671  27.820  27.475  1.00  0.00     0.167 HD
ATOM     51  C   UNL A   1      46.028  29.084  26.592  1.00  0.00     0.074 A 
ATOM     52  C   UNL A   1      47.069  30.080  26.441  1.00  0.00     0.031 C 
ATOM     53  C   UNL A   1      46.110  27.817  26.119  1.00  0.00     0.037 A 
BRANCH  40  54
ATOM     54  C   UNL A   1      41.214  24.342  27.489  1.00  0.00     0.057 A 
ATOM     55  C   UNL A   1      40.112  24.179  26.641  1.00  0.00     0.134 A 
ATOM     56  C   UNL A   1      41.688  23.212  28.166  1.00  0.00     0.134 A 
ATOM     57  F   UNL A   1      39.606  25.228  25.976  1.00  0.00    -0.206 F 
ATOM     58  C   UNL A   1      39.502  22.935  26.473  1.00  0.00     0.040 A 
ATOM     59  C   UNL A   1      41.093  21.962  27.999  1.00  0.00     0.040 A 
ATOM     60  F   UNL A   1      42.739  23.307  28.993  1.00  0.00    -0.206 F 
ATOM     61  C   UNL A   1      39.997  21.820  27.150  1.00  0.00     0.006 A 
ENDBRANCH  40  54
BRANCH  41  62
ATOM     62  C   UNL A   1      45.287  33.348  28.406  1.00  0.00     0.057 A 
ATOM     63  C   UNL A   1      46.184  33.655  29.433  1.00  0.00     0.134 A 
ATOM     64  C   UNL A   1      44.976  34.361  27.490  1.00  0.00     0.134 A 
ATOM     65  F   UNL A   1      46.497  32.734  30.355  1.00  0.00    -0.206 F 
ATOM     66  C   UNL A   1      46.751  34.926  29.547  1.00  0.00     0.040 A 
ATOM     67  C   UNL A   1      45.553  35.628  27.579  1.00  0.00     0.040 A 
ATOM     68  F   UNL A   1      44.117  34.127  26.487  1.00  0.00    -0.206 F 
ATOM     69  C   UNL A   1      46.440  35.914  28.613  1.00  0.00     0.006 A 
ENDBRANCH  41  62
BRANCH  53  70
ATOM     70  C   UNL A   1      47.374  27.433  25.416  1.00  0.00     0.057 A 
ATOM     71  C   UNL A   1      48.441  26.848  26.110  1.00  0.00     0.134 A 
ATOM     72  C   UNL A   1      47.522  27.627  24.038  1.00  0.00     0.134 A 
ATOM     73  F   UNL A   1      48.363  26.651  27.434  1.00  0.00    -0.206 F 
ATOM     74  C   UNL A   1      49.620  26.484  25.458  1.00  0.00     0.040 A 
ATOM     75  C   UNL A   1      48.689  27.251  23.372  1.00  0.00     0.040 A 
ATOM     76  F   UNL A   1      46.534  28.179  23.317  1.00  0.00    -0.206 F 
ATOM     77  C   UNL A   1      49.744  26.682  24.084  1.00  0.00     0.006 A 
ENDBRANCH  53  70
ENDBRANCH  27  28
ENDBRANCH  20  22
ENDBRANCH  19  20
ENDBRANCH   1  19
TORSDOF 11
ENDMDL
MODEL 2
REMARK VINA RESULT:     -11.5      4.168      8.285
REMARK SMILES CC1(C)CC2=NC(=O)[C@H](C(=O)OCCOC(=O)c3ccc(-c4c5nc(c(-c6c(F)cccc6F)c6ccc([nH]6)c(-c6c(F)cccc6F)c6nc(c(-c7c(F)cccc7F)c7ccc4[nH]7)C=C6)C=C5)cc3)C=C2CS1
REMARK SMILES IDX 14 1 13 2 12 3 10 4 11 5 9 6 1 7 2 8 3 9 4 10 75 11 5 12
REMARK SMILES IDX 74 13 6 14 73 15 7 16 72 17 8 18 15 19 16 20 17 21 18 22
REMARK SMILES IDX 19 23 71 24 20 25 70 26 21 27 22 28 23 29 64 30 24 31 69 32
REMARK SMILES IDX 63 33 65 34 25 35 68 36 62 37 61 38 26 40 52 41 35 42 51 43
REMARK SMILES IDX 36 44 39 45 50 46 66 47 37 48 38 49 49 51 67 52 40 53 27 54
REMARK SMILES IDX 28 55 33 56 29 57 30 58 32 59 34 60 31 61 53 62 54 63 59 64
REMARK SMILES IDX 55 65 56 66 58 67 60 68 57 69 41 70 42 71 47 72 43 73 44 74
REMARK SMILES IDX 46 75 48 76 45 77
REMARK H PARENT 65 39 39 50
REMARK Flexibility Score: inf
ROOT
ATOM      1  C   UNL A   1      31.437  32.456  27.021  1.00  0.00     0.275 C 
ENDROOT
BRANCH   1   2
ATOM      2  C   UNL A   1      31.410  31.229  26.109  1.00  0.00     0.274 C 
BRANCH   2   3
ATOM      3  O   UNL A   1      32.626  30.459  26.213  1.00  0.00    -0.461 OA
BRANCH   3   4
ATOM      4  C   UNL A   1      32.624  29.246  25.583  1.00  0.00     0.322 C 
ATOM      5  O   UNL A   1      32.376  29.094  24.395  1.00  0.00    -0.251 OA
BRANCH   4   6
ATOM      6  C   UNL A   1      32.999  28.134  26.549  1.00  0.00     0.213 C 
ATOM      7  C   UNL A   1      31.889  21.665  25.161  1.00  0.00     0.023 C 
ATOM      8  C   UNL A   1      32.408  23.098  24.946  1.00  0.00     0.016 C 
ATOM      9  C   UNL A   1      32.266  23.420  23.456  1.00  0.00     0.023 C 
ATOM     10  C   UNL A   1      31.612  24.064  25.826  1.00  0.00     0.074 C 
ATOM     11  S   UNL A   1      34.161  23.142  25.459  1.00  0.00    -0.150 SA
ATOM     12  C   UNL A   1      32.176  25.459  26.109  1.00  0.00     0.049 C 
ATOM     13  C   UNL A   1      34.517  24.865  25.070  1.00  0.00     0.107 C 
ATOM     14  N   UNL A   1      31.367  26.244  26.749  1.00  0.00    -0.217 NA
ATOM     15  C   UNL A   1      33.558  25.827  25.698  1.00  0.00    -0.019 C 
ATOM     16  C   UNL A   1      31.758  27.501  27.156  1.00  0.00     0.264 C 
ATOM     17  C   UNL A   1      33.896  27.111  25.908  1.00  0.00     0.004 C 
ATOM     18  O   UNL A   1      31.111  28.123  27.998  1.00  0.00    -0.271 OA
ENDBRANCH   4   6
ENDBRANCH   3   4
ENDBRANCH   2   3
ENDBRANCH   1   2
BRANCH   1  19
ATOM     19  O   UNL A   1      32.636  33.229  26.824  1.00  0.00    -0.458 OA
BRANCH  19  20
ATOM     20  C   UNL A   1      33.162  33.785  27.936  1.00  0.00     0.338 C 
ATOM     21  O   UNL A   1      32.671  34.646  28.647  1.00  0.00    -0.246 OA
BRANCH  20  22
ATOM     22  C   UNL A   1      34.428  33.119  28.272  1.00  0.00     0.060 A 
ATOM     23  C   UNL A   1      34.364  31.847  28.832  1.00  0.00     0.016 A 
ATOM     24  C   UNL A   1      35.647  33.793  28.184  1.00  0.00     0.016 A 
ATOM     25  C   UNL A   1      35.506  31.270  29.376  1.00  0.00     0.010 A 
ATOM     26  C   UNL A   1      36.807  33.185  28.687  1.00  0.00     0.010 A 
ATOM     27  C   UNL A   1      36.740  31.938  29.331  1.00  0.00    -0.014 A 
BRANCH  27  28
ATOM     28  C   UNL A   1      37.914  31.326  30.016  1.00  0.00     0.031 A 
ATOM     29  C   UNL A   1      38.225  31.646  31.458  1.00  0.00     0.074 A 
ATOM     30  C   UNL A   1      38.639  30.386  29.379  1.00  0.00     0.049 A 
ATOM     31  N   UNL A   1      39.142  31.127  32.237  1.00  0.00    -0.248 NA
ATOM     32  C   UNL A   1      37.385  32.655  32.121  1.00  0.00     0.031 C 
ATOM     33  C   UNL A   1      38.422  29.941  28.001  1.00  0.00     0.029 A 
ATOM     34  N   UNL A   1      39.690  29.616  29.816  1.00  0.00    -0.354 N 
ATOM     35  C   UNL A   1      38.974  31.723  33.479  1.00  0.00     0.074 A 
ATOM     36  C   UNL A   1      37.887  32.669  33.349  1.00  0.00     0.031 C 
ATOM     37  C   UNL A   1      39.287  28.955  27.717  1.00  0.00     0.029 A 
ATOM     38  C   UNL A   1      40.158  28.740  28.868  1.00  0.00     0.049 A 
ATOM     39  H   UNL A   1      40.070  29.686  30.721  1.00  0.00     0.167 HD
ATOM     40  C   UNL A   1      39.647  31.496  34.632  1.00  0.00     0.037 A 
ATOM     41  C   UNL A   1      41.190  27.877  28.904  1.00  0.00     0.037 A 
ATOM     42  C   UNL A   1      40.746  30.580  34.776  1.00  0.00     0.049 A 
ATOM     43  C   UNL A   1      42.024  27.767  30.146  1.00  0.00     0.074 A 
ATOM     44  C   UNL A   1      41.483  30.288  35.913  1.00  0.00     0.029 A 
ATOM     45  N   UNL A   1      41.280  29.822  33.748  1.00  0.00    -0.354 N 
ATOM     46  N   UNL A   1      41.843  28.336  31.312  1.00  0.00    -0.248 NA
ATOM     47  C   UNL A   1      43.219  26.915  30.069  1.00  0.00     0.031 C 
ATOM     48  C   UNL A   1      42.494  29.388  35.559  1.00  0.00     0.029 A 
ATOM     49  C   UNL A   1      42.365  29.097  34.211  1.00  0.00     0.049 A 
ATOM     50  H   UNL A   1      40.937  29.801  32.826  1.00  0.00     0.167 HD
ATOM     51  C   UNL A   1      42.900  27.913  32.107  1.00  0.00     0.074 A 
ATOM     52  C   UNL A   1      43.707  27.022  31.298  1.00  0.00     0.031 C 
ATOM     53  C   UNL A   1      43.178  28.238  33.392  1.00  0.00     0.037 A 
BRANCH  40  54
ATOM     54  C   UNL A   1      39.220  32.270  35.841  1.00  0.00     0.057 A 
ATOM     55  C   UNL A   1      39.710  33.557  36.093  1.00  0.00     0.134 A 
ATOM     56  C   UNL A   1      38.275  31.746  36.731  1.00  0.00     0.134 A 
ATOM     57  F   UNL A   1      40.627  34.105  35.283  1.00  0.00    -0.206 F 
ATOM     58  C   UNL A   1      39.275  34.297  37.194  1.00  0.00     0.040 A 
ATOM     59  C   UNL A   1      37.825  32.479  37.829  1.00  0.00     0.040 A 
ATOM     60  F   UNL A   1      37.770  30.517  36.541  1.00  0.00    -0.206 F 
ATOM     61  C   UNL A   1      38.325  33.759  38.062  1.00  0.00     0.006 A 
ENDBRANCH  40  54
BRANCH  41  62
ATOM     62  C   UNL A   1      41.531  27.089  27.695  1.00  0.00     0.057 A 
ATOM     63  C   UNL A   1      41.067  25.782  27.520  1.00  0.00     0.134 A 
ATOM     64  C   UNL A   1      42.336  27.633  26.685  1.00  0.00     0.134 A 
ATOM     65  F   UNL A   1      40.317  25.200  28.465  1.00  0.00    -0.206 F 
ATOM     66  C   UNL A   1      41.392  25.042  26.382  1.00  0.00     0.040 A 
ATOM     67  C   UNL A   1      42.650  26.912  25.534  1.00  0.00     0.040 A 
ATOM     68  F   UNL A   1      42.816  28.880  26.800  1.00  0.00    -0.206 F 
ATOM     69  C   UNL A   1      42.180  25.610  25.382  1.00  0.00     0.006 A 
ENDBRANCH  41  62
BRANCH  53  70
ATOM     70  C   UNL A   1      44.415  27.645  33.992  1.00  0.00     0.057 A 
ATOM     71  C   UNL A   1      44.393  26.383  34.601  1.00  0.00     0.134 A 
ATOM     72  C   UNL A   1      45.638  28.323  33.945  1.00  0.00     0.134 A 
ATOM     73  F   UNL A   1      43.247  25.692  34.690  1.00  0.00    -0.206 F 
ATOM     74  C   UNL A   1      45.544  25.825  35.158  1.00  0.00     0.040 A 
ATOM     75  C   UNL A   1      46.799  27.766  34.482  1.00  0.00     0.040 A 
ATOM     76  F   UNL A   1      45.725  29.533  33.371  1.00  0.00    -0.206 F 
ATOM     77  C   UNL A   1      46.753  26.515  35.095  1.00  0.00     0.006 A 
ENDBRANCH  53  70
ENDBRANCH  27  28
ENDBRANCH  20  22
ENDBRANCH  19  20
ENDBRANCH   1  19
TORSDOF 11
ENDMDL
MODEL 3
REMARK VINA RESULT:     -11.3      5.470     11.068
REMARK SMILES CC1(C)CC2=NC(=O)[C@H](C(=O)OCCOC(=O)c3ccc(-c4c5nc(c(-c6c(F)cccc6F)c6ccc([nH]6)c(-c6c(F)cccc6F)c6nc(c(-c7c(F)cccc7F)c7ccc4[nH]7)C=C6)C=C5)cc3)C=C2CS1
REMARK SMILES IDX 14 1 13 2 12 3 10 4 11 5 9 6 1 7 2 8 3 9 4 10 75 11 5 12
REMARK SMILES IDX 74 13 6 14 73 15 7 16 72 17 8 18 15 19 16 20 17 21 18 22
REMARK SMILES IDX 19 23 71 24 20 25 70 26 21 27 22 28 23 29 64 30 24 31 69 32
REMARK SMILES IDX 63 33 65 34 25 35 68 36 62 37 61 38 26 40 52 41 35 42 51 43
REMARK SMILES IDX 36 44 39 45 50 46 66 47 37 48 38 49 49 51 67 52 40 53 27 54
REMARK SMILES IDX 28 55 33 56 29 57 30 58 32 59 34 60 31 61 53 62 54 63 59 64
REMARK SMILES IDX 55 65 56 66 58 67 60 68 57 69 41 70 42 71 47 72 43 73 44 74
REMARK SMILES IDX 46 75 48 76 45 77
REMARK H PARENT 65 39 39 50
REMARK Flexibility Score: inf
ROOT
ATOM      1  C   UNL A   1      44.133  22.431  24.385  1.00  0.00     0.275 C 
ENDROOT
BRANCH   1   2
ATOM      2  C   UNL A   1      44.181  21.484  25.585  1.00  0.00     0.274 C 
BRANCH   2   3
ATOM      3  O   UNL A   1      42.904  21.401  26.251  1.00  0.00    -0.461 OA
BRANCH   3   4
ATOM      4  C   UNL A   1      42.120  20.332  25.916  1.00  0.00     0.322 C 
ATOM      5  O   UNL A   1      42.430  19.494  25.080  1.00  0.00    -0.251 OA
BRANCH   4   6
ATOM      6  C   UNL A   1      40.843  20.317  26.739  1.00  0.00     0.213 C 
ATOM      7  C   UNL A   1      35.306  23.577  24.812  1.00  0.00     0.023 C 
ATOM      8  C   UNL A   1      36.503  22.616  24.701  1.00  0.00     0.016 C 
ATOM      9  C   UNL A   1      37.024  22.695  23.263  1.00  0.00     0.023 C 
ATOM     10  C   UNL A   1      37.569  23.011  25.726  1.00  0.00     0.074 C 
ATOM     11  S   UNL A   1      35.908  20.933  25.088  1.00  0.00    -0.150 SA
ATOM     12  C   UNL A   1      38.658  22.003  26.102  1.00  0.00     0.049 C 
ATOM     13  C   UNL A   1      37.452  20.035  24.844  1.00  0.00     0.107 C 
ATOM     14  N   UNL A   1      39.586  22.479  26.871  1.00  0.00    -0.217 NA
ATOM     15  C   UNL A   1      38.596  20.593  25.630  1.00  0.00    -0.019 C 
ATOM     16  C   UNL A   1      40.588  21.676  27.370  1.00  0.00     0.264 C 
ATOM     17  C   UNL A   1      39.664  19.837  25.939  1.00  0.00     0.004 C 
ATOM     18  O   UNL A   1      41.286  22.047  28.313  1.00  0.00    -0.271 OA
ENDBRANCH   4   6
ENDBRANCH   3   4
ENDBRANCH   2   3
ENDBRANCH   1   2
BRANCH   1  19
ATOM     19  O   UNL A   1      43.379  23.621  24.687  1.00  0.00    -0.458 OA
BRANCH  19  20
ATOM     20  C   UNL A   1      44.106  24.691  25.073  1.00  0.00     0.338 C 
ATOM     21  O   UNL A   1      45.198  25.043  24.660  1.00  0.00    -0.246 OA
BRANCH  20  22
ATOM     22  C   UNL A   1      43.336  25.491  26.034  1.00  0.00     0.060 A 
ATOM     23  C   UNL A   1      43.761  26.792  26.286  1.00  0.00     0.016 A 
ATOM     24  C   UNL A   1      42.310  24.924  26.792  1.00  0.00     0.016 A 
ATOM     25  C   UNL A   1      43.215  27.509  27.344  1.00  0.00     0.010 A 
ATOM     26  C   UNL A   1      41.725  25.670  27.827  1.00  0.00     0.010 A 
ATOM     27  C   UNL A   1      42.205  26.952  28.144  1.00  0.00    -0.014 A 
BRANCH  27  28
ATOM     28  C   UNL A   1      41.722  27.717  29.328  1.00  0.00     0.031 A 
ATOM     29  C   UNL A   1      42.469  27.672  30.639  1.00  0.00     0.074 A 
ATOM     30  C   UNL A   1      40.673  28.552  29.197  1.00  0.00     0.049 A 
ATOM     31  N   UNL A   1      42.249  28.354  31.736  1.00  0.00    -0.248 NA
ATOM     32  C   UNL A   1      43.628  26.770  30.724  1.00  0.00     0.031 C 
ATOM     33  C   UNL A   1      39.885  28.734  27.977  1.00  0.00     0.029 A 
ATOM     34  N   UNL A   1      40.103  29.423  30.094  1.00  0.00    -0.354 N 
ATOM     35  C   UNL A   1      43.249  27.985  32.626  1.00  0.00     0.074 A 
ATOM     36  C   UNL A   1      44.063  26.994  31.956  1.00  0.00     0.031 C 
ATOM     37  C   UNL A   1      38.959  29.682  28.189  1.00  0.00     0.029 A 
ATOM     38  C   UNL A   1      39.046  30.130  29.575  1.00  0.00     0.049 A 
ATOM     39  H   UNL A   1      40.422  29.530  31.019  1.00  0.00     0.167 HD
ATOM     40  C   UNL A   1      43.484  28.439  33.879  1.00  0.00     0.037 A 
ATOM     41  C   UNL A   1      38.218  31.021  30.152  1.00  0.00     0.037 A 
ATOM     42  C   UNL A   1      42.673  29.403  34.572  1.00  0.00     0.049 A 
ATOM     43  C   UNL A   1      38.404  31.381  31.596  1.00  0.00     0.074 A 
ATOM     44  C   UNL A   1      42.843  29.920  35.846  1.00  0.00     0.029 A 
ATOM     45  N   UNL A   1      41.526  29.982  34.056  1.00  0.00    -0.354 N 
ATOM     46  N   UNL A   1      39.360  31.025  32.418  1.00  0.00    -0.248 NA
ATOM     47  C   UNL A   1      37.380  32.246  32.200  1.00  0.00     0.031 C 
ATOM     48  C   UNL A   1      41.770  30.776  36.118  1.00  0.00     0.029 A 
ATOM     49  C   UNL A   1      40.952  30.815  35.001  1.00  0.00     0.049 A 
ATOM     50  H   UNL A   1      41.171  29.825  33.151  1.00  0.00     0.167 HD
ATOM     51  C   UNL A   1      39.055  31.620  33.634  1.00  0.00     0.074 A 
ATOM     52  C   UNL A   1      37.836  32.378  33.439  1.00  0.00     0.031 C 
ATOM     53  C   UNL A   1      39.724  31.541  34.809  1.00  0.00     0.037 A 
BRANCH  40  54
ATOM     54  C   UNL A   1      44.672  27.881  34.600  1.00  0.00     0.057 A 
ATOM     55  C   UNL A   1      44.579  26.709  35.360  1.00  0.00     0.134 A 
ATOM     56  C   UNL A   1      45.928  28.491  34.493  1.00  0.00     0.134 A 
ATOM     57  F   UNL A   1      43.400  26.088  35.509  1.00  0.00    -0.206 F 
ATOM     58  C   UNL A   1      45.697  26.162  35.992  1.00  0.00     0.040 A 
ATOM     59  C   UNL A   1      47.054  27.949  35.112  1.00  0.00     0.040 A 
ATOM     60  F   UNL A   1      46.078  29.617  33.780  1.00  0.00    -0.206 F 
ATOM     61  C   UNL A   1      46.941  26.780  35.864  1.00  0.00     0.006 A 
ENDBRANCH  40  54
BRANCH  41  62
ATOM     62  C   UNL A   1      37.093  31.590  29.372  1.00  0.00     0.057 A 
ATOM     63  C   UNL A   1      35.924  30.859  29.136  1.00  0.00     0.134 A 
ATOM     64  C   UNL A   1      37.167  32.885  28.842  1.00  0.00     0.134 A 
ATOM     65  F   UNL A   1      35.808  29.605  29.595  1.00  0.00    -0.206 F 
ATOM     66  C   UNL A   1      34.868  31.396  28.399  1.00  0.00     0.040 A 
ATOM     67  C   UNL A   1      36.110  33.441  28.122  1.00  0.00     0.040 A 
ATOM     68  F   UNL A   1      38.265  33.631  29.029  1.00  0.00    -0.206 F 
ATOM     69  C   UNL A   1      34.957  32.693  27.896  1.00  0.00     0.006 A 
ENDBRANCH  41  62
BRANCH  53  70
ATOM     70  C   UNL A   1      39.140  32.274  35.976  1.00  0.00     0.057 A 
ATOM     71  C   UNL A   1      38.237  31.651  36.846  1.00  0.00     0.134 A 
ATOM     72  C   UNL A   1      39.495  33.601  36.248  1.00  0.00     0.134 A 
ATOM     73  F   UNL A   1      37.847  30.386  36.629  1.00  0.00    -0.206 F 
ATOM     74  C   UNL A   1      37.693  32.330  37.938  1.00  0.00     0.040 A 
ATOM     75  C   UNL A   1      38.972  34.283  37.346  1.00  0.00     0.040 A 
ATOM     76  F   UNL A   1      40.360  34.251  35.453  1.00  0.00    -0.206 F 
ATOM     77  C   UNL A   1      38.065  33.648  38.192  1.00  0.00     0.006 A 
ENDBRANCH  53  70
ENDBRANCH  27  28
ENDBRANCH  20  22
ENDBRANCH  19  20
ENDBRANCH   1  19
TORSDOF 11
ENDMDL
