MODEL 1
REMARK VINA RESULT:     -11.6      0.000      0.000
REMARK SMILES Cc1ccc([C@@H](CC(=O)OCCOC(=O)c2ccc(-c3c4nc(c(-c5c(F)cccc5F)c5ccc([nH]5)c(-c5c(F)cccc5F)c5nc(c(-c6c(F)cccc6F)c6ccc3[nH]6)C=C5)C=C4)cc2)NC(=O)c2ccc(OC(F)F)cc2)cc1
REMARK SMILES IDX 10 1 8 2 9 3 7 4 6 5 5 6 1 7 2 8 3 9 84 10 4 11 83 12 70 13
REMARK SMILES IDX 71 14 72 16 73 17 74 18 82 19 75 20 81 21 76 22 77 23 78 24
REMARK SMILES IDX 79 25 80 26 11 27 12 28 13 29 14 30 15 31 16 32 17 33 69 34
REMARK SMILES IDX 18 35 68 36 19 37 20 38 21 39 62 40 22 41 67 42 61 43 63 44
REMARK SMILES IDX 23 45 66 46 60 47 59 48 24 50 50 51 33 52 49 53 34 54 37 55
REMARK SMILES IDX 48 56 64 57 35 58 36 59 47 61 65 62 38 63 25 64 26 65 31 66
REMARK SMILES IDX 27 67 28 68 30 69 32 70 29 71 51 72 52 73 57 74 53 75 54 76
REMARK SMILES IDX 56 77 58 78 55 79 39 80 40 81 45 82 41 83 42 84 44 85 46 86
REMARK SMILES IDX 43 87
REMARK H PARENT 70 15 63 49 37 60
REMARK Flexibility Score: inf
ROOT
ATOM      1  O   UNL A   1      35.942  20.823  25.000  1.00  0.00    -0.462 OA
ENDROOT
BRANCH   1   2
ATOM      2  C   UNL A   1      34.604  20.675  24.838  1.00  0.00     0.308 C 
ATOM      3  O   UNL A   1      33.994  19.635  25.033  1.00  0.00    -0.252 OA
BRANCH   2   4
ATOM      4  C   UNL A   1      33.988  21.973  24.361  1.00  0.00     0.152 C 
BRANCH   4   5
ATOM      5  C   UNL A   1      32.442  21.903  24.327  1.00  0.00     0.123 C 
BRANCH   5   6
ATOM      6  C   UNL A   1      32.001  22.974  23.305  1.00  0.00    -0.025 A 
ATOM      7  C   UNL A   1      31.574  27.168  22.580  1.00  0.00     0.044 C 
ATOM      8  C   UNL A   1      31.645  25.669  22.598  1.00  0.00    -0.051 A 
ATOM      9  C   UNL A   1      30.561  24.914  23.051  1.00  0.00     0.004 A 
ATOM     10  C   UNL A   1      32.852  25.021  22.321  1.00  0.00     0.004 A 
ATOM     11  C   UNL A   1      30.721  23.558  23.356  1.00  0.00     0.006 A 
ATOM     12  C   UNL A   1      33.027  23.678  22.653  1.00  0.00     0.006 A 
ENDBRANCH   5   6
BRANCH   5  13
ATOM     13  N   UNL A   1      31.843  22.062  25.651  1.00  0.00    -0.345 N 
ATOM     14  C   UNL A   1      31.970  23.051  26.592  1.00  0.00     0.251 C 
ATOM     15  H   UNL A   1      31.242  21.328  25.914  1.00  0.00     0.164 HD
ATOM     16  O   UNL A   1      31.699  22.790  27.762  1.00  0.00    -0.269 OA
BRANCH  14  17
ATOM     17  C   UNL A   1      32.400  24.428  26.250  1.00  0.00     0.040 A 
ATOM     18  C   UNL A   1      33.757  24.665  26.013  1.00  0.00     0.017 A 
ATOM     19  C   UNL A   1      31.533  25.518  26.344  1.00  0.00     0.017 A 
ATOM     20  C   UNL A   1      34.225  25.972  25.833  1.00  0.00     0.047 A 
ATOM     21  C   UNL A   1      32.000  26.826  26.157  1.00  0.00     0.047 A 
ATOM     22  C   UNL A   1      33.351  27.061  25.903  1.00  0.00     0.126 A 
BRANCH  22  23
ATOM     23  O   UNL A   1      33.941  28.281  25.734  1.00  0.00    -0.435 OA
BRANCH  23  24
ATOM     24  C   UNL A   1      33.815  29.246  26.771  1.00  0.00     0.542 C 
ATOM     25  F   UNL A   1      34.291  28.738  27.934  1.00  0.00    -0.167 F 
ATOM     26  F   UNL A   1      34.531  30.355  26.468  1.00  0.00    -0.167 F 
ENDBRANCH  23  24
ENDBRANCH  22  23
ENDBRANCH  14  17
ENDBRANCH   5  13
ENDBRANCH   4   5
ENDBRANCH   2   4
ENDBRANCH   1   2
BRANCH   1  27
ATOM     27  C   UNL A   1      36.401  22.138  25.300  1.00  0.00     0.274 C 
BRANCH  27  28
ATOM     28  C   UNL A   1      37.875  22.067  25.715  1.00  0.00     0.275 C 
BRANCH  28  29
ATOM     29  O   UNL A   1      38.524  23.288  26.221  1.00  0.00    -0.458 OA
BRANCH  29  30
ATOM     30  C   UNL A   1      39.801  23.547  26.643  1.00  0.00     0.338 C 
ATOM     31  O   UNL A   1      40.705  22.755  26.535  1.00  0.00    -0.246 OA
BRANCH  30  32
ATOM     32  C   UNL A   1      40.068  24.878  27.211  1.00  0.00     0.060 A 
ATOM     33  C   UNL A   1      40.494  25.946  26.396  1.00  0.00     0.016 A 
ATOM     34  C   UNL A   1      39.734  25.081  28.531  1.00  0.00     0.016 A 
ATOM     35  C   UNL A   1      40.458  27.250  26.892  1.00  0.00     0.010 A 
ATOM     36  C   UNL A   1      39.438  26.357  28.911  1.00  0.00     0.010 A 
ATOM     37  C   UNL A   1      39.892  27.442  28.147  1.00  0.00    -0.014 A 
BRANCH  37  38
ATOM     38  C   UNL A   1      39.961  28.662  28.938  1.00  0.00     0.031 A 
ATOM     39  C   UNL A   1      38.902  29.675  28.967  1.00  0.00     0.074 A 
ATOM     40  C   UNL A   1      41.024  28.642  29.780  1.00  0.00     0.049 A 
ATOM     41  N   UNL A   1      39.105  30.894  29.318  1.00  0.00    -0.248 NA
ATOM     42  C   UNL A   1      37.510  29.426  28.614  1.00  0.00     0.031 C 
ATOM     43  C   UNL A   1      41.365  29.411  30.957  1.00  0.00     0.029 A 
ATOM     44  N   UNL A   1      42.151  27.817  29.602  1.00  0.00    -0.354 N 
ATOM     45  C   UNL A   1      37.872  31.435  29.622  1.00  0.00     0.074 A 
ATOM     46  C   UNL A   1      36.908  30.548  29.026  1.00  0.00     0.031 C 
ATOM     47  C   UNL A   1      42.694  29.283  31.170  1.00  0.00     0.029 A 
ATOM     48  C   UNL A   1      43.254  28.541  30.041  1.00  0.00     0.049 A 
ATOM     49  H   UNL A   1      42.158  26.903  29.237  1.00  0.00     0.167 HD
ATOM     50  C   UNL A   1      37.811  32.452  30.527  1.00  0.00     0.037 A 
ATOM     51  C   UNL A   1      44.084  29.001  29.058  1.00  0.00     0.037 A 
ATOM     52  C   UNL A   1      39.155  32.767  31.012  1.00  0.00     0.049 A 
ATOM     53  C   UNL A   1      43.998  30.508  28.937  1.00  0.00     0.074 A 
ATOM     54  C   UNL A   1      39.866  32.421  32.150  1.00  0.00     0.029 A 
ATOM     55  N   UNL A   1      40.101  33.184  30.096  1.00  0.00    -0.354 N 
ATOM     56  N   UNL A   1      43.064  31.234  29.488  1.00  0.00    -0.248 NA
ATOM     57  C   UNL A   1      44.931  31.312  28.158  1.00  0.00     0.031 C 
ATOM     58  C   UNL A   1      41.252  32.648  31.897  1.00  0.00     0.029 A 
ATOM     59  C   UNL A   1      41.381  33.127  30.607  1.00  0.00     0.049 A 
ATOM     60  H   UNL A   1      39.887  33.485  29.183  1.00  0.00     0.167 HD
ATOM     61  C   UNL A   1      43.267  32.554  29.215  1.00  0.00     0.074 A 
ATOM     62  C   UNL A   1      44.419  32.545  28.326  1.00  0.00     0.031 C 
ATOM     63  C   UNL A   1      42.478  33.539  29.745  1.00  0.00     0.037 A 
BRANCH  50  64
ATOM     64  C   UNL A   1      36.541  32.947  31.177  1.00  0.00     0.057 A 
ATOM     65  C   UNL A   1      35.704  33.867  30.515  1.00  0.00     0.134 A 
ATOM     66  C   UNL A   1      36.082  32.551  32.447  1.00  0.00     0.134 A 
ATOM     67  F   UNL A   1      35.965  34.292  29.274  1.00  0.00    -0.206 F 
ATOM     68  C   UNL A   1      34.549  34.408  31.092  1.00  0.00     0.040 A 
ATOM     69  C   UNL A   1      34.941  33.110  33.051  1.00  0.00     0.040 A 
ATOM     70  F   UNL A   1      36.692  31.579  33.140  1.00  0.00    -0.206 F 
ATOM     71  C   UNL A   1      34.174  34.049  32.375  1.00  0.00     0.006 A 
ENDBRANCH  50  64
BRANCH  51  72
ATOM     72  C   UNL A   1      44.216  28.026  27.905  1.00  0.00     0.057 A 
ATOM     73  C   UNL A   1      43.658  28.365  26.648  1.00  0.00     0.134 A 
ATOM     74  C   UNL A   1      45.140  26.974  27.896  1.00  0.00     0.134 A 
ATOM     75  F   UNL A   1      42.773  29.372  26.553  1.00  0.00    -0.206 F 
ATOM     76  C   UNL A   1      44.076  27.774  25.448  1.00  0.00     0.040 A 
ATOM     77  C   UNL A   1      45.541  26.352  26.701  1.00  0.00     0.040 A 
ATOM     78  F   UNL A   1      45.740  26.579  29.027  1.00  0.00    -0.206 F 
ATOM     79  C   UNL A   1      45.040  26.776  25.471  1.00  0.00     0.006 A 
ENDBRANCH  51  72
BRANCH  63  80
ATOM     80  C   UNL A   1      42.653  35.010  29.471  1.00  0.00     0.057 A 
ATOM     81  C   UNL A   1      43.442  35.843  30.269  1.00  0.00     0.134 A 
ATOM     82  C   UNL A   1      41.951  35.667  28.433  1.00  0.00     0.134 A 
ATOM     83  F   UNL A   1      44.025  35.390  31.388  1.00  0.00    -0.206 F 
ATOM     84  C   UNL A   1      43.632  37.198  29.971  1.00  0.00     0.040 A 
ATOM     85  C   UNL A   1      42.086  37.026  28.163  1.00  0.00     0.040 A 
ATOM     86  F   UNL A   1      41.103  35.032  27.615  1.00  0.00    -0.206 F 
ATOM     87  C   UNL A   1      42.959  37.791  28.911  1.00  0.00     0.006 A 
ENDBRANCH  63  80
ENDBRANCH  37  38
ENDBRANCH  30  32
ENDBRANCH  29  30
ENDBRANCH  28  29
ENDBRANCH  27  28
ENDBRANCH   1  27
TORSDOF 17
ENDMDL
MODEL 2
REMARK VINA RESULT:     -11.5      1.975      3.194
REMARK SMILES Cc1ccc([C@@H](CC(=O)OCCOC(=O)c2ccc(-c3c4nc(c(-c5c(F)cccc5F)c5ccc([nH]5)c(-c5c(F)cccc5F)c5nc(c(-c6c(F)cccc6F)c6ccc3[nH]6)C=C5)C=C4)cc2)NC(=O)c2ccc(OC(F)F)cc2)cc1
REMARK SMILES IDX 10 1 8 2 9 3 7 4 6 5 5 6 1 7 2 8 3 9 84 10 4 11 83 12 70 13
REMARK SMILES IDX 71 14 72 16 73 17 74 18 82 19 75 20 81 21 76 22 77 23 78 24
REMARK SMILES IDX 79 25 80 26 11 27 12 28 13 29 14 30 15 31 16 32 17 33 69 34
REMARK SMILES IDX 18 35 68 36 19 37 20 38 21 39 62 40 22 41 67 42 61 43 63 44
REMARK SMILES IDX 23 45 66 46 60 47 59 48 24 50 50 51 33 52 49 53 34 54 37 55
REMARK SMILES IDX 48 56 64 57 35 58 36 59 47 61 65 62 38 63 25 64 26 65 31 66
REMARK SMILES IDX 27 67 28 68 30 69 32 70 29 71 51 72 52 73 57 74 53 75 54 76
REMARK SMILES IDX 56 77 58 78 55 79 39 80 40 81 45 82 41 83 42 84 44 85 46 86
REMARK SMILES IDX 43 87
REMARK H PARENT 70 15 63 49 37 60
REMARK Flexibility Score: inf
ROOT
ATOM      1  O   UNL A   1      34.559  23.603  26.609  1.00  0.00    -0.462 OA
ENDROOT
BRANCH   1   2
ATOM      2  C   UNL A   1      33.330  23.549  26.037  1.00  0.00     0.308 C 
ATOM      3  O   UNL A   1      32.730  22.516  25.782  1.00  0.00    -0.252 OA
BRANCH   2   4
ATOM      4  C   UNL A   1      32.828  24.947  25.744  1.00  0.00     0.152 C 
BRANCH   4   5
ATOM      5  C   UNL A   1      33.989  25.954  25.562  1.00  0.00     0.123 C 
BRANCH   5   6
ATOM      6  C   UNL A   1      33.571  27.217  26.346  1.00  0.00    -0.025 A 
ATOM      7  C   UNL A   1      31.416  30.907  26.162  1.00  0.00     0.044 C 
ATOM      8  C   UNL A   1      32.212  29.672  26.467  1.00  0.00    -0.051 A 
ATOM      9  C   UNL A   1      33.589  29.644  26.238  1.00  0.00     0.004 A 
ATOM     10  C   UNL A   1      31.560  28.489  26.823  1.00  0.00     0.004 A 
ATOM     11  C   UNL A   1      34.279  28.427  26.228  1.00  0.00     0.006 A 
ATOM     12  C   UNL A   1      32.236  27.269  26.783  1.00  0.00     0.006 A 
ENDBRANCH   5   6
BRANCH   5  13
ATOM     13  N   UNL A   1      34.303  26.203  24.157  1.00  0.00    -0.345 N 
ATOM     14  C   UNL A   1      33.506  26.559  23.099  1.00  0.00     0.251 C 
ATOM     15  H   UNL A   1      35.254  26.095  23.929  1.00  0.00     0.164 HD
ATOM     16  O   UNL A   1      33.903  26.329  21.958  1.00  0.00    -0.269 OA
BRANCH  14  17
ATOM     17  C   UNL A   1      32.197  27.230  23.276  1.00  0.00     0.040 A 
ATOM     18  C   UNL A   1      31.048  26.440  23.369  1.00  0.00     0.017 A 
ATOM     19  C   UNL A   1      32.055  28.614  23.163  1.00  0.00     0.017 A 
ATOM     20  C   UNL A   1      29.781  27.035  23.388  1.00  0.00     0.047 A 
ATOM     21  C   UNL A   1      30.786  29.210  23.189  1.00  0.00     0.047 A 
ATOM     22  C   UNL A   1      29.641  28.424  23.299  1.00  0.00     0.126 A 
BRANCH  22  23
ATOM     23  O   UNL A   1      28.350  28.871  23.305  1.00  0.00    -0.435 OA
BRANCH  23  24
ATOM     24  C   UNL A   1      28.089  30.195  22.859  1.00  0.00     0.542 C 
ATOM     25  F   UNL A   1      27.405  30.162  21.688  1.00  0.00    -0.167 F 
ATOM     26  F   UNL A   1      27.336  30.856  23.771  1.00  0.00    -0.167 F 
ENDBRANCH  23  24
ENDBRANCH  22  23
ENDBRANCH  14  17
ENDBRANCH   5  13
ENDBRANCH   4   5
ENDBRANCH   2   4
ENDBRANCH   1   2
BRANCH   1  27
ATOM     27  C   UNL A   1      35.602  22.908  25.933  1.00  0.00     0.274 C 
BRANCH  27  28
ATOM     28  C   UNL A   1      36.876  23.758  25.977  1.00  0.00     0.275 C 
BRANCH  28  29
ATOM     29  O   UNL A   1      38.172  23.099  25.744  1.00  0.00    -0.458 OA
BRANCH  29  30
ATOM     30  C   UNL A   1      39.375  23.174  26.395  1.00  0.00     0.338 C 
ATOM     31  O   UNL A   1      40.158  22.258  26.444  1.00  0.00    -0.246 OA
BRANCH  30  32
ATOM     32  C   UNL A   1      39.726  24.461  27.018  1.00  0.00     0.060 A 
ATOM     33  C   UNL A   1      40.277  25.512  26.257  1.00  0.00     0.016 A 
ATOM     34  C   UNL A   1      39.351  24.653  28.328  1.00  0.00     0.016 A 
ATOM     35  C   UNL A   1      40.327  26.800  26.794  1.00  0.00     0.010 A 
ATOM     36  C   UNL A   1      39.145  25.937  28.736  1.00  0.00     0.010 A 
ATOM     37  C   UNL A   1      39.723  27.003  28.030  1.00  0.00    -0.014 A 
BRANCH  37  38
ATOM     38  C   UNL A   1      39.858  28.188  28.862  1.00  0.00     0.031 A 
ATOM     39  C   UNL A   1      38.875  29.276  28.896  1.00  0.00     0.074 A 
ATOM     40  C   UNL A   1      40.890  28.062  29.732  1.00  0.00     0.049 A 
ATOM     41  N   UNL A   1      39.157  30.465  29.293  1.00  0.00    -0.248 NA
ATOM     42  C   UNL A   1      37.480  29.142  28.497  1.00  0.00     0.031 C 
ATOM     43  C   UNL A   1      41.251  28.767  30.943  1.00  0.00     0.029 A 
ATOM     44  N   UNL A   1      41.959  27.162  29.559  1.00  0.00    -0.354 N 
ATOM     45  C   UNL A   1      37.959  31.087  29.580  1.00  0.00     0.074 A 
ATOM     46  C   UNL A   1      36.950  30.293  28.929  1.00  0.00     0.031 C 
ATOM     47  C   UNL A   1      42.560  28.533  31.189  1.00  0.00     0.029 A 
ATOM     48  C   UNL A   1      43.098  27.788  30.052  1.00  0.00     0.049 A 
ATOM     49  H   UNL A   1      41.909  26.262  29.163  1.00  0.00     0.167 HD
ATOM     50  C   UNL A   1      37.945  32.076  30.517  1.00  0.00     0.037 A 
ATOM     51  C   UNL A   1      43.988  28.214  29.108  1.00  0.00     0.037 A 
ATOM     52  C   UNL A   1      39.294  32.274  31.050  1.00  0.00     0.049 A 
ATOM     53  C   UNL A   1      44.018  29.727  29.035  1.00  0.00     0.074 A 
ATOM     54  C   UNL A   1      39.942  31.841  32.195  1.00  0.00     0.029 A 
ATOM     55  N   UNL A   1      40.295  32.648  30.175  1.00  0.00    -0.354 N 
ATOM     56  N   UNL A   1      43.123  30.503  29.585  1.00  0.00    -0.248 NA
ATOM     57  C   UNL A   1      45.030  30.484  28.310  1.00  0.00     0.031 C 
ATOM     58  C   UNL A   1      41.349  31.972  31.988  1.00  0.00     0.029 A 
ATOM     59  C   UNL A   1      41.551  32.481  30.719  1.00  0.00     0.049 A 
ATOM     60  H   UNL A   1      40.131  32.993  29.267  1.00  0.00     0.167 HD
ATOM     61  C   UNL A   1      43.431  31.813  29.362  1.00  0.00     0.074 A 
ATOM     62  C   UNL A   1      44.606  31.745  28.506  1.00  0.00     0.031 C 
ATOM     63  C   UNL A   1      42.701  32.836  29.903  1.00  0.00     0.037 A 
BRANCH  50  64
ATOM     64  C   UNL A   1      36.696  32.643  31.148  1.00  0.00     0.057 A 
ATOM     65  C   UNL A   1      35.968  33.668  30.510  1.00  0.00     0.134 A 
ATOM     66  C   UNL A   1      36.153  32.221  32.375  1.00  0.00     0.134 A 
ATOM     67  F   UNL A   1      36.314  34.135  29.305  1.00  0.00    -0.206 F 
ATOM     68  C   UNL A   1      34.840  34.275  31.075  1.00  0.00     0.040 A 
ATOM     69  C   UNL A   1      35.040  32.844  32.969  1.00  0.00     0.040 A 
ATOM     70  F   UNL A   1      36.650  31.164  33.033  1.00  0.00    -0.206 F 
ATOM     71  C   UNL A   1      34.383  33.881  32.320  1.00  0.00     0.006 A 
ENDBRANCH  50  64
BRANCH  51  72
ATOM     72  C   UNL A   1      44.084  27.270  27.927  1.00  0.00     0.057 A 
ATOM     73  C   UNL A   1      43.602  27.693  26.665  1.00  0.00     0.134 A 
ATOM     74  C   UNL A   1      44.918  26.146  27.914  1.00  0.00     0.134 A 
ATOM     75  F   UNL A   1      42.807  28.773  26.574  1.00  0.00    -0.206 F 
ATOM     76  C   UNL A   1      44.014  27.108  25.459  1.00  0.00     0.040 A 
ATOM     77  C   UNL A   1      45.312  25.530  26.712  1.00  0.00     0.040 A 
ATOM     78  F   UNL A   1      45.442  25.667  29.050  1.00  0.00    -0.206 F 
ATOM     79  C   UNL A   1      44.892  26.033  25.481  1.00  0.00     0.006 A 
ENDBRANCH  51  72
BRANCH  63  80
ATOM     80  C   UNL A   1      42.992  34.298  29.683  1.00  0.00     0.057 A 
ATOM     81  C   UNL A   1      43.013  34.887  28.416  1.00  0.00     0.134 A 
ATOM     82  C   UNL A   1      43.356  35.157  30.747  1.00  0.00     0.134 A 
ATOM     83  F   UNL A   1      42.859  34.154  27.304  1.00  0.00    -0.206 F 
ATOM     84  C   UNL A   1      43.237  36.256  28.234  1.00  0.00     0.040 A 
ATOM     85  C   UNL A   1      43.639  36.509  30.573  1.00  0.00     0.040 A 
ATOM     86  F   UNL A   1      43.449  34.742  32.017  1.00  0.00    -0.206 F 
ATOM     87  C   UNL A   1      43.544  37.073  29.316  1.00  0.00     0.006 A 
ENDBRANCH  63  80
ENDBRANCH  37  38
ENDBRANCH  30  32
ENDBRANCH  29  30
ENDBRANCH  28  29
ENDBRANCH  27  28
ENDBRANCH   1  27
TORSDOF 17
ENDMDL
MODEL 3
REMARK VINA RESULT:     -11.5      1.365      2.201
REMARK SMILES Cc1ccc([C@@H](CC(=O)OCCOC(=O)c2ccc(-c3c4nc(c(-c5c(F)cccc5F)c5ccc([nH]5)c(-c5c(F)cccc5F)c5nc(c(-c6c(F)cccc6F)c6ccc3[nH]6)C=C5)C=C4)cc2)NC(=O)c2ccc(OC(F)F)cc2)cc1
REMARK SMILES IDX 10 1 8 2 9 3 7 4 6 5 5 6 1 7 2 8 3 9 84 10 4 11 83 12 70 13
REMARK SMILES IDX 71 14 72 16 73 17 74 18 82 19 75 20 81 21 76 22 77 23 78 24
REMARK SMILES IDX 79 25 80 26 11 27 12 28 13 29 14 30 15 31 16 32 17 33 69 34
REMARK SMILES IDX 18 35 68 36 19 37 20 38 21 39 62 40 22 41 67 42 61 43 63 44
REMARK SMILES IDX 23 45 66 46 60 47 59 48 24 50 50 51 33 52 49 53 34 54 37 55
REMARK SMILES IDX 48 56 64 57 35 58 36 59 47 61 65 62 38 63 25 64 26 65 31 66
REMARK SMILES IDX 27 67 28 68 30 69 32 70 29 71 51 72 52 73 57 74 53 75 54 76
REMARK SMILES IDX 56 77 58 78 55 79 39 80 40 81 45 82 41 83 42 84 44 85 46 86
REMARK SMILES IDX 43 87
REMARK H PARENT 70 15 63 49 37 60
REMARK Flexibility Score: inf
ROOT
ATOM      1  O   UNL A   1      34.985  24.079  24.512  1.00  0.00    -0.462 OA
ENDROOT
BRANCH   1   2
ATOM      2  C   UNL A   1      34.320  24.137  23.332  1.00  0.00     0.308 C 
ATOM      3  O   UNL A   1      34.433  23.318  22.433  1.00  0.00    -0.252 OA
BRANCH   2   4
ATOM      4  C   UNL A   1      33.443  25.371  23.286  1.00  0.00     0.152 C 
BRANCH   4   5
ATOM      5  C   UNL A   1      31.949  25.028  23.501  1.00  0.00     0.123 C 
BRANCH   5   6
ATOM      6  C   UNL A   1      31.163  26.244  22.963  1.00  0.00    -0.025 A 
ATOM      7  C   UNL A   1      29.784  30.198  23.837  1.00  0.00     0.044 C 
ATOM      8  C   UNL A   1      30.166  28.848  23.305  1.00  0.00    -0.051 A 
ATOM      9  C   UNL A   1      29.332  27.745  23.505  1.00  0.00     0.004 A 
ATOM     10  C   UNL A   1      31.433  28.646  22.750  1.00  0.00     0.004 A 
ATOM     11  C   UNL A   1      29.809  26.449  23.287  1.00  0.00     0.006 A 
ATOM     12  C   UNL A   1      31.925  27.354  22.561  1.00  0.00     0.006 A 
ENDBRANCH   5   6
BRANCH   5  13
ATOM     13  N   UNL A   1      31.644  24.690  24.890  1.00  0.00    -0.345 N 
ATOM     14  C   UNL A   1      31.978  25.306  26.068  1.00  0.00     0.251 C 
ATOM     15  H   UNL A   1      31.103  23.875  24.998  1.00  0.00     0.164 HD
ATOM     16  O   UNL A   1      31.956  24.647  27.106  1.00  0.00    -0.269 OA
BRANCH  14  17
ATOM     17  C   UNL A   1      32.342  26.741  26.144  1.00  0.00     0.040 A 
ATOM     18  C   UNL A   1      33.687  27.097  26.003  1.00  0.00     0.017 A 
ATOM     19  C   UNL A   1      31.424  27.717  26.535  1.00  0.00     0.017 A 
ATOM     20  C   UNL A   1      34.092  28.421  26.215  1.00  0.00     0.047 A 
ATOM     21  C   UNL A   1      31.830  29.044  26.739  1.00  0.00     0.047 A 
ATOM     22  C   UNL A   1      33.167  29.403  26.583  1.00  0.00     0.126 A 
BRANCH  22  23
ATOM     23  O   UNL A   1      33.699  30.645  26.780  1.00  0.00    -0.435 OA
BRANCH  23  24
ATOM     24  C   UNL A   1      33.147  31.465  27.802  1.00  0.00     0.542 C 
ATOM     25  F   UNL A   1      34.121  31.847  28.665  1.00  0.00    -0.167 F 
ATOM     26  F   UNL A   1      32.599  32.580  27.262  1.00  0.00    -0.167 F 
ENDBRANCH  23  24
ENDBRANCH  22  23
ENDBRANCH  14  17
ENDBRANCH   5  13
ENDBRANCH   4   5
ENDBRANCH   2   4
ENDBRANCH   1   2
BRANCH   1  27
ATOM     27  C   UNL A   1      36.141  23.247  24.547  1.00  0.00     0.274 C 
BRANCH  27  28
ATOM     28  C   UNL A   1      37.097  23.770  25.625  1.00  0.00     0.275 C 
BRANCH  28  29
ATOM     29  O   UNL A   1      38.158  22.877  26.119  1.00  0.00    -0.458 OA
BRANCH  29  30
ATOM     30  C   UNL A   1      39.476  23.090  26.425  1.00  0.00     0.338 C 
ATOM     31  O   UNL A   1      40.345  22.283  26.203  1.00  0.00    -0.246 OA
BRANCH  30  32
ATOM     32  C   UNL A   1      39.830  24.394  27.011  1.00  0.00     0.060 A 
ATOM     33  C   UNL A   1      40.388  25.419  26.222  1.00  0.00     0.016 A 
ATOM     34  C   UNL A   1      39.450  24.626  28.314  1.00  0.00     0.016 A 
ATOM     35  C   UNL A   1      40.443  26.722  26.721  1.00  0.00     0.010 A 
ATOM     36  C   UNL A   1      39.248  25.923  28.683  1.00  0.00     0.010 A 
ATOM     37  C   UNL A   1      39.834  26.964  27.947  1.00  0.00    -0.014 A 
BRANCH  37  38
ATOM     38  C   UNL A   1      39.971  28.173  28.745  1.00  0.00     0.031 A 
ATOM     39  C   UNL A   1      38.991  29.263  28.746  1.00  0.00     0.074 A 
ATOM     40  C   UNL A   1      41.002  28.070  29.620  1.00  0.00     0.049 A 
ATOM     41  N   UNL A   1      39.275  30.463  29.108  1.00  0.00    -0.248 NA
ATOM     42  C   UNL A   1      37.596  29.121  28.348  1.00  0.00     0.031 C 
ATOM     43  C   UNL A   1      41.363  28.809  30.810  1.00  0.00     0.029 A 
ATOM     44  N   UNL A   1      42.068  27.163  29.474  1.00  0.00    -0.354 N 
ATOM     45  C   UNL A   1      38.078  31.096  29.375  1.00  0.00     0.074 A 
ATOM     46  C   UNL A   1      37.068  30.285  28.746  1.00  0.00     0.031 C 
ATOM     47  C   UNL A   1      42.671  28.580  31.064  1.00  0.00     0.029 A 
ATOM     48  C   UNL A   1      43.208  27.800  29.950  1.00  0.00     0.049 A 
ATOM     49  H   UNL A   1      42.017  26.251  29.105  1.00  0.00     0.167 HD
ATOM     50  C   UNL A   1      38.065  32.112  30.283  1.00  0.00     0.037 A 
ATOM     51  C   UNL A   1      44.101  28.197  28.995  1.00  0.00     0.037 A 
ATOM     52  C   UNL A   1      39.414  32.323  30.812  1.00  0.00     0.049 A 
ATOM     53  C   UNL A   1      44.134  29.707  28.878  1.00  0.00     0.074 A 
ATOM     54  C   UNL A   1      40.060  31.922  31.969  1.00  0.00     0.029 A 
ATOM     55  N   UNL A   1      40.417  32.669  29.927  1.00  0.00    -0.354 N 
ATOM     56  N   UNL A   1      43.241  30.501  29.404  1.00  0.00    -0.248 NA
ATOM     57  C   UNL A   1      45.149  30.439  28.133  1.00  0.00     0.031 C 
ATOM     58  C   UNL A   1      41.467  32.043  31.761  1.00  0.00     0.029 A 
ATOM     59  C   UNL A   1      41.672  32.514  30.477  1.00  0.00     0.049 A 
ATOM     60  H   UNL A   1      40.255  32.987  29.010  1.00  0.00     0.167 HD
ATOM     61  C   UNL A   1      43.552  31.802  29.143  1.00  0.00     0.074 A 
ATOM     62  C   UNL A   1      44.728  31.707  28.290  1.00  0.00     0.031 C 
ATOM     63  C   UNL A   1      42.824  32.843  29.652  1.00  0.00     0.037 A 
BRANCH  50  64
ATOM     64  C   UNL A   1      36.817  32.701  30.895  1.00  0.00     0.057 A 
ATOM     65  C   UNL A   1      36.342  32.245  32.142  1.00  0.00     0.134 A 
ATOM     66  C   UNL A   1      36.043  33.723  30.317  1.00  0.00     0.134 A 
ATOM     67  F   UNL A   1      37.001  31.323  32.854  1.00  0.00    -0.206 F 
ATOM     68  C   UNL A   1      35.159  32.708  32.729  1.00  0.00     0.040 A 
ATOM     69  C   UNL A   1      34.836  34.175  30.881  1.00  0.00     0.040 A 
ATOM     70  F   UNL A   1      36.440  34.356  29.204  1.00  0.00    -0.206 F 
ATOM     71  C   UNL A   1      34.386  33.661  32.089  1.00  0.00     0.006 A 
ENDBRANCH  50  64
BRANCH  51  72
ATOM     72  C   UNL A   1      44.196  27.218  27.843  1.00  0.00     0.057 A 
ATOM     73  C   UNL A   1      43.731  27.611  26.564  1.00  0.00     0.134 A 
ATOM     74  C   UNL A   1      45.016  26.083  27.869  1.00  0.00     0.134 A 
ATOM     75  F   UNL A   1      42.950  28.697  26.435  1.00  0.00    -0.206 F 
ATOM     76  C   UNL A   1      44.147  26.987  25.380  1.00  0.00     0.040 A 
ATOM     77  C   UNL A   1      45.413  25.429  26.689  1.00  0.00     0.040 A 
ATOM     78  F   UNL A   1      45.523  25.631  29.024  1.00  0.00    -0.206 F 
ATOM     79  C   UNL A   1      45.011  25.902  25.440  1.00  0.00     0.006 A 
ENDBRANCH  51  72
BRANCH  63  80
ATOM     80  C   UNL A   1      43.119  34.297  29.391  1.00  0.00     0.057 A 
ATOM     81  C   UNL A   1      43.131  34.850  28.108  1.00  0.00     0.134 A 
ATOM     82  C   UNL A   1      43.495  35.183  30.428  1.00  0.00     0.134 A 
ATOM     83  F   UNL A   1      42.965  34.089  27.018  1.00  0.00    -0.206 F 
ATOM     84  C   UNL A   1      43.359  36.214  27.887  1.00  0.00     0.040 A 
ATOM     85  C   UNL A   1      43.781  36.528  30.214  1.00  0.00     0.040 A 
ATOM     86  F   UNL A   1      43.597  34.802  31.707  1.00  0.00    -0.206 F 
ATOM     87  C   UNL A   1      43.678  37.059  28.943  1.00  0.00     0.006 A 
ENDBRANCH  63  80
ENDBRANCH  37  38
ENDBRANCH  30  32
ENDBRANCH  29  30
ENDBRANCH  28  29
ENDBRANCH  27  28
ENDBRANCH   1  27
TORSDOF 17
ENDMDL
