MODEL 1
REMARK VINA RESULT:     -11.8      0.000      0.000
REMARK SMILES Cc1nn(C)c(=O)c(C(=O)N[C@H]2C=C[C@H](C(=O)OCCOC(=O)c3ccc(-c4c5nc(c(-c6c(F)cccc6F)c6ccc([nH]6)c(-c6c(F)cccc6F)c6nc(c(-c7c(F)cccc7F)c7ccc4[nH]7)C=C6)C=C5)cc3)C2)c1C
REMARK SMILES IDX 19 1 18 2 16 3 17 4 15 5 12 6 13 7 78 8 14 9 11 10 9 11
REMARK SMILES IDX 10 12 8 14 1 15 2 16 3 17 79 18 4 19 80 20 5 21 6 22 7 23
REMARK SMILES IDX 20 24 21 25 22 26 23 27 24 28 25 29 77 30 26 31 76 32 27 33
REMARK SMILES IDX 28 34 29 35 70 36 30 37 75 38 69 39 71 40 31 41 74 42 68 43
REMARK SMILES IDX 67 44 32 46 58 47 41 48 57 49 42 50 45 51 56 52 72 53 43 54
REMARK SMILES IDX 44 55 55 57 73 58 46 59 33 60 34 61 39 62 35 63 36 64 38 65
REMARK SMILES IDX 40 66 37 67 59 68 60 69 65 70 61 71 62 72 64 73 66 74 63 75
REMARK SMILES IDX 47 76 48 77 53 78 49 79 50 80 52 81 54 82 51 83
REMARK H PARENT 11 13 71 45 45 56
REMARK Flexibility Score: inf
ROOT
ATOM      1  C   UNL A   1      36.182  22.431  23.844  1.00  0.00     0.274 C 
ENDROOT
BRANCH   1   2
ATOM      2  O   UNL A   1      34.809  22.826  24.099  1.00  0.00    -0.462 OA
BRANCH   2   3
ATOM      3  C   UNL A   1      33.957  22.886  23.030  1.00  0.00     0.312 C 
ATOM      4  O   UNL A   1      34.268  23.320  21.927  1.00  0.00    -0.252 OA
BRANCH   3   5
ATOM      5  C   UNL A   1      32.568  22.289  23.325  1.00  0.00     0.124 C 
ATOM      6  C   UNL A   1      31.509  23.548  25.112  1.00  0.00     0.106 C 
ATOM      7  C   UNL A   1      31.876  22.172  25.573  1.00  0.00    -0.006 C 
ATOM      8  C   UNL A   1      31.497  23.339  23.592  1.00  0.00     0.048 C 
ATOM      9  C   UNL A   1      32.478  21.486  24.589  1.00  0.00    -0.014 C 
BRANCH   6  10
ATOM     10  N   UNL A   1      30.274  23.990  25.722  1.00  0.00    -0.346 N 
ATOM     11  C   UNL A   1      29.880  25.264  26.048  1.00  0.00     0.257 C 
ATOM     12  O   UNL A   1      28.991  25.450  26.872  1.00  0.00    -0.269 OA
ATOM     13  H   UNL A   1      29.627  23.279  25.935  1.00  0.00     0.164 HD
BRANCH  11  14
ATOM     14  C   UNL A   1      30.540  26.396  25.358  1.00  0.00     0.111 A 
ATOM     15  C   UNL A   1      29.660  29.383  23.313  1.00  0.00     0.069 C 
ATOM     16  C   UNL A   1      30.533  28.342  23.983  1.00  0.00     0.062 A 
ATOM     17  N   UNL A   1      31.699  28.750  24.369  1.00  0.00    -0.175 NA
ATOM     18  C   UNL A   1      29.945  27.013  24.321  1.00  0.00    -0.010 A 
ATOM     19  N   UNL A   1      32.414  27.939  25.209  1.00  0.00    -0.232 N 
ATOM     20  C   UNL A   1      28.719  26.548  23.601  1.00  0.00     0.047 C 
ATOM     21  C   UNL A   1      33.741  28.409  25.565  1.00  0.00     0.178 C 
ATOM     22  C   UNL A   1      31.866  26.843  25.862  1.00  0.00     0.279 A 
ATOM     23  O   UNL A   1      32.417  26.262  26.793  1.00  0.00    -0.267 OA
ENDBRANCH  11  14
ENDBRANCH   6  10
ENDBRANCH   3   5
ENDBRANCH   2   3
ENDBRANCH   1   2
BRANCH   1  24
ATOM     24  C   UNL A   1      36.556  21.179  24.642  1.00  0.00     0.275 C 
BRANCH  24  25
ATOM     25  O   UNL A   1      37.219  21.609  25.839  1.00  0.00    -0.458 OA
BRANCH  25  26
ATOM     26  C   UNL A   1      38.522  21.282  25.966  1.00  0.00     0.338 C 
ATOM     27  O   UNL A   1      39.093  20.283  25.556  1.00  0.00    -0.246 OA
BRANCH  26  28
ATOM     28  C   UNL A   1      39.202  22.448  26.543  1.00  0.00     0.060 A 
ATOM     29  C   UNL A   1      38.730  23.703  26.163  1.00  0.00     0.016 A 
ATOM     30  C   UNL A   1      40.327  22.340  27.353  1.00  0.00     0.016 A 
ATOM     31  C   UNL A   1      39.411  24.853  26.516  1.00  0.00     0.010 A 
ATOM     32  C   UNL A   1      40.966  23.510  27.787  1.00  0.00     0.010 A 
ATOM     33  C   UNL A   1      40.531  24.774  27.344  1.00  0.00    -0.014 A 
BRANCH  33  34
ATOM     34  C   UNL A   1      41.282  26.018  27.645  1.00  0.00     0.031 A 
ATOM     35  C   UNL A   1      40.665  27.051  28.545  1.00  0.00     0.074 A 
ATOM     36  C   UNL A   1      42.547  26.177  27.210  1.00  0.00     0.049 A 
ATOM     37  N   UNL A   1      41.072  28.264  28.812  1.00  0.00    -0.248 NA
ATOM     38  C   UNL A   1      39.422  26.668  29.236  1.00  0.00     0.031 C 
ATOM     39  C   UNL A   1      43.306  25.198  26.428  1.00  0.00     0.029 A 
ATOM     40  N   UNL A   1      43.434  27.208  27.394  1.00  0.00    -0.354 N 
ATOM     41  C   UNL A   1      40.103  28.809  29.644  1.00  0.00     0.074 A 
ATOM     42  C   UNL A   1      39.094  27.795  29.849  1.00  0.00     0.031 C 
ATOM     43  C   UNL A   1      44.558  25.647  26.254  1.00  0.00     0.029 A 
ATOM     44  C   UNL A   1      44.662  26.987  26.818  1.00  0.00     0.049 A 
ATOM     45  H   UNL A   1      43.212  28.028  27.892  1.00  0.00     0.167 HD
ATOM     46  C   UNL A   1      40.063  30.051  30.180  1.00  0.00     0.037 A 
ATOM     47  C   UNL A   1      45.736  27.793  26.715  1.00  0.00     0.037 A 
ATOM     48  C   UNL A   1      41.105  31.029  30.015  1.00  0.00     0.049 A 
ATOM     49  C   UNL A   1      45.647  29.187  27.264  1.00  0.00     0.074 A 
ATOM     50  C   UNL A   1      41.152  32.330  30.483  1.00  0.00     0.029 A 
ATOM     51  N   UNL A   1      42.300  30.798  29.348  1.00  0.00    -0.354 N 
ATOM     52  N   UNL A   1      44.669  29.746  27.935  1.00  0.00    -0.248 NA
ATOM     53  C   UNL A   1      46.788  30.076  27.005  1.00  0.00     0.031 C 
ATOM     54  C   UNL A   1      42.365  32.894  30.076  1.00  0.00     0.029 A 
ATOM     55  C   UNL A   1      43.088  31.934  29.385  1.00  0.00     0.049 A 
ATOM     56  H   UNL A   1      42.549  29.951  28.913  1.00  0.00     0.167 HD
ATOM     57  C   UNL A   1      45.071  31.053  28.174  1.00  0.00     0.074 A 
ATOM     58  C   UNL A   1      46.393  31.195  27.599  1.00  0.00     0.031 C 
ATOM     59  C   UNL A   1      44.399  32.049  28.800  1.00  0.00     0.037 A 
BRANCH  46  60
ATOM     60  C   UNL A   1      38.835  30.433  30.948  1.00  0.00     0.057 A 
ATOM     61  C   UNL A   1      38.728  30.240  32.330  1.00  0.00     0.134 A 
ATOM     62  C   UNL A   1      37.746  31.021  30.289  1.00  0.00     0.134 A 
ATOM     63  F   UNL A   1      39.726  29.661  33.015  1.00  0.00    -0.206 F 
ATOM     64  C   UNL A   1      37.575  30.604  33.029  1.00  0.00     0.040 A 
ATOM     65  C   UNL A   1      36.597  31.409  30.980  1.00  0.00     0.040 A 
ATOM     66  F   UNL A   1      37.785  31.230  28.965  1.00  0.00    -0.206 F 
ATOM     67  C   UNL A   1      36.508  31.197  32.354  1.00  0.00     0.006 A 
ENDBRANCH  46  60
BRANCH  47  68
ATOM     68  C   UNL A   1      46.957  27.314  26.018  1.00  0.00     0.057 A 
ATOM     69  C   UNL A   1      47.982  26.668  26.717  1.00  0.00     0.134 A 
ATOM     70  C   UNL A   1      47.113  27.459  24.634  1.00  0.00     0.134 A 
ATOM     71  F   UNL A   1      47.903  26.520  28.047  1.00  0.00    -0.206 F 
ATOM     72  C   UNL A   1      49.115  26.177  26.064  1.00  0.00     0.040 A 
ATOM     73  C   UNL A   1      48.228  26.952  23.964  1.00  0.00     0.040 A 
ATOM     74  F   UNL A   1      46.167  28.072  23.906  1.00  0.00    -0.206 F 
ATOM     75  C   UNL A   1      49.234  26.309  24.681  1.00  0.00     0.006 A 
ENDBRANCH  47  68
BRANCH  59  76
ATOM     76  C   UNL A   1      45.082  33.377  28.896  1.00  0.00     0.057 A 
ATOM     77  C   UNL A   1      44.865  34.378  27.942  1.00  0.00     0.134 A 
ATOM     78  C   UNL A   1      45.907  33.681  29.985  1.00  0.00     0.134 A 
ATOM     79  F   UNL A   1      44.093  34.140  26.871  1.00  0.00    -0.206 F 
ATOM     80  C   UNL A   1      45.454  35.637  28.064  1.00  0.00     0.040 A 
ATOM     81  C   UNL A   1      46.485  34.942  30.129  1.00  0.00     0.040 A 
ATOM     82  F   UNL A   1      46.145  32.765  30.936  1.00  0.00    -0.206 F 
ATOM     83  C   UNL A   1      46.260  35.924  29.165  1.00  0.00     0.006 A 
ENDBRANCH  59  76
ENDBRANCH  33  34
ENDBRANCH  26  28
ENDBRANCH  25  26
ENDBRANCH  24  25
ENDBRANCH   1  24
TORSDOF 13
ENDMDL
MODEL 2
REMARK VINA RESULT:     -11.7      3.894      8.924
REMARK SMILES Cc1nn(C)c(=O)c(C(=O)N[C@H]2C=C[C@H](C(=O)OCCOC(=O)c3ccc(-c4c5nc(c(-c6c(F)cccc6F)c6ccc([nH]6)c(-c6c(F)cccc6F)c6nc(c(-c7c(F)cccc7F)c7ccc4[nH]7)C=C6)C=C5)cc3)C2)c1C
REMARK SMILES IDX 19 1 18 2 16 3 17 4 15 5 12 6 13 7 78 8 14 9 11 10 9 11
REMARK SMILES IDX 10 12 8 14 1 15 2 16 3 17 79 18 4 19 80 20 5 21 6 22 7 23
REMARK SMILES IDX 20 24 21 25 22 26 23 27 24 28 25 29 77 30 26 31 76 32 27 33
REMARK SMILES IDX 28 34 29 35 70 36 30 37 75 38 69 39 71 40 31 41 74 42 68 43
REMARK SMILES IDX 67 44 32 46 58 47 41 48 57 49 42 50 45 51 56 52 72 53 43 54
REMARK SMILES IDX 44 55 55 57 73 58 46 59 33 60 34 61 39 62 35 63 36 64 38 65
REMARK SMILES IDX 40 66 37 67 59 68 60 69 65 70 61 71 62 72 64 73 66 74 63 75
REMARK SMILES IDX 47 76 48 77 53 78 49 79 50 80 52 81 54 82 51 83
REMARK H PARENT 11 13 71 45 45 56
REMARK Flexibility Score: inf
ROOT
ATOM      1  C   UNL A   1      31.389  29.547  25.068  1.00  0.00     0.274 C 
ENDROOT
BRANCH   1   2
ATOM      2  O   UNL A   1      32.749  29.263  24.648  1.00  0.00    -0.462 OA
BRANCH   2   3
ATOM      3  C   UNL A   1      32.972  28.094  23.973  1.00  0.00     0.312 C 
ATOM      4  O   UNL A   1      34.085  27.655  23.706  1.00  0.00    -0.252 OA
BRANCH   3   5
ATOM      5  C   UNL A   1      31.677  27.334  23.628  1.00  0.00     0.124 C 
ATOM      6  C   UNL A   1      32.236  25.158  22.703  1.00  0.00     0.106 C 
ATOM      7  C   UNL A   1      31.647  26.049  21.655  1.00  0.00    -0.006 C 
ATOM      8  C   UNL A   1      31.729  25.852  23.975  1.00  0.00     0.048 C 
ATOM      9  C   UNL A   1      31.356  27.256  22.165  1.00  0.00    -0.014 C 
BRANCH   6  10
ATOM     10  N   UNL A   1      31.837  23.783  22.503  1.00  0.00    -0.346 N 
ATOM     11  C   UNL A   1      32.464  22.634  22.919  1.00  0.00     0.257 C 
ATOM     12  O   UNL A   1      32.218  21.560  22.378  1.00  0.00    -0.269 OA
ATOM     13  H   UNL A   1      31.002  23.652  21.999  1.00  0.00     0.164 HD
BRANCH  11  14
ATOM     14  C   UNL A   1      33.417  22.727  24.048  1.00  0.00     0.111 A 
ATOM     15  C   UNL A   1      33.849  21.446  27.519  1.00  0.00     0.069 C 
ATOM     16  C   UNL A   1      34.122  22.269  26.276  1.00  0.00     0.062 A 
ATOM     17  N   UNL A   1      35.364  22.563  26.059  1.00  0.00    -0.175 NA
ATOM     18  C   UNL A   1      33.010  22.516  25.313  1.00  0.00    -0.010 A 
ATOM     19  N   UNL A   1      35.695  23.065  24.828  1.00  0.00    -0.232 N 
ATOM     20  C   UNL A   1      31.595  22.388  25.777  1.00  0.00     0.047 C 
ATOM     21  C   UNL A   1      37.087  23.437  24.651  1.00  0.00     0.178 C 
ATOM     22  C   UNL A   1      34.837  23.038  23.737  1.00  0.00     0.279 A 
ATOM     23  O   UNL A   1      35.200  23.255  22.583  1.00  0.00    -0.267 OA
ENDBRANCH  11  14
ENDBRANCH   6  10
ENDBRANCH   3   5
ENDBRANCH   2   3
ENDBRANCH   1   2
BRANCH   1  24
ATOM     24  C   UNL A   1      31.294  30.915  25.750  1.00  0.00     0.275 C 
BRANCH  24  25
ATOM     25  O   UNL A   1      32.185  30.904  26.873  1.00  0.00    -0.458 OA
BRANCH  25  26
ATOM     26  C   UNL A   1      32.743  32.081  27.221  1.00  0.00     0.338 C 
ATOM     27  O   UNL A   1      32.228  33.189  27.229  1.00  0.00    -0.246 OA
BRANCH  26  28
ATOM     28  C   UNL A   1      34.068  31.779  27.779  1.00  0.00     0.060 A 
ATOM     29  C   UNL A   1      34.362  30.437  28.007  1.00  0.00     0.016 A 
ATOM     30  C   UNL A   1      34.967  32.768  28.165  1.00  0.00     0.016 A 
ATOM     31  C   UNL A   1      35.508  30.068  28.687  1.00  0.00     0.010 A 
ATOM     32  C   UNL A   1      36.172  32.390  28.772  1.00  0.00     0.010 A 
ATOM     33  C   UNL A   1      36.436  31.038  29.066  1.00  0.00    -0.014 A 
BRANCH  33  34
ATOM     34  C   UNL A   1      37.620  30.619  29.857  1.00  0.00     0.031 A 
ATOM     35  C   UNL A   1      38.705  29.821  29.191  1.00  0.00     0.074 A 
ATOM     36  C   UNL A   1      37.780  31.039  31.127  1.00  0.00     0.049 A 
ATOM     37  N   UNL A   1      39.737  29.223  29.724  1.00  0.00    -0.248 NA
ATOM     38  C   UNL A   1      38.613  29.673  27.728  1.00  0.00     0.031 C 
ATOM     39  C   UNL A   1      36.860  31.917  31.854  1.00  0.00     0.029 A 
ATOM     40  N   UNL A   1      38.794  30.814  32.024  1.00  0.00    -0.354 N 
ATOM     41  C   UNL A   1      40.378  28.576  28.676  1.00  0.00     0.074 A 
ATOM     42  C   UNL A   1      39.628  28.860  27.474  1.00  0.00     0.031 C 
ATOM     43  C   UNL A   1      37.380  32.203  33.056  1.00  0.00     0.029 A 
ATOM     44  C   UNL A   1      38.616  31.450  33.228  1.00  0.00     0.049 A 
ATOM     45  H   UNL A   1      39.576  30.250  31.822  1.00  0.00     0.167 HD
ATOM     46  C   UNL A   1      41.491  27.807  28.723  1.00  0.00     0.037 A 
ATOM     47  C   UNL A   1      39.342  31.395  34.360  1.00  0.00     0.037 A 
ATOM     48  C   UNL A   1      42.260  27.582  29.917  1.00  0.00     0.049 A 
ATOM     49  C   UNL A   1      40.538  30.489  34.408  1.00  0.00     0.074 A 
ATOM     50  C   UNL A   1      43.383  26.792  30.086  1.00  0.00     0.029 A 
ATOM     51  N   UNL A   1      41.997  28.176  31.143  1.00  0.00    -0.354 N 
ATOM     52  N   UNL A   1      41.063  29.769  33.446  1.00  0.00    -0.248 NA
ATOM     53  C   UNL A   1      41.216  30.353  35.704  1.00  0.00     0.031 C 
ATOM     54  C   UNL A   1      43.784  26.888  31.423  1.00  0.00     0.029 A 
ATOM     55  C   UNL A   1      42.932  27.764  32.076  1.00  0.00     0.049 A 
ATOM     56  H   UNL A   1      41.255  28.797  31.322  1.00  0.00     0.167 HD
ATOM     57  C   UNL A   1      42.127  29.088  34.019  1.00  0.00     0.074 A 
ATOM     58  C   UNL A   1      42.190  29.502  35.407  1.00  0.00     0.031 C 
ATOM     59  C   UNL A   1      42.968  28.189  33.452  1.00  0.00     0.037 A 
BRANCH  46  60
ATOM     60  C   UNL A   1      41.908  27.117  27.459  1.00  0.00     0.057 A 
ATOM     61  C   UNL A   1      42.729  27.733  26.508  1.00  0.00     0.134 A 
ATOM     62  C   UNL A   1      41.489  25.804  27.202  1.00  0.00     0.134 A 
ATOM     63  F   UNL A   1      43.143  28.997  26.684  1.00  0.00    -0.206 F 
ATOM     64  C   UNL A   1      43.107  27.072  25.337  1.00  0.00     0.040 A 
ATOM     65  C   UNL A   1      41.879  25.127  26.047  1.00  0.00     0.040 A 
ATOM     66  F   UNL A   1      40.699  25.160  28.074  1.00  0.00    -0.206 F 
ATOM     67  C   UNL A   1      42.688  25.763  25.107  1.00  0.00     0.006 A 
ENDBRANCH  46  60
BRANCH  47  68
ATOM     68  C   UNL A   1      38.920  32.180  35.549  1.00  0.00     0.057 A 
ATOM     69  C   UNL A   1      38.188  31.586  36.584  1.00  0.00     0.134 A 
ATOM     70  C   UNL A   1      39.266  33.529  35.697  1.00  0.00     0.134 A 
ATOM     71  F   UNL A   1      37.805  30.305  36.491  1.00  0.00    -0.206 F 
ATOM     72  C   UNL A   1      37.822  32.304  37.724  1.00  0.00     0.040 A 
ATOM     73  C   UNL A   1      38.929  34.251  36.842  1.00  0.00     0.040 A 
ATOM     74  F   UNL A   1      39.965  34.157  34.739  1.00  0.00    -0.206 F 
ATOM     75  C   UNL A   1      38.203  33.639  37.860  1.00  0.00     0.006 A 
ENDBRANCH  47  68
BRANCH  59  76
ATOM     76  C   UNL A   1      44.025  27.596  34.329  1.00  0.00     0.057 A 
ATOM     77  C   UNL A   1      45.254  28.238  34.524  1.00  0.00     0.134 A 
ATOM     78  C   UNL A   1      43.788  26.412  35.035  1.00  0.00     0.134 A 
ATOM     79  F   UNL A   1      45.542  29.370  33.864  1.00  0.00    -0.206 F 
ATOM     80  C   UNL A   1      46.217  27.716  35.389  1.00  0.00     0.040 A 
ATOM     81  C   UNL A   1      44.734  25.890  35.918  1.00  0.00     0.040 A 
ATOM     82  F   UNL A   1      42.626  25.756  34.896  1.00  0.00    -0.206 F 
ATOM     83  C   UNL A   1      45.953  26.543  36.095  1.00  0.00     0.006 A 
ENDBRANCH  59  76
ENDBRANCH  33  34
ENDBRANCH  26  28
ENDBRANCH  25  26
ENDBRANCH  24  25
ENDBRANCH   1  24
TORSDOF 13
ENDMDL
MODEL 3
REMARK VINA RESULT:     -11.7      3.872      8.918
REMARK SMILES Cc1nn(C)c(=O)c(C(=O)N[C@H]2C=C[C@H](C(=O)OCCOC(=O)c3ccc(-c4c5nc(c(-c6c(F)cccc6F)c6ccc([nH]6)c(-c6c(F)cccc6F)c6nc(c(-c7c(F)cccc7F)c7ccc4[nH]7)C=C6)C=C5)cc3)C2)c1C
REMARK SMILES IDX 19 1 18 2 16 3 17 4 15 5 12 6 13 7 78 8 14 9 11 10 9 11
REMARK SMILES IDX 10 12 8 14 1 15 2 16 3 17 79 18 4 19 80 20 5 21 6 22 7 23
REMARK SMILES IDX 20 24 21 25 22 26 23 27 24 28 25 29 77 30 26 31 76 32 27 33
REMARK SMILES IDX 28 34 29 35 70 36 30 37 75 38 69 39 71 40 31 41 74 42 68 43
REMARK SMILES IDX 67 44 32 46 58 47 41 48 57 49 42 50 45 51 56 52 72 53 43 54
REMARK SMILES IDX 44 55 55 57 73 58 46 59 33 60 34 61 39 62 35 63 36 64 38 65
REMARK SMILES IDX 40 66 37 67 59 68 60 69 65 70 61 71 62 72 64 73 66 74 63 75
REMARK SMILES IDX 47 76 48 77 53 78 49 79 50 80 52 81 54 82 51 83
REMARK H PARENT 11 13 71 45 45 56
REMARK Flexibility Score: inf
ROOT
ATOM      1  C   UNL A   1      31.495  30.431  25.263  1.00  0.00     0.274 C 
ENDROOT
BRANCH   1   2
ATOM      2  O   UNL A   1      32.901  30.071  25.240  1.00  0.00    -0.462 OA
BRANCH   2   3
ATOM      3  C   UNL A   1      33.215  28.759  25.010  1.00  0.00     0.312 C 
ATOM      4  O   UNL A   1      33.416  28.285  23.898  1.00  0.00    -0.252 OA
BRANCH   3   5
ATOM      5  C   UNL A   1      33.359  27.933  26.303  1.00  0.00     0.124 C 
ATOM      6  C   UNL A   1      31.822  26.053  26.237  1.00  0.00     0.106 C 
ATOM      7  C   UNL A   1      31.400  27.052  27.269  1.00  0.00    -0.006 C 
ATOM      8  C   UNL A   1      33.301  26.428  26.075  1.00  0.00     0.048 C 
ATOM      9  C   UNL A   1      32.241  28.098  27.289  1.00  0.00    -0.014 C 
BRANCH   6  10
ATOM     10  N   UNL A   1      31.532  24.703  26.669  1.00  0.00    -0.346 N 
ATOM     11  C   UNL A   1      31.597  23.535  25.950  1.00  0.00     0.257 C 
ATOM     12  O   UNL A   1      30.987  22.538  26.325  1.00  0.00    -0.269 OA
ATOM     13  H   UNL A   1      31.248  24.610  27.607  1.00  0.00     0.164 HD
BRANCH  11  14
ATOM     14  C   UNL A   1      32.441  23.509  24.734  1.00  0.00     0.111 A 
ATOM     15  C   UNL A   1      32.716  25.200  21.426  1.00  0.00     0.069 C 
ATOM     16  C   UNL A   1      33.005  24.197  22.524  1.00  0.00     0.062 A 
ATOM     17  N   UNL A   1      34.225  23.767  22.586  1.00  0.00    -0.175 NA
ATOM     18  C   UNL A   1      31.956  23.923  23.550  1.00  0.00    -0.010 A 
ATOM     19  N   UNL A   1      34.603  23.077  23.707  1.00  0.00    -0.232 N 
ATOM     20  C   UNL A   1      30.528  24.239  23.240  1.00  0.00     0.047 C 
ATOM     21  C   UNL A   1      35.959  22.560  23.704  1.00  0.00     0.178 C 
ATOM     22  C   UNL A   1      33.843  23.033  24.869  1.00  0.00     0.279 A 
ATOM     23  O   UNL A   1      34.275  22.632  25.947  1.00  0.00    -0.267 OA
ENDBRANCH  11  14
ENDBRANCH   6  10
ENDBRANCH   3   5
ENDBRANCH   2   3
ENDBRANCH   1   2
BRANCH   1  24
ATOM     24  C   UNL A   1      31.246  31.639  26.171  1.00  0.00     0.275 C 
BRANCH  24  25
ATOM     25  O   UNL A   1      32.188  31.573  27.249  1.00  0.00    -0.458 OA
BRANCH  25  26
ATOM     26  C   UNL A   1      32.857  32.707  27.545  1.00  0.00     0.338 C 
ATOM     27  O   UNL A   1      32.437  33.855  27.541  1.00  0.00    -0.246 OA
BRANCH  26  28
ATOM     28  C   UNL A   1      34.171  32.307  28.063  1.00  0.00     0.060 A 
ATOM     29  C   UNL A   1      34.344  30.957  28.361  1.00  0.00     0.016 A 
ATOM     30  C   UNL A   1      35.180  33.222  28.348  1.00  0.00     0.016 A 
ATOM     31  C   UNL A   1      35.482  30.515  29.012  1.00  0.00     0.010 A 
ATOM     32  C   UNL A   1      36.371  32.761  28.925  1.00  0.00     0.010 A 
ATOM     33  C   UNL A   1      36.517  31.408  29.291  1.00  0.00    -0.014 A 
BRANCH  33  34
ATOM     34  C   UNL A   1      37.692  30.919  30.055  1.00  0.00     0.031 A 
ATOM     35  C   UNL A   1      38.725  30.081  29.358  1.00  0.00     0.074 A 
ATOM     36  C   UNL A   1      37.892  31.310  31.329  1.00  0.00     0.049 A 
ATOM     37  N   UNL A   1      39.736  29.425  29.864  1.00  0.00    -0.248 NA
ATOM     38  C   UNL A   1      38.603  29.962  27.895  1.00  0.00     0.031 C 
ATOM     39  C   UNL A   1      37.027  32.219  32.085  1.00  0.00     0.029 A 
ATOM     40  N   UNL A   1      38.908  31.021  32.205  1.00  0.00    -0.354 N 
ATOM     41  C   UNL A   1      40.327  28.765  28.795  1.00  0.00     0.074 A 
ATOM     42  C   UNL A   1      39.573  29.105  27.611  1.00  0.00     0.031 C 
ATOM     43  C   UNL A   1      37.580  32.459  33.283  1.00  0.00     0.029 A 
ATOM     44  C   UNL A   1      38.780  31.644  33.422  1.00  0.00     0.049 A 
ATOM     45  H   UNL A   1      39.658  30.423  31.981  1.00  0.00     0.167 HD
ATOM     46  C   UNL A   1      41.402  27.942  28.811  1.00  0.00     0.037 A 
ATOM     47  C   UNL A   1      39.521  31.535  34.540  1.00  0.00     0.037 A 
ATOM     48  C   UNL A   1      42.178  27.661  29.988  1.00  0.00     0.049 A 
ATOM     49  C   UNL A   1      40.672  30.572  34.553  1.00  0.00     0.074 A 
ATOM     50  C   UNL A   1      43.264  26.814  30.125  1.00  0.00     0.029 A 
ATOM     51  N   UNL A   1      41.964  28.246  31.228  1.00  0.00    -0.354 N 
ATOM     52  N   UNL A   1      41.146  29.843  33.572  1.00  0.00    -0.248 NA
ATOM     53  C   UNL A   1      41.364  30.381  35.835  1.00  0.00     0.031 C 
ATOM     54  C   UNL A   1      43.690  26.868  31.456  1.00  0.00     0.029 A 
ATOM     55  C   UNL A   1      42.893  27.773  32.138  1.00  0.00     0.049 A 
ATOM     56  H   UNL A   1      41.256  28.899  31.429  1.00  0.00     0.167 HD
ATOM     57  C   UNL A   1      42.185  29.102  34.115  1.00  0.00     0.074 A 
ATOM     58  C   UNL A   1      42.291  29.489  35.508  1.00  0.00     0.031 C 
ATOM     59  C   UNL A   1      42.972  28.173  33.520  1.00  0.00     0.037 A 
BRANCH  46  60
ATOM     60  C   UNL A   1      41.764  27.254  27.529  1.00  0.00     0.057 A 
ATOM     61  C   UNL A   1      42.611  27.839  26.581  1.00  0.00     0.134 A 
ATOM     62  C   UNL A   1      41.265  25.974  27.252  1.00  0.00     0.134 A 
ATOM     63  F   UNL A   1      43.102  29.072  26.777  1.00  0.00    -0.206 F 
ATOM     64  C   UNL A   1      42.938  27.181  25.393  1.00  0.00     0.040 A 
ATOM     65  C   UNL A   1      41.602  25.298  26.079  1.00  0.00     0.040 A 
ATOM     66  F   UNL A   1      40.446  25.361  28.119  1.00  0.00    -0.206 F 
ATOM     67  C   UNL A   1      42.438  25.903  25.143  1.00  0.00     0.006 A 
ENDBRANCH  46  60
BRANCH  47  68
ATOM     68  C   UNL A   1      39.157  32.319  35.749  1.00  0.00     0.057 A 
ATOM     69  C   UNL A   1      39.623  33.626  35.930  1.00  0.00     0.134 A 
ATOM     70  C   UNL A   1      38.309  31.795  36.733  1.00  0.00     0.134 A 
ATOM     71  F   UNL A   1      40.458  34.175  35.036  1.00  0.00    -0.206 F 
ATOM     72  C   UNL A   1      39.253  34.385  37.042  1.00  0.00     0.040 A 
ATOM     73  C   UNL A   1      37.911  32.551  37.836  1.00  0.00     0.040 A 
ATOM     74  F   UNL A   1      37.830  30.547  36.619  1.00  0.00    -0.206 F 
ATOM     75  C   UNL A   1      38.385  33.851  37.993  1.00  0.00     0.006 A 
ENDBRANCH  47  68
BRANCH  59  76
ATOM     76  C   UNL A   1      44.013  27.515  34.369  1.00  0.00     0.057 A 
ATOM     77  C   UNL A   1      43.769  26.291  35.003  1.00  0.00     0.134 A 
ATOM     78  C   UNL A   1      45.289  28.073  34.498  1.00  0.00     0.134 A 
ATOM     79  F   UNL A   1      42.560  25.714  34.924  1.00  0.00    -0.206 F 
ATOM     80  C   UNL A   1      44.759  25.647  35.745  1.00  0.00     0.040 A 
ATOM     81  C   UNL A   1      46.295  27.429  35.219  1.00  0.00     0.040 A 
ATOM     82  F   UNL A   1      45.586  29.240  33.906  1.00  0.00    -0.206 F 
ATOM     83  C   UNL A   1      46.029  26.213  35.847  1.00  0.00     0.006 A 
ENDBRANCH  59  76
ENDBRANCH  33  34
ENDBRANCH  26  28
ENDBRANCH  25  26
ENDBRANCH  24  25
ENDBRANCH   1  24
TORSDOF 13
ENDMDL
