MODEL 1
REMARK VINA RESULT:     -12.2      0.000      0.000
REMARK SMILES CCOC(=O)c1c(NC(=O)[C@@H]2[C@@H](C(=O)OCCOC(=O)c3ccc(-c4c5nc(c(-c6c(F)cccc6F)c6ccc([nH]6)c(-c6c(F)cccc6F)c6nc(c(-c7c(F)cccc7F)c7ccc4[nH]7)C=C6)C=C5)cc3)[C@@H]3C=C[C@H]2CC3)sc2c1CCC2
REMARK SMILES IDX 15 1 13 2 14 3 12 4 11 5 78 6 75 7 77 8 79 9 76 10 80 11
REMARK SMILES IDX 9 12 8 13 10 15 7 16 6 17 83 18 81 19 82 20 84 21 86 22
REMARK SMILES IDX 85 23 4 24 5 25 3 26 2 27 1 28 16 29 17 30 18 31 19 32 20 33
REMARK SMILES IDX 21 34 22 35 74 36 23 37 73 38 24 39 25 40 26 41 67 42 27 43
REMARK SMILES IDX 72 44 66 45 68 46 28 47 71 48 65 49 64 50 29 52 55 53 38 54
REMARK SMILES IDX 54 55 39 56 42 57 53 58 69 59 40 60 41 61 52 63 70 64 43 65
REMARK SMILES IDX 30 66 31 67 36 68 32 69 33 70 35 71 37 72 34 73 56 74 57 75
REMARK SMILES IDX 62 76 58 77 59 78 61 79 63 80 60 81 44 82 45 83 50 84 46 85
REMARK SMILES IDX 47 86 49 87 51 88 48 89
REMARK H PARENT 8 14 68 51 42 62
REMARK Flexibility Score: inf
ROOT
ATOM      1  O   UNL A   1      32.693  30.086  25.778  1.00  0.00    -0.462 OA
ENDROOT
BRANCH   1   2
ATOM      2  C   UNL A   1      33.012  28.761  25.762  1.00  0.00     0.310 C 
ATOM      3  O   UNL A   1      34.140  28.322  25.960  1.00  0.00    -0.252 OA
BRANCH   2   4
ATOM      4  C   UNL A   1      31.825  27.898  25.374  1.00  0.00     0.119 C 
ATOM      5  C   UNL A   1      32.241  26.387  25.027  1.00  0.00     0.100 C 
ATOM      6  C   UNL A   1      31.984  26.255  23.506  1.00  0.00     0.025 C 
ATOM      7  C   UNL A   1      31.162  28.589  24.131  1.00  0.00     0.026 C 
ATOM      8  C   UNL A   1      30.510  26.456  23.268  1.00  0.00    -0.027 C 
ATOM      9  C   UNL A   1      32.811  27.313  22.747  1.00  0.00     0.009 C 
ATOM     10  C   UNL A   1      30.067  27.667  23.629  1.00  0.00    -0.027 C 
ATOM     11  C   UNL A   1      32.174  28.689  22.955  1.00  0.00     0.009 C 
BRANCH   5  12
ATOM     12  C   UNL A   1      31.510  25.374  25.975  1.00  0.00     0.229 C 
ATOM     13  N   UNL A   1      31.920  24.109  26.324  1.00  0.00    -0.317 N 
ATOM     14  H   UNL A   1      31.331  23.647  26.962  1.00  0.00     0.170 HD
ATOM     15  O   UNL A   1      30.437  25.715  26.500  1.00  0.00    -0.274 OA
BRANCH  13  16
ATOM     16  C   UNL A   1      33.018  23.380  25.930  1.00  0.00     0.110 A 
ATOM     17  C   UNL A   1      33.287  22.695  24.741  1.00  0.00     0.098 A 
ATOM     18  C   UNL A   1      34.707  22.681  24.605  1.00  0.00    -0.017 A 
ATOM     19  S   UNL A   1      34.241  22.946  27.078  1.00  0.00    -0.122 S 
ATOM     20  C   UNL A   1      35.323  22.960  25.792  1.00  0.00     0.011 A 
ATOM     21  C   UNL A   1      35.698  22.577  23.501  1.00  0.00     0.038 C 
ATOM     22  C   UNL A   1      36.759  23.273  25.669  1.00  0.00     0.047 C 
ATOM     23  C   UNL A   1      37.062  22.662  24.268  1.00  0.00     0.010 C 
BRANCH  17  24
ATOM     24  C   UNL A   1      32.337  22.247  23.753  1.00  0.00     0.341 C 
ATOM     25  O   UNL A   1      31.380  22.923  23.348  1.00  0.00    -0.246 OA
BRANCH  24  26
ATOM     26  O   UNL A   1      32.567  20.946  23.444  1.00  0.00    -0.462 OA
BRANCH  26  27
ATOM     27  C   UNL A   1      32.528  19.963  24.488  1.00  0.00     0.230 C 
ATOM     28  C   UNL A   1      33.516  18.832  24.255  1.00  0.00     0.049 C 
ENDBRANCH  26  27
ENDBRANCH  24  26
ENDBRANCH  17  24
ENDBRANCH  13  16
ENDBRANCH   5  12
ENDBRANCH   2   4
ENDBRANCH   1   2
BRANCH   1  29
ATOM     29  C   UNL A   1      32.310  30.621  27.061  1.00  0.00     0.274 C 
BRANCH  29  30
ATOM     30  C   UNL A   1      33.303  31.636  27.621  1.00  0.00     0.275 C 
BRANCH  30  31
ATOM     31  O   UNL A   1      34.647  31.336  27.252  1.00  0.00    -0.458 OA
BRANCH  31  32
ATOM     32  C   UNL A   1      35.579  32.095  27.867  1.00  0.00     0.338 C 
ATOM     33  O   UNL A   1      35.800  33.283  27.688  1.00  0.00    -0.246 OA
BRANCH  32  34
ATOM     34  C   UNL A   1      36.439  31.252  28.698  1.00  0.00     0.060 A 
ATOM     35  C   UNL A   1      37.598  31.847  29.200  1.00  0.00     0.016 A 
ATOM     36  C   UNL A   1      36.256  29.863  28.685  1.00  0.00     0.016 A 
ATOM     37  C   UNL A   1      38.673  31.036  29.475  1.00  0.00     0.010 A 
ATOM     38  C   UNL A   1      37.333  29.054  28.954  1.00  0.00     0.010 A 
ATOM     39  C   UNL A   1      38.549  29.659  29.247  1.00  0.00    -0.014 A 
BRANCH  39  40
ATOM     40  C   UNL A   1      39.735  28.851  29.401  1.00  0.00     0.031 A 
ATOM     41  C   UNL A   1      40.085  28.643  30.820  1.00  0.00     0.074 A 
ATOM     42  C   UNL A   1      40.394  28.315  28.357  1.00  0.00     0.049 A 
ATOM     43  N   UNL A   1      41.063  29.175  31.470  1.00  0.00    -0.248 NA
ATOM     44  C   UNL A   1      39.112  27.929  31.663  1.00  0.00     0.031 C 
ATOM     45  C   UNL A   1      39.985  28.243  26.953  1.00  0.00     0.029 A 
ATOM     46  N   UNL A   1      41.573  27.639  28.366  1.00  0.00    -0.354 N 
ATOM     47  C   UNL A   1      40.955  28.683  32.764  1.00  0.00     0.074 A 
ATOM     48  C   UNL A   1      39.645  28.097  32.873  1.00  0.00     0.031 C 
ATOM     49  C   UNL A   1      40.783  27.365  26.299  1.00  0.00     0.029 A 
ATOM     50  C   UNL A   1      41.841  26.938  27.196  1.00  0.00     0.049 A 
ATOM     51  H   UNL A   1      42.186  27.644  29.136  1.00  0.00     0.167 HD
ATOM     52  C   UNL A   1      42.058  28.549  33.544  1.00  0.00     0.037 A 
ATOM     53  C   UNL A   1      42.830  26.021  27.038  1.00  0.00     0.037 A 
ATOM     54  C   UNL A   1      43.150  29.345  33.044  1.00  0.00     0.049 A 
ATOM     55  C   UNL A   1      43.833  26.269  28.107  1.00  0.00     0.074 A 
ATOM     56  C   UNL A   1      43.371  30.696  32.855  1.00  0.00     0.029 A 
ATOM     57  N   UNL A   1      44.096  28.699  32.287  1.00  0.00    -0.354 N 
ATOM     58  N   UNL A   1      44.579  27.337  28.167  1.00  0.00    -0.248 NA
ATOM     59  C   UNL A   1      43.672  25.550  29.360  1.00  0.00     0.031 C 
ATOM     60  C   UNL A   1      44.135  30.784  31.654  1.00  0.00     0.029 A 
ATOM     61  C   UNL A   1      44.391  29.486  31.206  1.00  0.00     0.049 A 
ATOM     62  H   UNL A   1      44.492  27.820  32.486  1.00  0.00     0.167 HD
ATOM     63  C   UNL A   1      44.617  27.668  29.515  1.00  0.00     0.074 A 
ATOM     64  C   UNL A   1      44.109  26.485  30.208  1.00  0.00     0.031 C 
ATOM     65  C   UNL A   1      44.781  28.963  29.915  1.00  0.00     0.037 A 
BRANCH  52  66
ATOM     66  C   UNL A   1      42.276  27.378  34.470  1.00  0.00     0.057 A 
ATOM     67  C   UNL A   1      41.975  27.526  35.834  1.00  0.00     0.134 A 
ATOM     68  C   UNL A   1      43.044  26.239  34.145  1.00  0.00     0.134 A 
ATOM     69  F   UNL A   1      41.266  28.579  36.272  1.00  0.00    -0.206 F 
ATOM     70  C   UNL A   1      42.466  26.650  36.808  1.00  0.00     0.040 A 
ATOM     71  C   UNL A   1      43.494  25.330  35.104  1.00  0.00     0.040 A 
ATOM     72  F   UNL A   1      43.492  25.996  32.909  1.00  0.00    -0.206 F 
ATOM     73  C   UNL A   1      43.236  25.551  36.444  1.00  0.00     0.006 A 
ENDBRANCH  52  66
BRANCH  53  74
ATOM     74  C   UNL A   1      42.758  24.725  26.321  1.00  0.00     0.057 A 
ATOM     75  C   UNL A   1      43.708  24.384  25.347  1.00  0.00     0.134 A 
ATOM     76  C   UNL A   1      41.946  23.674  26.785  1.00  0.00     0.134 A 
ATOM     77  F   UNL A   1      44.561  25.306  24.877  1.00  0.00    -0.206 F 
ATOM     78  C   UNL A   1      43.858  23.071  24.878  1.00  0.00     0.040 A 
ATOM     79  C   UNL A   1      42.084  22.360  26.322  1.00  0.00     0.040 A 
ATOM     80  F   UNL A   1      41.059  23.866  27.770  1.00  0.00    -0.206 F 
ATOM     81  C   UNL A   1      43.053  22.051  25.375  1.00  0.00     0.006 A 
ENDBRANCH  53  74
BRANCH  65  82
ATOM     82  C   UNL A   1      45.197  29.969  28.875  1.00  0.00     0.057 A 
ATOM     83  C   UNL A   1      46.524  30.202  28.480  1.00  0.00     0.134 A 
ATOM     84  C   UNL A   1      44.198  30.623  28.145  1.00  0.00     0.134 A 
ATOM     85  F   UNL A   1      47.544  29.553  29.058  1.00  0.00    -0.206 F 
ATOM     86  C   UNL A   1      46.839  31.077  27.435  1.00  0.00     0.040 A 
ATOM     87  C   UNL A   1      44.497  31.472  27.079  1.00  0.00     0.040 A 
ATOM     88  F   UNL A   1      42.904  30.408  28.432  1.00  0.00    -0.206 F 
ATOM     89  C   UNL A   1      45.822  31.709  26.725  1.00  0.00     0.006 A 
ENDBRANCH  65  82
ENDBRANCH  39  40
ENDBRANCH  32  34
ENDBRANCH  31  32
ENDBRANCH  30  31
ENDBRANCH  29  30
ENDBRANCH   1  29
TORSDOF 16
ENDMDL
MODEL 2
REMARK VINA RESULT:     -12.2      1.918      5.943
REMARK SMILES CCOC(=O)c1c(NC(=O)[C@@H]2[C@@H](C(=O)OCCOC(=O)c3ccc(-c4c5nc(c(-c6c(F)cccc6F)c6ccc([nH]6)c(-c6c(F)cccc6F)c6nc(c(-c7c(F)cccc7F)c7ccc4[nH]7)C=C6)C=C5)cc3)[C@@H]3C=C[C@H]2CC3)sc2c1CCC2
REMARK SMILES IDX 15 1 13 2 14 3 12 4 11 5 78 6 75 7 77 8 79 9 76 10 80 11
REMARK SMILES IDX 9 12 8 13 10 15 7 16 6 17 83 18 81 19 82 20 84 21 86 22
REMARK SMILES IDX 85 23 4 24 5 25 3 26 2 27 1 28 16 29 17 30 18 31 19 32 20 33
REMARK SMILES IDX 21 34 22 35 74 36 23 37 73 38 24 39 25 40 26 41 67 42 27 43
REMARK SMILES IDX 72 44 66 45 68 46 28 47 71 48 65 49 64 50 29 52 55 53 38 54
REMARK SMILES IDX 54 55 39 56 42 57 53 58 69 59 40 60 41 61 52 63 70 64 43 65
REMARK SMILES IDX 30 66 31 67 36 68 32 69 33 70 35 71 37 72 34 73 56 74 57 75
REMARK SMILES IDX 62 76 58 77 59 78 61 79 63 80 60 81 44 82 45 83 50 84 46 85
REMARK SMILES IDX 47 86 49 87 51 88 48 89
REMARK H PARENT 8 14 68 51 42 62
REMARK Flexibility Score: inf
ROOT
ATOM      1  O   UNL A   1      33.387  28.440  26.699  1.00  0.00    -0.462 OA
ENDROOT
BRANCH   1   2
ATOM      2  C   UNL A   1      32.193  28.952  26.285  1.00  0.00     0.310 C 
ATOM      3  O   UNL A   1      31.816  30.095  26.519  1.00  0.00    -0.252 OA
BRANCH   2   4
ATOM      4  C   UNL A   1      31.345  27.909  25.581  1.00  0.00     0.119 C 
ATOM      5  C   UNL A   1      32.116  26.517  25.372  1.00  0.00     0.100 C 
ATOM      6  C   UNL A   1      32.321  26.415  23.841  1.00  0.00     0.025 C 
ATOM      7  C   UNL A   1      30.936  28.528  24.199  1.00  0.00     0.026 C 
ATOM      8  C   UNL A   1      30.961  26.358  23.196  1.00  0.00    -0.027 C 
ATOM      9  C   UNL A   1      33.113  27.642  23.342  1.00  0.00     0.009 C 
ATOM     10  C   UNL A   1      30.216  27.449  23.412  1.00  0.00    -0.027 C 
ATOM     11  C   UNL A   1      32.196  28.868  23.356  1.00  0.00     0.009 C 
BRANCH   5  12
ATOM     12  C   UNL A   1      31.355  25.342  26.079  1.00  0.00     0.229 C 
ATOM     13  N   UNL A   1      31.770  24.039  26.217  1.00  0.00    -0.317 N 
ATOM     14  H   UNL A   1      31.155  23.464  26.728  1.00  0.00     0.170 HD
ATOM     15  O   UNL A   1      30.249  25.573  26.596  1.00  0.00    -0.274 OA
BRANCH  13  16
ATOM     16  C   UNL A   1      32.900  23.403  25.761  1.00  0.00     0.110 A 
ATOM     17  C   UNL A   1      33.175  22.784  24.537  1.00  0.00     0.098 A 
ATOM     18  C   UNL A   1      34.587  22.874  24.357  1.00  0.00    -0.017 A 
ATOM     19  S   UNL A   1      34.187  23.012  26.852  1.00  0.00    -0.122 S 
ATOM     20  C   UNL A   1      35.222  23.149  25.535  1.00  0.00     0.011 A 
ATOM     21  C   UNL A   1      35.545  22.880  23.220  1.00  0.00     0.038 C 
ATOM     22  C   UNL A   1      36.629  23.565  25.380  1.00  0.00     0.047 C 
ATOM     23  C   UNL A   1      36.926  23.030  23.947  1.00  0.00     0.010 C 
BRANCH  17  24
ATOM     24  C   UNL A   1      32.225  22.309  23.562  1.00  0.00     0.341 C 
ATOM     25  O   UNL A   1      31.259  22.968  23.150  1.00  0.00    -0.246 OA
BRANCH  24  26
ATOM     26  O   UNL A   1      32.466  21.005  23.275  1.00  0.00    -0.462 OA
BRANCH  26  27
ATOM     27  C   UNL A   1      32.496  20.049  24.344  1.00  0.00     0.230 C 
ATOM     28  C   UNL A   1      32.544  18.616  23.838  1.00  0.00     0.049 C 
ENDBRANCH  26  27
ENDBRANCH  24  26
ENDBRANCH  17  24
ENDBRANCH  13  16
ENDBRANCH   5  12
ENDBRANCH   2   4
ENDBRANCH   1   2
BRANCH   1  29
ATOM     29  C   UNL A   1      34.524  29.317  26.561  1.00  0.00     0.274 C 
BRANCH  29  30
ATOM     30  C   UNL A   1      34.854  30.093  27.834  1.00  0.00     0.275 C 
BRANCH  30  31
ATOM     31  O   UNL A   1      35.755  29.383  28.680  1.00  0.00    -0.458 OA
BRANCH  31  32
ATOM     32  C   UNL A   1      36.948  29.990  28.862  1.00  0.00     0.338 C 
ATOM     33  O   UNL A   1      37.144  31.143  29.211  1.00  0.00    -0.246 OA
BRANCH  32  34
ATOM     34  C   UNL A   1      38.027  29.109  28.417  1.00  0.00     0.060 A 
ATOM     35  C   UNL A   1      38.523  28.204  29.358  1.00  0.00     0.016 A 
ATOM     36  C   UNL A   1      38.719  29.413  27.236  1.00  0.00     0.016 A 
ATOM     37  C   UNL A   1      39.824  27.781  29.226  1.00  0.00     0.010 A 
ATOM     38  C   UNL A   1      40.021  28.995  27.109  1.00  0.00     0.010 A 
ATOM     39  C   UNL A   1      40.581  28.270  28.153  1.00  0.00    -0.014 A 
BRANCH  39  40
ATOM     40  C   UNL A   1      41.983  27.929  28.121  1.00  0.00     0.031 A 
ATOM     41  C   UNL A   1      42.226  26.639  27.444  1.00  0.00     0.074 A 
ATOM     42  C   UNL A   1      42.943  28.737  28.608  1.00  0.00     0.049 A 
ATOM     43  N   UNL A   1      42.558  25.520  27.991  1.00  0.00    -0.248 NA
ATOM     44  C   UNL A   1      41.849  26.535  26.025  1.00  0.00     0.031 C 
ATOM     45  C   UNL A   1      42.832  30.129  29.052  1.00  0.00     0.029 A 
ATOM     46  N   UNL A   1      44.271  28.481  28.737  1.00  0.00    -0.354 N 
ATOM     47  C   UNL A   1      42.648  24.612  26.944  1.00  0.00     0.074 A 
ATOM     48  C   UNL A   1      42.014  25.230  25.810  1.00  0.00     0.031 C 
ATOM     49  C   UNL A   1      44.072  30.658  29.177  1.00  0.00     0.029 A 
ATOM     50  C   UNL A   1      45.052  29.607  28.972  1.00  0.00     0.049 A 
ATOM     51  H   UNL A   1      44.649  27.576  28.669  1.00  0.00     0.167 HD
ATOM     52  C   UNL A   1      43.488  23.548  27.025  1.00  0.00     0.037 A 
ATOM     53  C   UNL A   1      46.409  29.648  28.920  1.00  0.00     0.037 A 
ATOM     54  C   UNL A   1      43.865  23.285  28.391  1.00  0.00     0.049 A 
ATOM     55  C   UNL A   1      46.896  28.251  29.071  1.00  0.00     0.074 A 
ATOM     56  C   UNL A   1      43.191  22.921  29.541  1.00  0.00     0.029 A 
ATOM     57  N   UNL A   1      45.081  23.770  28.805  1.00  0.00    -0.354 N 
ATOM     58  N   UNL A   1      46.774  27.556  30.168  1.00  0.00    -0.248 NA
ATOM     59  C   UNL A   1      47.094  27.473  27.859  1.00  0.00     0.031 C 
ATOM     60  C   UNL A   1      43.848  23.620  30.596  1.00  0.00     0.029 A 
ATOM     61  C   UNL A   1      44.922  24.324  30.047  1.00  0.00     0.049 A 
ATOM     62  H   UNL A   1      45.923  23.727  28.296  1.00  0.00     0.167 HD
ATOM     63  C   UNL A   1      46.443  26.277  29.742  1.00  0.00     0.074 A 
ATOM     64  C   UNL A   1      46.736  26.268  28.310  1.00  0.00     0.031 C 
ATOM     65  C   UNL A   1      45.695  25.447  30.529  1.00  0.00     0.037 A 
BRANCH  52  66
ATOM     66  C   UNL A   1      44.300  23.048  25.857  1.00  0.00     0.057 A 
ATOM     67  C   UNL A   1      44.296  21.673  25.567  1.00  0.00     0.134 A 
ATOM     68  C   UNL A   1      45.308  23.795  25.211  1.00  0.00     0.134 A 
ATOM     69  F   UNL A   1      43.398  20.853  26.135  1.00  0.00    -0.206 F 
ATOM     70  C   UNL A   1      45.270  21.077  24.758  1.00  0.00     0.040 A 
ATOM     71  C   UNL A   1      46.251  23.217  24.360  1.00  0.00     0.040 A 
ATOM     72  F   UNL A   1      45.508  25.096  25.444  1.00  0.00    -0.206 F 
ATOM     73  C   UNL A   1      46.257  21.849  24.157  1.00  0.00     0.006 A 
ENDBRANCH  52  66
BRANCH  53  74
ATOM     74  C   UNL A   1      47.261  30.712  28.338  1.00  0.00     0.057 A 
ATOM     75  C   UNL A   1      46.929  31.317  27.116  1.00  0.00     0.134 A 
ATOM     76  C   UNL A   1      48.242  31.368  29.104  1.00  0.00     0.134 A 
ATOM     77  F   UNL A   1      45.971  30.794  26.338  1.00  0.00    -0.206 F 
ATOM     78  C   UNL A   1      47.520  32.516  26.692  1.00  0.00     0.040 A 
ATOM     79  C   UNL A   1      48.842  32.562  28.689  1.00  0.00     0.040 A 
ATOM     80  F   UNL A   1      48.582  30.924  30.321  1.00  0.00    -0.206 F 
ATOM     81  C   UNL A   1      48.472  33.149  27.486  1.00  0.00     0.006 A 
ENDBRANCH  53  74
BRANCH  65  82
ATOM     82  C   UNL A   1      45.485  25.848  31.965  1.00  0.00     0.057 A 
ATOM     83  C   UNL A   1      46.414  25.635  32.995  1.00  0.00     0.134 A 
ATOM     84  C   UNL A   1      44.354  26.608  32.284  1.00  0.00     0.134 A 
ATOM     85  F   UNL A   1      47.570  24.997  32.765  1.00  0.00    -0.206 F 
ATOM     86  C   UNL A   1      46.204  26.122  34.289  1.00  0.00     0.040 A 
ATOM     87  C   UNL A   1      44.148  27.129  33.562  1.00  0.00     0.040 A 
ATOM     88  F   UNL A   1      43.447  26.898  31.335  1.00  0.00    -0.206 F 
ATOM     89  C   UNL A   1      45.071  26.879  34.573  1.00  0.00     0.006 A 
ENDBRANCH  65  82
ENDBRANCH  39  40
ENDBRANCH  32  34
ENDBRANCH  31  32
ENDBRANCH  30  31
ENDBRANCH  29  30
ENDBRANCH   1  29
TORSDOF 16
ENDMDL
MODEL 3
REMARK VINA RESULT:     -12.1      2.735      7.845
REMARK SMILES CCOC(=O)c1c(NC(=O)[C@@H]2[C@@H](C(=O)OCCOC(=O)c3ccc(-c4c5nc(c(-c6c(F)cccc6F)c6ccc([nH]6)c(-c6c(F)cccc6F)c6nc(c(-c7c(F)cccc7F)c7ccc4[nH]7)C=C6)C=C5)cc3)[C@@H]3C=C[C@H]2CC3)sc2c1CCC2
REMARK SMILES IDX 15 1 13 2 14 3 12 4 11 5 78 6 75 7 77 8 79 9 76 10 80 11
REMARK SMILES IDX 9 12 8 13 10 15 7 16 6 17 83 18 81 19 82 20 84 21 86 22
REMARK SMILES IDX 85 23 4 24 5 25 3 26 2 27 1 28 16 29 17 30 18 31 19 32 20 33
REMARK SMILES IDX 21 34 22 35 74 36 23 37 73 38 24 39 25 40 26 41 67 42 27 43
REMARK SMILES IDX 72 44 66 45 68 46 28 47 71 48 65 49 64 50 29 52 55 53 38 54
REMARK SMILES IDX 54 55 39 56 42 57 53 58 69 59 40 60 41 61 52 63 70 64 43 65
REMARK SMILES IDX 30 66 31 67 36 68 32 69 33 70 35 71 37 72 34 73 56 74 57 75
REMARK SMILES IDX 62 76 58 77 59 78 61 79 63 80 60 81 44 82 45 83 50 84 46 85
REMARK SMILES IDX 47 86 49 87 51 88 48 89
REMARK H PARENT 8 14 68 51 42 62
REMARK Flexibility Score: inf
ROOT
ATOM      1  O   UNL A   1      36.828  22.060  24.243  1.00  0.00    -0.462 OA
ENDROOT
BRANCH   1   2
ATOM      2  C   UNL A   1      36.022  23.124  24.521  1.00  0.00     0.310 C 
ATOM      3  O   UNL A   1      36.301  24.007  25.326  1.00  0.00    -0.252 OA
BRANCH   2   4
ATOM      4  C   UNL A   1      34.697  23.038  23.787  1.00  0.00     0.119 C 
ATOM      5  C   UNL A   1      33.780  24.337  24.004  1.00  0.00     0.100 C 
ATOM      6  C   UNL A   1      32.584  23.830  24.846  1.00  0.00     0.025 C 
ATOM      7  C   UNL A   1      33.974  21.754  24.325  1.00  0.00     0.026 C 
ATOM      8  C   UNL A   1      31.846  22.802  24.028  1.00  0.00    -0.027 C 
ATOM      9  C   UNL A   1      33.103  23.213  26.162  1.00  0.00     0.009 C 
ATOM     10  C   UNL A   1      32.583  21.728  23.721  1.00  0.00    -0.027 C 
ATOM     11  C   UNL A   1      33.745  21.857  25.859  1.00  0.00     0.009 C 
BRANCH   5  12
ATOM     12  C   UNL A   1      33.457  25.030  22.634  1.00  0.00     0.229 C 
ATOM     13  N   UNL A   1      33.074  26.334  22.425  1.00  0.00    -0.317 N 
ATOM     14  H   UNL A   1      32.952  26.580  21.480  1.00  0.00     0.170 HD
ATOM     15  O   UNL A   1      33.554  24.363  21.590  1.00  0.00    -0.274 OA
BRANCH  13  16
ATOM     16  C   UNL A   1      32.832  27.353  23.316  1.00  0.00     0.110 A 
ATOM     17  C   UNL A   1      31.658  27.743  23.969  1.00  0.00     0.098 A 
ATOM     18  C   UNL A   1      32.071  28.372  25.181  1.00  0.00    -0.017 A 
ATOM     19  S   UNL A   1      34.020  28.586  23.581  1.00  0.00    -0.122 S 
ATOM     20  C   UNL A   1      33.387  28.733  25.131  1.00  0.00     0.011 A 
ATOM     21  C   UNL A   1      31.498  28.625  26.530  1.00  0.00     0.038 C 
ATOM     22  C   UNL A   1      33.964  29.096  26.440  1.00  0.00     0.047 C 
ATOM     23  C   UNL A   1      32.666  29.384  27.251  1.00  0.00     0.010 C 
BRANCH  17  24
ATOM     24  C   UNL A   1      30.302  27.424  23.598  1.00  0.00     0.341 C 
ATOM     25  O   UNL A   1      29.556  26.679  24.251  1.00  0.00    -0.246 OA
BRANCH  24  26
ATOM     26  O   UNL A   1      30.021  27.944  22.377  1.00  0.00    -0.462 OA
BRANCH  26  27
ATOM     27  C   UNL A   1      29.994  29.368  22.213  1.00  0.00     0.230 C 
ATOM     28  C   UNL A   1      28.965  30.036  23.111  1.00  0.00     0.049 C 
ENDBRANCH  26  27
ENDBRANCH  24  26
ENDBRANCH  17  24
ENDBRANCH  13  16
ENDBRANCH   5  12
ENDBRANCH   2   4
ENDBRANCH   1   2
BRANCH   1  29
ATOM     29  C   UNL A   1      37.290  21.311  25.386  1.00  0.00     0.274 C 
BRANCH  29  30
ATOM     30  C   UNL A   1      38.762  21.548  25.715  1.00  0.00     0.275 C 
BRANCH  30  31
ATOM     31  O   UNL A   1      38.955  22.715  26.511  1.00  0.00    -0.458 OA
BRANCH  31  32
ATOM     32  C   UNL A   1      40.128  22.747  27.180  1.00  0.00     0.338 C 
ATOM     33  O   UNL A   1      40.651  21.834  27.799  1.00  0.00    -0.246 OA
BRANCH  32  34
ATOM     34  C   UNL A   1      40.647  24.115  27.209  1.00  0.00     0.060 A 
ATOM     35  C   UNL A   1      41.639  24.387  28.153  1.00  0.00     0.016 A 
ATOM     36  C   UNL A   1      39.936  25.132  26.557  1.00  0.00     0.016 A 
ATOM     37  C   UNL A   1      41.754  25.676  28.616  1.00  0.00     0.010 A 
ATOM     38  C   UNL A   1      40.048  26.418  27.025  1.00  0.00     0.010 A 
ATOM     39  C   UNL A   1      40.881  26.649  28.112  1.00  0.00    -0.014 A 
BRANCH  39  40
ATOM     40  C   UNL A   1      40.924  27.957  28.720  1.00  0.00     0.031 A 
ATOM     41  C   UNL A   1      42.127  28.716  28.323  1.00  0.00     0.074 A 
ATOM     42  C   UNL A   1      39.941  28.428  29.510  1.00  0.00     0.049 A 
ATOM     43  N   UNL A   1      43.159  28.980  29.048  1.00  0.00    -0.248 NA
ATOM     44  C   UNL A   1      42.289  29.033  26.895  1.00  0.00     0.031 C 
ATOM     45  C   UNL A   1      38.608  27.869  29.748  1.00  0.00     0.029 A 
ATOM     46  N   UNL A   1      39.917  29.584  30.224  1.00  0.00    -0.354 N 
ATOM     47  C   UNL A   1      44.016  29.695  28.221  1.00  0.00     0.074 A 
ATOM     48  C   UNL A   1      43.529  29.522  26.879  1.00  0.00     0.031 C 
ATOM     49  C   UNL A   1      37.835  28.799  30.357  1.00  0.00     0.029 A 
ATOM     50  C   UNL A   1      38.658  29.949  30.684  1.00  0.00     0.049 A 
ATOM     51  H   UNL A   1      40.724  30.119  30.400  1.00  0.00     0.167 HD
ATOM     52  C   UNL A   1      44.883  30.599  28.745  1.00  0.00     0.037 A 
ATOM     53  C   UNL A   1      38.336  31.153  31.223  1.00  0.00     0.037 A 
ATOM     54  C   UNL A   1      45.080  30.375  30.155  1.00  0.00     0.049 A 
ATOM     55  C   UNL A   1      39.603  31.780  31.683  1.00  0.00     0.074 A 
ATOM     56  C   UNL A   1      45.591  29.347  30.922  1.00  0.00     0.029 A 
ATOM     57  N   UNL A   1      44.359  31.166  31.016  1.00  0.00    -0.354 N 
ATOM     58  N   UNL A   1      40.322  31.322  32.670  1.00  0.00    -0.248 NA
ATOM     59  C   UNL A   1      40.308  32.639  30.745  1.00  0.00     0.031 C 
ATOM     60  C   UNL A   1      44.784  29.322  32.098  1.00  0.00     0.029 A 
ATOM     61  C   UNL A   1      43.866  30.371  32.016  1.00  0.00     0.049 A 
ATOM     62  H   UNL A   1      44.220  32.136  30.929  1.00  0.00     0.167 HD
ATOM     63  C   UNL A   1      41.637  31.465  32.247  1.00  0.00     0.074 A 
ATOM     64  C   UNL A   1      41.567  32.356  31.091  1.00  0.00     0.031 C 
ATOM     65  C   UNL A   1      42.613  30.621  32.695  1.00  0.00     0.037 A 
BRANCH  52  66
ATOM     66  C   UNL A   1      45.190  31.922  28.090  1.00  0.00     0.057 A 
ATOM     67  C   UNL A   1      46.524  32.232  27.777  1.00  0.00     0.134 A 
ATOM     68  C   UNL A   1      44.294  33.012  28.041  1.00  0.00     0.134 A 
ATOM     69  F   UNL A   1      47.475  31.285  27.807  1.00  0.00    -0.206 F 
ATOM     70  C   UNL A   1      46.946  33.539  27.510  1.00  0.00     0.040 A 
ATOM     71  C   UNL A   1      44.696  34.310  27.724  1.00  0.00     0.040 A 
ATOM     72  F   UNL A   1      43.009  32.909  28.397  1.00  0.00    -0.206 F 
ATOM     73  C   UNL A   1      46.031  34.585  27.491  1.00  0.00     0.006 A 
ENDBRANCH  52  66
BRANCH  53  74
ATOM     74  C   UNL A   1      37.110  31.954  30.986  1.00  0.00     0.057 A 
ATOM     75  C   UNL A   1      36.779  32.403  29.700  1.00  0.00     0.134 A 
ATOM     76  C   UNL A   1      36.090  32.037  31.951  1.00  0.00     0.134 A 
ATOM     77  F   UNL A   1      37.668  32.320  28.700  1.00  0.00    -0.206 F 
ATOM     78  C   UNL A   1      35.499  32.884  29.384  1.00  0.00     0.040 A 
ATOM     79  C   UNL A   1      34.811  32.518  31.649  1.00  0.00     0.040 A 
ATOM     80  F   UNL A   1      36.269  31.565  33.192  1.00  0.00    -0.206 F 
ATOM     81  C   UNL A   1      34.506  32.931  30.358  1.00  0.00     0.006 A 
ENDBRANCH  53  74
BRANCH  65  82
ATOM     82  C   UNL A   1      42.283  29.725  33.858  1.00  0.00     0.057 A 
ATOM     83  C   UNL A   1      41.715  28.446  33.742  1.00  0.00     0.134 A 
ATOM     84  C   UNL A   1      42.689  30.120  35.138  1.00  0.00     0.134 A 
ATOM     85  F   UNL A   1      41.377  27.943  32.547  1.00  0.00    -0.206 F 
ATOM     86  C   UNL A   1      41.526  27.620  34.855  1.00  0.00     0.040 A 
ATOM     87  C   UNL A   1      42.538  29.292  36.251  1.00  0.00     0.040 A 
ATOM     88  F   UNL A   1      43.289  31.308  35.318  1.00  0.00    -0.206 F 
ATOM     89  C   UNL A   1      41.946  28.039  36.114  1.00  0.00     0.006 A 
ENDBRANCH  65  82
ENDBRANCH  39  40
ENDBRANCH  32  34
ENDBRANCH  31  32
ENDBRANCH  30  31
ENDBRANCH  29  30
ENDBRANCH   1  29
TORSDOF 16
ENDMDL
