MODEL 1
REMARK VINA RESULT:     -16.1      0.000      0.000
REMARK SMILES O=C(OCCOC(=O)c1ccccc1C(=O)Nc1ccc(N2C(=O)[C@H]3[C@@H]4CC[C@@H](C4)[C@@H]3C2=O)cc1)c1ccc(-c2c3nc(c(-c4c(F)cccc4F)c4ccc([nH]4)c(-c4c(F)cccc4F)c4nc(c(-c5c(F)cccc5F)c5ccc2[nH]5)C=C4)C=C3)cc1
REMARK SMILES IDX 5 1 4 2 3 3 2 4 1 5 36 6 37 7 89 8 38 9 88 10 39 11 40 12
REMARK SMILES IDX 41 13 82 14 42 15 87 16 81 17 83 18 43 19 86 20 80 21 79 22
REMARK SMILES IDX 44 24 70 25 53 26 69 27 54 28 57 29 68 30 84 31 55 32 56 33
REMARK SMILES IDX 67 35 85 36 58 37 45 38 46 39 51 40 47 41 48 42 50 43 52 44
REMARK SMILES IDX 49 45 71 46 72 47 77 48 73 49 74 50 76 51 78 52 75 53 59 54
REMARK SMILES IDX 60 55 65 56 61 57 62 58 64 59 66 60 63 61 6 62 7 63 8 64
REMARK SMILES IDX 9 65 10 66 14 67 11 68 13 69 12 70 15 71 16 72 17 73 18 75
REMARK SMILES IDX 19 76 35 77 20 78 34 79 21 80 22 81 23 82 32 83 24 84 25 85
REMARK SMILES IDX 31 86 33 87 26 88 29 89 27 90 30 91 28 92
REMARK H PARENT 83 23 57 34 17 74
REMARK Flexibility Score: inf
ROOT
ATOM      1  C   UNL A   1      36.352  18.378  24.873  1.00  0.00     0.275 C 
ENDROOT
BRANCH   1   2
ATOM      2  C   UNL A   1      37.846  19.555  24.777  1.00  0.00     0.275 C 
BRANCH   2   3
ATOM      3  O   UNL A   1      39.402  19.082  25.526  1.00  0.00    -0.458 OA
BRANCH   3   4
ATOM      4  C   UNL A   1      40.827  19.434  25.906  1.00  0.00     0.338 C 
ATOM      5  O   UNL A   1      41.566  18.439  25.911  1.00  0.00    -0.246 OA
BRANCH   4   6
ATOM      6  C   UNL A   1      41.675  20.854  26.394  1.00  0.00     0.060 A 
ATOM      7  C   UNL A   1      42.348  21.880  25.642  1.00  0.00     0.016 A 
ATOM      8  C   UNL A   1      41.654  21.225  27.756  1.00  0.00     0.016 A 
ATOM      9  C   UNL A   1      42.743  23.176  26.069  1.00  0.00     0.010 A 
ATOM     10  C   UNL A   1      42.023  22.574  28.215  1.00  0.00     0.010 A 
ATOM     11  C   UNL A   1      42.509  23.592  27.357  1.00  0.00    -0.014 A 
BRANCH  11  12
ATOM     12  C   UNL A   1      42.829  25.033  27.701  1.00  0.00     0.031 A 
ATOM     13  C   UNL A   1      44.188  25.598  27.392  1.00  0.00     0.074 A 
ATOM     14  C   UNL A   1      41.913  25.986  28.011  1.00  0.00     0.049 A 
ATOM     15  N   UNL A   1      44.608  26.836  27.514  1.00  0.00    -0.248 NA
ATOM     16  C   UNL A   1      45.154  24.684  26.776  1.00  0.00     0.031 C 
ATOM     17  C   UNL A   1      40.477  25.834  27.939  1.00  0.00     0.029 A 
ATOM     18  N   UNL A   1      42.049  27.301  28.420  1.00  0.00    -0.354 N 
ATOM     19  C   UNL A   1      45.850  26.876  26.911  1.00  0.00     0.074 A 
ATOM     20  C   UNL A   1      46.146  25.516  26.490  1.00  0.00     0.031 C 
ATOM     21  C   UNL A   1      39.859  26.900  28.474  1.00  0.00     0.029 A 
ATOM     22  C   UNL A   1      40.869  27.886  28.830  1.00  0.00     0.049 A 
ATOM     23  H   UNL A   1      42.910  27.777  28.418  1.00  0.00     0.167 HD
ATOM     24  C   UNL A   1      46.660  27.938  26.686  1.00  0.00     0.037 A 
ATOM     25  C   UNL A   1      40.590  29.081  29.389  1.00  0.00     0.037 A 
ATOM     26  C   UNL A   1      46.457  29.298  27.115  1.00  0.00     0.049 A 
ATOM     27  C   UNL A   1      41.637  30.153  29.467  1.00  0.00     0.074 A 
ATOM     28  C   UNL A   1      47.331  30.371  26.995  1.00  0.00     0.029 A 
ATOM     29  N   UNL A   1      45.328  29.788  27.745  1.00  0.00    -0.354 N 
ATOM     30  N   UNL A   1      42.831  30.161  28.939  1.00  0.00    -0.248 NA
ATOM     31  C   UNL A   1      41.276  31.408  30.150  1.00  0.00     0.031 C 
ATOM     32  C   UNL A   1      46.749  31.497  27.589  1.00  0.00     0.029 A 
ATOM     33  C   UNL A   1      45.501  31.133  28.057  1.00  0.00     0.049 A 
ATOM     34  H   UNL A   1      44.520  29.261  27.944  1.00  0.00     0.167 HD
ATOM     35  C   UNL A   1      43.334  31.435  29.161  1.00  0.00     0.074 A 
ATOM     36  C   UNL A   1      42.326  32.174  29.888  1.00  0.00     0.031 C 
ATOM     37  C   UNL A   1      44.528  31.929  28.759  1.00  0.00     0.037 A 
BRANCH  24  38
ATOM     38  C   UNL A   1      47.908  27.642  25.926  1.00  0.00     0.057 A 
ATOM     39  C   UNL A   1      49.110  27.366  26.589  1.00  0.00     0.134 A 
ATOM     40  C   UNL A   1      47.899  27.615  24.529  1.00  0.00     0.134 A 
ATOM     41  F   UNL A   1      49.171  27.394  27.929  1.00  0.00    -0.206 F 
ATOM     42  C   UNL A   1      50.273  27.084  25.879  1.00  0.00     0.040 A 
ATOM     43  C   UNL A   1      49.053  27.323  23.808  1.00  0.00     0.040 A 
ATOM     44  F   UNL A   1      46.771  27.874  23.851  1.00  0.00    -0.206 F 
ATOM     45  C   UNL A   1      50.245  27.058  24.484  1.00  0.00     0.006 A 
ENDBRANCH  24  38
BRANCH  25  46
ATOM     46  C   UNL A   1      39.240  29.371  29.938  1.00  0.00     0.057 A 
ATOM     47  C   UNL A   1      38.880  29.003  31.239  1.00  0.00     0.134 A 
ATOM     48  C   UNL A   1      38.237  29.885  29.106  1.00  0.00     0.134 A 
ATOM     49  F   UNL A   1      39.789  28.464  32.064  1.00  0.00    -0.206 F 
ATOM     50  C   UNL A   1      37.561  29.105  31.684  1.00  0.00     0.040 A 
ATOM     51  C   UNL A   1      36.918  30.003  29.542  1.00  0.00     0.040 A 
ATOM     52  F   UNL A   1      38.516  30.228  27.839  1.00  0.00    -0.206 F 
ATOM     53  C   UNL A   1      36.575  29.601  30.832  1.00  0.00     0.006 A 
ENDBRANCH  25  46
BRANCH  37  54
ATOM     54  C   UNL A   1      44.828  33.371  29.056  1.00  0.00     0.057 A 
ATOM     55  C   UNL A   1      45.510  33.759  30.218  1.00  0.00     0.134 A 
ATOM     56  C   UNL A   1      44.448  34.386  28.167  1.00  0.00     0.134 A 
ATOM     57  F   UNL A   1      45.885  32.843  31.123  1.00  0.00    -0.206 F 
ATOM     58  C   UNL A   1      45.788  35.101  30.491  1.00  0.00     0.040 A 
ATOM     59  C   UNL A   1      44.737  35.730  28.420  1.00  0.00     0.040 A 
ATOM     60  F   UNL A   1      43.790  34.091  27.036  1.00  0.00    -0.206 F 
ATOM     61  C   UNL A   1      45.406  36.090  29.588  1.00  0.00     0.006 A 
ENDBRANCH  37  54
ENDBRANCH  11  12
ENDBRANCH   4   6
ENDBRANCH   3   4
ENDBRANCH   2   3
ENDBRANCH   1   2
BRANCH   1  62
ATOM     62  O   UNL A   1      34.485  19.172  24.775  1.00  0.00    -0.458 OA
BRANCH  62  63
ATOM     63  C   UNL A   1      33.696  20.492  24.895  1.00  0.00     0.339 C 
ATOM     64  O   UNL A   1      32.643  20.602  24.262  1.00  0.00    -0.246 OA
BRANCH  63  65
ATOM     65  C   UNL A   1      34.110  21.923  25.231  1.00  0.00     0.072 A 
ATOM     66  C   UNL A   1      35.164  22.431  24.343  1.00  0.00     0.016 A 
ATOM     67  C   UNL A   1      33.657  22.805  26.204  1.00  0.00     0.054 A 
ATOM     68  C   UNL A   1      35.733  23.701  24.403  1.00  0.00     0.001 A 
ATOM     69  C   UNL A   1      34.251  24.118  26.235  1.00  0.00     0.015 A 
ATOM     70  C   UNL A   1      35.263  24.558  25.365  1.00  0.00     0.001 A 
BRANCH  67  71
ATOM     71  C   UNL A   1      32.530  22.640  27.166  1.00  0.00     0.256 C 
ATOM     72  O   UNL A   1      32.761  21.963  28.177  1.00  0.00    -0.269 OA
ATOM     73  N   UNL A   1      31.271  23.197  27.068  1.00  0.00    -0.322 N 
ATOM     74  H   UNL A   1      30.599  22.842  27.693  1.00  0.00     0.170 HD
BRANCH  73  75
ATOM     75  C   UNL A   1      30.821  24.200  26.195  1.00  0.00     0.041 A 
ATOM     76  C   UNL A   1      30.920  25.787  26.977  1.00  0.00     0.028 A 
ATOM     77  C   UNL A   1      30.981  24.029  24.425  1.00  0.00     0.028 A 
ATOM     78  C   UNL A   1      31.268  27.256  26.084  1.00  0.00     0.029 A 
ATOM     79  C   UNL A   1      31.420  25.533  23.476  1.00  0.00     0.029 A 
ATOM     80  C   UNL A   1      31.465  27.229  24.332  1.00  0.00     0.052 A 
BRANCH  80  81
ATOM     81  N   UNL A   1      31.003  28.701  23.706  1.00  0.00    -0.250 N 
ATOM     82  C   UNL A   1      30.981  29.912  24.443  1.00  0.00     0.237 C 
ATOM     83  C   UNL A   1      30.555  29.088  22.403  1.00  0.00     0.237 C 
ATOM     84  O   UNL A   1      31.798  30.336  25.240  1.00  0.00    -0.274 OA
ATOM     85  C   UNL A   1      29.694  30.581  23.950  1.00  0.00     0.095 C 
ATOM     86  C   UNL A   1      30.009  30.500  22.487  1.00  0.00     0.095 C 
ATOM     87  O   UNL A   1      30.698  28.602  21.291  1.00  0.00    -0.274 OA
ATOM     88  C   UNL A   1      28.695  31.754  24.013  1.00  0.00     0.002 C 
ATOM     89  C   UNL A   1      28.750  31.111  21.848  1.00  0.00     0.002 C 
ATOM     90  C   UNL A   1      27.281  31.095  23.797  1.00  0.00     0.005 C 
ATOM     91  C   UNL A   1      28.770  32.443  22.632  1.00  0.00     0.009 C 
ATOM     92  C   UNL A   1      27.416  30.512  22.361  1.00  0.00     0.005 C 
ENDBRANCH  80  81
ENDBRANCH  73  75
ENDBRANCH  67  71
ENDBRANCH  63  65
ENDBRANCH  62  63
ENDBRANCH   1  62
TORSDOF 14
ENDMDL
MODEL 2
REMARK VINA RESULT:     -15.7      5.617     12.353
REMARK SMILES O=C(OCCOC(=O)c1ccccc1C(=O)Nc1ccc(N2C(=O)[C@H]3[C@@H]4CC[C@@H](C4)[C@@H]3C2=O)cc1)c1ccc(-c2c3nc(c(-c4c(F)cccc4F)c4ccc([nH]4)c(-c4c(F)cccc4F)c4nc(c(-c5c(F)cccc5F)c5ccc2[nH]5)C=C4)C=C3)cc1
REMARK SMILES IDX 5 1 4 2 3 3 2 4 1 5 36 6 37 7 89 8 38 9 88 10 39 11 40 12
REMARK SMILES IDX 41 13 82 14 42 15 87 16 81 17 83 18 43 19 86 20 80 21 79 22
REMARK SMILES IDX 44 24 70 25 53 26 69 27 54 28 57 29 68 30 84 31 55 32 56 33
REMARK SMILES IDX 67 35 85 36 58 37 45 38 46 39 51 40 47 41 48 42 50 43 52 44
REMARK SMILES IDX 49 45 71 46 72 47 77 48 73 49 74 50 76 51 78 52 75 53 59 54
REMARK SMILES IDX 60 55 65 56 61 57 62 58 64 59 66 60 63 61 6 62 7 63 8 64
REMARK SMILES IDX 9 65 10 66 14 67 11 68 13 69 12 70 15 71 16 72 17 73 18 75
REMARK SMILES IDX 19 76 35 77 20 78 34 79 21 80 22 81 23 82 32 83 24 84 25 85
REMARK SMILES IDX 31 86 33 87 26 88 29 89 27 90 30 91 28 92
REMARK H PARENT 83 23 57 34 17 74
REMARK Flexibility Score: inf
ROOT
ATOM      1  C   UNL A   1      35.582  33.646  32.154  1.00  0.00     0.275 C 
ENDROOT
BRANCH   1   2
ATOM      2  C   UNL A   1      34.339  34.040  30.765  1.00  0.00     0.275 C 
BRANCH   2   3
ATOM      3  O   UNL A   1      34.028  32.832  29.481  1.00  0.00    -0.458 OA
BRANCH   3   4
ATOM      4  C   UNL A   1      34.482  31.616  28.696  1.00  0.00     0.338 C 
ATOM      5  O   UNL A   1      33.596  31.194  27.940  1.00  0.00    -0.246 OA
BRANCH   4   6
ATOM      6  C   UNL A   1      35.894  30.629  28.629  1.00  0.00     0.060 A 
ATOM      7  C   UNL A   1      36.891  30.445  27.608  1.00  0.00     0.016 A 
ATOM      8  C   UNL A   1      36.291  29.929  29.788  1.00  0.00     0.016 A 
ATOM      9  C   UNL A   1      38.188  29.875  27.729  1.00  0.00     0.010 A 
ATOM     10  C   UNL A   1      37.641  29.365  29.949  1.00  0.00     0.010 A 
ATOM     11  C   UNL A   1      38.633  29.395  28.937  1.00  0.00    -0.014 A 
BRANCH  11  12
ATOM     12  C   UNL A   1      40.073  28.933  29.023  1.00  0.00     0.031 A 
ATOM     13  C   UNL A   1      41.107  29.806  29.680  1.00  0.00     0.074 A 
ATOM     14  C   UNL A   1      40.501  27.661  28.820  1.00  0.00     0.049 A 
ATOM     15  N   UNL A   1      42.364  29.532  29.944  1.00  0.00    -0.248 NA
ATOM     16  C   UNL A   1      40.643  31.099  30.193  1.00  0.00     0.031 C 
ATOM     17  C   UNL A   1      39.656  26.507  28.618  1.00  0.00     0.029 A 
ATOM     18  N   UNL A   1      41.769  27.106  28.784  1.00  0.00    -0.354 N 
ATOM     19  C   UNL A   1      42.821  30.572  30.730  1.00  0.00     0.074 A 
ATOM     20  C   UNL A   1      41.724  31.520  30.837  1.00  0.00     0.031 C 
ATOM     21  C   UNL A   1      40.389  25.433  28.276  1.00  0.00     0.029 A 
ATOM     22  C   UNL A   1      41.796  25.798  28.349  1.00  0.00     0.049 A 
ATOM     23  H   UNL A   1      42.579  27.601  29.045  1.00  0.00     0.167 HD
ATOM     24  C   UNL A   1      44.020  30.719  31.343  1.00  0.00     0.037 A 
ATOM     25  C   UNL A   1      42.808  24.950  28.072  1.00  0.00     0.037 A 
ATOM     26  C   UNL A   1      45.165  29.851  31.244  1.00  0.00     0.049 A 
ATOM     27  C   UNL A   1      44.221  25.299  28.437  1.00  0.00     0.074 A 
ATOM     28  C   UNL A   1      46.435  30.049  31.770  1.00  0.00     0.029 A 
ATOM     29  N   UNL A   1      45.205  28.637  30.584  1.00  0.00    -0.354 N 
ATOM     30  N   UNL A   1      44.652  26.314  29.135  1.00  0.00    -0.248 NA
ATOM     31  C   UNL A   1      45.279  24.352  28.043  1.00  0.00     0.031 C 
ATOM     32  C   UNL A   1      47.253  28.977  31.394  1.00  0.00     0.029 A 
ATOM     33  C   UNL A   1      46.487  28.098  30.654  1.00  0.00     0.049 A 
ATOM     34  H   UNL A   1      44.439  28.216  30.131  1.00  0.00     0.167 HD
ATOM     35  C   UNL A   1      46.008  26.094  29.326  1.00  0.00     0.074 A 
ATOM     36  C   UNL A   1      46.340  24.857  28.656  1.00  0.00     0.031 C 
ATOM     37  C   UNL A   1      46.875  26.860  30.027  1.00  0.00     0.037 A 
BRANCH  24  38
ATOM     38  C   UNL A   1      44.158  31.935  32.196  1.00  0.00     0.057 A 
ATOM     39  C   UNL A   1      43.735  31.933  33.530  1.00  0.00     0.134 A 
ATOM     40  C   UNL A   1      44.730  33.102  31.682  1.00  0.00     0.134 A 
ATOM     41  F   UNL A   1      43.165  30.841  34.064  1.00  0.00    -0.206 F 
ATOM     42  C   UNL A   1      43.870  33.066  34.328  1.00  0.00     0.040 A 
ATOM     43  C   UNL A   1      44.881  34.236  32.473  1.00  0.00     0.040 A 
ATOM     44  F   UNL A   1      45.149  33.150  30.408  1.00  0.00    -0.206 F 
ATOM     45  C   UNL A   1      44.448  34.221  33.799  1.00  0.00     0.006 A 
ENDBRANCH  24  38
BRANCH  25  46
ATOM     46  C   UNL A   1      42.552  23.648  27.402  1.00  0.00     0.057 A 
ATOM     47  C   UNL A   1      42.329  22.477  28.133  1.00  0.00     0.134 A 
ATOM     48  C   UNL A   1      42.684  23.533  26.013  1.00  0.00     0.134 A 
ATOM     49  F   UNL A   1      42.239  22.521  29.470  1.00  0.00    -0.206 F 
ATOM     50  C   UNL A   1      42.278  21.229  27.509  1.00  0.00     0.040 A 
ATOM     51  C   UNL A   1      42.624  22.294  25.376  1.00  0.00     0.040 A 
ATOM     52  F   UNL A   1      42.929  24.618  25.262  1.00  0.00    -0.206 F 
ATOM     53  C   UNL A   1      42.431  21.136  26.126  1.00  0.00     0.006 A 
ENDBRANCH  25  46
BRANCH  37  54
ATOM     54  C   UNL A   1      48.293  26.380  30.156  1.00  0.00     0.057 A 
ATOM     55  C   UNL A   1      49.255  26.650  29.173  1.00  0.00     0.134 A 
ATOM     56  C   UNL A   1      48.710  25.655  31.280  1.00  0.00     0.134 A 
ATOM     57  F   UNL A   1      48.921  27.322  28.061  1.00  0.00    -0.206 F 
ATOM     58  C   UNL A   1      50.574  26.202  29.296  1.00  0.00     0.040 A 
ATOM     59  C   UNL A   1      50.031  25.218  31.424  1.00  0.00     0.040 A 
ATOM     60  F   UNL A   1      47.845  25.357  32.260  1.00  0.00    -0.206 F 
ATOM     61  C   UNL A   1      50.965  25.489  30.427  1.00  0.00     0.006 A 
ENDBRANCH  37  54
ENDBRANCH  11  12
ENDBRANCH   4   6
ENDBRANCH   3   4
ENDBRANCH   2   3
ENDBRANCH   1   2
BRANCH   1  62
ATOM     62  O   UNL A   1      37.564  33.866  31.772  1.00  0.00    -0.458 OA
BRANCH  62  63
ATOM     63  C   UNL A   1      38.900  34.323  32.395  1.00  0.00     0.339 C 
ATOM     64  O   UNL A   1      39.891  34.387  31.665  1.00  0.00    -0.246 OA
BRANCH  63  65
ATOM     65  C   UNL A   1      39.454  34.272  33.816  1.00  0.00     0.072 A 
ATOM     66  C   UNL A   1      40.440  35.328  34.079  1.00  0.00     0.016 A 
ATOM     67  C   UNL A   1      39.177  33.421  34.879  1.00  0.00     0.054 A 
ATOM     68  C   UNL A   1      41.105  35.536  35.285  1.00  0.00     0.001 A 
ATOM     69  C   UNL A   1      39.867  33.666  36.120  1.00  0.00     0.015 A 
ATOM     70  C   UNL A   1      40.809  34.690  36.322  1.00  0.00     0.001 A 
BRANCH  67  71
ATOM     71  C   UNL A   1      38.153  32.342  34.972  1.00  0.00     0.256 C 
ATOM     72  O   UNL A   1      36.977  32.706  35.106  1.00  0.00    -0.269 OA
ATOM     73  N   UNL A   1      38.373  30.982  34.885  1.00  0.00    -0.322 N 
ATOM     74  H   UNL A   1      37.616  30.410  35.146  1.00  0.00     0.170 HD
BRANCH  73  75
ATOM     75  C   UNL A   1      39.534  30.306  34.476  1.00  0.00     0.041 A 
ATOM     76  C   UNL A   1      40.549  29.920  35.876  1.00  0.00     0.028 A 
ATOM     77  C   UNL A   1      39.543  29.279  33.016  1.00  0.00     0.028 A 
ATOM     78  C   UNL A   1      41.541  28.476  35.949  1.00  0.00     0.029 A 
ATOM     79  C   UNL A   1      40.509  27.725  33.092  1.00  0.00     0.029 A 
ATOM     80  C   UNL A   1      41.631  27.365  34.583  1.00  0.00     0.052 A 
BRANCH  80  81
ATOM     81  N   UNL A   1      43.116  26.612  34.586  1.00  0.00    -0.250 N 
ATOM     82  C   UNL A   1      43.779  26.148  33.421  1.00  0.00     0.237 C 
ATOM     83  C   UNL A   1      44.015  26.274  35.646  1.00  0.00     0.237 C 
ATOM     84  O   UNL A   1      43.884  26.689  32.336  1.00  0.00    -0.274 OA
ATOM     85  C   UNL A   1      44.373  24.815  33.884  1.00  0.00     0.095 C 
ATOM     86  C   UNL A   1      45.083  25.353  35.090  1.00  0.00     0.095 C 
ATOM     87  O   UNL A   1      44.177  26.708  36.777  1.00  0.00    -0.274 OA
ATOM     88  C   UNL A   1      45.172  23.532  33.571  1.00  0.00     0.002 C 
ATOM     89  C   UNL A   1      45.706  24.083  35.696  1.00  0.00     0.002 C 
ATOM     90  C   UNL A   1      44.476  22.404  34.422  1.00  0.00     0.005 C 
ATOM     91  C   UNL A   1      46.455  23.619  34.426  1.00  0.00     0.009 C 
ATOM     92  C   UNL A   1      44.714  22.906  35.874  1.00  0.00     0.005 C 
ENDBRANCH  80  81
ENDBRANCH  73  75
ENDBRANCH  67  71
ENDBRANCH  63  65
ENDBRANCH  62  63
ENDBRANCH   1  62
TORSDOF 14
ENDMDL
MODEL 3
REMARK VINA RESULT:     -15.5      9.337     15.481
REMARK SMILES O=C(OCCOC(=O)c1ccccc1C(=O)Nc1ccc(N2C(=O)[C@H]3[C@@H]4CC[C@@H](C4)[C@@H]3C2=O)cc1)c1ccc(-c2c3nc(c(-c4c(F)cccc4F)c4ccc([nH]4)c(-c4c(F)cccc4F)c4nc(c(-c5c(F)cccc5F)c5ccc2[nH]5)C=C4)C=C3)cc1
REMARK SMILES IDX 5 1 4 2 3 3 2 4 1 5 36 6 37 7 89 8 38 9 88 10 39 11 40 12
REMARK SMILES IDX 41 13 82 14 42 15 87 16 81 17 83 18 43 19 86 20 80 21 79 22
REMARK SMILES IDX 44 24 70 25 53 26 69 27 54 28 57 29 68 30 84 31 55 32 56 33
REMARK SMILES IDX 67 35 85 36 58 37 45 38 46 39 51 40 47 41 48 42 50 43 52 44
REMARK SMILES IDX 49 45 71 46 72 47 77 48 73 49 74 50 76 51 78 52 75 53 59 54
REMARK SMILES IDX 60 55 65 56 61 57 62 58 64 59 66 60 63 61 6 62 7 63 8 64
REMARK SMILES IDX 9 65 10 66 14 67 11 68 13 69 12 70 15 71 16 72 17 73 18 75
REMARK SMILES IDX 19 76 35 77 20 78 34 79 21 80 22 81 23 82 32 83 24 84 25 85
REMARK SMILES IDX 31 86 33 87 26 88 29 89 27 90 30 91 28 92
REMARK H PARENT 83 23 57 34 17 74
REMARK Flexibility Score: inf
ROOT
ATOM      1  C   UNL A   1      48.684  24.731  40.052  1.00  0.00     0.275 C 
ENDROOT
BRANCH   1   2
ATOM      2  C   UNL A   1      48.749  26.527  39.421  1.00  0.00     0.275 C 
BRANCH   2   3
ATOM      3  O   UNL A   1      47.984  26.950  37.859  1.00  0.00    -0.458 OA
BRANCH   3   4
ATOM      4  C   UNL A   1      47.462  26.517  36.502  1.00  0.00     0.338 C 
ATOM      5  O   UNL A   1      48.113  25.572  36.035  1.00  0.00    -0.246 OA
BRANCH   4   6
ATOM      6  C   UNL A   1      46.235  27.042  35.410  1.00  0.00     0.060 A 
ATOM      7  C   UNL A   1      44.841  26.706  35.297  1.00  0.00     0.016 A 
ATOM      8  C   UNL A   1      46.532  28.081  34.502  1.00  0.00     0.016 A 
ATOM      9  C   UNL A   1      43.817  27.400  34.597  1.00  0.00     0.010 A 
ATOM     10  C   UNL A   1      45.485  28.838  33.796  1.00  0.00     0.010 A 
ATOM     11  C   UNL A   1      44.101  28.545  33.893  1.00  0.00    -0.014 A 
BRANCH  11  12
ATOM     12  C   UNL A   1      42.939  29.308  33.290  1.00  0.00     0.031 A 
ATOM     13  C   UNL A   1      42.369  28.889  31.963  1.00  0.00     0.074 A 
ATOM     14  C   UNL A   1      42.143  30.181  33.959  1.00  0.00     0.049 A 
ATOM     15  N   UNL A   1      41.309  29.352  31.343  1.00  0.00    -0.248 NA
ATOM     16  C   UNL A   1      43.009  27.745  31.306  1.00  0.00     0.031 C 
ATOM     17  C   UNL A   1      42.178  30.437  35.381  1.00  0.00     0.029 A 
ATOM     18  N   UNL A   1      41.112  31.002  33.538  1.00  0.00    -0.354 N 
ATOM     19  C   UNL A   1      41.096  28.505  30.272  1.00  0.00     0.074 A 
ATOM     20  C   UNL A   1      42.186  27.542  30.286  1.00  0.00     0.031 C 
ATOM     21  C   UNL A   1      41.385  31.475  35.697  1.00  0.00     0.029 A 
ATOM     22  C   UNL A   1      40.680  31.896  34.495  1.00  0.00     0.049 A 
ATOM     23  H   UNL A   1      40.722  30.953  32.636  1.00  0.00     0.167 HD
ATOM     24  C   UNL A   1      40.077  28.491  29.380  1.00  0.00     0.037 A 
ATOM     25  C   UNL A   1      39.797  32.915  34.459  1.00  0.00     0.037 A 
ATOM     26  C   UNL A   1      38.995  29.436  29.274  1.00  0.00     0.049 A 
ATOM     27  C   UNL A   1      38.904  33.111  33.271  1.00  0.00     0.074 A 
ATOM     28  C   UNL A   1      38.012  29.502  28.295  1.00  0.00     0.029 A 
ATOM     29  N   UNL A   1      38.741  30.476  30.149  1.00  0.00    -0.354 N 
ATOM     30  N   UNL A   1      38.747  32.333  32.235  1.00  0.00    -0.248 NA
ATOM     31  C   UNL A   1      38.011  34.285  33.277  1.00  0.00     0.031 C 
ATOM     32  C   UNL A   1      37.190  30.605  28.554  1.00  0.00     0.029 A 
ATOM     33  C   UNL A   1      37.644  31.213  29.708  1.00  0.00     0.049 A 
ATOM     34  H   UNL A   1      39.259  30.666  30.963  1.00  0.00     0.167 HD
ATOM     35  C   UNL A   1      37.697  32.876  31.508  1.00  0.00     0.074 A 
ATOM     36  C   UNL A   1      37.261  34.063  32.206  1.00  0.00     0.031 C 
ATOM     37  C   UNL A   1      37.147  32.391  30.371  1.00  0.00     0.037 A 
BRANCH  24  38
ATOM     38  C   UNL A   1      40.108  27.376  28.389  1.00  0.00     0.057 A 
ATOM     39  C   UNL A   1      39.474  26.157  28.655  1.00  0.00     0.134 A 
ATOM     40  C   UNL A   1      40.759  27.533  27.163  1.00  0.00     0.134 A 
ATOM     41  F   UNL A   1      38.848  25.953  29.824  1.00  0.00    -0.206 F 
ATOM     42  C   UNL A   1      39.498  25.118  27.727  1.00  0.00     0.040 A 
ATOM     43  C   UNL A   1      40.780  26.507  26.224  1.00  0.00     0.040 A 
ATOM     44  F   UNL A   1      41.382  28.684  26.867  1.00  0.00    -0.206 F 
ATOM     45  C   UNL A   1      40.150  25.295  26.506  1.00  0.00     0.006 A 
ENDBRANCH  24  38
BRANCH  25  46
ATOM     46  C   UNL A   1      39.681  33.866  35.596  1.00  0.00     0.057 A 
ATOM     47  C   UNL A   1      40.533  34.968  35.722  1.00  0.00     0.134 A 
ATOM     48  C   UNL A   1      38.810  33.592  36.657  1.00  0.00     0.134 A 
ATOM     49  F   UNL A   1      41.418  35.252  34.756  1.00  0.00    -0.206 F 
ATOM     50  C   UNL A   1      40.546  35.747  36.880  1.00  0.00     0.040 A 
ATOM     51  C   UNL A   1      38.806  34.368  37.815  1.00  0.00     0.040 A 
ATOM     52  F   UNL A   1      37.991  32.530  36.606  1.00  0.00    -0.206 F 
ATOM     53  C   UNL A   1      39.685  35.444  37.934  1.00  0.00     0.006 A 
ENDBRANCH  25  46
BRANCH  37  54
ATOM     54  C   UNL A   1      35.964  33.117  29.797  1.00  0.00     0.057 A 
ATOM     55  C   UNL A   1      34.715  33.109  30.431  1.00  0.00     0.134 A 
ATOM     56  C   UNL A   1      36.074  33.848  28.606  1.00  0.00     0.134 A 
ATOM     57  F   UNL A   1      34.532  32.414  31.564  1.00  0.00    -0.206 F 
ATOM     58  C   UNL A   1      33.616  33.786  29.895  1.00  0.00     0.040 A 
ATOM     59  C   UNL A   1      34.987  34.546  28.070  1.00  0.00     0.040 A 
ATOM     60  F   UNL A   1      37.238  33.900  27.942  1.00  0.00    -0.206 F 
ATOM     61  C   UNL A   1      33.752  34.512  28.714  1.00  0.00     0.006 A 
ENDBRANCH  37  54
ENDBRANCH  11  12
ENDBRANCH   4   6
ENDBRANCH   3   4
ENDBRANCH   2   3
ENDBRANCH   1   2
BRANCH   1  62
ATOM     62  O   UNL A   1      47.734  23.340  38.918  1.00  0.00    -0.458 OA
BRANCH  62  63
ATOM     63  C   UNL A   1      46.351  22.922  38.376  1.00  0.00     0.339 C 
ATOM     64  O   UNL A   1      45.536  22.442  39.167  1.00  0.00    -0.246 OA
BRANCH  63  65
ATOM     65  C   UNL A   1      45.863  22.498  36.993  1.00  0.00     0.072 A 
ATOM     66  C   UNL A   1      44.774  23.346  36.491  1.00  0.00     0.016 A 
ATOM     67  C   UNL A   1      46.276  21.476  36.148  1.00  0.00     0.054 A 
ATOM     68  C   UNL A   1      44.137  23.206  35.261  1.00  0.00     0.001 A 
ATOM     69  C   UNL A   1      45.612  21.362  34.874  1.00  0.00     0.015 A 
ATOM     70  C   UNL A   1      44.568  22.197  34.439  1.00  0.00     0.001 A 
BRANCH  67  71
ATOM     71  C   UNL A   1      47.419  20.533  36.308  1.00  0.00     0.256 C 
ATOM     72  O   UNL A   1      48.437  20.780  35.648  1.00  0.00    -0.269 OA
ATOM     73  N   UNL A   1      47.477  19.436  37.145  1.00  0.00    -0.322 N 
ATOM     74  H   UNL A   1      48.232  18.824  36.994  1.00  0.00     0.170 HD
BRANCH  73  75
ATOM     75  C   UNL A   1      46.600  19.078  38.182  1.00  0.00     0.041 A 
ATOM     76  C   UNL A   1      45.279  18.078  37.553  1.00  0.00     0.028 A 
ATOM     77  C   UNL A   1      47.174  18.901  39.863  1.00  0.00     0.028 A 
ATOM     78  C   UNL A   1      44.527  16.809  38.501  1.00  0.00     0.029 A 
ATOM     79  C   UNL A   1      46.461  17.535  40.851  1.00  0.00     0.029 A 
ATOM     80  C   UNL A   1      45.008  16.515  40.171  1.00  0.00     0.052 A 
BRANCH  80  81
ATOM     81  N   UNL A   1      43.713  15.895  41.015  1.00  0.00    -0.250 N 
ATOM     82  C   UNL A   1      43.400  16.228  42.357  1.00  0.00     0.237 C 
ATOM     83  C   UNL A   1      42.689  14.966  40.647  1.00  0.00     0.237 C 
ATOM     84  O   UNL A   1      43.427  17.317  42.900  1.00  0.00    -0.274 OA
ATOM     85  C   UNL A   1      42.970  14.880  42.944  1.00  0.00     0.095 C 
ATOM     86  C   UNL A   1      41.941  14.560  41.901  1.00  0.00     0.095 C 
ATOM     87  O   UNL A   1      42.222  14.618  39.572  1.00  0.00    -0.274 OA
ATOM     88  C   UNL A   1      42.495  14.043  44.150  1.00  0.00     0.002 C 
ATOM     89  C   UNL A   1      41.443  13.175  42.349  1.00  0.00     0.002 C 
ATOM     90  C   UNL A   1      43.189  12.641  43.968  1.00  0.00     0.005 C 
ATOM     91  C   UNL A   1      41.068  13.570  43.796  1.00  0.00     0.009 C 
ATOM     92  C   UNL A   1      42.570  12.148  42.629  1.00  0.00     0.005 C 
ENDBRANCH  80  81
ENDBRANCH  73  75
ENDBRANCH  67  71
ENDBRANCH  63  65
ENDBRANCH  62  63
ENDBRANCH   1  62
TORSDOF 14
ENDMDL
