MODEL 1
REMARK VINA RESULT:     -13.2      0.000      0.000
REMARK SMILES O=C(OCCOC(=O)c1ccc(-n2cc(CSc3nc4ccccc4c(=O)n3-c3ccccc3)nn2)cc1)c1ccc(-c2c3nc(c(-c4c(F)cccc4F)c4ccc([nH]4)c(-c4c(F)cccc4F)c4nc(c(-c5c(F)cccc5F)c5ccc2[nH]5)C=C4)C=C3)cc1
REMARK SMILES IDX 6 1 5 2 4 3 3 4 2 5 1 6 39 7 40 8 92 9 41 10 91 11 42 12
REMARK SMILES IDX 43 13 44 14 85 15 45 16 90 17 84 18 86 19 46 20 89 21 83 22
REMARK SMILES IDX 82 23 47 25 73 26 56 27 72 28 57 29 60 30 71 31 87 32 58 33
REMARK SMILES IDX 59 34 70 36 88 37 61 38 48 39 49 40 54 41 50 42 51 43 53 44
REMARK SMILES IDX 55 45 52 46 74 47 75 48 80 49 76 50 77 51 79 52 81 53 78 54
REMARK SMILES IDX 62 55 63 56 68 57 64 58 65 59 67 60 69 61 66 62 7 63 8 64
REMARK SMILES IDX 9 65 10 66 38 67 11 68 37 69 12 70 13 71 14 72 36 73 15 74
REMARK SMILES IDX 35 75 16 76 17 77 18 78 19 79 28 80 20 81 26 82 21 83 25 84
REMARK SMILES IDX 27 85 22 86 24 87 23 88 29 89 30 90 34 91 31 92 33 93 32 94
REMARK H PARENT 86 24 60 35
REMARK Flexibility Score: inf
ROOT
ATOM      1  O   UNL A   1      40.322  20.834  25.720  1.00  0.00    -0.458 OA
ENDROOT
BRANCH   1   2
ATOM      2  C   UNL A   1      40.851  19.712  26.450  1.00  0.00     0.275 C 
BRANCH   2   3
ATOM      3  C   UNL A   1      42.375  19.699  26.338  1.00  0.00     0.275 C 
BRANCH   3   4
ATOM      4  O   UNL A   1      42.950  19.941  25.036  1.00  0.00    -0.458 OA
BRANCH   4   5
ATOM      5  C   UNL A   1      44.112  20.625  24.959  1.00  0.00     0.338 C 
ATOM      6  O   UNL A   1      45.105  20.251  24.359  1.00  0.00    -0.246 OA
BRANCH   5   7
ATOM      7  C   UNL A   1      43.984  21.965  25.576  1.00  0.00     0.060 A 
ATOM      8  C   UNL A   1      44.784  22.352  26.657  1.00  0.00     0.016 A 
ATOM      9  C   UNL A   1      43.061  22.862  25.026  1.00  0.00     0.016 A 
ATOM     10  C   UNL A   1      44.625  23.607  27.221  1.00  0.00     0.010 A 
ATOM     11  C   UNL A   1      42.916  24.128  25.578  1.00  0.00     0.010 A 
ATOM     12  C   UNL A   1      43.670  24.482  26.701  1.00  0.00    -0.014 A 
BRANCH  12  13
ATOM     13  C   UNL A   1      43.523  25.781  27.350  1.00  0.00     0.031 A 
ATOM     14  C   UNL A   1      44.552  26.810  27.025  1.00  0.00     0.074 A 
ATOM     15  C   UNL A   1      42.448  26.096  28.097  1.00  0.00     0.049 A 
ATOM     16  N   UNL A   1      45.324  27.469  27.831  1.00  0.00    -0.248 NA
ATOM     17  C   UNL A   1      44.782  27.106  25.605  1.00  0.00     0.031 C 
ATOM     18  C   UNL A   1      41.225  25.310  28.274  1.00  0.00     0.029 A 
ATOM     19  N   UNL A   1      42.174  27.255  28.760  1.00  0.00    -0.354 N 
ATOM     20  C   UNL A   1      45.998  28.402  27.040  1.00  0.00     0.074 A 
ATOM     21  C   UNL A   1      45.725  28.045  25.672  1.00  0.00     0.031 C 
ATOM     22  C   UNL A   1      40.263  26.102  28.794  1.00  0.00     0.029 A 
ATOM     23  C   UNL A   1      40.837  27.401  29.100  1.00  0.00     0.049 A 
ATOM     24  H   UNL A   1      42.860  27.926  28.978  1.00  0.00     0.167 HD
ATOM     25  C   UNL A   1      46.537  29.536  27.569  1.00  0.00     0.037 A 
ATOM     26  C   UNL A   1      40.225  28.528  29.533  1.00  0.00     0.037 A 
ATOM     27  C   UNL A   1      46.785  29.400  28.981  1.00  0.00     0.049 A 
ATOM     28  C   UNL A   1      41.265  29.454  30.037  1.00  0.00     0.074 A 
ATOM     29  C   UNL A   1      47.497  28.519  29.774  1.00  0.00     0.029 A 
ATOM     30  N   UNL A   1      46.001  30.111  29.854  1.00  0.00    -0.354 N 
ATOM     31  N   UNL A   1      41.944  29.274  31.134  1.00  0.00    -0.248 NA
ATOM     32  C   UNL A   1      41.828  30.422  29.107  1.00  0.00     0.031 C 
ATOM     33  C   UNL A   1      46.736  28.402  30.976  1.00  0.00     0.029 A 
ATOM     34  C   UNL A   1      45.633  29.245  30.848  1.00  0.00     0.049 A 
ATOM     35  H   UNL A   1      45.752  31.060  29.781  1.00  0.00     0.167 HD
ATOM     36  C   UNL A   1      43.210  29.757  30.845  1.00  0.00     0.074 A 
ATOM     37  C   UNL A   1      43.045  30.560  29.637  1.00  0.00     0.031 C 
ATOM     38  C   UNL A   1      44.320  29.232  31.444  1.00  0.00     0.037 A 
BRANCH  25  39
ATOM     39  C   UNL A   1      46.460  30.897  26.899  1.00  0.00     0.057 A 
ATOM     40  C   UNL A   1      47.604  31.721  26.889  1.00  0.00     0.134 A 
ATOM     41  C   UNL A   1      45.255  31.556  26.580  1.00  0.00     0.134 A 
ATOM     42  F   UNL A   1      48.817  31.220  27.165  1.00  0.00    -0.206 F 
ATOM     43  C   UNL A   1      47.533  33.109  26.709  1.00  0.00     0.040 A 
ATOM     44  C   UNL A   1      45.183  32.932  26.340  1.00  0.00     0.040 A 
ATOM     45  F   UNL A   1      44.072  30.937  26.580  1.00  0.00    -0.206 F 
ATOM     46  C   UNL A   1      46.315  33.722  26.450  1.00  0.00     0.006 A 
ENDBRANCH  25  39
BRANCH  26  47
ATOM     47  C   UNL A   1      38.823  28.948  29.321  1.00  0.00     0.057 A 
ATOM     48  C   UNL A   1      37.908  28.988  30.380  1.00  0.00     0.134 A 
ATOM     49  C   UNL A   1      38.407  29.556  28.122  1.00  0.00     0.134 A 
ATOM     50  F   UNL A   1      38.228  28.477  31.578  1.00  0.00    -0.206 F 
ATOM     51  C   UNL A   1      36.657  29.607  30.260  1.00  0.00     0.040 A 
ATOM     52  C   UNL A   1      37.156  30.164  27.984  1.00  0.00     0.040 A 
ATOM     53  F   UNL A   1      39.232  29.654  27.069  1.00  0.00    -0.206 F 
ATOM     54  C   UNL A   1      36.280  30.203  29.060  1.00  0.00     0.006 A 
ENDBRANCH  26  47
BRANCH  38  55
ATOM     55  C   UNL A   1      44.126  28.344  32.636  1.00  0.00     0.057 A 
ATOM     56  C   UNL A   1      43.879  26.965  32.551  1.00  0.00     0.134 A 
ATOM     57  C   UNL A   1      44.338  28.873  33.913  1.00  0.00     0.134 A 
ATOM     58  F   UNL A   1      43.774  26.349  31.367  1.00  0.00    -0.206 F 
ATOM     59  C   UNL A   1      43.789  26.163  33.692  1.00  0.00     0.040 A 
ATOM     60  C   UNL A   1      44.286  28.077  35.059  1.00  0.00     0.040 A 
ATOM     61  F   UNL A   1      44.642  30.172  34.066  1.00  0.00    -0.206 F 
ATOM     62  C   UNL A   1      43.998  26.719  34.952  1.00  0.00     0.006 A 
ENDBRANCH  38  55
ENDBRANCH  12  13
ENDBRANCH   5   7
ENDBRANCH   4   5
ENDBRANCH   3   4
ENDBRANCH   2   3
ENDBRANCH   1   2
BRANCH   1  63
ATOM     63  C   UNL A   1      39.772  21.807  26.495  1.00  0.00     0.338 C 
ATOM     64  O   UNL A   1      40.241  22.344  27.467  1.00  0.00    -0.246 OA
BRANCH  63  65
ATOM     65  C   UNL A   1      38.453  22.133  25.925  1.00  0.00     0.060 A 
ATOM     66  C   UNL A   1      37.785  21.174  25.157  1.00  0.00     0.018 A 
ATOM     67  C   UNL A   1      37.921  23.411  26.105  1.00  0.00     0.018 A 
ATOM     68  C   UNL A   1      36.540  21.471  24.600  1.00  0.00     0.029 A 
ATOM     69  C   UNL A   1      36.715  23.739  25.486  1.00  0.00     0.029 A 
ATOM     70  C   UNL A   1      36.027  22.760  24.751  1.00  0.00     0.066 A 
BRANCH  70  71
ATOM     71  N   UNL A   1      34.920  23.129  23.970  1.00  0.00    -0.220 N 
ATOM     72  C   UNL A   1      33.664  23.358  24.454  1.00  0.00     0.141 A 
ATOM     73  N   UNL A   1      34.970  23.423  22.658  1.00  0.00    -0.062 NA
ATOM     74  C   UNL A   1      32.936  23.820  23.384  1.00  0.00     0.093 A 
ATOM     75  N   UNL A   1      33.745  23.778  22.273  1.00  0.00    -0.134 NA
BRANCH  74  76
ATOM     76  C   UNL A   1      31.480  24.075  23.295  1.00  0.00     0.138 C 
BRANCH  76  77
ATOM     77  S   UNL A   1      30.562  25.022  24.509  1.00  0.00    -0.081 SA
BRANCH  77  78
ATOM     78  C   UNL A   1      30.344  26.693  24.061  1.00  0.00     0.176 A 
ATOM     79  N   UNL A   1      29.170  26.907  23.538  1.00  0.00    -0.223 NA
ATOM     80  N   UNL A   1      31.266  27.716  24.225  1.00  0.00    -0.255 N 
ATOM     81  C   UNL A   1      28.880  28.184  23.045  1.00  0.00     0.079 A 
ATOM     82  C   UNL A   1      31.247  28.657  23.188  1.00  0.00     0.266 A 
ATOM     83  C   UNL A   1      27.568  28.581  22.787  1.00  0.00     0.029 A 
ATOM     84  C   UNL A   1      29.913  29.049  22.716  1.00  0.00     0.066 A 
ATOM     85  O   UNL A   1      32.230  29.149  22.637  1.00  0.00    -0.268 OA
ATOM     86  C   UNL A   1      27.313  29.808  22.161  1.00  0.00     0.002 A 
ATOM     87  C   UNL A   1      29.682  30.254  22.048  1.00  0.00     0.016 A 
ATOM     88  C   UNL A   1      28.370  30.630  21.765  1.00  0.00     0.001 A 
BRANCH  80  89
ATOM     89  C   UNL A   1      32.227  27.886  25.296  1.00  0.00     0.051 A 
ATOM     90  C   UNL A   1      31.782  28.097  26.619  1.00  0.00     0.027 A 
ATOM     91  C   UNL A   1      33.617  27.841  25.127  1.00  0.00     0.027 A 
ATOM     92  C   UNL A   1      32.649  28.463  27.653  1.00  0.00     0.002 A 
ATOM     93  C   UNL A   1      34.492  28.255  26.146  1.00  0.00     0.002 A 
ATOM     94  C   UNL A   1      34.003  28.599  27.398  1.00  0.00     0.000 A 
ENDBRANCH  80  89
ENDBRANCH  77  78
ENDBRANCH  76  77
ENDBRANCH  74  76
ENDBRANCH  70  71
ENDBRANCH  63  65
ENDBRANCH   1  63
TORSDOF 16
ENDMDL
MODEL 2
REMARK VINA RESULT:     -13.0      1.342      2.101
REMARK SMILES O=C(OCCOC(=O)c1ccc(-n2cc(CSc3nc4ccccc4c(=O)n3-c3ccccc3)nn2)cc1)c1ccc(-c2c3nc(c(-c4c(F)cccc4F)c4ccc([nH]4)c(-c4c(F)cccc4F)c4nc(c(-c5c(F)cccc5F)c5ccc2[nH]5)C=C4)C=C3)cc1
REMARK SMILES IDX 6 1 5 2 4 3 3 4 2 5 1 6 39 7 40 8 92 9 41 10 91 11 42 12
REMARK SMILES IDX 43 13 44 14 85 15 45 16 90 17 84 18 86 19 46 20 89 21 83 22
REMARK SMILES IDX 82 23 47 25 73 26 56 27 72 28 57 29 60 30 71 31 87 32 58 33
REMARK SMILES IDX 59 34 70 36 88 37 61 38 48 39 49 40 54 41 50 42 51 43 53 44
REMARK SMILES IDX 55 45 52 46 74 47 75 48 80 49 76 50 77 51 79 52 81 53 78 54
REMARK SMILES IDX 62 55 63 56 68 57 64 58 65 59 67 60 69 61 66 62 7 63 8 64
REMARK SMILES IDX 9 65 10 66 38 67 11 68 37 69 12 70 13 71 14 72 36 73 15 74
REMARK SMILES IDX 35 75 16 76 17 77 18 78 19 79 28 80 20 81 26 82 21 83 25 84
REMARK SMILES IDX 27 85 22 86 24 87 23 88 29 89 30 90 34 91 31 92 33 93 32 94
REMARK H PARENT 86 24 60 35
REMARK Flexibility Score: inf
ROOT
ATOM      1  O   UNL A   1      40.161  20.516  26.117  1.00  0.00    -0.458 OA
ENDROOT
BRANCH   1   2
ATOM      2  C   UNL A   1      41.328  19.952  26.744  1.00  0.00     0.275 C 
BRANCH   2   3
ATOM      3  C   UNL A   1      42.269  19.400  25.673  1.00  0.00     0.275 C 
BRANCH   3   4
ATOM      4  O   UNL A   1      43.661  19.774  25.754  1.00  0.00    -0.458 OA
BRANCH   4   5
ATOM      5  C   UNL A   1      44.107  20.779  24.969  1.00  0.00     0.338 C 
ATOM      6  O   UNL A   1      44.525  20.646  23.832  1.00  0.00    -0.246 OA
BRANCH   5   7
ATOM      7  C   UNL A   1      43.885  22.094  25.612  1.00  0.00     0.060 A 
ATOM      8  C   UNL A   1      43.068  23.067  25.025  1.00  0.00     0.016 A 
ATOM      9  C   UNL A   1      44.486  22.336  26.853  1.00  0.00     0.016 A 
ATOM     10  C   UNL A   1      42.898  24.294  25.644  1.00  0.00     0.010 A 
ATOM     11  C   UNL A   1      44.298  23.557  27.485  1.00  0.00     0.010 A 
ATOM     12  C   UNL A   1      43.537  24.549  26.858  1.00  0.00    -0.014 A 
BRANCH  12  13
ATOM     13  C   UNL A   1      43.347  25.867  27.456  1.00  0.00     0.031 A 
ATOM     14  C   UNL A   1      44.360  26.907  27.117  1.00  0.00     0.074 A 
ATOM     15  C   UNL A   1      42.248  26.184  28.166  1.00  0.00     0.049 A 
ATOM     16  N   UNL A   1      45.098  27.612  27.916  1.00  0.00    -0.248 NA
ATOM     17  C   UNL A   1      44.616  27.157  25.693  1.00  0.00     0.031 C 
ATOM     18  C   UNL A   1      41.038  25.377  28.345  1.00  0.00     0.029 A 
ATOM     19  N   UNL A   1      41.933  27.359  28.781  1.00  0.00    -0.354 N 
ATOM     20  C   UNL A   1      45.770  28.531  27.107  1.00  0.00     0.074 A 
ATOM     21  C   UNL A   1      45.536  28.119  25.748  1.00  0.00     0.031 C 
ATOM     22  C   UNL A   1      40.047  26.165  28.813  1.00  0.00     0.029 A 
ATOM     23  C   UNL A   1      40.585  27.487  29.085  1.00  0.00     0.049 A 
ATOM     24  H   UNL A   1      42.599  28.053  28.990  1.00  0.00     0.167 HD
ATOM     25  C   UNL A   1      46.271  29.696  27.607  1.00  0.00     0.037 A 
ATOM     26  C   UNL A   1      39.939  28.614  29.463  1.00  0.00     0.037 A 
ATOM     27  C   UNL A   1      46.489  29.615  29.029  1.00  0.00     0.049 A 
ATOM     28  C   UNL A   1      40.946  29.581  29.956  1.00  0.00     0.074 A 
ATOM     29  C   UNL A   1      47.201  28.779  29.868  1.00  0.00     0.029 A 
ATOM     30  N   UNL A   1      45.669  30.339  29.858  1.00  0.00    -0.354 N 
ATOM     31  N   UNL A   1      41.604  29.456  31.075  1.00  0.00    -0.248 NA
ATOM     32  C   UNL A   1      41.509  30.528  29.006  1.00  0.00     0.031 C 
ATOM     33  C   UNL A   1      46.416  28.689  31.056  1.00  0.00     0.029 A 
ATOM     34  C   UNL A   1      45.297  29.501  30.873  1.00  0.00     0.049 A 
ATOM     35  H   UNL A   1      45.401  31.279  29.745  1.00  0.00     0.167 HD
ATOM     36  C   UNL A   1      42.865  29.957  30.797  1.00  0.00     0.074 A 
ATOM     37  C   UNL A   1      42.710  30.712  29.558  1.00  0.00     0.031 C 
ATOM     38  C   UNL A   1      43.972  29.480  31.439  1.00  0.00     0.037 A 
BRANCH  25  39
ATOM     39  C   UNL A   1      46.180  31.030  26.887  1.00  0.00     0.057 A 
ATOM     40  C   UNL A   1      47.311  31.872  26.859  1.00  0.00     0.134 A 
ATOM     41  C   UNL A   1      44.969  31.657  26.530  1.00  0.00     0.134 A 
ATOM     42  F   UNL A   1      48.528  31.400  27.166  1.00  0.00    -0.206 F 
ATOM     43  C   UNL A   1      47.219  33.250  26.627  1.00  0.00     0.040 A 
ATOM     44  C   UNL A   1      44.876  33.021  26.240  1.00  0.00     0.040 A 
ATOM     45  F   UNL A   1      43.795  31.019  26.541  1.00  0.00    -0.206 F 
ATOM     46  C   UNL A   1      45.995  33.833  26.333  1.00  0.00     0.006 A 
ENDBRANCH  25  39
BRANCH  26  47
ATOM     47  C   UNL A   1      38.533  28.994  29.204  1.00  0.00     0.057 A 
ATOM     48  C   UNL A   1      37.603  29.094  30.247  1.00  0.00     0.134 A 
ATOM     49  C   UNL A   1      38.123  29.508  27.960  1.00  0.00     0.134 A 
ATOM     50  F   UNL A   1      37.915  28.676  31.482  1.00  0.00    -0.206 F 
ATOM     51  C   UNL A   1      36.344  29.682  30.068  1.00  0.00     0.040 A 
ATOM     52  C   UNL A   1      36.865  30.083  27.763  1.00  0.00     0.040 A 
ATOM     53  F   UNL A   1      38.961  29.545  26.913  1.00  0.00    -0.206 F 
ATOM     54  C   UNL A   1      35.974  30.184  28.823  1.00  0.00     0.006 A 
ENDBRANCH  26  47
BRANCH  38  55
ATOM     55  C   UNL A   1      43.770  28.630  32.658  1.00  0.00     0.057 A 
ATOM     56  C   UNL A   1      43.570  27.241  32.619  1.00  0.00     0.134 A 
ATOM     57  C   UNL A   1      43.923  29.213  33.920  1.00  0.00     0.134 A 
ATOM     58  F   UNL A   1      43.523  26.578  31.456  1.00  0.00    -0.206 F 
ATOM     59  C   UNL A   1      43.472  26.480  33.786  1.00  0.00     0.040 A 
ATOM     60  C   UNL A   1      43.862  28.459  35.093  1.00  0.00     0.040 A 
ATOM     61  F   UNL A   1      44.179  30.527  34.032  1.00  0.00    -0.206 F 
ATOM     62  C   UNL A   1      43.622  27.089  35.029  1.00  0.00     0.006 A 
ENDBRANCH  38  55
ENDBRANCH  12  13
ENDBRANCH   5   7
ENDBRANCH   4   5
ENDBRANCH   3   4
ENDBRANCH   2   3
ENDBRANCH   1   2
BRANCH   1  63
ATOM     63  C   UNL A   1      39.811  21.748  26.577  1.00  0.00     0.338 C 
ATOM     64  O   UNL A   1      40.426  22.474  27.316  1.00  0.00    -0.246 OA
BRANCH  63  65
ATOM     65  C   UNL A   1      38.502  22.083  25.989  1.00  0.00     0.060 A 
ATOM     66  C   UNL A   1      37.791  21.096  25.298  1.00  0.00     0.018 A 
ATOM     67  C   UNL A   1      38.023  23.392  26.073  1.00  0.00     0.018 A 
ATOM     68  C   UNL A   1      36.556  21.400  24.724  1.00  0.00     0.029 A 
ATOM     69  C   UNL A   1      36.827  23.721  25.434  1.00  0.00     0.029 A 
ATOM     70  C   UNL A   1      36.095  22.717  24.778  1.00  0.00     0.066 A 
BRANCH  70  71
ATOM     71  N   UNL A   1      35.000  23.071  23.976  1.00  0.00    -0.220 N 
ATOM     72  C   UNL A   1      34.793  24.308  23.437  1.00  0.00     0.141 A 
ATOM     73  N   UNL A   1      34.065  22.211  23.529  1.00  0.00    -0.062 NA
ATOM     74  C   UNL A   1      33.692  24.176  22.623  1.00  0.00     0.093 A 
ATOM     75  N   UNL A   1      33.220  22.893  22.759  1.00  0.00    -0.134 NA
BRANCH  74  76
ATOM     76  C   UNL A   1      32.932  25.231  21.916  1.00  0.00     0.138 C 
BRANCH  76  77
ATOM     77  S   UNL A   1      31.450  25.997  22.572  1.00  0.00    -0.081 SA
BRANCH  77  78
ATOM     78  C   UNL A   1      31.727  26.891  24.043  1.00  0.00     0.176 A 
ATOM     79  N   UNL A   1      31.402  28.146  23.918  1.00  0.00    -0.223 NA
ATOM     80  N   UNL A   1      32.224  26.383  25.234  1.00  0.00    -0.255 N 
ATOM     81  C   UNL A   1      31.653  29.013  24.987  1.00  0.00     0.079 A 
ATOM     82  C   UNL A   1      33.054  27.277  25.921  1.00  0.00     0.266 A 
ATOM     83  C   UNL A   1      31.042  30.264  25.066  1.00  0.00     0.029 A 
ATOM     84  C   UNL A   1      32.594  28.671  25.947  1.00  0.00     0.066 A 
ATOM     85  O   UNL A   1      34.121  27.003  26.468  1.00  0.00    -0.268 OA
ATOM     86  C   UNL A   1      31.417  31.170  26.067  1.00  0.00     0.002 A 
ATOM     87  C   UNL A   1      33.016  29.578  26.923  1.00  0.00     0.016 A 
ATOM     88  C   UNL A   1      32.423  30.838  26.976  1.00  0.00     0.001 A 
BRANCH  80  89
ATOM     89  C   UNL A   1      32.006  25.066  25.800  1.00  0.00     0.051 A 
ATOM     90  C   UNL A   1      30.708  24.512  25.823  1.00  0.00     0.027 A 
ATOM     91  C   UNL A   1      33.018  24.257  26.333  1.00  0.00     0.027 A 
ATOM     92  C   UNL A   1      30.404  23.343  26.527  1.00  0.00     0.002 A 
ATOM     93  C   UNL A   1      32.717  23.108  27.085  1.00  0.00     0.002 A 
ATOM     94  C   UNL A   1      31.405  22.672  27.210  1.00  0.00     0.000 A 
ENDBRANCH  80  89
ENDBRANCH  77  78
ENDBRANCH  76  77
ENDBRANCH  74  76
ENDBRANCH  70  71
ENDBRANCH  63  65
ENDBRANCH   1  63
TORSDOF 16
ENDMDL
MODEL 3
REMARK VINA RESULT:     -12.7      3.395      9.175
REMARK SMILES O=C(OCCOC(=O)c1ccc(-n2cc(CSc3nc4ccccc4c(=O)n3-c3ccccc3)nn2)cc1)c1ccc(-c2c3nc(c(-c4c(F)cccc4F)c4ccc([nH]4)c(-c4c(F)cccc4F)c4nc(c(-c5c(F)cccc5F)c5ccc2[nH]5)C=C4)C=C3)cc1
REMARK SMILES IDX 6 1 5 2 4 3 3 4 2 5 1 6 39 7 40 8 92 9 41 10 91 11 42 12
REMARK SMILES IDX 43 13 44 14 85 15 45 16 90 17 84 18 86 19 46 20 89 21 83 22
REMARK SMILES IDX 82 23 47 25 73 26 56 27 72 28 57 29 60 30 71 31 87 32 58 33
REMARK SMILES IDX 59 34 70 36 88 37 61 38 48 39 49 40 54 41 50 42 51 43 53 44
REMARK SMILES IDX 55 45 52 46 74 47 75 48 80 49 76 50 77 51 79 52 81 53 78 54
REMARK SMILES IDX 62 55 63 56 68 57 64 58 65 59 67 60 69 61 66 62 7 63 8 64
REMARK SMILES IDX 9 65 10 66 38 67 11 68 37 69 12 70 13 71 14 72 36 73 15 74
REMARK SMILES IDX 35 75 16 76 17 77 18 78 19 79 28 80 20 81 26 82 21 83 25 84
REMARK SMILES IDX 27 85 22 86 24 87 23 88 29 89 30 90 34 91 31 92 33 93 32 94
REMARK H PARENT 86 24 60 35
REMARK Flexibility Score: inf
ROOT
ATOM      1  O   UNL A   1      33.485  33.195  28.175  1.00  0.00    -0.458 OA
ENDROOT
BRANCH   1   2
ATOM      2  C   UNL A   1      34.086  34.478  28.428  1.00  0.00     0.275 C 
BRANCH   2   3
ATOM      3  C   UNL A   1      33.249  35.245  29.452  1.00  0.00     0.275 C 
BRANCH   3   4
ATOM      4  O   UNL A   1      33.903  35.661  30.669  1.00  0.00    -0.458 OA
BRANCH   4   5
ATOM      5  C   UNL A   1      33.925  34.808  31.716  1.00  0.00     0.338 C 
ATOM      6  O   UNL A   1      33.024  34.671  32.525  1.00  0.00    -0.246 OA
BRANCH   5   7
ATOM      7  C   UNL A   1      35.128  33.946  31.675  1.00  0.00     0.060 A 
ATOM      8  C   UNL A   1      36.409  34.465  31.894  1.00  0.00     0.016 A 
ATOM      9  C   UNL A   1      34.954  32.575  31.448  1.00  0.00     0.016 A 
ATOM     10  C   UNL A   1      37.514  33.633  31.829  1.00  0.00     0.010 A 
ATOM     11  C   UNL A   1      36.059  31.737  31.405  1.00  0.00     0.010 A 
ATOM     12  C   UNL A   1      37.341  32.275  31.555  1.00  0.00    -0.014 A 
BRANCH  12  13
ATOM     13  C   UNL A   1      38.540  31.447  31.471  1.00  0.00     0.031 A 
ATOM     14  C   UNL A   1      39.241  31.156  32.754  1.00  0.00     0.074 A 
ATOM     15  C   UNL A   1      38.929  30.856  30.326  1.00  0.00     0.049 A 
ATOM     16  N   UNL A   1      40.476  31.383  33.074  1.00  0.00    -0.248 NA
ATOM     17  C   UNL A   1      38.441  30.577  33.841  1.00  0.00     0.031 C 
ATOM     18  C   UNL A   1      38.199  30.805  29.057  1.00  0.00     0.029 A 
ATOM     19  N   UNL A   1      40.014  30.065  30.093  1.00  0.00    -0.354 N 
ATOM     20  C   UNL A   1      40.661  30.800  34.329  1.00  0.00     0.074 A 
ATOM     21  C   UNL A   1      39.352  30.438  34.804  1.00  0.00     0.031 C 
ATOM     22  C   UNL A   1      38.738  29.845  28.276  1.00  0.00     0.029 A 
ATOM     23  C   UNL A   1      39.918  29.310  28.934  1.00  0.00     0.049 A 
ATOM     24  H   UNL A   1      40.795  30.032  30.693  1.00  0.00     0.167 HD
ATOM     25  C   UNL A   1      41.897  30.445  34.781  1.00  0.00     0.037 A 
ATOM     26  C   UNL A   1      40.705  28.271  28.571  1.00  0.00     0.037 A 
ATOM     27  C   UNL A   1      42.941  31.175  34.108  1.00  0.00     0.049 A 
ATOM     28  C   UNL A   1      41.962  28.348  29.351  1.00  0.00     0.074 A 
ATOM     29  C   UNL A   1      43.237  32.512  33.914  1.00  0.00     0.029 A 
ATOM     30  N   UNL A   1      43.751  30.499  33.232  1.00  0.00    -0.354 N 
ATOM     31  N   UNL A   1      42.887  29.249  29.172  1.00  0.00    -0.248 NA
ATOM     32  C   UNL A   1      42.029  27.628  30.613  1.00  0.00     0.031 C 
ATOM     33  C   UNL A   1      43.809  32.579  32.608  1.00  0.00     0.029 A 
ATOM     34  C   UNL A   1      43.854  31.277  32.111  1.00  0.00     0.049 A 
ATOM     35  H   UNL A   1      44.177  29.624  33.380  1.00  0.00     0.167 HD
ATOM     36  C   UNL A   1      43.369  29.511  30.444  1.00  0.00     0.074 A 
ATOM     37  C   UNL A   1      42.897  28.402  31.267  1.00  0.00     0.031 C 
ATOM     38  C   UNL A   1      43.861  30.743  30.772  1.00  0.00     0.037 A 
BRANCH  25  39
ATOM     39  C   UNL A   1      42.181  29.156  35.532  1.00  0.00     0.057 A 
ATOM     40  C   UNL A   1      43.115  29.170  36.589  1.00  0.00     0.134 A 
ATOM     41  C   UNL A   1      41.850  27.871  35.055  1.00  0.00     0.134 A 
ATOM     42  F   UNL A   1      43.510  30.326  37.143  1.00  0.00    -0.206 F 
ATOM     43  C   UNL A   1      43.763  28.013  37.039  1.00  0.00     0.040 A 
ATOM     44  C   UNL A   1      42.448  26.704  35.539  1.00  0.00     0.040 A 
ATOM     45  F   UNL A   1      41.012  27.674  34.034  1.00  0.00    -0.206 F 
ATOM     46  C   UNL A   1      43.442  26.774  36.501  1.00  0.00     0.006 A 
ENDBRANCH  25  39
BRANCH  26  47
ATOM     47  C   UNL A   1      40.341  27.085  27.766  1.00  0.00     0.057 A 
ATOM     48  C   UNL A   1      40.905  26.862  26.503  1.00  0.00     0.134 A 
ATOM     49  C   UNL A   1      39.618  26.011  28.318  1.00  0.00     0.134 A 
ATOM     50  F   UNL A   1      41.651  27.807  25.913  1.00  0.00    -0.206 F 
ATOM     51  C   UNL A   1      40.769  25.640  25.832  1.00  0.00     0.040 A 
ATOM     52  C   UNL A   1      39.462  24.792  27.653  1.00  0.00     0.040 A 
ATOM     53  F   UNL A   1      39.108  26.079  29.556  1.00  0.00    -0.206 F 
ATOM     54  C   UNL A   1      40.049  24.598  26.410  1.00  0.00     0.006 A 
ENDBRANCH  26  47
BRANCH  38  55
ATOM     55  C   UNL A   1      44.154  31.706  29.660  1.00  0.00     0.057 A 
ATOM     56  C   UNL A   1      43.226  32.634  29.164  1.00  0.00     0.134 A 
ATOM     57  C   UNL A   1      45.462  31.794  29.171  1.00  0.00     0.134 A 
ATOM     58  F   UNL A   1      41.981  32.699  29.653  1.00  0.00    -0.206 F 
ATOM     59  C   UNL A   1      43.573  33.568  28.185  1.00  0.00     0.040 A 
ATOM     60  C   UNL A   1      45.830  32.745  28.219  1.00  0.00     0.040 A 
ATOM     61  F   UNL A   1      46.419  30.979  29.646  1.00  0.00    -0.206 F 
ATOM     62  C   UNL A   1      44.880  33.628  27.712  1.00  0.00     0.006 A 
ENDBRANCH  38  55
ENDBRANCH  12  13
ENDBRANCH   5   7
ENDBRANCH   4   5
ENDBRANCH   3   4
ENDBRANCH   2   3
ENDBRANCH   1   2
BRANCH   1  63
ATOM     63  C   UNL A   1      34.360  32.225  27.794  1.00  0.00     0.338 C 
ATOM     64  O   UNL A   1      35.564  32.264  27.785  1.00  0.00    -0.246 OA
BRANCH  63  65
ATOM     65  C   UNL A   1      33.568  31.050  27.388  1.00  0.00     0.060 A 
ATOM     66  C   UNL A   1      34.148  29.779  27.457  1.00  0.00     0.018 A 
ATOM     67  C   UNL A   1      32.280  31.229  26.881  1.00  0.00     0.018 A 
ATOM     68  C   UNL A   1      33.416  28.658  27.064  1.00  0.00     0.029 A 
ATOM     69  C   UNL A   1      31.573  30.121  26.413  1.00  0.00     0.029 A 
ATOM     70  C   UNL A   1      32.142  28.842  26.524  1.00  0.00     0.066 A 
BRANCH  70  71
ATOM     71  N   UNL A   1      31.528  27.752  25.888  1.00  0.00    -0.220 N 
ATOM     72  C   UNL A   1      31.287  26.541  26.470  1.00  0.00     0.141 A 
ATOM     73  N   UNL A   1      30.985  27.788  24.656  1.00  0.00    -0.062 NA
ATOM     74  C   UNL A   1      30.559  25.827  25.549  1.00  0.00     0.093 A 
ATOM     75  N   UNL A   1      30.452  26.592  24.412  1.00  0.00    -0.134 NA
BRANCH  74  76
ATOM     76  C   UNL A   1      30.161  24.401  25.586  1.00  0.00     0.138 C 
BRANCH  76  77
ATOM     77  S   UNL A   1      30.972  23.170  26.605  1.00  0.00    -0.081 SA
BRANCH  77  78
ATOM     78  C   UNL A   1      32.154  22.225  25.740  1.00  0.00     0.176 A 
ATOM     79  N   UNL A   1      31.927  20.947  25.845  1.00  0.00    -0.223 NA
ATOM     80  N   UNL A   1      33.223  22.717  25.005  1.00  0.00    -0.255 N 
ATOM     81  C   UNL A   1      32.844  20.055  25.279  1.00  0.00     0.079 A 
ATOM     82  C   UNL A   1      34.371  21.920  25.087  1.00  0.00     0.266 A 
ATOM     83  C   UNL A   1      32.513  18.720  25.054  1.00  0.00     0.029 A 
ATOM     84  C   UNL A   1      34.141  20.472  25.015  1.00  0.00     0.066 A 
ATOM     85  O   UNL A   1      35.524  22.322  25.236  1.00  0.00    -0.268 OA
ATOM     86  C   UNL A   1      33.490  17.813  24.620  1.00  0.00     0.002 A 
ATOM     87  C   UNL A   1      35.140  19.575  24.629  1.00  0.00     0.016 A 
ATOM     88  C   UNL A   1      34.809  18.235  24.437  1.00  0.00     0.001 A 
BRANCH  80  89
ATOM     89  C   UNL A   1      33.280  23.935  24.222  1.00  0.00     0.051 A 
ATOM     90  C   UNL A   1      32.724  23.968  22.924  1.00  0.00     0.027 A 
ATOM     91  C   UNL A   1      33.849  25.136  24.666  1.00  0.00     0.027 A 
ATOM     92  C   UNL A   1      32.922  25.042  22.051  1.00  0.00     0.002 A 
ATOM     93  C   UNL A   1      34.096  26.200  23.781  1.00  0.00     0.002 A 
ATOM     94  C   UNL A   1      33.661  26.137  22.464  1.00  0.00     0.000 A 
ENDBRANCH  80  89
ENDBRANCH  77  78
ENDBRANCH  76  77
ENDBRANCH  74  76
ENDBRANCH  70  71
ENDBRANCH  63  65
ENDBRANCH   1  63
TORSDOF 16
ENDMDL
