MODEL 1
REMARK VINA RESULT:      -9.1      0.000      0.000
REMARK SMILES Cc1cccc(Cl)c1Nc1ccccc1CC(=O)OCCOC(=O)c1ccc(-c2c3nc(c(-c4c(F)cccc4F)c4ccc([nH]4)c(-c4c(F)cccc4F)c4nc(c(-c5c(F)cccc5F)c5ccc2[nH]5)C=C4)C=C3)cc1
REMARK SMILES IDX 20 1 19 2 17 3 18 4 16 5 15 6 10 7 11 8 12 9 14 10 13 11
REMARK SMILES IDX 9 12 8 14 1 15 2 16 3 17 4 18 6 19 5 20 7 21 21 22 22 23
REMARK SMILES IDX 23 24 24 25 25 26 26 27 78 28 27 29 77 30 28 31 29 32 30 33
REMARK SMILES IDX 71 34 31 35 76 36 70 37 72 38 32 39 75 40 69 41 68 42 33 44
REMARK SMILES IDX 59 45 42 46 58 47 43 48 46 49 57 50 73 51 44 52 45 53 56 55
REMARK SMILES IDX 74 56 47 57 34 58 35 59 40 60 36 61 37 62 39 63 41 64 38 65
REMARK SMILES IDX 60 66 61 67 66 68 62 69 63 70 65 71 67 72 64 73 48 74 49 75
REMARK SMILES IDX 54 76 50 77 51 78 53 79 55 80 52 81
REMARK H PARENT 9 13 72 43 46 54
REMARK Flexibility Score: inf
ROOT
ATOM      1  C   UNL A   1      45.062  20.222  25.053  1.00  0.00     0.274 C 
ENDROOT
BRANCH   1   2
ATOM      2  O   UNL A   1      44.898  21.570  24.576  1.00  0.00    -0.462 OA
BRANCH   2   3
ATOM      3  C   UNL A   1      45.425  22.538  25.372  1.00  0.00     0.310 C 
ATOM      4  O   UNL A   1      46.076  22.322  26.391  1.00  0.00    -0.252 OA
BRANCH   3   5
ATOM      5  C   UNL A   1      45.063  23.936  24.949  1.00  0.00     0.160 C 
BRANCH   5   6
ATOM      6  C   UNL A   1      46.151  24.991  24.905  1.00  0.00    -0.013 A 
ATOM      7  C   UNL A   1      46.004  26.229  25.571  1.00  0.00     0.042 A 
ATOM      8  C   UNL A   1      47.025  27.190  25.457  1.00  0.00     0.026 A 
ATOM      9  C   UNL A   1      48.200  26.919  24.756  1.00  0.00     0.002 A 
ATOM     10  C   UNL A   1      47.360  24.723  24.235  1.00  0.00     0.006 A 
ATOM     11  C   UNL A   1      48.375  25.677  24.161  1.00  0.00     0.000 A 
BRANCH   7  12
ATOM     12  N   UNL A   1      44.934  26.520  26.444  1.00  0.00    -0.354 N 
ATOM     13  H   UNL A   1      44.727  25.811  27.095  1.00  0.00     0.167 HD
BRANCH  12  14
ATOM     14  C   UNL A   1      44.112  27.669  26.531  1.00  0.00     0.060 A 
ATOM     15  C   UNL A   1      42.506  26.540  24.904  1.00  0.00     0.046 C 
ATOM     16  C   UNL A   1      42.899  27.687  25.797  1.00  0.00    -0.026 A 
ATOM     17  C   UNL A   1      41.993  28.750  25.963  1.00  0.00     0.005 A 
ATOM     18  C   UNL A   1      42.278  29.802  26.829  1.00  0.00     0.002 A 
ATOM     19  C   UNL A   1      44.391  28.765  27.384  1.00  0.00     0.064 A 
ATOM     20  C   UNL A   1      43.478  29.814  27.530  1.00  0.00     0.023 A 
ATOM     21  Cl  UNL A   1      45.886  28.930  28.244  1.00  0.00    -0.082 Cl
ENDBRANCH  12  14
ENDBRANCH   7  12
ENDBRANCH   5   6
ENDBRANCH   3   5
ENDBRANCH   2   3
ENDBRANCH   1   2
BRANCH   1  22
ATOM     22  C   UNL A   1      43.808  19.392  24.785  1.00  0.00     0.275 C 
BRANCH  22  23
ATOM     23  O   UNL A   1      43.093  19.168  26.013  1.00  0.00    -0.458 OA
BRANCH  23  24
ATOM     24  C   UNL A   1      41.840  19.667  26.067  1.00  0.00     0.338 C 
ATOM     25  O   UNL A   1      40.810  19.142  25.682  1.00  0.00    -0.246 OA
BRANCH  24  26
ATOM     26  C   UNL A   1      41.871  21.008  26.671  1.00  0.00     0.060 A 
ATOM     27  C   UNL A   1      41.788  22.151  25.871  1.00  0.00     0.016 A 
ATOM     28  C   UNL A   1      42.099  21.117  28.042  1.00  0.00     0.016 A 
ATOM     29  C   UNL A   1      41.964  23.413  26.440  1.00  0.00     0.010 A 
ATOM     30  C   UNL A   1      42.228  22.383  28.617  1.00  0.00     0.010 A 
ATOM     31  C   UNL A   1      42.184  23.539  27.818  1.00  0.00    -0.014 A 
BRANCH  31  32
ATOM     32  C   UNL A   1      42.409  24.866  28.441  1.00  0.00     0.031 A 
ATOM     33  C   UNL A   1      43.718  25.160  29.116  1.00  0.00     0.074 A 
ATOM     34  C   UNL A   1      41.428  25.787  28.445  1.00  0.00     0.049 A 
ATOM     35  N   UNL A   1      44.045  26.166  29.886  1.00  0.00    -0.248 NA
ATOM     36  C   UNL A   1      44.798  24.185  28.907  1.00  0.00     0.031 C 
ATOM     37  C   UNL A   1      40.123  25.637  27.801  1.00  0.00     0.029 A 
ATOM     38  N   UNL A   1      41.371  27.024  29.036  1.00  0.00    -0.354 N 
ATOM     39  C   UNL A   1      45.352  25.925  30.288  1.00  0.00     0.074 A 
ATOM     40  C   UNL A   1      45.758  24.675  29.679  1.00  0.00     0.031 C 
ATOM     41  C   UNL A   1      39.391  26.738  28.037  1.00  0.00     0.029 A 
ATOM     42  C   UNL A   1      40.154  27.641  28.895  1.00  0.00     0.049 A 
ATOM     43  H   UNL A   1      42.131  27.429  29.514  1.00  0.00     0.167 HD
ATOM     44  C   UNL A   1      46.140  26.675  31.095  1.00  0.00     0.037 A 
ATOM     45  C   UNL A   1      39.688  28.785  29.429  1.00  0.00     0.037 A 
ATOM     46  C   UNL A   1      45.747  27.935  31.670  1.00  0.00     0.049 A 
ATOM     47  C   UNL A   1      40.570  29.589  30.341  1.00  0.00     0.074 A 
ATOM     48  C   UNL A   1      46.488  28.786  32.472  1.00  0.00     0.029 A 
ATOM     49  N   UNL A   1      44.506  28.527  31.498  1.00  0.00    -0.354 N 
ATOM     50  N   UNL A   1      41.797  29.344  30.729  1.00  0.00    -0.248 NA
ATOM     51  C   UNL A   1      39.998  30.823  30.898  1.00  0.00     0.031 C 
ATOM     52  C   UNL A   1      45.683  29.881  32.810  1.00  0.00     0.029 A 
ATOM     53  C   UNL A   1      44.453  29.725  32.190  1.00  0.00     0.049 A 
ATOM     54  H   UNL A   1      43.770  28.151  30.962  1.00  0.00     0.167 HD
ATOM     55  C   UNL A   1      42.149  30.396  31.564  1.00  0.00     0.074 A 
ATOM     56  C   UNL A   1      41.009  31.289  31.616  1.00  0.00     0.031 C 
ATOM     57  C   UNL A   1      43.311  30.601  32.230  1.00  0.00     0.037 A 
BRANCH  44  58
ATOM     58  C   UNL A   1      47.498  26.137  31.426  1.00  0.00     0.057 A 
ATOM     59  C   UNL A   1      48.591  26.300  30.568  1.00  0.00     0.134 A 
ATOM     60  C   UNL A   1      47.719  25.466  32.637  1.00  0.00     0.134 A 
ATOM     61  F   UNL A   1      48.443  26.921  29.388  1.00  0.00    -0.206 F 
ATOM     62  C   UNL A   1      49.854  25.799  30.893  1.00  0.00     0.040 A 
ATOM     63  C   UNL A   1      48.979  24.979  32.982  1.00  0.00     0.040 A 
ATOM     64  F   UNL A   1      46.712  25.279  33.504  1.00  0.00    -0.206 F 
ATOM     65  C   UNL A   1      50.051  25.141  32.105  1.00  0.00     0.006 A 
ENDBRANCH  44  58
BRANCH  45  66
ATOM     66  C   UNL A   1      38.302  29.220  29.136  1.00  0.00     0.057 A 
ATOM     67  C   UNL A   1      37.301  29.145  30.110  1.00  0.00     0.134 A 
ATOM     68  C   UNL A   1      37.949  29.733  27.882  1.00  0.00     0.134 A 
ATOM     69  F   UNL A   1      37.576  28.642  31.322  1.00  0.00    -0.206 F 
ATOM     70  C   UNL A   1      35.995  29.559  29.846  1.00  0.00     0.040 A 
ATOM     71  C   UNL A   1      36.653  30.170  27.611  1.00  0.00     0.040 A 
ATOM     72  F   UNL A   1      38.867  29.830  26.908  1.00  0.00    -0.206 F 
ATOM     73  C   UNL A   1      35.670  30.082  28.594  1.00  0.00     0.006 A 
ENDBRANCH  45  66
BRANCH  57  74
ATOM     74  C   UNL A   1      43.415  31.851  33.051  1.00  0.00     0.057 A 
ATOM     75  C   UNL A   1      43.066  31.872  34.405  1.00  0.00     0.134 A 
ATOM     76  C   UNL A   1      43.899  33.037  32.485  1.00  0.00     0.134 A 
ATOM     77  F   UNL A   1      42.582  30.771  35.000  1.00  0.00    -0.206 F 
ATOM     78  C   UNL A   1      43.181  33.035  35.169  1.00  0.00     0.040 A 
ATOM     79  C   UNL A   1      44.036  34.201  33.242  1.00  0.00     0.040 A 
ATOM     80  F   UNL A   1      44.254  33.081  31.193  1.00  0.00    -0.206 F 
ATOM     81  C   UNL A   1      43.672  34.203  34.588  1.00  0.00     0.006 A 
ENDBRANCH  57  74
ENDBRANCH  31  32
ENDBRANCH  24  26
ENDBRANCH  23  24
ENDBRANCH  22  23
ENDBRANCH   1  22
TORSDOF 14
ENDMDL
MODEL 2
REMARK VINA RESULT:      -9.0      0.930      6.345
REMARK SMILES Cc1cccc(Cl)c1Nc1ccccc1CC(=O)OCCOC(=O)c1ccc(-c2c3nc(c(-c4c(F)cccc4F)c4ccc([nH]4)c(-c4c(F)cccc4F)c4nc(c(-c5c(F)cccc5F)c5ccc2[nH]5)C=C4)C=C3)cc1
REMARK SMILES IDX 20 1 19 2 17 3 18 4 16 5 15 6 10 7 11 8 12 9 14 10 13 11
REMARK SMILES IDX 9 12 8 14 1 15 2 16 3 17 4 18 6 19 5 20 7 21 21 22 22 23
REMARK SMILES IDX 23 24 24 25 25 26 26 27 78 28 27 29 77 30 28 31 29 32 30 33
REMARK SMILES IDX 71 34 31 35 76 36 70 37 72 38 32 39 75 40 69 41 68 42 33 44
REMARK SMILES IDX 59 45 42 46 58 47 43 48 46 49 57 50 73 51 44 52 45 53 56 55
REMARK SMILES IDX 74 56 47 57 34 58 35 59 40 60 36 61 37 62 39 63 41 64 38 65
REMARK SMILES IDX 60 66 61 67 66 68 62 69 63 70 65 71 67 72 64 73 48 74 49 75
REMARK SMILES IDX 54 76 50 77 51 78 53 79 55 80 52 81
REMARK H PARENT 9 13 72 43 46 54
REMARK Flexibility Score: inf
ROOT
ATOM      1  C   UNL A   1      45.068  20.325  25.227  1.00  0.00     0.274 C 
ENDROOT
BRANCH   1   2
ATOM      2  O   UNL A   1      45.178  21.586  24.540  1.00  0.00    -0.462 OA
BRANCH   2   3
ATOM      3  C   UNL A   1      45.703  22.604  25.272  1.00  0.00     0.310 C 
ATOM      4  O   UNL A   1      46.377  22.455  26.288  1.00  0.00    -0.252 OA
BRANCH   3   5
ATOM      5  C   UNL A   1      45.308  23.971  24.782  1.00  0.00     0.160 C 
BRANCH   5   6
ATOM      6  C   UNL A   1      46.364  25.056  24.712  1.00  0.00    -0.013 A 
ATOM      7  C   UNL A   1      46.181  26.305  25.347  1.00  0.00     0.042 A 
ATOM      8  C   UNL A   1      47.173  27.292  25.209  1.00  0.00     0.026 A 
ATOM      9  C   UNL A   1      48.356  27.038  24.514  1.00  0.00     0.002 A 
ATOM     10  C   UNL A   1      47.581  24.806  24.048  1.00  0.00     0.006 A 
ATOM     11  C   UNL A   1      48.567  25.788  23.950  1.00  0.00     0.000 A 
BRANCH   7  12
ATOM     12  N   UNL A   1      45.103  26.586  26.213  1.00  0.00    -0.354 N 
ATOM     13  H   UNL A   1      44.936  25.902  26.900  1.00  0.00     0.167 HD
BRANCH  12  14
ATOM     14  C   UNL A   1      44.224  27.695  26.249  1.00  0.00     0.060 A 
ATOM     15  C   UNL A   1      42.476  26.240  25.095  1.00  0.00     0.046 C 
ATOM     16  C   UNL A   1      42.917  27.535  25.723  1.00  0.00    -0.026 A 
ATOM     17  C   UNL A   1      41.973  28.569  25.862  1.00  0.00     0.005 A 
ATOM     18  C   UNL A   1      42.309  29.762  26.496  1.00  0.00     0.002 A 
ATOM     19  C   UNL A   1      44.549  28.928  26.863  1.00  0.00     0.064 A 
ATOM     20  C   UNL A   1      43.597  29.945  26.986  1.00  0.00     0.023 A 
ATOM     21  Cl  UNL A   1      46.141  29.302  27.438  1.00  0.00    -0.082 Cl
ENDBRANCH  12  14
ENDBRANCH   7  12
ENDBRANCH   5   6
ENDBRANCH   3   5
ENDBRANCH   2   3
ENDBRANCH   1   2
BRANCH   1  22
ATOM     22  C   UNL A   1      43.808  19.577  24.797  1.00  0.00     0.275 C 
BRANCH  22  23
ATOM     23  O   UNL A   1      43.017  19.238  25.949  1.00  0.00    -0.458 OA
BRANCH  23  24
ATOM     24  C   UNL A   1      41.796  19.811  26.015  1.00  0.00     0.338 C 
ATOM     25  O   UNL A   1      40.738  19.363  25.608  1.00  0.00    -0.246 OA
BRANCH  24  26
ATOM     26  C   UNL A   1      41.904  21.125  26.668  1.00  0.00     0.060 A 
ATOM     27  C   UNL A   1      42.036  22.289  25.906  1.00  0.00     0.016 A 
ATOM     28  C   UNL A   1      41.988  21.174  28.059  1.00  0.00     0.016 A 
ATOM     29  C   UNL A   1      42.283  23.509  26.537  1.00  0.00     0.010 A 
ATOM     30  C   UNL A   1      42.188  22.402  28.691  1.00  0.00     0.010 A 
ATOM     31  C   UNL A   1      42.360  23.575  27.934  1.00  0.00    -0.014 A 
BRANCH  31  32
ATOM     32  C   UNL A   1      42.657  24.853  28.626  1.00  0.00     0.031 A 
ATOM     33  C   UNL A   1      41.581  25.892  28.767  1.00  0.00     0.074 A 
ATOM     34  C   UNL A   1      43.897  25.103  29.084  1.00  0.00     0.049 A 
ATOM     35  N   UNL A   1      41.680  27.139  29.151  1.00  0.00    -0.248 NA
ATOM     36  C   UNL A   1      40.216  25.475  28.414  1.00  0.00     0.031 C 
ATOM     37  C   UNL A   1      45.022  24.168  29.036  1.00  0.00     0.029 A 
ATOM     38  N   UNL A   1      44.423  26.233  29.658  1.00  0.00    -0.354 N 
ATOM     39  C   UNL A   1      40.400  27.668  29.046  1.00  0.00     0.074 A 
ATOM     40  C   UNL A   1      39.542  26.607  28.560  1.00  0.00     0.031 C 
ATOM     41  C   UNL A   1      46.108  24.766  29.553  1.00  0.00     0.029 A 
ATOM     42  C   UNL A   1      45.768  26.140  29.914  1.00  0.00     0.049 A 
ATOM     43  H   UNL A   1      43.887  27.033  29.866  1.00  0.00     0.167 HD
ATOM     44  C   UNL A   1      39.980  28.924  29.327  1.00  0.00     0.037 A 
ATOM     45  C   UNL A   1      46.640  27.068  30.351  1.00  0.00     0.037 A 
ATOM     46  C   UNL A   1      40.827  29.967  29.846  1.00  0.00     0.049 A 
ATOM     47  C   UNL A   1      46.157  28.462  30.633  1.00  0.00     0.074 A 
ATOM     48  C   UNL A   1      40.486  31.262  30.195  1.00  0.00     0.029 A 
ATOM     49  N   UNL A   1      42.183  29.829  30.095  1.00  0.00    -0.354 N 
ATOM     50  N   UNL A   1      44.950  28.957  30.514  1.00  0.00    -0.248 NA
ATOM     51  C   UNL A   1      47.161  29.429  31.098  1.00  0.00     0.031 C 
ATOM     52  C   UNL A   1      41.644  31.918  30.628  1.00  0.00     0.029 A 
ATOM     53  C   UNL A   1      42.698  31.020  30.579  1.00  0.00     0.049 A 
ATOM     54  H   UNL A   1      42.704  29.006  29.950  1.00  0.00     0.167 HD
ATOM     55  C   UNL A   1      45.045  30.287  30.901  1.00  0.00     0.074 A 
ATOM     56  C   UNL A   1      46.427  30.518  31.270  1.00  0.00     0.031 C 
ATOM     57  C   UNL A   1      44.075  31.232  30.943  1.00  0.00     0.037 A 
BRANCH  44  58
ATOM     58  C   UNL A   1      38.543  29.249  29.052  1.00  0.00     0.057 A 
ATOM     59  C   UNL A   1      38.089  29.579  27.770  1.00  0.00     0.134 A 
ATOM     60  C   UNL A   1      37.596  29.205  30.084  1.00  0.00     0.134 A 
ATOM     61  F   UNL A   1      38.948  29.653  26.742  1.00  0.00    -0.206 F 
ATOM     62  C   UNL A   1      36.746  29.873  27.527  1.00  0.00     0.040 A 
ATOM     63  C   UNL A   1      36.248  29.476  29.849  1.00  0.00     0.040 A 
ATOM     64  F   UNL A   1      37.967  28.891  31.335  1.00  0.00    -0.206 F 
ATOM     65  C   UNL A   1      35.820  29.817  28.567  1.00  0.00     0.006 A 
ENDBRANCH  44  58
BRANCH  45  66
ATOM     66  C   UNL A   1      48.068  26.710  30.518  1.00  0.00     0.057 A 
ATOM     67  C   UNL A   1      48.560  26.258  31.747  1.00  0.00     0.134 A 
ATOM     68  C   UNL A   1      48.971  26.798  29.451  1.00  0.00     0.134 A 
ATOM     69  F   UNL A   1      47.746  26.176  32.810  1.00  0.00    -0.206 F 
ATOM     70  C   UNL A   1      49.902  25.911  31.913  1.00  0.00     0.040 A 
ATOM     71  C   UNL A   1      50.309  26.434  29.597  1.00  0.00     0.040 A 
ATOM     72  F   UNL A   1      48.557  27.223  28.249  1.00  0.00    -0.206 F 
ATOM     73  C   UNL A   1      50.779  25.991  30.832  1.00  0.00     0.006 A 
ENDBRANCH  45  66
BRANCH  57  74
ATOM     74  C   UNL A   1      44.470  32.594  31.428  1.00  0.00     0.057 A 
ATOM     75  C   UNL A   1      44.851  33.607  30.542  1.00  0.00     0.134 A 
ATOM     76  C   UNL A   1      44.439  32.901  32.794  1.00  0.00     0.134 A 
ATOM     77  F   UNL A   1      44.915  33.369  29.223  1.00  0.00    -0.206 F 
ATOM     78  C   UNL A   1      45.202  34.879  30.999  1.00  0.00     0.040 A 
ATOM     79  C   UNL A   1      44.769  34.173  33.261  1.00  0.00     0.040 A 
ATOM     80  F   UNL A   1      44.078  31.974  33.693  1.00  0.00    -0.206 F 
ATOM     81  C   UNL A   1      45.156  35.166  32.362  1.00  0.00     0.006 A 
ENDBRANCH  57  74
ENDBRANCH  31  32
ENDBRANCH  24  26
ENDBRANCH  23  24
ENDBRANCH  22  23
ENDBRANCH   1  22
TORSDOF 14
ENDMDL
MODEL 3
REMARK VINA RESULT:      -8.7      5.089     10.095
REMARK SMILES Cc1cccc(Cl)c1Nc1ccccc1CC(=O)OCCOC(=O)c1ccc(-c2c3nc(c(-c4c(F)cccc4F)c4ccc([nH]4)c(-c4c(F)cccc4F)c4nc(c(-c5c(F)cccc5F)c5ccc2[nH]5)C=C4)C=C3)cc1
REMARK SMILES IDX 20 1 19 2 17 3 18 4 16 5 15 6 10 7 11 8 12 9 14 10 13 11
REMARK SMILES IDX 9 12 8 14 1 15 2 16 3 17 4 18 6 19 5 20 7 21 21 22 22 23
REMARK SMILES IDX 23 24 24 25 25 26 26 27 78 28 27 29 77 30 28 31 29 32 30 33
REMARK SMILES IDX 71 34 31 35 76 36 70 37 72 38 32 39 75 40 69 41 68 42 33 44
REMARK SMILES IDX 59 45 42 46 58 47 43 48 46 49 57 50 73 51 44 52 45 53 56 55
REMARK SMILES IDX 74 56 47 57 34 58 35 59 40 60 36 61 37 62 39 63 41 64 38 65
REMARK SMILES IDX 60 66 61 67 66 68 62 69 63 70 65 71 67 72 64 73 48 74 49 75
REMARK SMILES IDX 54 76 50 77 51 78 53 79 55 80 52 81
REMARK H PARENT 9 13 72 43 46 54
REMARK Flexibility Score: inf
ROOT
ATOM      1  C   UNL A   1      32.698  30.225  26.865  1.00  0.00     0.274 C 
ENDROOT
BRANCH   1   2
ATOM      2  O   UNL A   1      32.422  29.035  27.628  1.00  0.00    -0.462 OA
BRANCH   2   3
ATOM      3  C   UNL A   1      32.296  27.893  26.901  1.00  0.00     0.310 C 
ATOM      4  O   UNL A   1      31.267  27.226  26.826  1.00  0.00    -0.252 OA
BRANCH   3   5
ATOM      5  C   UNL A   1      33.576  27.444  26.250  1.00  0.00     0.160 C 
BRANCH   5   6
ATOM      6  C   UNL A   1      33.529  26.931  24.823  1.00  0.00    -0.013 A 
ATOM      7  C   UNL A   1      33.644  25.553  24.532  1.00  0.00     0.042 A 
ATOM      8  C   UNL A   1      33.642  25.138  23.188  1.00  0.00     0.026 A 
ATOM      9  C   UNL A   1      33.466  26.051  22.148  1.00  0.00     0.002 A 
ATOM     10  C   UNL A   1      33.315  27.832  23.762  1.00  0.00     0.006 A 
ATOM     11  C   UNL A   1      33.284  27.396  22.437  1.00  0.00     0.000 A 
BRANCH   7  12
ATOM     12  N   UNL A   1      33.647  24.547  25.521  1.00  0.00    -0.354 N 
ATOM     13  H   UNL A   1      33.380  24.849  26.419  1.00  0.00     0.167 HD
BRANCH  12  14
ATOM     14  C   UNL A   1      33.972  23.172  25.426  1.00  0.00     0.060 A 
ATOM     15  C   UNL A   1      31.474  22.677  25.296  1.00  0.00     0.046 C 
ATOM     16  C   UNL A   1      32.915  22.238  25.291  1.00  0.00    -0.026 A 
ATOM     17  C   UNL A   1      33.202  20.881  25.059  1.00  0.00     0.005 A 
ATOM     18  C   UNL A   1      34.518  20.433  24.978  1.00  0.00     0.002 A 
ATOM     19  C   UNL A   1      35.301  22.688  25.368  1.00  0.00     0.064 A 
ATOM     20  C   UNL A   1      35.565  21.333  25.142  1.00  0.00     0.023 A 
ATOM     21  Cl  UNL A   1      36.683  23.698  25.638  1.00  0.00    -0.082 Cl
ENDBRANCH  12  14
ENDBRANCH   7  12
ENDBRANCH   5   6
ENDBRANCH   3   5
ENDBRANCH   2   3
ENDBRANCH   1   2
BRANCH   1  22
ATOM     22  C   UNL A   1      33.830  31.030  27.500  1.00  0.00     0.275 C 
BRANCH  22  23
ATOM     23  O   UNL A   1      34.848  30.143  27.996  1.00  0.00    -0.458 OA
BRANCH  23  24
ATOM     24  C   UNL A   1      35.640  30.640  28.970  1.00  0.00     0.338 C 
ATOM     25  O   UNL A   1      35.363  31.495  29.794  1.00  0.00    -0.246 OA
BRANCH  24  26
ATOM     26  C   UNL A   1      36.960  29.996  28.907  1.00  0.00     0.060 A 
ATOM     27  C   UNL A   1      37.613  29.594  30.076  1.00  0.00     0.016 A 
ATOM     28  C   UNL A   1      37.597  29.899  27.671  1.00  0.00     0.016 A 
ATOM     29  C   UNL A   1      38.923  29.119  30.013  1.00  0.00     0.010 A 
ATOM     30  C   UNL A   1      38.891  29.378  27.604  1.00  0.00     0.010 A 
ATOM     31  C   UNL A   1      39.572  29.006  28.777  1.00  0.00    -0.014 A 
BRANCH  31  32
ATOM     32  C   UNL A   1      40.976  28.537  28.687  1.00  0.00     0.031 A 
ATOM     33  C   UNL A   1      42.102  29.515  28.862  1.00  0.00     0.074 A 
ATOM     34  C   UNL A   1      41.243  27.249  28.402  1.00  0.00     0.049 A 
ATOM     35  N   UNL A   1      43.380  29.359  28.626  1.00  0.00    -0.248 NA
ATOM     36  C   UNL A   1      41.739  30.853  29.354  1.00  0.00     0.031 C 
ATOM     37  C   UNL A   1      40.242  26.193  28.238  1.00  0.00     0.029 A 
ATOM     38  N   UNL A   1      42.439  26.617  28.175  1.00  0.00    -0.354 N 
ATOM     39  C   UNL A   1      43.967  30.587  28.901  1.00  0.00     0.074 A 
ATOM     40  C   UNL A   1      42.906  31.480  29.318  1.00  0.00     0.031 C 
ATOM     41  C   UNL A   1      40.867  25.045  27.929  1.00  0.00     0.029 A 
ATOM     42  C   UNL A   1      42.301  25.299  27.819  1.00  0.00     0.049 A 
ATOM     43  H   UNL A   1      43.312  27.066  28.260  1.00  0.00     0.167 HD
ATOM     44  C   UNL A   1      45.272  30.938  28.810  1.00  0.00     0.037 A 
ATOM     45  C   UNL A   1      43.220  24.405  27.409  1.00  0.00     0.037 A 
ATOM     46  C   UNL A   1      46.331  30.039  28.430  1.00  0.00     0.049 A 
ATOM     47  C   UNL A   1      44.658  24.822  27.291  1.00  0.00     0.074 A 
ATOM     48  C   UNL A   1      47.688  30.292  28.343  1.00  0.00     0.029 A 
ATOM     49  N   UNL A   1      46.148  28.710  28.082  1.00  0.00    -0.354 N 
ATOM     50  N   UNL A   1      45.201  25.990  27.535  1.00  0.00    -0.248 NA
ATOM     51  C   UNL A   1      45.609  23.801  26.829  1.00  0.00     0.031 C 
ATOM     52  C   UNL A   1      48.325  29.122  27.911  1.00  0.00     0.029 A 
ATOM     53  C   UNL A   1      47.366  28.133  27.763  1.00  0.00     0.049 A 
ATOM     54  H   UNL A   1      45.280  28.244  28.063  1.00  0.00     0.167 HD
ATOM     55  C   UNL A   1      46.556  25.842  27.269  1.00  0.00     0.074 A 
ATOM     56  C   UNL A   1      46.754  24.467  26.858  1.00  0.00     0.031 C 
ATOM     57  C   UNL A   1      47.545  26.764  27.356  1.00  0.00     0.037 A 
BRANCH  44  58
ATOM     58  C   UNL A   1      45.624  32.366  29.098  1.00  0.00     0.057 A 
ATOM     59  C   UNL A   1      45.722  33.325  28.085  1.00  0.00     0.134 A 
ATOM     60  C   UNL A   1      45.843  32.789  30.417  1.00  0.00     0.134 A 
ATOM     61  F   UNL A   1      45.538  32.981  26.802  1.00  0.00    -0.206 F 
ATOM     62  C   UNL A   1      46.044  34.654  28.370  1.00  0.00     0.040 A 
ATOM     63  C   UNL A   1      46.145  34.117  30.715  1.00  0.00     0.040 A 
ATOM     64  F   UNL A   1      45.760  31.917  31.434  1.00  0.00    -0.206 F 
ATOM     65  C   UNL A   1      46.252  35.054  29.689  1.00  0.00     0.006 A 
ENDBRANCH  44  58
BRANCH  45  66
ATOM     66  C   UNL A   1      42.797  23.030  27.050  1.00  0.00     0.057 A 
ATOM     67  C   UNL A   1      42.719  22.626  25.714  1.00  0.00     0.134 A 
ATOM     68  C   UNL A   1      42.474  22.088  28.033  1.00  0.00     0.134 A 
ATOM     69  F   UNL A   1      42.995  23.493  24.729  1.00  0.00    -0.206 F 
ATOM     70  C   UNL A   1      42.329  21.332  25.366  1.00  0.00     0.040 A 
ATOM     71  C   UNL A   1      42.103  20.785  27.701  1.00  0.00     0.040 A 
ATOM     72  F   UNL A   1      42.531  22.418  29.332  1.00  0.00    -0.206 F 
ATOM     73  C   UNL A   1      42.027  20.404  26.362  1.00  0.00     0.006 A 
ENDBRANCH  45  66
BRANCH  57  74
ATOM     74  C   UNL A   1      48.933  26.307  27.023  1.00  0.00     0.057 A 
ATOM     75  C   UNL A   1      49.768  25.731  27.987  1.00  0.00     0.134 A 
ATOM     76  C   UNL A   1      49.426  26.416  25.717  1.00  0.00     0.134 A 
ATOM     77  F   UNL A   1      49.357  25.613  29.259  1.00  0.00    -0.206 F 
ATOM     78  C   UNL A   1      51.053  25.291  27.668  1.00  0.00     0.040 A 
ATOM     79  C   UNL A   1      50.702  25.963  25.381  1.00  0.00     0.040 A 
ATOM     80  F   UNL A   1      48.673  26.954  24.747  1.00  0.00    -0.206 F 
ATOM     81  C   UNL A   1      51.522  25.402  26.359  1.00  0.00     0.006 A 
ENDBRANCH  57  74
ENDBRANCH  31  32
ENDBRANCH  24  26
ENDBRANCH  23  24
ENDBRANCH  22  23
ENDBRANCH   1  22
TORSDOF 14
ENDMDL
