MODEL 1
REMARK VINA RESULT:     -12.8      0.000      0.000
REMARK SMILES Cn1c(C[NH+]2CCC3(CC2)NC(=O)C[C@@H]3C(=O)OCCOC(=O)c2ccc(-c3c4nc(c(-c5c(F)cccc5F)c5ccc([nH]5)c(-c5c(F)cccc5F)c5nc(c(-c6c(F)cccc6F)c6ccc3[nH]6)C=C5)C=C4)cc2)nc2ccccc21
REMARK SMILES IDX 19 1 18 2 16 3 17 4 15 5 5 6 6 7 10 8 7 10 9 11 8 12 11 13
REMARK SMILES IDX 12 14 14 16 13 17 4 18 3 19 1 20 2 21 84 22 78 23 79 24
REMARK SMILES IDX 83 25 80 26 82 27 81 28 20 29 21 30 22 31 23 32 24 33 25 34
REMARK SMILES IDX 77 35 26 36 76 37 27 38 28 39 29 40 70 41 30 42 75 43 69 44
REMARK SMILES IDX 71 45 31 46 74 47 68 48 67 49 32 51 58 52 41 53 57 54 42 55
REMARK SMILES IDX 45 56 56 57 72 58 43 59 44 60 55 62 73 63 46 64 33 65 34 66
REMARK SMILES IDX 39 67 35 68 36 69 38 70 40 71 37 72 59 73 60 74 65 75 61 76
REMARK SMILES IDX 62 77 64 78 66 79 63 80 47 81 48 82 53 83 49 84 50 85 52 86
REMARK SMILES IDX 54 87 51 88
REMARK H PARENT 5 9 11 15 71 50 45 61
REMARK Flexibility Score: inf
ROOT
ATOM      1  C   UNL A   1      31.121  31.371  25.881  1.00  0.00     0.274 C 
ENDROOT
BRANCH   1   2
ATOM      2  O   UNL A   1      32.159  30.384  25.696  1.00  0.00    -0.462 OA
BRANCH   2   3
ATOM      3  C   UNL A   1      31.777  29.097  25.828  1.00  0.00     0.311 C 
ATOM      4  O   UNL A   1      31.488  28.575  26.900  1.00  0.00    -0.252 OA
BRANCH   3   5
ATOM      5  C   UNL A   1      31.764  28.306  24.534  1.00  0.00     0.134 C 
ATOM      6  N   UNL A   1      31.126  24.690  26.494  1.00  0.00    -0.328 N 
ATOM      7  C   UNL A   1      32.330  25.457  26.736  1.00  0.00     0.265 C 
ATOM      8  C   UNL A   1      30.157  25.414  25.683  1.00  0.00     0.265 C 
ATOM      9  H   UNL A   1      30.673  24.604  27.403  1.00  0.00     0.348 HD
ATOM     10  C   UNL A   1      32.947  26.153  25.520  1.00  0.00     0.091 C 
ATOM     11  C   UNL A   1      30.676  25.974  24.364  1.00  0.00     0.091 C 
ATOM     12  C   UNL A   1      31.994  26.762  24.474  1.00  0.00     0.064 C 
ATOM     13  N   UNL A   1      32.685  26.650  23.183  1.00  0.00    -0.349 N 
ATOM     14  C   UNL A   1      33.271  27.799  22.731  1.00  0.00     0.221 C 
ATOM     15  H   UNL A   1      32.724  25.805  22.678  1.00  0.00     0.164 HD
ATOM     16  C   UNL A   1      32.855  28.917  23.627  1.00  0.00     0.117 C 
ATOM     17  O   UNL A   1      34.028  27.882  21.782  1.00  0.00    -0.275 OA
BRANCH   6  18
ATOM     18  C   UNL A   1      31.315  23.264  26.200  1.00  0.00     0.339 C 
BRANCH  18  19
ATOM     19  C   UNL A   1      32.636  22.900  25.593  1.00  0.00     0.165 A 
ATOM     20  C   UNL A   1      33.853  22.146  27.694  1.00  0.00     0.152 C 
ATOM     21  N   UNL A   1      33.745  22.454  26.287  1.00  0.00    -0.326 N 
ATOM     22  C   UNL A   1      34.821  22.486  25.426  1.00  0.00     0.068 A 
ATOM     23  N   UNL A   1      32.923  23.034  24.312  1.00  0.00    -0.227 NA
ATOM     24  C   UNL A   1      34.272  22.860  24.207  1.00  0.00     0.089 A 
ATOM     25  C   UNL A   1      36.192  22.265  25.595  1.00  0.00     0.028 A 
ATOM     26  C   UNL A   1      35.104  23.063  23.098  1.00  0.00     0.030 A 
ATOM     27  C   UNL A   1      37.014  22.500  24.487  1.00  0.00     0.002 A 
ATOM     28  C   UNL A   1      36.483  22.900  23.260  1.00  0.00     0.002 A 
ENDBRANCH  18  19
ENDBRANCH   6  18
ENDBRANCH   3   5
ENDBRANCH   2   3
ENDBRANCH   1   2
BRANCH   1  29
ATOM     29  C   UNL A   1      31.434  32.265  27.093  1.00  0.00     0.275 C 
BRANCH  29  30
ATOM     30  O   UNL A   1      32.533  33.179  26.891  1.00  0.00    -0.458 OA
BRANCH  30  31
ATOM     31  C   UNL A   1      33.122  33.669  28.007  1.00  0.00     0.338 C 
ATOM     32  O   UNL A   1      32.797  34.651  28.638  1.00  0.00    -0.246 OA
BRANCH  31  33
ATOM     33  C   UNL A   1      34.363  32.907  28.255  1.00  0.00     0.060 A 
ATOM     34  C   UNL A   1      35.550  33.632  28.373  1.00  0.00     0.016 A 
ATOM     35  C   UNL A   1      34.366  31.521  28.406  1.00  0.00     0.016 A 
ATOM     36  C   UNL A   1      36.750  32.975  28.624  1.00  0.00     0.010 A 
ATOM     37  C   UNL A   1      35.548  30.881  28.801  1.00  0.00     0.010 A 
ATOM     38  C   UNL A   1      36.739  31.613  28.959  1.00  0.00    -0.014 A 
BRANCH  38  39
ATOM     39  C   UNL A   1      37.896  31.049  29.710  1.00  0.00     0.031 A 
ATOM     40  C   UNL A   1      38.864  30.082  29.100  1.00  0.00     0.074 A 
ATOM     41  C   UNL A   1      38.037  31.410  31.003  1.00  0.00     0.049 A 
ATOM     42  N   UNL A   1      39.874  29.462  29.659  1.00  0.00    -0.248 NA
ATOM     43  C   UNL A   1      38.676  29.761  27.680  1.00  0.00     0.031 C 
ATOM     44  C   UNL A   1      37.154  32.336  31.719  1.00  0.00     0.029 A 
ATOM     45  N   UNL A   1      38.972  31.061  31.943  1.00  0.00    -0.354 N 
ATOM     46  C   UNL A   1      40.437  28.671  28.667  1.00  0.00     0.074 A 
ATOM     47  C   UNL A   1      39.644  28.878  27.471  1.00  0.00     0.031 C 
ATOM     48  C   UNL A   1      37.625  32.535  32.956  1.00  0.00     0.029 A 
ATOM     49  C   UNL A   1      38.779  31.673  33.160  1.00  0.00     0.049 A 
ATOM     50  H   UNL A   1      39.710  30.434  31.766  1.00  0.00     0.167 HD
ATOM     51  C   UNL A   1      41.511  27.849  28.752  1.00  0.00     0.037 A 
ATOM     52  C   UNL A   1      39.427  31.535  34.329  1.00  0.00     0.037 A 
ATOM     53  C   UNL A   1      42.279  27.633  29.955  1.00  0.00     0.049 A 
ATOM     54  C   UNL A   1      40.560  30.562  34.415  1.00  0.00     0.074 A 
ATOM     55  C   UNL A   1      43.383  26.819  30.142  1.00  0.00     0.029 A 
ATOM     56  N   UNL A   1      42.013  28.226  31.183  1.00  0.00    -0.354 N 
ATOM     57  N   UNL A   1      41.080  29.820  33.468  1.00  0.00    -0.248 NA
ATOM     58  C   UNL A   1      41.180  30.388  35.733  1.00  0.00     0.031 C 
ATOM     59  C   UNL A   1      43.753  26.880  31.492  1.00  0.00     0.029 A 
ATOM     60  C   UNL A   1      42.910  27.770  32.137  1.00  0.00     0.049 A 
ATOM     61  H   UNL A   1      41.292  28.875  31.351  1.00  0.00     0.167 HD
ATOM     62  C   UNL A   1      42.095  29.095  34.072  1.00  0.00     0.074 A 
ATOM     63  C   UNL A   1      42.130  29.502  35.463  1.00  0.00     0.031 C 
ATOM     64  C   UNL A   1      42.922  28.173  33.522  1.00  0.00     0.037 A 
BRANCH  51  65
ATOM     65  C   UNL A   1      41.891  27.083  27.516  1.00  0.00     0.057 A 
ATOM     66  C   UNL A   1      41.428  25.784  27.273  1.00  0.00     0.134 A 
ATOM     67  C   UNL A   1      42.719  27.663  26.545  1.00  0.00     0.134 A 
ATOM     68  F   UNL A   1      40.645  25.164  28.169  1.00  0.00    -0.206 F 
ATOM     69  C   UNL A   1      41.797  25.078  26.125  1.00  0.00     0.040 A 
ATOM     70  C   UNL A   1      43.077  26.976  25.383  1.00  0.00     0.040 A 
ATOM     71  F   UNL A   1      43.195  28.906  26.709  1.00  0.00    -0.206 F 
ATOM     72  C   UNL A   1      42.622  25.676  25.175  1.00  0.00     0.006 A 
ENDBRANCH  51  65
BRANCH  52  73
ATOM     73  C   UNL A   1      38.986  32.322  35.507  1.00  0.00     0.057 A 
ATOM     74  C   UNL A   1      38.188  31.747  36.502  1.00  0.00     0.134 A 
ATOM     75  C   UNL A   1      39.394  33.649  35.694  1.00  0.00     0.134 A 
ATOM     76  F   UNL A   1      37.749  30.487  36.370  1.00  0.00    -0.206 F 
ATOM     77  C   UNL A   1      37.815  32.462  37.641  1.00  0.00     0.040 A 
ATOM     78  C   UNL A   1      39.053  34.366  36.841  1.00  0.00     0.040 A 
ATOM     79  F   UNL A   1      40.168  34.254  34.780  1.00  0.00    -0.206 F 
ATOM     80  C   UNL A   1      38.258  33.772  37.817  1.00  0.00     0.006 A 
ENDBRANCH  52  73
BRANCH  64  81
ATOM     81  C   UNL A   1      43.943  27.559  34.432  1.00  0.00     0.057 A 
ATOM     82  C   UNL A   1      43.712  26.341  35.083  1.00  0.00     0.134 A 
ATOM     83  C   UNL A   1      45.172  28.192  34.655  1.00  0.00     0.134 A 
ATOM     84  F   UNL A   1      42.546  25.696  34.927  1.00  0.00    -0.206 F 
ATOM     85  C   UNL A   1      44.661  25.783  35.941  1.00  0.00     0.040 A 
ATOM     86  C   UNL A   1      46.138  27.632  35.492  1.00  0.00     0.040 A 
ATOM     87  F   UNL A   1      45.455  29.360  34.061  1.00  0.00    -0.206 F 
ATOM     88  C   UNL A   1      45.881  26.426  36.143  1.00  0.00     0.006 A 
ENDBRANCH  64  81
ENDBRANCH  38  39
ENDBRANCH  31  33
ENDBRANCH  30  31
ENDBRANCH  29  30
ENDBRANCH   1  29
TORSDOF 13
ENDMDL
MODEL 2
REMARK VINA RESULT:     -12.7      1.355      1.915
REMARK SMILES Cn1c(C[NH+]2CCC3(CC2)NC(=O)C[C@@H]3C(=O)OCCOC(=O)c2ccc(-c3c4nc(c(-c5c(F)cccc5F)c5ccc([nH]5)c(-c5c(F)cccc5F)c5nc(c(-c6c(F)cccc6F)c6ccc3[nH]6)C=C5)C=C4)cc2)nc2ccccc21
REMARK SMILES IDX 19 1 18 2 16 3 17 4 15 5 5 6 6 7 10 8 7 10 9 11 8 12 11 13
REMARK SMILES IDX 12 14 14 16 13 17 4 18 3 19 1 20 2 21 84 22 78 23 79 24
REMARK SMILES IDX 83 25 80 26 82 27 81 28 20 29 21 30 22 31 23 32 24 33 25 34
REMARK SMILES IDX 77 35 26 36 76 37 27 38 28 39 29 40 70 41 30 42 75 43 69 44
REMARK SMILES IDX 71 45 31 46 74 47 68 48 67 49 32 51 58 52 41 53 57 54 42 55
REMARK SMILES IDX 45 56 56 57 72 58 43 59 44 60 55 62 73 63 46 64 33 65 34 66
REMARK SMILES IDX 39 67 35 68 36 69 38 70 40 71 37 72 59 73 60 74 65 75 61 76
REMARK SMILES IDX 62 77 64 78 66 79 63 80 47 81 48 82 53 83 49 84 50 85 52 86
REMARK SMILES IDX 54 87 51 88
REMARK H PARENT 5 9 11 15 71 50 45 61
REMARK Flexibility Score: inf
ROOT
ATOM      1  C   UNL A   1      31.501  31.154  26.878  1.00  0.00     0.274 C 
ENDROOT
BRANCH   1   2
ATOM      2  O   UNL A   1      31.743  30.529  25.598  1.00  0.00    -0.462 OA
BRANCH   2   3
ATOM      3  C   UNL A   1      31.689  29.181  25.582  1.00  0.00     0.311 C 
ATOM      4  O   UNL A   1      32.351  28.461  26.322  1.00  0.00    -0.252 OA
BRANCH   3   5
ATOM      5  C   UNL A   1      30.758  28.599  24.537  1.00  0.00     0.134 C 
ATOM      6  N   UNL A   1      33.122  25.217  23.995  1.00  0.00    -0.328 N 
ATOM      7  C   UNL A   1      33.641  26.535  23.694  1.00  0.00     0.265 C 
ATOM      8  C   UNL A   1      31.825  25.265  24.657  1.00  0.00     0.265 C 
ATOM      9  H   UNL A   1      33.748  24.836  24.706  1.00  0.00     0.348 HD
ATOM     10  C   UNL A   1      32.661  27.518  23.049  1.00  0.00     0.091 C 
ATOM     11  C   UNL A   1      30.750  26.086  23.956  1.00  0.00     0.091 C 
ATOM     12  C   UNL A   1      31.196  27.494  23.522  1.00  0.00     0.064 C 
ATOM     13  N   UNL A   1      30.387  27.875  22.356  1.00  0.00    -0.349 N 
ATOM     14  C   UNL A   1      29.945  29.168  22.348  1.00  0.00     0.221 C 
ATOM     15  H   UNL A   1      30.178  27.242  21.632  1.00  0.00     0.164 HD
ATOM     16  C   UNL A   1      30.266  29.779  23.670  1.00  0.00     0.117 C 
ATOM     17  O   UNL A   1      29.412  29.728  21.407  1.00  0.00    -0.275 OA
BRANCH   6  18
ATOM     18  C   UNL A   1      33.310  24.195  22.958  1.00  0.00     0.339 C 
BRANCH  18  19
ATOM     19  C   UNL A   1      33.166  22.776  23.416  1.00  0.00     0.165 A 
ATOM     20  C   UNL A   1      35.044  22.711  25.128  1.00  0.00     0.152 C 
ATOM     21  N   UNL A   1      33.976  22.143  24.340  1.00  0.00    -0.326 N 
ATOM     22  C   UNL A   1      33.695  20.794  24.291  1.00  0.00     0.068 A 
ATOM     23  N   UNL A   1      32.280  21.928  22.929  1.00  0.00    -0.227 NA
ATOM     24  C   UNL A   1      32.639  20.696  23.396  1.00  0.00     0.089 A 
ATOM     25  C   UNL A   1      34.269  19.673  24.899  1.00  0.00     0.028 A 
ATOM     26  C   UNL A   1      32.133  19.438  23.045  1.00  0.00     0.030 A 
ATOM     27  C   UNL A   1      33.773  18.420  24.518  1.00  0.00     0.002 A 
ATOM     28  C   UNL A   1      32.728  18.302  23.600  1.00  0.00     0.002 A 
ENDBRANCH  18  19
ENDBRANCH   6  18
ENDBRANCH   3   5
ENDBRANCH   2   3
ENDBRANCH   1   2
BRANCH   1  29
ATOM     29  C   UNL A   1      31.489  32.685  26.738  1.00  0.00     0.275 C 
BRANCH  29  30
ATOM     30  O   UNL A   1      32.796  33.299  26.782  1.00  0.00    -0.458 OA
BRANCH  30  31
ATOM     31  C   UNL A   1      33.265  33.629  28.008  1.00  0.00     0.338 C 
ATOM     32  O   UNL A   1      32.848  34.495  28.744  1.00  0.00    -0.246 OA
BRANCH  31  33
ATOM     33  C   UNL A   1      34.508  32.870  28.254  1.00  0.00     0.060 A 
ATOM     34  C   UNL A   1      35.687  33.601  28.414  1.00  0.00     0.016 A 
ATOM     35  C   UNL A   1      34.522  31.480  28.361  1.00  0.00     0.016 A 
ATOM     36  C   UNL A   1      36.888  32.946  28.666  1.00  0.00     0.010 A 
ATOM     37  C   UNL A   1      35.702  30.838  28.756  1.00  0.00     0.010 A 
ATOM     38  C   UNL A   1      36.884  31.574  28.958  1.00  0.00    -0.014 A 
BRANCH  38  39
ATOM     39  C   UNL A   1      38.033  30.996  29.710  1.00  0.00     0.031 A 
ATOM     40  C   UNL A   1      38.990  30.018  29.102  1.00  0.00     0.074 A 
ATOM     41  C   UNL A   1      38.175  31.356  31.004  1.00  0.00     0.049 A 
ATOM     42  N   UNL A   1      39.991  29.386  29.663  1.00  0.00    -0.248 NA
ATOM     43  C   UNL A   1      38.801  29.700  27.682  1.00  0.00     0.031 C 
ATOM     44  C   UNL A   1      37.302  32.292  31.719  1.00  0.00     0.029 A 
ATOM     45  N   UNL A   1      39.105  30.996  31.946  1.00  0.00    -0.354 N 
ATOM     46  C   UNL A   1      40.547  28.589  28.672  1.00  0.00     0.074 A 
ATOM     47  C   UNL A   1      39.759  28.805  27.474  1.00  0.00     0.031 C 
ATOM     48  C   UNL A   1      37.774  32.485  32.956  1.00  0.00     0.029 A 
ATOM     49  C   UNL A   1      38.917  31.610  33.162  1.00  0.00     0.049 A 
ATOM     50  H   UNL A   1      39.836  30.361  31.770  1.00  0.00     0.167 HD
ATOM     51  C   UNL A   1      41.612  27.754  28.759  1.00  0.00     0.037 A 
ATOM     52  C   UNL A   1      39.561  31.464  34.333  1.00  0.00     0.037 A 
ATOM     53  C   UNL A   1      42.375  27.530  29.963  1.00  0.00     0.049 A 
ATOM     54  C   UNL A   1      40.683  30.478  34.420  1.00  0.00     0.074 A 
ATOM     55  C   UNL A   1      43.469  26.703  30.152  1.00  0.00     0.029 A 
ATOM     56  N   UNL A   1      42.114  28.125  31.190  1.00  0.00    -0.354 N 
ATOM     57  N   UNL A   1      41.195  29.730  33.474  1.00  0.00    -0.248 NA
ATOM     58  C   UNL A   1      41.298  30.296  35.740  1.00  0.00     0.031 C 
ATOM     59  C   UNL A   1      43.837  26.759  31.502  1.00  0.00     0.029 A 
ATOM     60  C   UNL A   1      43.004  27.659  32.146  1.00  0.00     0.049 A 
ATOM     61  H   UNL A   1      41.400  28.782  31.357  1.00  0.00     0.167 HD
ATOM     62  C   UNL A   1      42.201  28.993  34.080  1.00  0.00     0.074 A 
ATOM     63  C   UNL A   1      42.238  29.400  35.471  1.00  0.00     0.031 C 
ATOM     64  C   UNL A   1      43.018  28.061  33.530  1.00  0.00     0.037 A 
BRANCH  51  65
ATOM     65  C   UNL A   1      41.985  26.985  27.523  1.00  0.00     0.057 A 
ATOM     66  C   UNL A   1      41.512  25.688  27.283  1.00  0.00     0.134 A 
ATOM     67  C   UNL A   1      42.815  27.557  26.550  1.00  0.00     0.134 A 
ATOM     68  F   UNL A   1      40.727  25.074  28.181  1.00  0.00    -0.206 F 
ATOM     69  C   UNL A   1      41.876  24.978  26.135  1.00  0.00     0.040 A 
ATOM     70  C   UNL A   1      43.167  26.867  25.388  1.00  0.00     0.040 A 
ATOM     71  F   UNL A   1      43.299  28.798  26.712  1.00  0.00    -0.206 F 
ATOM     72  C   UNL A   1      42.703  25.569  25.183  1.00  0.00     0.006 A 
ENDBRANCH  51  65
BRANCH  52  73
ATOM     73  C   UNL A   1      39.127  32.256  35.510  1.00  0.00     0.057 A 
ATOM     74  C   UNL A   1      39.530  33.585  35.674  1.00  0.00     0.134 A 
ATOM     75  C   UNL A   1      38.259  31.721  36.471  1.00  0.00     0.134 A 
ATOM     76  F   UNL A   1      40.376  34.147  34.799  1.00  0.00    -0.206 F 
ATOM     77  C   UNL A   1      39.083  34.355  36.749  1.00  0.00     0.040 A 
ATOM     78  C   UNL A   1      37.781  32.487  37.534  1.00  0.00     0.040 A 
ATOM     79  F   UNL A   1      37.829  30.454  36.364  1.00  0.00    -0.206 F 
ATOM     80  C   UNL A   1      38.196  33.808  37.676  1.00  0.00     0.006 A 
ENDBRANCH  52  73
BRANCH  64  81
ATOM     81  C   UNL A   1      44.030  27.436  34.443  1.00  0.00     0.057 A 
ATOM     82  C   UNL A   1      43.771  26.237  35.119  1.00  0.00     0.134 A 
ATOM     83  C   UNL A   1      45.279  28.036  34.642  1.00  0.00     0.134 A 
ATOM     84  F   UNL A   1      42.585  25.623  34.986  1.00  0.00    -0.206 F 
ATOM     85  C   UNL A   1      44.712  25.668  35.978  1.00  0.00     0.040 A 
ATOM     86  C   UNL A   1      46.237  27.464  35.480  1.00  0.00     0.040 A 
ATOM     87  F   UNL A   1      45.589  29.185  34.022  1.00  0.00    -0.206 F 
ATOM     88  C   UNL A   1      45.951  26.279  36.156  1.00  0.00     0.006 A 
ENDBRANCH  64  81
ENDBRANCH  38  39
ENDBRANCH  31  33
ENDBRANCH  30  31
ENDBRANCH  29  30
ENDBRANCH   1  29
TORSDOF 13
ENDMDL
MODEL 3
REMARK VINA RESULT:     -12.6      1.417      2.138
REMARK SMILES Cn1c(C[NH+]2CCC3(CC2)NC(=O)C[C@@H]3C(=O)OCCOC(=O)c2ccc(-c3c4nc(c(-c5c(F)cccc5F)c5ccc([nH]5)c(-c5c(F)cccc5F)c5nc(c(-c6c(F)cccc6F)c6ccc3[nH]6)C=C5)C=C4)cc2)nc2ccccc21
REMARK SMILES IDX 19 1 18 2 16 3 17 4 15 5 5 6 6 7 10 8 7 10 9 11 8 12 11 13
REMARK SMILES IDX 12 14 14 16 13 17 4 18 3 19 1 20 2 21 84 22 78 23 79 24
REMARK SMILES IDX 83 25 80 26 82 27 81 28 20 29 21 30 22 31 23 32 24 33 25 34
REMARK SMILES IDX 77 35 26 36 76 37 27 38 28 39 29 40 70 41 30 42 75 43 69 44
REMARK SMILES IDX 71 45 31 46 74 47 68 48 67 49 32 51 58 52 41 53 57 54 42 55
REMARK SMILES IDX 45 56 56 57 72 58 43 59 44 60 55 62 73 63 46 64 33 65 34 66
REMARK SMILES IDX 39 67 35 68 36 69 38 70 40 71 37 72 59 73 60 74 65 75 61 76
REMARK SMILES IDX 62 77 64 78 66 79 63 80 47 81 48 82 53 83 49 84 50 85 52 86
REMARK SMILES IDX 54 87 51 88
REMARK H PARENT 5 9 11 15 71 50 45 61
REMARK Flexibility Score: inf
ROOT
ATOM      1  C   UNL A   1      31.696  30.871  26.930  1.00  0.00     0.274 C 
ENDROOT
BRANCH   1   2
ATOM      2  O   UNL A   1      31.822  30.274  25.621  1.00  0.00    -0.462 OA
BRANCH   2   3
ATOM      3  C   UNL A   1      31.679  28.933  25.570  1.00  0.00     0.311 C 
ATOM      4  O   UNL A   1      32.278  28.153  26.303  1.00  0.00    -0.252 OA
BRANCH   3   5
ATOM      5  C   UNL A   1      30.733  28.439  24.494  1.00  0.00     0.134 C 
ATOM      6  N   UNL A   1      32.869  24.913  23.923  1.00  0.00    -0.328 N 
ATOM      7  C   UNL A   1      33.483  26.198  23.662  1.00  0.00     0.265 C 
ATOM      8  C   UNL A   1      31.565  25.037  24.560  1.00  0.00     0.265 C 
ATOM      9  H   UNL A   1      33.451  24.475  24.637  1.00  0.00     0.348 HD
ATOM     10  C   UNL A   1      32.588  27.260  23.020  1.00  0.00     0.091 C 
ATOM     11  C   UNL A   1      30.563  25.945  23.856  1.00  0.00     0.091 C 
ATOM     12  C   UNL A   1      31.115  27.328  23.463  1.00  0.00     0.064 C 
ATOM     13  N   UNL A   1      30.359  27.788  22.290  1.00  0.00    -0.349 N 
ATOM     14  C   UNL A   1      30.008  29.109  22.302  1.00  0.00     0.221 C 
ATOM     15  H   UNL A   1      30.123  27.187  21.548  1.00  0.00     0.164 HD
ATOM     16  C   UNL A   1      30.343  29.669  23.644  1.00  0.00     0.117 C 
ATOM     17  O   UNL A   1      29.535  29.724  21.364  1.00  0.00    -0.275 OA
BRANCH   6  18
ATOM     18  C   UNL A   1      33.007  23.902  22.867  1.00  0.00     0.339 C 
BRANCH  18  19
ATOM     19  C   UNL A   1      32.949  22.477  23.326  1.00  0.00     0.165 A 
ATOM     20  C   UNL A   1      34.777  22.545  25.091  1.00  0.00     0.152 C 
ATOM     21  N   UNL A   1      33.775  21.904  24.274  1.00  0.00    -0.326 N 
ATOM     22  C   UNL A   1      33.590  20.538  24.222  1.00  0.00     0.068 A 
ATOM     23  N   UNL A   1      32.139  21.569  22.816  1.00  0.00    -0.227 NA
ATOM     24  C   UNL A   1      32.569  20.366  23.296  1.00  0.00     0.089 A 
ATOM     25  C   UNL A   1      34.222  19.460  24.849  1.00  0.00     0.028 A 
ATOM     26  C   UNL A   1      32.162  19.075  22.936  1.00  0.00     0.030 A 
ATOM     27  C   UNL A   1      33.826  18.176  24.458  1.00  0.00     0.002 A 
ATOM     28  C   UNL A   1      32.819  17.984  23.511  1.00  0.00     0.002 A 
ENDBRANCH  18  19
ENDBRANCH   6  18
ENDBRANCH   3   5
ENDBRANCH   2   3
ENDBRANCH   1   2
BRANCH   1  29
ATOM     29  C   UNL A   1      31.477  32.389  26.813  1.00  0.00     0.275 C 
BRANCH  29  30
ATOM     30  O   UNL A   1      32.693  33.166  26.780  1.00  0.00    -0.458 OA
BRANCH  30  31
ATOM     31  C   UNL A   1      33.191  33.555  27.977  1.00  0.00     0.338 C 
ATOM     32  O   UNL A   1      32.787  34.451  28.684  1.00  0.00    -0.246 OA
BRANCH  31  33
ATOM     33  C   UNL A   1      34.446  32.816  28.224  1.00  0.00     0.060 A 
ATOM     34  C   UNL A   1      35.610  33.567  28.402  1.00  0.00     0.016 A 
ATOM     35  C   UNL A   1      34.485  31.425  28.315  1.00  0.00     0.016 A 
ATOM     36  C   UNL A   1      36.821  32.931  28.656  1.00  0.00     0.010 A 
ATOM     37  C   UNL A   1      35.674  30.800  28.712  1.00  0.00     0.010 A 
ATOM     38  C   UNL A   1      36.840  31.556  28.933  1.00  0.00    -0.014 A 
BRANCH  38  39
ATOM     39  C   UNL A   1      37.993  30.990  29.687  1.00  0.00     0.031 A 
ATOM     40  C   UNL A   1      38.962  30.022  29.082  1.00  0.00     0.074 A 
ATOM     41  C   UNL A   1      38.130  31.353  30.981  1.00  0.00     0.049 A 
ATOM     42  N   UNL A   1      39.968  29.400  29.645  1.00  0.00    -0.248 NA
ATOM     43  C   UNL A   1      38.778  29.700  27.662  1.00  0.00     0.031 C 
ATOM     44  C   UNL A   1      37.246  32.281  31.693  1.00  0.00     0.029 A 
ATOM     45  N   UNL A   1      39.062  31.003  31.925  1.00  0.00    -0.354 N 
ATOM     46  C   UNL A   1      40.534  28.608  28.656  1.00  0.00     0.074 A 
ATOM     47  C   UNL A   1      39.746  28.815  27.457  1.00  0.00     0.031 C 
ATOM     48  C   UNL A   1      37.714  32.480  32.931  1.00  0.00     0.029 A 
ATOM     49  C   UNL A   1      38.865  31.617  33.140  1.00  0.00     0.049 A 
ATOM     50  H   UNL A   1      39.799  30.375  31.751  1.00  0.00     0.167 HD
ATOM     51  C   UNL A   1      41.606  27.783  28.746  1.00  0.00     0.037 A 
ATOM     52  C   UNL A   1      39.508  31.479  34.312  1.00  0.00     0.037 A 
ATOM     53  C   UNL A   1      42.369  27.568  29.952  1.00  0.00     0.049 A 
ATOM     54  C   UNL A   1      40.640  30.504  34.403  1.00  0.00     0.074 A 
ATOM     55  C   UNL A   1      43.472  26.752  30.143  1.00  0.00     0.029 A 
ATOM     56  N   UNL A   1      42.100  28.162  31.178  1.00  0.00    -0.354 N 
ATOM     57  N   UNL A   1      41.162  29.760  33.458  1.00  0.00    -0.248 NA
ATOM     58  C   UNL A   1      41.255  30.330  35.723  1.00  0.00     0.031 C 
ATOM     59  C   UNL A   1      43.837  26.813  31.494  1.00  0.00     0.029 A 
ATOM     60  C   UNL A   1      42.993  27.706  32.136  1.00  0.00     0.049 A 
ATOM     61  H   UNL A   1      41.379  28.812  31.343  1.00  0.00     0.167 HD
ATOM     62  C   UNL A   1      42.174  29.034  34.066  1.00  0.00     0.074 A 
ATOM     63  C   UNL A   1      42.204  29.442  35.457  1.00  0.00     0.031 C 
ATOM     64  C   UNL A   1      43.001  28.110  33.520  1.00  0.00     0.037 A 
BRANCH  51  65
ATOM     65  C   UNL A   1      41.989  27.016  27.511  1.00  0.00     0.057 A 
ATOM     66  C   UNL A   1      42.826  27.560  26.527  1.00  0.00     0.134 A 
ATOM     67  C   UNL A   1      41.528  25.708  27.313  1.00  0.00     0.134 A 
ATOM     68  F   UNL A   1      43.289  28.813  26.647  1.00  0.00    -0.206 F 
ATOM     69  C   UNL A   1      43.165  26.841  25.378  1.00  0.00     0.040 A 
ATOM     70  C   UNL A   1      41.879  24.971  26.180  1.00  0.00     0.040 A 
ATOM     71  F   UNL A   1      40.728  25.123  28.217  1.00  0.00    -0.206 F 
ATOM     72  C   UNL A   1      42.694  25.542  25.204  1.00  0.00     0.006 A 
ENDBRANCH  51  65
BRANCH  52  73
ATOM     73  C   UNL A   1      39.065  32.267  35.488  1.00  0.00     0.057 A 
ATOM     74  C   UNL A   1      38.245  31.702  36.469  1.00  0.00     0.134 A 
ATOM     75  C   UNL A   1      39.492  33.587  35.686  1.00  0.00     0.134 A 
ATOM     76  F   UNL A   1      37.787  30.449  36.326  1.00  0.00    -0.206 F 
ATOM     77  C   UNL A   1      37.868  32.417  37.606  1.00  0.00     0.040 A 
ATOM     78  C   UNL A   1      39.147  34.305  36.831  1.00  0.00     0.040 A 
ATOM     79  F   UNL A   1      40.288  34.184  34.785  1.00  0.00    -0.206 F 
ATOM     80  C   UNL A   1      38.329  33.719  37.794  1.00  0.00     0.006 A 
ENDBRANCH  52  73
BRANCH  64  81
ATOM     81  C   UNL A   1      44.018  27.496  34.435  1.00  0.00     0.057 A 
ATOM     82  C   UNL A   1      45.259  28.101  34.669  1.00  0.00     0.134 A 
ATOM     83  C   UNL A   1      43.749  26.290  35.093  1.00  0.00     0.134 A 
ATOM     84  F   UNL A   1      45.584  29.247  34.053  1.00  0.00    -0.206 F 
ATOM     85  C   UNL A   1      46.206  27.516  35.511  1.00  0.00     0.040 A 
ATOM     86  C   UNL A   1      44.679  25.708  35.956  1.00  0.00     0.040 A 
ATOM     87  F   UNL A   1      42.578  25.660  34.911  1.00  0.00    -0.206 F 
ATOM     88  C   UNL A   1      45.914  26.319  36.161  1.00  0.00     0.006 A 
ENDBRANCH  64  81
ENDBRANCH  38  39
ENDBRANCH  31  33
ENDBRANCH  30  31
ENDBRANCH  29  30
ENDBRANCH   1  29
TORSDOF 13
ENDMDL
