MODEL 1
REMARK VINA RESULT:     -13.7      0.000      0.000
REMARK SMILES Cc1ccc(-c2cnnc(-n3nc(C)c4c3NC(=O)C[C@@H]4c3ccc(C(=O)OCCOC(=O)c4ccc(-c5c6nc(c(-c7c(F)cccc7F)c7ccc([nH]7)c(-c7c(F)cccc7F)c7nc(c(-c8c(F)cccc8F)c8ccc5[nH]8)C=C7)C=C6)cc4)cc3)n2)cc1
REMARK SMILES IDX 29 1 28 2 26 3 27 4 25 5 22 6 23 7 89 8 24 9 88 10 21 11
REMARK SMILES IDX 11 12 12 13 16 14 13 15 15 16 17 17 14 18 18 19 20 21 19 22
REMARK SMILES IDX 10 23 6 24 7 25 90 26 8 27 9 28 5 29 1 30 2 31 3 32 92 33
REMARK SMILES IDX 4 34 91 35 30 36 31 37 32 38 33 39 34 40 35 41 87 42 36 43
REMARK SMILES IDX 86 44 37 45 38 46 39 47 80 48 40 49 85 50 79 51 81 52 41 53
REMARK SMILES IDX 84 54 78 55 77 56 42 58 68 59 51 60 67 61 52 62 55 63 66 64
REMARK SMILES IDX 82 65 53 66 54 67 65 69 83 70 56 71 43 72 44 73 49 74 45 75
REMARK SMILES IDX 46 76 48 77 50 78 47 79 69 80 70 81 75 82 71 83 72 84 74 85
REMARK SMILES IDX 76 86 73 87 57 88 58 89 63 90 59 91 60 92 62 93 64 94 61 95
REMARK H PARENT 17 20 81 57 55 68
REMARK Flexibility Score: inf
ROOT
ATOM      1  C   UNL A   1      38.390  20.873  25.253  1.00  0.00     0.275 C 
ENDROOT
BRANCH   1   2
ATOM      2  O   UNL A   1      37.053  21.159  24.828  1.00  0.00    -0.458 OA
BRANCH   2   3
ATOM      3  C   UNL A   1      36.235  20.100  25.021  1.00  0.00     0.338 C 
ATOM      4  O   UNL A   1      36.513  18.921  24.874  1.00  0.00    -0.246 OA
BRANCH   3   5
ATOM      5  C   UNL A   1      34.848  20.494  25.253  1.00  0.00     0.060 A 
ATOM      6  C   UNL A   1      32.657  22.174  25.017  1.00  0.00    -0.040 A 
ATOM      7  C   UNL A   1      32.733  21.033  24.221  1.00  0.00     0.005 A 
ATOM      8  C   UNL A   1      33.574  22.324  26.080  1.00  0.00     0.005 A 
ATOM      9  C   UNL A   1      33.831  20.195  24.343  1.00  0.00     0.016 A 
ATOM     10  C   UNL A   1      34.694  21.520  26.168  1.00  0.00     0.016 A 
BRANCH   6  11
ATOM     11  C   UNL A   1      31.671  23.247  24.597  1.00  0.00     0.064 C 
ATOM     12  N   UNL A   1      32.657  26.505  25.783  1.00  0.00    -0.180 N 
ATOM     13  N   UNL A   1      33.769  26.290  25.030  1.00  0.00    -0.168 NA
ATOM     14  C   UNL A   1      31.995  25.310  25.988  1.00  0.00     0.143 A 
ATOM     15  C   UNL A   1      33.495  25.167  24.362  1.00  0.00     0.066 A 
ATOM     16  C   UNL A   1      32.322  24.550  24.883  1.00  0.00     0.026 A 
ATOM     17  N   UNL A   1      31.186  24.793  26.987  1.00  0.00    -0.310 N 
ATOM     18  C   UNL A   1      34.491  24.671  23.378  1.00  0.00     0.069 C 
ATOM     19  C   UNL A   1      30.520  23.535  26.763  1.00  0.00     0.226 C 
ATOM     20  H   UNL A   1      31.068  25.277  27.835  1.00  0.00     0.171 HD
ATOM     21  C   UNL A   1      30.335  23.131  25.318  1.00  0.00     0.113 C 
ATOM     22  O   UNL A   1      30.083  22.943  27.719  1.00  0.00    -0.275 OA
BRANCH  12  23
ATOM     23  C   UNL A   1      32.076  27.796  25.849  1.00  0.00     0.272 A 
ATOM     24  C   UNL A   1      31.149  29.622  24.871  1.00  0.00     0.095 A 
ATOM     25  C   UNL A   1      31.540  30.387  25.956  1.00  0.00     0.164 A 
ATOM     26  N   UNL A   1      31.463  28.306  24.765  1.00  0.00    -0.208 NA
ATOM     27  N   UNL A   1      32.170  29.833  27.000  1.00  0.00    -0.153 NA
ATOM     28  N   UNL A   1      32.398  28.508  26.962  1.00  0.00    -0.109 NA
BRANCH  24  29
ATOM     29  C   UNL A   1      30.269  30.162  23.836  1.00  0.00     0.002 A 
ATOM     30  C   UNL A   1      27.810  31.967  20.778  1.00  0.00     0.044 C 
ATOM     31  C   UNL A   1      28.667  31.350  21.841  1.00  0.00    -0.051 A 
ATOM     32  C   UNL A   1      29.411  30.198  21.562  1.00  0.00     0.004 A 
ATOM     33  C   UNL A   1      28.726  31.907  23.120  1.00  0.00     0.004 A 
ATOM     34  C   UNL A   1      30.205  29.610  22.549  1.00  0.00     0.011 A 
ATOM     35  C   UNL A   1      29.514  31.316  24.106  1.00  0.00     0.011 A 
ENDBRANCH  24  29
ENDBRANCH  12  23
ENDBRANCH   6  11
ENDBRANCH   3   5
ENDBRANCH   2   3
ENDBRANCH   1   2
BRANCH   1  36
ATOM     36  C   UNL A   1      39.030  22.015  26.047  1.00  0.00     0.275 C 
BRANCH  36  37
ATOM     37  O   UNL A   1      40.410  21.947  26.506  1.00  0.00    -0.458 OA
BRANCH  37  38
ATOM     38  C   UNL A   1      41.430  22.740  26.116  1.00  0.00     0.338 C 
ATOM     39  O   UNL A   1      42.292  22.383  25.326  1.00  0.00    -0.246 OA
BRANCH  38  40
ATOM     40  C   UNL A   1      41.472  24.072  26.730  1.00  0.00     0.060 A 
ATOM     41  C   UNL A   1      41.544  25.182  25.878  1.00  0.00     0.016 A 
ATOM     42  C   UNL A   1      41.312  24.218  28.106  1.00  0.00     0.016 A 
ATOM     43  C   UNL A   1      41.308  26.449  26.382  1.00  0.00     0.010 A 
ATOM     44  C   UNL A   1      40.993  25.459  28.595  1.00  0.00     0.010 A 
ATOM     45  C   UNL A   1      41.014  26.566  27.730  1.00  0.00    -0.014 A 
BRANCH  45  46
ATOM     46  C   UNL A   1      41.163  27.827  28.420  1.00  0.00     0.031 A 
ATOM     47  C   UNL A   1      40.115  28.851  28.392  1.00  0.00     0.074 A 
ATOM     48  C   UNL A   1      42.175  27.680  29.302  1.00  0.00     0.049 A 
ATOM     49  N   UNL A   1      40.220  29.983  28.987  1.00  0.00    -0.248 NA
ATOM     50  C   UNL A   1      38.864  28.744  27.644  1.00  0.00     0.031 C 
ATOM     51  C   UNL A   1      42.435  28.257  30.601  1.00  0.00     0.029 A 
ATOM     52  N   UNL A   1      43.329  26.912  29.044  1.00  0.00    -0.354 N 
ATOM     53  C   UNL A   1      38.950  30.518  29.066  1.00  0.00     0.074 A 
ATOM     54  C   UNL A   1      38.188  29.819  28.068  1.00  0.00     0.031 C 
ATOM     55  C   UNL A   1      43.748  28.103  30.874  1.00  0.00     0.029 A 
ATOM     56  C   UNL A   1      44.381  27.592  29.661  1.00  0.00     0.049 A 
ATOM     57  H   UNL A   1      43.382  26.072  28.534  1.00  0.00     0.167 HD
ATOM     58  C   UNL A   1      38.678  31.342  30.120  1.00  0.00     0.037 A 
ATOM     59  C   UNL A   1      45.216  28.303  28.840  1.00  0.00     0.037 A 
ATOM     60  C   UNL A   1      39.904  31.535  30.895  1.00  0.00     0.049 A 
ATOM     61  C   UNL A   1      45.059  29.800  29.043  1.00  0.00     0.074 A 
ATOM     62  C   UNL A   1      40.435  30.923  32.016  1.00  0.00     0.029 A 
ATOM     63  N   UNL A   1      40.955  32.174  30.275  1.00  0.00    -0.354 N 
ATOM     64  N   UNL A   1      43.997  30.371  29.548  1.00  0.00    -0.248 NA
ATOM     65  C   UNL A   1      46.089  30.767  28.686  1.00  0.00     0.031 C 
ATOM     66  C   UNL A   1      41.838  31.200  32.041  1.00  0.00     0.029 A 
ATOM     67  C   UNL A   1      42.147  31.961  30.926  1.00  0.00     0.049 A 
ATOM     68  H   UNL A   1      40.863  32.720  29.461  1.00  0.00     0.167 HD
ATOM     69  C   UNL A   1      44.217  31.711  29.698  1.00  0.00     0.074 A 
ATOM     70  C   UNL A   1      45.509  31.921  29.065  1.00  0.00     0.031 C 
ATOM     71  C   UNL A   1      43.344  32.544  30.345  1.00  0.00     0.037 A 
BRANCH  58  72
ATOM     72  C   UNL A   1      37.322  31.777  30.624  1.00  0.00     0.057 A 
ATOM     73  C   UNL A   1      36.583  32.738  29.898  1.00  0.00     0.134 A 
ATOM     74  C   UNL A   1      36.684  31.326  31.793  1.00  0.00     0.134 A 
ATOM     75  F   UNL A   1      37.015  33.223  28.727  1.00  0.00    -0.206 F 
ATOM     76  C   UNL A   1      35.356  33.255  30.327  1.00  0.00     0.040 A 
ATOM     77  C   UNL A   1      35.461  31.851  32.246  1.00  0.00     0.040 A 
ATOM     78  F   UNL A   1      37.182  30.330  32.532  1.00  0.00    -0.206 F 
ATOM     79  C   UNL A   1      34.795  32.825  31.517  1.00  0.00     0.006 A 
ENDBRANCH  58  72
BRANCH  59  80
ATOM     80  C   UNL A   1      45.464  27.626  27.516  1.00  0.00     0.057 A 
ATOM     81  C   UNL A   1      46.299  26.485  27.474  1.00  0.00     0.134 A 
ATOM     82  C   UNL A   1      44.675  27.851  26.384  1.00  0.00     0.134 A 
ATOM     83  F   UNL A   1      47.097  26.194  28.514  1.00  0.00    -0.206 F 
ATOM     84  C   UNL A   1      46.256  25.559  26.424  1.00  0.00     0.040 A 
ATOM     85  C   UNL A   1      44.646  26.943  25.310  1.00  0.00     0.040 A 
ATOM     86  F   UNL A   1      43.841  28.898  26.324  1.00  0.00    -0.206 F 
ATOM     87  C   UNL A   1      45.409  25.776  25.345  1.00  0.00     0.006 A 
ENDBRANCH  59  80
BRANCH  71  88
ATOM     88  C   UNL A   1      43.530  34.031  30.459  1.00  0.00     0.057 A 
ATOM     89  C   UNL A   1      43.852  34.663  31.662  1.00  0.00     0.134 A 
ATOM     90  C   UNL A   1      43.309  34.895  29.362  1.00  0.00     0.134 A 
ATOM     91  F   UNL A   1      43.951  33.969  32.806  1.00  0.00    -0.206 F 
ATOM     92  C   UNL A   1      44.060  36.044  31.741  1.00  0.00     0.040 A 
ATOM     93  C   UNL A   1      43.446  36.279  29.444  1.00  0.00     0.040 A 
ATOM     94  F   UNL A   1      42.980  34.448  28.143  1.00  0.00    -0.206 F 
ATOM     95  C   UNL A   1      43.859  36.856  30.631  1.00  0.00     0.006 A 
ENDBRANCH  71  88
ENDBRANCH  45  46
ENDBRANCH  38  40
ENDBRANCH  37  38
ENDBRANCH  36  37
ENDBRANCH   1  36
TORSDOF 14
ENDMDL
MODEL 2
REMARK VINA RESULT:     -13.3      1.957      2.966
REMARK SMILES Cc1ccc(-c2cnnc(-n3nc(C)c4c3NC(=O)C[C@@H]4c3ccc(C(=O)OCCOC(=O)c4ccc(-c5c6nc(c(-c7c(F)cccc7F)c7ccc([nH]7)c(-c7c(F)cccc7F)c7nc(c(-c8c(F)cccc8F)c8ccc5[nH]8)C=C7)C=C6)cc4)cc3)n2)cc1
REMARK SMILES IDX 29 1 28 2 26 3 27 4 25 5 22 6 23 7 89 8 24 9 88 10 21 11
REMARK SMILES IDX 11 12 12 13 16 14 13 15 15 16 17 17 14 18 18 19 20 21 19 22
REMARK SMILES IDX 10 23 6 24 7 25 90 26 8 27 9 28 5 29 1 30 2 31 3 32 92 33
REMARK SMILES IDX 4 34 91 35 30 36 31 37 32 38 33 39 34 40 35 41 87 42 36 43
REMARK SMILES IDX 86 44 37 45 38 46 39 47 80 48 40 49 85 50 79 51 81 52 41 53
REMARK SMILES IDX 84 54 78 55 77 56 42 58 68 59 51 60 67 61 52 62 55 63 66 64
REMARK SMILES IDX 82 65 53 66 54 67 65 69 83 70 56 71 43 72 44 73 49 74 45 75
REMARK SMILES IDX 46 76 48 77 50 78 47 79 69 80 70 81 75 82 71 83 72 84 74 85
REMARK SMILES IDX 76 86 73 87 57 88 58 89 63 90 59 91 60 92 62 93 64 94 61 95
REMARK H PARENT 17 20 81 57 55 68
REMARK Flexibility Score: inf
ROOT
ATOM      1  C   UNL A   1      38.032  20.017  24.926  1.00  0.00     0.275 C 
ENDROOT
BRANCH   1   2
ATOM      2  O   UNL A   1      36.721  20.492  24.603  1.00  0.00    -0.458 OA
BRANCH   2   3
ATOM      3  C   UNL A   1      35.777  19.562  24.871  1.00  0.00     0.338 C 
ATOM      4  O   UNL A   1      35.910  18.349  24.834  1.00  0.00    -0.246 OA
BRANCH   3   5
ATOM      5  C   UNL A   1      34.447  20.139  25.038  1.00  0.00     0.060 A 
ATOM      6  C   UNL A   1      32.555  22.152  24.826  1.00  0.00    -0.040 A 
ATOM      7  C   UNL A   1      32.538  21.099  23.913  1.00  0.00     0.005 A 
ATOM      8  C   UNL A   1      33.380  22.052  25.967  1.00  0.00     0.005 A 
ATOM      9  C   UNL A   1      33.487  20.093  24.024  1.00  0.00     0.016 A 
ATOM     10  C   UNL A   1      34.358  21.079  26.049  1.00  0.00     0.016 A 
BRANCH   6  11
ATOM     11  C   UNL A   1      31.778  23.400  24.455  1.00  0.00     0.064 C 
ATOM     12  N   UNL A   1      33.368  26.384  25.707  1.00  0.00    -0.180 N 
ATOM     13  N   UNL A   1      34.410  25.989  24.926  1.00  0.00    -0.168 NA
ATOM     14  C   UNL A   1      32.500  25.325  25.893  1.00  0.00     0.143 A 
ATOM     15  C   UNL A   1      33.923  24.957  24.234  1.00  0.00     0.066 A 
ATOM     16  C   UNL A   1      32.663  24.552  24.762  1.00  0.00     0.026 A 
ATOM     17  N   UNL A   1      31.624  24.937  26.894  1.00  0.00    -0.310 N 
ATOM     18  C   UNL A   1      34.794  24.315  23.217  1.00  0.00     0.069 C 
ATOM     19  C   UNL A   1      30.733  23.831  26.650  1.00  0.00     0.226 C 
ATOM     20  H   UNL A   1      31.611  25.409  27.757  1.00  0.00     0.171 HD
ATOM     21  C   UNL A   1      30.455  23.512  25.200  1.00  0.00     0.113 C 
ATOM     22  O   UNL A   1      30.209  23.301  27.599  1.00  0.00    -0.275 OA
BRANCH  12  23
ATOM     23  C   UNL A   1      33.038  27.757  25.820  1.00  0.00     0.272 A 
ATOM     24  C   UNL A   1      33.279  29.796  26.788  1.00  0.00     0.095 A 
ATOM     25  C   UNL A   1      32.001  30.129  26.376  1.00  0.00     0.164 A 
ATOM     26  N   UNL A   1      33.811  28.567  26.567  1.00  0.00    -0.208 NA
ATOM     27  N   UNL A   1      31.263  29.274  25.654  1.00  0.00    -0.153 NA
ATOM     28  N   UNL A   1      31.813  28.089  25.334  1.00  0.00    -0.109 NA
BRANCH  24  29
ATOM     29  C   UNL A   1      34.173  30.792  27.375  1.00  0.00     0.002 A 
ATOM     30  C   UNL A   1      36.949  33.730  28.897  1.00  0.00     0.044 C 
ATOM     31  C   UNL A   1      35.993  32.708  28.361  1.00  0.00    -0.051 A 
ATOM     32  C   UNL A   1      34.653  33.048  28.142  1.00  0.00     0.004 A 
ATOM     33  C   UNL A   1      36.421  31.408  28.086  1.00  0.00     0.004 A 
ATOM     34  C   UNL A   1      33.752  32.100  27.653  1.00  0.00     0.011 A 
ATOM     35  C   UNL A   1      35.519  30.461  27.604  1.00  0.00     0.011 A 
ENDBRANCH  24  29
ENDBRANCH  12  23
ENDBRANCH   6  11
ENDBRANCH   3   5
ENDBRANCH   2   3
ENDBRANCH   1   2
BRANCH   1  36
ATOM     36  C   UNL A   1      38.827  20.987  25.806  1.00  0.00     0.275 C 
BRANCH  36  37
ATOM     37  O   UNL A   1      40.052  20.578  26.479  1.00  0.00    -0.458 OA
BRANCH  37  38
ATOM     38  C   UNL A   1      41.287  21.087  26.284  1.00  0.00     0.338 C 
ATOM     39  O   UNL A   1      42.185  20.469  25.730  1.00  0.00    -0.246 OA
BRANCH  38  40
ATOM     40  C   UNL A   1      41.512  22.435  26.816  1.00  0.00     0.060 A 
ATOM     41  C   UNL A   1      41.436  23.511  25.921  1.00  0.00     0.016 A 
ATOM     42  C   UNL A   1      41.664  22.635  28.186  1.00  0.00     0.016 A 
ATOM     43  C   UNL A   1      41.363  24.805  26.410  1.00  0.00     0.010 A 
ATOM     44  C   UNL A   1      41.506  23.905  28.679  1.00  0.00     0.010 A 
ATOM     45  C   UNL A   1      41.377  24.981  27.783  1.00  0.00    -0.014 A 
BRANCH  45  46
ATOM     46  C   UNL A   1      41.720  26.256  28.369  1.00  0.00     0.031 A 
ATOM     47  C   UNL A   1      40.757  27.358  28.439  1.00  0.00     0.074 A 
ATOM     48  C   UNL A   1      42.844  26.070  29.096  1.00  0.00     0.049 A 
ATOM     49  N   UNL A   1      41.033  28.504  28.945  1.00  0.00    -0.248 NA
ATOM     50  C   UNL A   1      39.401  27.316  27.894  1.00  0.00     0.031 C 
ATOM     51  C   UNL A   1      43.341  26.685  30.306  1.00  0.00     0.029 A 
ATOM     52  N   UNL A   1      43.885  25.202  28.712  1.00  0.00    -0.354 N 
ATOM     53  C   UNL A   1      39.831  29.142  29.183  1.00  0.00     0.074 A 
ATOM     54  C   UNL A   1      38.877  28.460  28.352  1.00  0.00     0.031 C 
ATOM     55  C   UNL A   1      44.666  26.439  30.387  1.00  0.00     0.029 A 
ATOM     56  C   UNL A   1      45.066  25.824  29.124  1.00  0.00     0.049 A 
ATOM     57  H   UNL A   1      43.799  24.337  28.249  1.00  0.00     0.167 HD
ATOM     58  C   UNL A   1      39.785  30.033  30.216  1.00  0.00     0.037 A 
ATOM     59  C   UNL A   1      45.813  26.427  28.147  1.00  0.00     0.037 A 
ATOM     60  C   UNL A   1      41.126  30.163  30.785  1.00  0.00     0.049 A 
ATOM     61  C   UNL A   1      45.797  27.940  28.285  1.00  0.00     0.074 A 
ATOM     62  C   UNL A   1      41.779  29.564  31.848  1.00  0.00     0.029 A 
ATOM     63  N   UNL A   1      42.112  30.687  29.978  1.00  0.00    -0.354 N 
ATOM     64  N   UNL A   1      44.869  28.616  28.909  1.00  0.00    -0.248 NA
ATOM     65  C   UNL A   1      46.826  28.804  27.721  1.00  0.00     0.031 C 
ATOM     66  C   UNL A   1      43.184  29.729  31.646  1.00  0.00     0.029 A 
ATOM     67  C   UNL A   1      43.372  30.410  30.455  1.00  0.00     0.049 A 
ATOM     68  H   UNL A   1      41.935  31.201  29.158  1.00  0.00     0.167 HD
ATOM     69  C   UNL A   1      45.205  29.940  28.947  1.00  0.00     0.074 A 
ATOM     70  C   UNL A   1      46.396  30.017  28.116  1.00  0.00     0.031 C 
ATOM     71  C   UNL A   1      44.503  30.869  29.668  1.00  0.00     0.037 A 
BRANCH  58  72
ATOM     72  C   UNL A   1      38.557  30.597  30.891  1.00  0.00     0.057 A 
ATOM     73  C   UNL A   1      38.571  31.927  31.368  1.00  0.00     0.134 A 
ATOM     74  C   UNL A   1      37.349  29.917  31.123  1.00  0.00     0.134 A 
ATOM     75  F   UNL A   1      39.620  32.736  31.170  1.00  0.00    -0.206 F 
ATOM     76  C   UNL A   1      37.510  32.507  32.071  1.00  0.00     0.040 A 
ATOM     77  C   UNL A   1      36.282  30.481  31.846  1.00  0.00     0.040 A 
ATOM     78  F   UNL A   1      37.116  28.696  30.631  1.00  0.00    -0.206 F 
ATOM     79  C   UNL A   1      36.363  31.778  32.331  1.00  0.00     0.006 A 
ENDBRANCH  58  72
BRANCH  59  80
ATOM     80  C   UNL A   1      45.806  25.672  26.843  1.00  0.00     0.057 A 
ATOM     81  C   UNL A   1      46.612  24.518  26.712  1.00  0.00     0.134 A 
ATOM     82  C   UNL A   1      44.819  25.844  25.867  1.00  0.00     0.134 A 
ATOM     83  F   UNL A   1      47.590  24.275  27.600  1.00  0.00    -0.206 F 
ATOM     84  C   UNL A   1      46.369  23.534  25.745  1.00  0.00     0.040 A 
ATOM     85  C   UNL A   1      44.585  24.877  24.873  1.00  0.00     0.040 A 
ATOM     86  F   UNL A   1      43.994  26.899  25.903  1.00  0.00    -0.206 F 
ATOM     87  C   UNL A   1      45.335  23.702  24.833  1.00  0.00     0.006 A 
ENDBRANCH  59  80
BRANCH  71  88
ATOM     88  C   UNL A   1      44.811  32.340  29.667  1.00  0.00     0.057 A 
ATOM     89  C   UNL A   1      45.443  32.982  30.733  1.00  0.00     0.134 A 
ATOM     90  C   UNL A   1      44.402  33.185  28.609  1.00  0.00     0.134 A 
ATOM     91  F   UNL A   1      45.756  32.317  31.856  1.00  0.00    -0.206 F 
ATOM     92  C   UNL A   1      45.757  34.344  30.698  1.00  0.00     0.040 A 
ATOM     93  C   UNL A   1      44.647  34.556  28.593  1.00  0.00     0.040 A 
ATOM     94  F   UNL A   1      43.771  32.728  27.519  1.00  0.00    -0.206 F 
ATOM     95  C   UNL A   1      45.360  35.136  29.625  1.00  0.00     0.006 A 
ENDBRANCH  71  88
ENDBRANCH  45  46
ENDBRANCH  38  40
ENDBRANCH  37  38
ENDBRANCH  36  37
ENDBRANCH   1  36
TORSDOF 14
ENDMDL
MODEL 3
REMARK VINA RESULT:     -13.2      1.460      2.387
REMARK SMILES Cc1ccc(-c2cnnc(-n3nc(C)c4c3NC(=O)C[C@@H]4c3ccc(C(=O)OCCOC(=O)c4ccc(-c5c6nc(c(-c7c(F)cccc7F)c7ccc([nH]7)c(-c7c(F)cccc7F)c7nc(c(-c8c(F)cccc8F)c8ccc5[nH]8)C=C7)C=C6)cc4)cc3)n2)cc1
REMARK SMILES IDX 29 1 28 2 26 3 27 4 25 5 22 6 23 7 89 8 24 9 88 10 21 11
REMARK SMILES IDX 11 12 12 13 16 14 13 15 15 16 17 17 14 18 18 19 20 21 19 22
REMARK SMILES IDX 10 23 6 24 7 25 90 26 8 27 9 28 5 29 1 30 2 31 3 32 92 33
REMARK SMILES IDX 4 34 91 35 30 36 31 37 32 38 33 39 34 40 35 41 87 42 36 43
REMARK SMILES IDX 86 44 37 45 38 46 39 47 80 48 40 49 85 50 79 51 81 52 41 53
REMARK SMILES IDX 84 54 78 55 77 56 42 58 68 59 51 60 67 61 52 62 55 63 66 64
REMARK SMILES IDX 82 65 53 66 54 67 65 69 83 70 56 71 43 72 44 73 49 74 45 75
REMARK SMILES IDX 46 76 48 77 50 78 47 79 69 80 70 81 75 82 71 83 72 84 74 85
REMARK SMILES IDX 76 86 73 87 57 88 58 89 63 90 59 91 60 92 62 93 64 94 61 95
REMARK H PARENT 17 20 81 57 55 68
REMARK Flexibility Score: inf
ROOT
ATOM      1  C   UNL A   1      38.540  20.092  25.373  1.00  0.00     0.275 C 
ENDROOT
BRANCH   1   2
ATOM      2  O   UNL A   1      37.274  20.602  24.942  1.00  0.00    -0.458 OA
BRANCH   2   3
ATOM      3  C   UNL A   1      36.314  19.651  24.994  1.00  0.00     0.338 C 
ATOM      4  O   UNL A   1      36.426  18.477  24.680  1.00  0.00    -0.246 OA
BRANCH   3   5
ATOM      5  C   UNL A   1      34.994  20.199  25.293  1.00  0.00     0.060 A 
ATOM      6  C   UNL A   1      32.892  21.973  24.957  1.00  0.00    -0.040 A 
ATOM      7  C   UNL A   1      32.798  20.691  24.419  1.00  0.00     0.005 A 
ATOM      8  C   UNL A   1      33.946  22.260  25.852  1.00  0.00     0.005 A 
ATOM      9  C   UNL A   1      33.853  19.806  24.590  1.00  0.00     0.016 A 
ATOM     10  C   UNL A   1      35.020  21.399  25.981  1.00  0.00     0.016 A 
BRANCH   6  11
ATOM     11  C   UNL A   1      31.924  23.016  24.434  1.00  0.00     0.064 C 
ATOM     12  N   UNL A   1      33.058  26.364  25.140  1.00  0.00    -0.180 N 
ATOM     13  N   UNL A   1      34.132  26.012  24.383  1.00  0.00    -0.168 NA
ATOM     14  C   UNL A   1      32.369  25.231  25.526  1.00  0.00     0.143 A 
ATOM     15  C   UNL A   1      33.796  24.821  23.881  1.00  0.00     0.066 A 
ATOM     16  C   UNL A   1      32.626  24.321  24.520  1.00  0.00     0.026 A 
ATOM     17  N   UNL A   1      31.585  24.879  26.613  1.00  0.00    -0.310 N 
ATOM     18  C   UNL A   1      34.735  24.164  22.936  1.00  0.00     0.069 C 
ATOM     19  C   UNL A   1      30.871  23.628  26.582  1.00  0.00     0.226 C 
ATOM     20  H   UNL A   1      31.516  25.475  27.393  1.00  0.00     0.171 HD
ATOM     21  C   UNL A   1      30.615  23.044  25.212  1.00  0.00     0.113 C 
ATOM     22  O   UNL A   1      30.455  23.183  27.624  1.00  0.00    -0.275 OA
BRANCH  12  23
ATOM     23  C   UNL A   1      32.521  27.673  25.055  1.00  0.00     0.272 A 
ATOM     24  C   UNL A   1      32.126  29.730  25.929  1.00  0.00     0.095 A 
ATOM     25  C   UNL A   1      31.036  29.864  25.088  1.00  0.00     0.164 A 
ATOM     26  N   UNL A   1      32.867  28.594  25.973  1.00  0.00    -0.208 NA
ATOM     27  N   UNL A   1      30.720  28.905  24.208  1.00  0.00    -0.153 NA
ATOM     28  N   UNL A   1      31.505  27.814  24.163  1.00  0.00    -0.109 NA
BRANCH  24  29
ATOM     29  C   UNL A   1      32.614  30.852  26.728  1.00  0.00     0.002 A 
ATOM     30  C   UNL A   1      34.247  34.192  28.926  1.00  0.00     0.044 C 
ATOM     31  C   UNL A   1      33.690  33.033  28.158  1.00  0.00    -0.051 A 
ATOM     32  C   UNL A   1      32.441  33.139  27.536  1.00  0.00     0.004 A 
ATOM     33  C   UNL A   1      34.400  31.834  28.064  1.00  0.00     0.004 A 
ATOM     34  C   UNL A   1      31.908  32.060  26.826  1.00  0.00     0.011 A 
ATOM     35  C   UNL A   1      33.864  30.756  27.361  1.00  0.00     0.011 A 
ENDBRANCH  24  29
ENDBRANCH  12  23
ENDBRANCH   6  11
ENDBRANCH   3   5
ENDBRANCH   2   3
ENDBRANCH   1   2
BRANCH   1  36
ATOM     36  C   UNL A   1      39.520  21.189  25.803  1.00  0.00     0.275 C 
BRANCH  36  37
ATOM     37  O   UNL A   1      39.084  22.339  26.582  1.00  0.00    -0.458 OA
BRANCH  37  38
ATOM     38  C   UNL A   1      38.543  23.479  26.103  1.00  0.00     0.338 C 
ATOM     39  O   UNL A   1      37.781  23.508  25.148  1.00  0.00    -0.246 OA
BRANCH  38  40
ATOM     40  C   UNL A   1      38.956  24.713  26.781  1.00  0.00     0.060 A 
ATOM     41  C   UNL A   1      38.655  24.841  28.144  1.00  0.00     0.016 A 
ATOM     42  C   UNL A   1      39.734  25.657  26.114  1.00  0.00     0.016 A 
ATOM     43  C   UNL A   1      39.256  25.843  28.887  1.00  0.00     0.010 A 
ATOM     44  C   UNL A   1      40.397  26.596  26.860  1.00  0.00     0.010 A 
ATOM     45  C   UNL A   1      40.136  26.693  28.237  1.00  0.00    -0.014 A 
BRANCH  45  46
ATOM     46  C   UNL A   1      40.479  27.981  28.795  1.00  0.00     0.031 A 
ATOM     47  C   UNL A   1      39.525  29.093  28.812  1.00  0.00     0.074 A 
ATOM     48  C   UNL A   1      41.584  27.806  29.551  1.00  0.00     0.049 A 
ATOM     49  N   UNL A   1      39.801  30.251  29.292  1.00  0.00    -0.248 NA
ATOM     50  C   UNL A   1      38.181  29.047  28.239  1.00  0.00     0.031 C 
ATOM     51  C   UNL A   1      42.061  28.449  30.754  1.00  0.00     0.029 A 
ATOM     52  N   UNL A   1      42.626  26.917  29.214  1.00  0.00    -0.354 N 
ATOM     53  C   UNL A   1      38.600  30.905  29.486  1.00  0.00     0.074 A 
ATOM     54  C   UNL A   1      37.657  30.208  28.654  1.00  0.00     0.031 C 
ATOM     55  C   UNL A   1      43.382  28.194  30.871  1.00  0.00     0.029 A 
ATOM     56  C   UNL A   1      43.803  27.540  29.635  1.00  0.00     0.049 A 
ATOM     57  H   UNL A   1      42.541  26.042  28.774  1.00  0.00     0.167 HD
ATOM     58  C   UNL A   1      38.540  31.825  30.493  1.00  0.00     0.037 A 
ATOM     59  C   UNL A   1      44.577  28.110  28.658  1.00  0.00     0.037 A 
ATOM     60  C   UNL A   1      39.869  31.959  31.087  1.00  0.00     0.049 A 
ATOM     61  C   UNL A   1      44.572  29.626  28.753  1.00  0.00     0.074 A 
ATOM     62  C   UNL A   1      40.493  31.384  32.180  1.00  0.00     0.029 A 
ATOM     63  N   UNL A   1      40.877  32.452  30.288  1.00  0.00    -0.354 N 
ATOM     64  N   UNL A   1      43.638  30.327  29.338  1.00  0.00    -0.248 NA
ATOM     65  C   UNL A   1      45.621  30.465  28.188  1.00  0.00     0.031 C 
ATOM     66  C   UNL A   1      41.904  31.532  32.005  1.00  0.00     0.029 A 
ATOM     67  C   UNL A   1      42.124  32.177  30.800  1.00  0.00     0.049 A 
ATOM     68  H   UNL A   1      40.723  32.944  29.450  1.00  0.00     0.167 HD
ATOM     69  C   UNL A   1      43.985  31.649  29.346  1.00  0.00     0.074 A 
ATOM     70  C   UNL A   1      45.194  31.692  28.539  1.00  0.00     0.031 C 
ATOM     71  C   UNL A   1      43.276  32.603  30.025  1.00  0.00     0.037 A 
BRANCH  58  72
ATOM     72  C   UNL A   1      37.302  32.419  31.125  1.00  0.00     0.057 A 
ATOM     73  C   UNL A   1      37.225  33.815  31.330  1.00  0.00     0.134 A 
ATOM     74  C   UNL A   1      36.171  31.710  31.565  1.00  0.00     0.134 A 
ATOM     75  F   UNL A   1      38.188  34.645  30.909  1.00  0.00    -0.206 F 
ATOM     76  C   UNL A   1      36.153  34.442  31.976  1.00  0.00     0.040 A 
ATOM     77  C   UNL A   1      35.097  32.325  32.233  1.00  0.00     0.040 A 
ATOM     78  F   UNL A   1      36.022  30.401  31.338  1.00  0.00    -0.206 F 
ATOM     79  C   UNL A   1      35.089  33.695  32.448  1.00  0.00     0.006 A 
ENDBRANCH  58  72
BRANCH  59  80
ATOM     80  C   UNL A   1      44.591  27.318  27.375  1.00  0.00     0.057 A 
ATOM     81  C   UNL A   1      45.259  26.073  27.344  1.00  0.00     0.134 A 
ATOM     82  C   UNL A   1      43.721  27.575  26.311  1.00  0.00     0.134 A 
ATOM     83  F   UNL A   1      46.119  25.743  28.321  1.00  0.00    -0.206 F 
ATOM     84  C   UNL A   1      44.983  25.094  26.381  1.00  0.00     0.040 A 
ATOM     85  C   UNL A   1      43.457  26.610  25.322  1.00  0.00     0.040 A 
ATOM     86  F   UNL A   1      43.030  28.722  26.249  1.00  0.00    -0.206 F 
ATOM     87  C   UNL A   1      44.060  25.353  25.375  1.00  0.00     0.006 A 
ENDBRANCH  59  80
BRANCH  71  88
ATOM     88  C   UNL A   1      43.598  34.072  29.990  1.00  0.00     0.057 A 
ATOM     89  C   UNL A   1      44.544  34.659  30.832  1.00  0.00     0.134 A 
ATOM     90  C   UNL A   1      42.897  34.967  29.149  1.00  0.00     0.134 A 
ATOM     91  F   UNL A   1      45.177  33.942  31.773  1.00  0.00    -0.206 F 
ATOM     92  C   UNL A   1      44.858  36.020  30.758  1.00  0.00     0.040 A 
ATOM     93  C   UNL A   1      43.152  36.335  29.115  1.00  0.00     0.040 A 
ATOM     94  F   UNL A   1      41.950  34.564  28.292  1.00  0.00    -0.206 F 
ATOM     95  C   UNL A   1      44.163  36.863  29.897  1.00  0.00     0.006 A 
ENDBRANCH  71  88
ENDBRANCH  45  46
ENDBRANCH  38  40
ENDBRANCH  37  38
ENDBRANCH  36  37
ENDBRANCH   1  36
TORSDOF 14
ENDMDL
