MODEL 1
REMARK VINA RESULT:     -10.8      0.000      0.000
REMARK SMILES Cc1[nH]c(=O)n(C)c(=O)c1CC(=O)OCCOC(=O)c1ccc(-c2c3nc(c(-c4c(F)cccc4F)c4ccc([nH]4)c(-c4c(F)cccc4F)c4nc(c(-c5c(F)cccc5F)c5ccc2[nH]5)C=C4)C=C3)cc1
REMARK SMILES IDX 16 1 15 2 14 3 12 4 13 5 11 6 10 7 1 8 2 9 3 10 4 11 8 13
REMARK SMILES IDX 5 14 6 15 9 16 7 17 17 18 18 19 19 20 20 21 21 22 73 23
REMARK SMILES IDX 22 24 72 25 23 26 24 27 25 28 66 29 26 30 71 31 65 32 67 33
REMARK SMILES IDX 27 34 70 35 64 36 63 37 28 39 54 40 37 41 53 42 38 43 41 44
REMARK SMILES IDX 52 45 68 46 39 47 40 48 51 50 69 51 42 52 29 53 30 54 35 55
REMARK SMILES IDX 31 56 32 57 34 58 36 59 33 60 55 61 56 62 61 63 57 64 58 65
REMARK SMILES IDX 60 66 62 67 59 68 43 69 44 70 49 71 45 72 46 73 48 74 50 75
REMARK SMILES IDX 47 76
REMARK H PARENT 3 12 67 38 41 49
REMARK Flexibility Score: inf
ROOT
ATOM      1  C   UNL A   1      31.640  29.877  26.389  1.00  0.00     0.275 C 
ENDROOT
BRANCH   1   2
ATOM      2  C   UNL A   1      31.750  28.553  27.141  1.00  0.00     0.274 C 
BRANCH   2   3
ATOM      3  O   UNL A   1      32.323  27.532  26.297  1.00  0.00    -0.462 OA
BRANCH   3   4
ATOM      4  C   UNL A   1      31.447  26.621  25.796  1.00  0.00     0.310 C 
ATOM      5  O   UNL A   1      30.697  25.928  26.477  1.00  0.00    -0.252 OA
BRANCH   4   6
ATOM      6  C   UNL A   1      31.498  26.480  24.283  1.00  0.00     0.165 C 
BRANCH   6   7
ATOM      7  C   UNL A   1      30.933  27.632  23.502  1.00  0.00     0.048 A 
ATOM      8  C   UNL A   1      33.155  28.569  22.818  1.00  0.00     0.065 C 
ATOM      9  C   UNL A   1      31.654  28.559  22.852  1.00  0.00     0.026 A 
ATOM     10  N   UNL A   1      31.017  29.565  22.176  1.00  0.00    -0.311 N 
ATOM     11  C   UNL A   1      29.663  29.748  22.130  1.00  0.00     0.328 A 
ATOM     12  H   UNL A   1      31.579  30.206  21.684  1.00  0.00     0.171 HD
ATOM     13  C   UNL A   1      29.447  27.690  23.394  1.00  0.00     0.259 A 
ATOM     14  O   UNL A   1      29.200  30.699  21.503  1.00  0.00    -0.248 OA
ATOM     15  N   UNL A   1      28.904  28.810  22.798  1.00  0.00    -0.263 N 
ATOM     16  O   UNL A   1      28.785  26.740  23.803  1.00  0.00    -0.269 OA
ATOM     17  C   UNL A   1      27.463  28.965  22.765  1.00  0.00     0.158 C 
ENDBRANCH   6   7
ENDBRANCH   4   6
ENDBRANCH   3   4
ENDBRANCH   2   3
ENDBRANCH   1   2
BRANCH   1  18
ATOM     18  O   UNL A   1      32.954  30.425  26.203  1.00  0.00    -0.458 OA
BRANCH  18  19
ATOM     19  C   UNL A   1      33.305  31.416  27.055  1.00  0.00     0.338 C 
ATOM     20  O   UNL A   1      32.723  32.469  27.247  1.00  0.00    -0.246 OA
BRANCH  19  21
ATOM     21  C   UNL A   1      34.584  31.060  27.698  1.00  0.00     0.060 A 
ATOM     22  C   UNL A   1      34.897  29.728  27.975  1.00  0.00     0.016 A 
ATOM     23  C   UNL A   1      35.442  32.082  28.103  1.00  0.00     0.016 A 
ATOM     24  C   UNL A   1      36.033  29.415  28.716  1.00  0.00     0.010 A 
ATOM     25  C   UNL A   1      36.622  31.762  28.778  1.00  0.00     0.010 A 
ATOM     26  C   UNL A   1      36.912  30.428  29.117  1.00  0.00    -0.014 A 
BRANCH  26  27
ATOM     27  C   UNL A   1      38.112  30.105  29.927  1.00  0.00     0.031 A 
ATOM     28  C   UNL A   1      39.194  29.237  29.349  1.00  0.00     0.074 A 
ATOM     29  C   UNL A   1      38.237  30.596  31.173  1.00  0.00     0.049 A 
ATOM     30  N   UNL A   1      40.243  28.720  29.937  1.00  0.00    -0.248 NA
ATOM     31  C   UNL A   1      39.079  28.899  27.921  1.00  0.00     0.031 C 
ATOM     32  C   UNL A   1      37.287  31.496  31.828  1.00  0.00     0.029 A 
ATOM     33  N   UNL A   1      39.219  30.408  32.113  1.00  0.00    -0.354 N 
ATOM     34  C   UNL A   1      40.894  27.975  28.964  1.00  0.00     0.074 A 
ATOM     35  C   UNL A   1      40.115  28.091  27.749  1.00  0.00     0.031 C 
ATOM     36  C   UNL A   1      37.744  31.802  33.052  1.00  0.00     0.029 A 
ATOM     37  C   UNL A   1      38.982  31.067  33.295  1.00  0.00     0.049 A 
ATOM     38  H   UNL A   1      40.018  29.855  31.955  1.00  0.00     0.167 HD
ATOM     39  C   UNL A   1      42.042  27.266  29.073  1.00  0.00     0.037 A 
ATOM     40  C   UNL A   1      39.665  31.054  34.454  1.00  0.00     0.037 A 
ATOM     41  C   UNL A   1      42.831  27.180  30.274  1.00  0.00     0.049 A 
ATOM     42  C   UNL A   1      40.896  30.201  34.572  1.00  0.00     0.074 A 
ATOM     43  C   UNL A   1      44.010  26.487  30.482  1.00  0.00     0.029 A 
ATOM     44  N   UNL A   1      42.525  27.819  31.466  1.00  0.00    -0.354 N 
ATOM     45  N   UNL A   1      41.477  29.461  33.661  1.00  0.00    -0.248 NA
ATOM     46  C   UNL A   1      41.554  30.165  35.886  1.00  0.00     0.031 C 
ATOM     47  C   UNL A   1      44.400  26.679  31.812  1.00  0.00     0.029 A 
ATOM     48  C   UNL A   1      43.485  27.523  32.419  1.00  0.00     0.049 A 
ATOM     49  H   UNL A   1      41.742  28.396  31.613  1.00  0.00     0.167 HD
ATOM     50  C   UNL A   1      42.573  28.879  34.284  1.00  0.00     0.074 A 
ATOM     51  C   UNL A   1      42.586  29.366  35.648  1.00  0.00     0.031 C 
ATOM     52  C   UNL A   1      43.482  28.016  33.772  1.00  0.00     0.037 A 
BRANCH  39  53
ATOM     53  C   UNL A   1      42.510  26.510  27.866  1.00  0.00     0.057 A 
ATOM     54  C   UNL A   1      43.383  27.078  26.931  1.00  0.00     0.134 A 
ATOM     55  C   UNL A   1      42.122  25.179  27.665  1.00  0.00     0.134 A 
ATOM     56  F   UNL A   1      43.782  28.352  27.061  1.00  0.00    -0.206 F 
ATOM     57  C   UNL A   1      43.846  26.353  25.832  1.00  0.00     0.040 A 
ATOM     58  C   UNL A   1      42.595  24.437  26.581  1.00  0.00     0.040 A 
ATOM     59  F   UNL A   1      41.291  24.574  28.527  1.00  0.00    -0.206 F 
ATOM     60  C   UNL A   1      43.457  25.025  25.658  1.00  0.00     0.006 A 
ENDBRANCH  39  53
BRANCH  40  61
ATOM     61  C   UNL A   1      39.185  31.862  35.601  1.00  0.00     0.057 A 
ATOM     62  C   UNL A   1      39.627  33.175  35.791  1.00  0.00     0.134 A 
ATOM     63  C   UNL A   1      38.261  31.351  36.521  1.00  0.00     0.134 A 
ATOM     64  F   UNL A   1      40.528  33.711  34.954  1.00  0.00    -0.206 F 
ATOM     65  C   UNL A   1      39.170  33.954  36.856  1.00  0.00     0.040 A 
ATOM     66  C   UNL A   1      37.778  32.125  37.577  1.00  0.00     0.040 A 
ATOM     67  F   UNL A   1      37.799  30.099  36.394  1.00  0.00    -0.206 F 
ATOM     68  C   UNL A   1      38.236  33.431  37.748  1.00  0.00     0.006 A 
ENDBRANCH  40  61
BRANCH  52  69
ATOM     69  C   UNL A   1      44.578  27.550  34.683  1.00  0.00     0.057 A 
ATOM     70  C   UNL A   1      45.764  28.279  34.835  1.00  0.00     0.134 A 
ATOM     71  C   UNL A   1      44.418  26.398  35.462  1.00  0.00     0.134 A 
ATOM     72  F   UNL A   1      45.980  29.385  34.106  1.00  0.00    -0.206 F 
ATOM     73  C   UNL A   1      46.759  27.871  35.724  1.00  0.00     0.040 A 
ATOM     74  C   UNL A   1      45.397  25.992  36.370  1.00  0.00     0.040 A 
ATOM     75  F   UNL A   1      43.301  25.661  35.368  1.00  0.00    -0.206 F 
ATOM     76  C   UNL A   1      46.572  26.729  36.501  1.00  0.00     0.006 A 
ENDBRANCH  52  69
ENDBRANCH  26  27
ENDBRANCH  19  21
ENDBRANCH  18  19
ENDBRANCH   1  18
TORSDOF 12
ENDMDL
MODEL 2
REMARK VINA RESULT:     -10.7      1.239      2.523
REMARK SMILES Cc1[nH]c(=O)n(C)c(=O)c1CC(=O)OCCOC(=O)c1ccc(-c2c3nc(c(-c4c(F)cccc4F)c4ccc([nH]4)c(-c4c(F)cccc4F)c4nc(c(-c5c(F)cccc5F)c5ccc2[nH]5)C=C4)C=C3)cc1
REMARK SMILES IDX 16 1 15 2 14 3 12 4 13 5 11 6 10 7 1 8 2 9 3 10 4 11 8 13
REMARK SMILES IDX 5 14 6 15 9 16 7 17 17 18 18 19 19 20 20 21 21 22 73 23
REMARK SMILES IDX 22 24 72 25 23 26 24 27 25 28 66 29 26 30 71 31 65 32 67 33
REMARK SMILES IDX 27 34 70 35 64 36 63 37 28 39 54 40 37 41 53 42 38 43 41 44
REMARK SMILES IDX 52 45 68 46 39 47 40 48 51 50 69 51 42 52 29 53 30 54 35 55
REMARK SMILES IDX 31 56 32 57 34 58 36 59 33 60 55 61 56 62 61 63 57 64 58 65
REMARK SMILES IDX 60 66 62 67 59 68 43 69 44 70 49 71 45 72 46 73 48 74 50 75
REMARK SMILES IDX 47 76
REMARK H PARENT 3 12 67 38 41 49
REMARK Flexibility Score: inf
ROOT
ATOM      1  C   UNL A   1      31.747  29.671  25.966  1.00  0.00     0.275 C 
ENDROOT
BRANCH   1   2
ATOM      2  C   UNL A   1      31.028  29.759  24.623  1.00  0.00     0.274 C 
BRANCH   2   3
ATOM      3  O   UNL A   1      31.735  29.006  23.614  1.00  0.00    -0.462 OA
BRANCH   3   4
ATOM      4  C   UNL A   1      30.970  28.502  22.610  1.00  0.00     0.310 C 
ATOM      5  O   UNL A   1      30.226  29.171  21.898  1.00  0.00    -0.252 OA
BRANCH   4   6
ATOM      6  C   UNL A   1      31.066  26.993  22.456  1.00  0.00     0.165 C 
BRANCH   6   7
ATOM      7  C   UNL A   1      30.918  26.198  23.723  1.00  0.00     0.048 A 
ATOM      8  C   UNL A   1      28.429  26.454  23.876  1.00  0.00     0.065 C 
ATOM      9  C   UNL A   1      29.761  25.955  24.358  1.00  0.00     0.026 A 
ATOM     10  N   UNL A   1      29.760  25.216  25.510  1.00  0.00    -0.311 N 
ATOM     11  C   UNL A   1      30.874  24.716  26.125  1.00  0.00     0.328 A 
ATOM     12  H   UNL A   1      28.889  25.030  25.929  1.00  0.00     0.171 HD
ATOM     13  C   UNL A   1      32.163  25.580  24.262  1.00  0.00     0.259 A 
ATOM     14  O   UNL A   1      30.756  24.078  27.170  1.00  0.00    -0.248 OA
ATOM     15  N   UNL A   1      32.075  24.962  25.492  1.00  0.00    -0.263 N 
ATOM     16  O   UNL A   1      33.187  25.618  23.584  1.00  0.00    -0.269 OA
ATOM     17  C   UNL A   1      33.279  24.440  26.110  1.00  0.00     0.158 C 
ENDBRANCH   6   7
ENDBRANCH   4   6
ENDBRANCH   3   4
ENDBRANCH   2   3
ENDBRANCH   1   2
BRANCH   1  18
ATOM     18  O   UNL A   1      32.969  30.422  25.898  1.00  0.00    -0.458 OA
BRANCH  18  19
ATOM     19  C   UNL A   1      33.190  31.282  26.919  1.00  0.00     0.338 C 
ATOM     20  O   UNL A   1      32.501  32.231  27.251  1.00  0.00    -0.246 OA
BRANCH  19  21
ATOM     21  C   UNL A   1      34.472  30.938  27.562  1.00  0.00     0.060 A 
ATOM     22  C   UNL A   1      34.761  29.620  27.918  1.00  0.00     0.016 A 
ATOM     23  C   UNL A   1      35.360  31.963  27.885  1.00  0.00     0.016 A 
ATOM     24  C   UNL A   1      35.904  29.328  28.658  1.00  0.00     0.010 A 
ATOM     25  C   UNL A   1      36.545  31.660  28.559  1.00  0.00     0.010 A 
ATOM     26  C   UNL A   1      36.812  30.344  28.978  1.00  0.00    -0.014 A 
BRANCH  26  27
ATOM     27  C   UNL A   1      38.020  30.046  29.786  1.00  0.00     0.031 A 
ATOM     28  C   UNL A   1      39.108  29.179  29.215  1.00  0.00     0.074 A 
ATOM     29  C   UNL A   1      38.146  30.557  31.024  1.00  0.00     0.049 A 
ATOM     30  N   UNL A   1      40.165  28.683  29.805  1.00  0.00    -0.248 NA
ATOM     31  C   UNL A   1      38.988  28.819  27.793  1.00  0.00     0.031 C 
ATOM     32  C   UNL A   1      37.191  31.457  31.671  1.00  0.00     0.029 A 
ATOM     33  N   UNL A   1      39.135  30.393  31.961  1.00  0.00    -0.354 N 
ATOM     34  C   UNL A   1      40.818  27.930  28.840  1.00  0.00     0.074 A 
ATOM     35  C   UNL A   1      40.031  28.019  27.628  1.00  0.00     0.031 C 
ATOM     36  C   UNL A   1      37.651  31.786  32.887  1.00  0.00     0.029 A 
ATOM     37  C   UNL A   1      38.897  31.067  33.134  1.00  0.00     0.049 A 
ATOM     38  H   UNL A   1      39.939  29.846  31.807  1.00  0.00     0.167 HD
ATOM     39  C   UNL A   1      41.974  27.234  28.953  1.00  0.00     0.037 A 
ATOM     40  C   UNL A   1      39.587  31.079  34.289  1.00  0.00     0.037 A 
ATOM     41  C   UNL A   1      42.770  27.175  30.151  1.00  0.00     0.049 A 
ATOM     42  C   UNL A   1      40.827  30.240  34.414  1.00  0.00     0.074 A 
ATOM     43  C   UNL A   1      43.957  26.496  30.364  1.00  0.00     0.029 A 
ATOM     44  N   UNL A   1      42.463  27.828  31.336  1.00  0.00    -0.354 N 
ATOM     45  N   UNL A   1      41.411  29.492  33.510  1.00  0.00    -0.248 NA
ATOM     46  C   UNL A   1      41.492  30.231  35.725  1.00  0.00     0.031 C 
ATOM     47  C   UNL A   1      44.353  26.713  31.688  1.00  0.00     0.029 A 
ATOM     48  C   UNL A   1      43.432  27.556  32.287  1.00  0.00     0.049 A 
ATOM     49  H   UNL A   1      41.675  28.400  31.477  1.00  0.00     0.167 HD
ATOM     50  C   UNL A   1      42.516  28.932  34.136  1.00  0.00     0.074 A 
ATOM     51  C   UNL A   1      42.531  29.439  35.493  1.00  0.00     0.031 C 
ATOM     52  C   UNL A   1      43.432  28.070  33.633  1.00  0.00     0.037 A 
BRANCH  39  53
ATOM     53  C   UNL A   1      42.443  26.465  27.755  1.00  0.00     0.057 A 
ATOM     54  C   UNL A   1      42.025  25.152  27.510  1.00  0.00     0.134 A 
ATOM     55  C   UNL A   1      43.284  27.064  26.808  1.00  0.00     0.134 A 
ATOM     56  F   UNL A   1      41.229  24.517  28.384  1.00  0.00    -0.206 F 
ATOM     57  C   UNL A   1      42.435  24.457  26.371  1.00  0.00     0.040 A 
ATOM     58  C   UNL A   1      43.684  26.387  25.655  1.00  0.00     0.040 A 
ATOM     59  F   UNL A   1      43.717  28.322  26.981  1.00  0.00    -0.206 F 
ATOM     60  C   UNL A   1      43.261  25.078  25.435  1.00  0.00     0.006 A 
ENDBRANCH  39  53
BRANCH  40  61
ATOM     61  C   UNL A   1      39.104  31.899  35.427  1.00  0.00     0.057 A 
ATOM     62  C   UNL A   1      39.458  33.247  35.542  1.00  0.00     0.134 A 
ATOM     63  C   UNL A   1      38.265  31.364  36.412  1.00  0.00     0.134 A 
ATOM     64  F   UNL A   1      40.277  33.809  34.641  1.00  0.00    -0.206 F 
ATOM     65  C   UNL A   1      38.998  34.036  36.598  1.00  0.00     0.040 A 
ATOM     66  C   UNL A   1      37.778  32.146  37.460  1.00  0.00     0.040 A 
ATOM     67  F   UNL A   1      37.890  30.078  36.357  1.00  0.00    -0.206 F 
ATOM     68  C   UNL A   1      38.148  33.487  37.556  1.00  0.00     0.006 A 
ENDBRANCH  40  61
BRANCH  52  69
ATOM     69  C   UNL A   1      44.537  27.629  34.545  1.00  0.00     0.057 A 
ATOM     70  C   UNL A   1      45.718  28.369  34.674  1.00  0.00     0.134 A 
ATOM     71  C   UNL A   1      44.391  26.491  35.346  1.00  0.00     0.134 A 
ATOM     72  F   UNL A   1      45.921  29.462  33.923  1.00  0.00    -0.206 F 
ATOM     73  C   UNL A   1      46.723  27.985  35.564  1.00  0.00     0.040 A 
ATOM     74  C   UNL A   1      45.378  26.109  36.255  1.00  0.00     0.040 A 
ATOM     75  F   UNL A   1      43.278  25.744  35.273  1.00  0.00    -0.206 F 
ATOM     76  C   UNL A   1      46.549  26.856  36.364  1.00  0.00     0.006 A 
ENDBRANCH  52  69
ENDBRANCH  26  27
ENDBRANCH  19  21
ENDBRANCH  18  19
ENDBRANCH   1  18
TORSDOF 12
ENDMDL
MODEL 3
REMARK VINA RESULT:     -10.6      4.411      7.831
REMARK SMILES Cc1[nH]c(=O)n(C)c(=O)c1CC(=O)OCCOC(=O)c1ccc(-c2c3nc(c(-c4c(F)cccc4F)c4ccc([nH]4)c(-c4c(F)cccc4F)c4nc(c(-c5c(F)cccc5F)c5ccc2[nH]5)C=C4)C=C3)cc1
REMARK SMILES IDX 16 1 15 2 14 3 12 4 13 5 11 6 10 7 1 8 2 9 3 10 4 11 8 13
REMARK SMILES IDX 5 14 6 15 9 16 7 17 17 18 18 19 19 20 20 21 21 22 73 23
REMARK SMILES IDX 22 24 72 25 23 26 24 27 25 28 66 29 26 30 71 31 65 32 67 33
REMARK SMILES IDX 27 34 70 35 64 36 63 37 28 39 54 40 37 41 53 42 38 43 41 44
REMARK SMILES IDX 52 45 68 46 39 47 40 48 51 50 69 51 42 52 29 53 30 54 35 55
REMARK SMILES IDX 31 56 32 57 34 58 36 59 33 60 55 61 56 62 61 63 57 64 58 65
REMARK SMILES IDX 60 66 62 67 59 68 43 69 44 70 49 71 45 72 46 73 48 74 50 75
REMARK SMILES IDX 47 76
REMARK H PARENT 3 12 67 38 41 49
REMARK Flexibility Score: inf
ROOT
ATOM      1  C   UNL A   1      33.484  30.586  27.323  1.00  0.00     0.275 C 
ENDROOT
BRANCH   1   2
ATOM      2  C   UNL A   1      32.328  29.610  27.121  1.00  0.00     0.274 C 
BRANCH   2   3
ATOM      3  O   UNL A   1      32.793  28.386  26.512  1.00  0.00    -0.462 OA
BRANCH   3   4
ATOM      4  C   UNL A   1      31.830  27.475  26.211  1.00  0.00     0.310 C 
ATOM      5  O   UNL A   1      31.033  27.009  27.020  1.00  0.00    -0.252 OA
BRANCH   4   6
ATOM      6  C   UNL A   1      31.842  27.019  24.761  1.00  0.00     0.165 C 
BRANCH   6   7
ATOM      7  C   UNL A   1      31.211  27.963  23.776  1.00  0.00     0.048 A 
ATOM      8  C   UNL A   1      33.370  28.952  22.977  1.00  0.00     0.065 C 
ATOM      9  C   UNL A   1      31.875  28.820  22.985  1.00  0.00     0.026 A 
ATOM     10  N   UNL A   1      31.182  29.632  22.129  1.00  0.00    -0.311 N 
ATOM     11  C   UNL A   1      29.819  29.687  22.026  1.00  0.00     0.328 A 
ATOM     12  H   UNL A   1      31.705  30.223  21.541  1.00  0.00     0.171 HD
ATOM     13  C   UNL A   1      29.730  27.873  23.633  1.00  0.00     0.259 A 
ATOM     14  O   UNL A   1      29.301  30.469  21.232  1.00  0.00    -0.248 OA
ATOM     15  N   UNL A   1      29.117  28.819  22.837  1.00  0.00    -0.263 N 
ATOM     16  O   UNL A   1      29.134  26.956  24.193  1.00  0.00    -0.269 OA
ATOM     17  C   UNL A   1      27.670  28.841  22.751  1.00  0.00     0.158 C 
ENDBRANCH   6   7
ENDBRANCH   4   6
ENDBRANCH   3   4
ENDBRANCH   2   3
ENDBRANCH   1   2
BRANCH   1  18
ATOM     18  O   UNL A   1      34.678  29.848  27.629  1.00  0.00    -0.458 OA
BRANCH  18  19
ATOM     19  C   UNL A   1      35.478  30.389  28.578  1.00  0.00     0.338 C 
ATOM     20  O   UNL A   1      35.203  31.288  29.353  1.00  0.00    -0.246 OA
BRANCH  19  21
ATOM     21  C   UNL A   1      36.809  29.759  28.493  1.00  0.00     0.060 A 
ATOM     22  C   UNL A   1      37.381  29.147  29.609  1.00  0.00     0.016 A 
ATOM     23  C   UNL A   1      37.525  29.856  27.301  1.00  0.00     0.016 A 
ATOM     24  C   UNL A   1      38.695  28.691  29.562  1.00  0.00     0.010 A 
ATOM     25  C   UNL A   1      38.816  29.328  27.230  1.00  0.00     0.010 A 
ATOM     26  C   UNL A   1      39.422  28.768  28.368  1.00  0.00    -0.014 A 
BRANCH  26  27
ATOM     27  C   UNL A   1      40.831  28.306  28.315  1.00  0.00     0.031 A 
ATOM     28  C   UNL A   1      41.949  29.275  28.580  1.00  0.00     0.074 A 
ATOM     29  C   UNL A   1      41.108  27.018  28.040  1.00  0.00     0.049 A 
ATOM     30  N   UNL A   1      43.239  29.108  28.439  1.00  0.00    -0.248 NA
ATOM     31  C   UNL A   1      41.564  30.611  29.062  1.00  0.00     0.031 C 
ATOM     32  C   UNL A   1      40.115  25.966  27.821  1.00  0.00     0.029 A 
ATOM     33  N   UNL A   1      42.311  26.374  27.898  1.00  0.00    -0.354 N 
ATOM     34  C   UNL A   1      43.817  30.322  28.784  1.00  0.00     0.074 A 
ATOM     35  C   UNL A   1      42.738  31.224  29.125  1.00  0.00     0.031 C 
ATOM     36  C   UNL A   1      40.748  24.804  27.598  1.00  0.00     0.029 A 
ATOM     37  C   UNL A   1      42.188  25.041  27.590  1.00  0.00     0.049 A 
ATOM     38  H   UNL A   1      43.180  26.823  28.009  1.00  0.00     0.167 HD
ATOM     39  C   UNL A   1      45.130  30.650  28.820  1.00  0.00     0.037 A 
ATOM     40  C   UNL A   1      43.126  24.121  27.299  1.00  0.00     0.037 A 
ATOM     41  C   UNL A   1      46.202  29.741  28.510  1.00  0.00     0.049 A 
ATOM     42  C   UNL A   1      44.572  24.529  27.274  1.00  0.00     0.074 A 
ATOM     43  C   UNL A   1      47.565  29.980  28.519  1.00  0.00     0.029 A 
ATOM     44  N   UNL A   1      46.030  28.413  28.148  1.00  0.00    -0.354 N 
ATOM     45  N   UNL A   1      45.106  25.692  27.554  1.00  0.00    -0.248 NA
ATOM     46  C   UNL A   1      45.544  23.502  26.872  1.00  0.00     0.031 C 
ATOM     47  C   UNL A   1      48.217  28.806  28.129  1.00  0.00     0.029 A 
ATOM     48  C   UNL A   1      47.262  27.825  27.915  1.00  0.00     0.049 A 
ATOM     49  H   UNL A   1      45.162  27.957  28.068  1.00  0.00     0.167 HD
ATOM     50  C   UNL A   1      46.473  25.537  27.374  1.00  0.00     0.074 A 
ATOM     51  C   UNL A   1      46.690  24.162  26.976  1.00  0.00     0.031 C 
ATOM     52  C   UNL A   1      47.459  26.454  27.520  1.00  0.00     0.037 A 
BRANCH  39  53
ATOM     53  C   UNL A   1      45.485  32.059  29.191  1.00  0.00     0.057 A 
ATOM     54  C   UNL A   1      45.576  33.075  28.234  1.00  0.00     0.134 A 
ATOM     55  C   UNL A   1      45.688  32.411  30.532  1.00  0.00     0.134 A 
ATOM     56  F   UNL A   1      45.404  32.800  26.932  1.00  0.00    -0.206 F 
ATOM     57  C   UNL A   1      45.867  34.392  28.594  1.00  0.00     0.040 A 
ATOM     58  C   UNL A   1      45.959  33.728  30.907  1.00  0.00     0.040 A 
ATOM     59  F   UNL A   1      45.610  31.486  31.500  1.00  0.00    -0.206 F 
ATOM     60  C   UNL A   1      46.053  34.723  29.936  1.00  0.00     0.006 A 
ENDBRANCH  39  53
BRANCH  40  61
ATOM     61  C   UNL A   1      42.722  22.729  26.988  1.00  0.00     0.057 A 
ATOM     62  C   UNL A   1      42.346  21.845  28.006  1.00  0.00     0.134 A 
ATOM     63  C   UNL A   1      42.682  22.254  25.672  1.00  0.00     0.134 A 
ATOM     64  F   UNL A   1      42.385  22.237  29.287  1.00  0.00    -0.206 F 
ATOM     65  C   UNL A   1      41.947  20.537  27.727  1.00  0.00     0.040 A 
ATOM     66  C   UNL A   1      42.262  20.956  25.376  1.00  0.00     0.040 A 
ATOM     67  F   UNL A   1      43.030  23.052  24.652  1.00  0.00    -0.206 F 
ATOM     68  C   UNL A   1      41.896  20.092  26.407  1.00  0.00     0.006 A 
ENDBRANCH  40  61
BRANCH  52  69
ATOM     69  C   UNL A   1      48.865  26.001  27.263  1.00  0.00     0.057 A 
ATOM     70  C   UNL A   1      49.433  26.066  25.985  1.00  0.00     0.134 A 
ATOM     71  C   UNL A   1      49.676  25.558  28.313  1.00  0.00     0.134 A 
ATOM     72  F   UNL A   1      48.701  26.472  24.935  1.00  0.00    -0.206 F 
ATOM     73  C   UNL A   1      50.759  25.694  25.759  1.00  0.00     0.040 A 
ATOM     74  C   UNL A   1      51.010  25.203  28.104  1.00  0.00     0.040 A 
ATOM     75  F   UNL A   1      49.192  25.480  29.563  1.00  0.00    -0.206 F 
ATOM     76  C   UNL A   1      51.554  25.270  26.823  1.00  0.00     0.006 A 
ENDBRANCH  52  69
ENDBRANCH  26  27
ENDBRANCH  19  21
ENDBRANCH  18  19
ENDBRANCH   1  18
TORSDOF 12
ENDMDL
