MODEL 1
REMARK VINA RESULT:     -11.5      0.000      0.000
REMARK SMILES CC(=O)N1CC[NH2+]C[C@@H]1c1ccc(C(=O)OCCOC(=O)c2ccc(-c3c4nc(c(-c5c(F)cccc5F)c5ccc([nH]5)c(-c5c(F)cccc5F)c5nc(c(-c6c(F)cccc6F)c6ccc3[nH]6)C=C5)C=C4)cc2)cc1
REMARK SMILES IDX 17 1 16 2 14 3 15 4 13 5 10 6 11 7 77 8 12 9 76 10 9 11 4 12
REMARK SMILES IDX 5 13 6 14 8 15 7 16 2 19 1 20 3 21 18 22 19 23 20 24 21 25
REMARK SMILES IDX 22 26 23 27 75 28 24 29 74 30 25 31 26 32 27 33 68 34 28 35
REMARK SMILES IDX 73 36 67 37 69 38 29 39 72 40 66 41 65 42 30 44 56 45 39 46
REMARK SMILES IDX 55 47 40 48 43 49 54 50 70 51 41 52 42 53 53 55 71 56 44 57
REMARK SMILES IDX 31 58 32 59 37 60 33 61 34 62 36 63 38 64 35 65 57 66 58 67
REMARK SMILES IDX 63 68 59 69 60 70 62 71 64 72 61 73 45 74 46 75 51 76 47 77
REMARK SMILES IDX 48 78 50 79 52 80 49 81
REMARK H PARENT 7 17 7 18 69 43 43 54
REMARK Flexibility Score: inf
ROOT
ATOM      1  C   UNL A   1      42.382  20.786  26.555  1.00  0.00     0.275 C 
ENDROOT
BRANCH   1   2
ATOM      2  O   UNL A   1      41.017  21.174  26.285  1.00  0.00    -0.458 OA
BRANCH   2   3
ATOM      3  C   UNL A   1      40.207  20.192  25.817  1.00  0.00     0.338 C 
ATOM      4  O   UNL A   1      40.493  19.016  25.657  1.00  0.00    -0.246 OA
BRANCH   3   5
ATOM      5  C   UNL A   1      38.835  20.714  25.622  1.00  0.00     0.060 A 
ATOM      6  C   UNL A   1      36.176  21.611  25.260  1.00  0.00    -0.020 A 
ATOM      7  C   UNL A   1      36.545  20.295  24.942  1.00  0.00     0.007 A 
ATOM      8  C   UNL A   1      37.195  22.488  25.683  1.00  0.00     0.007 A 
ATOM      9  C   UNL A   1      37.861  19.858  25.104  1.00  0.00     0.016 A 
ATOM     10  C   UNL A   1      38.506  22.039  25.895  1.00  0.00     0.016 A 
BRANCH   6  11
ATOM     11  C   UNL A   1      34.716  22.051  25.073  1.00  0.00     0.170 C 
ATOM     12  N   UNL A   1      34.346  23.225  25.895  1.00  0.00    -0.325 N 
ATOM     13  C   UNL A   1      34.150  22.957  27.328  1.00  0.00     0.181 C 
ATOM     14  C   UNL A   1      33.190  21.774  27.555  1.00  0.00     0.282 C 
ATOM     15  C   UNL A   1      33.674  20.920  25.358  1.00  0.00     0.290 C 
ATOM     16  N   UNL A   1      33.552  20.565  26.789  1.00  0.00    -0.343 N 
ATOM     17  H   UNL A   1      32.828  19.856  26.905  1.00  0.00     0.346 HD
ATOM     18  H   UNL A   1      34.440  20.195  27.128  1.00  0.00     0.346 HD
BRANCH  12  19
ATOM     19  C   UNL A   1      34.076  24.491  25.404  1.00  0.00     0.220 C 
ATOM     20  C   UNL A   1      34.384  24.757  23.952  1.00  0.00     0.114 C 
ATOM     21  O   UNL A   1      33.572  25.375  26.095  1.00  0.00    -0.275 OA
ENDBRANCH  12  19
ENDBRANCH   6  11
ENDBRANCH   3   5
ENDBRANCH   2   3
ENDBRANCH   1   2
BRANCH   1  22
ATOM     22  C   UNL A   1      43.347  21.484  25.596  1.00  0.00     0.275 C 
BRANCH  22  23
ATOM     23  O   UNL A   1      42.717  22.656  25.054  1.00  0.00    -0.458 OA
BRANCH  23  24
ATOM     24  C   UNL A   1      43.467  23.781  25.045  1.00  0.00     0.338 C 
ATOM     25  O   UNL A   1      44.461  24.000  24.375  1.00  0.00    -0.246 OA
BRANCH  24  26
ATOM     26  C   UNL A   1      42.894  24.769  25.986  1.00  0.00     0.060 A 
ATOM     27  C   UNL A   1      43.322  26.095  25.959  1.00  0.00     0.016 A 
ATOM     28  C   UNL A   1      42.005  24.353  26.974  1.00  0.00     0.016 A 
ATOM     29  C   UNL A   1      42.949  26.980  26.971  1.00  0.00     0.010 A 
ATOM     30  C   UNL A   1      41.546  25.270  27.929  1.00  0.00     0.010 A 
ATOM     31  C   UNL A   1      42.046  26.585  27.969  1.00  0.00    -0.014 A 
BRANCH  31  32
ATOM     32  C   UNL A   1      41.671  27.513  29.079  1.00  0.00     0.031 A 
ATOM     33  C   UNL A   1      42.495  27.555  30.344  1.00  0.00     0.074 A 
ATOM     34  C   UNL A   1      40.607  28.336  28.973  1.00  0.00     0.049 A 
ATOM     35  N   UNL A   1      42.227  28.128  31.490  1.00  0.00    -0.248 NA
ATOM     36  C   UNL A   1      43.782  26.841  30.320  1.00  0.00     0.031 C 
ATOM     37  C   UNL A   1      39.730  28.450  27.808  1.00  0.00     0.029 A 
ATOM     38  N   UNL A   1      40.090  29.247  29.864  1.00  0.00    -0.354 N 
ATOM     39  C   UNL A   1      43.266  27.774  32.345  1.00  0.00     0.074 A 
ATOM     40  C   UNL A   1      44.177  26.950  31.580  1.00  0.00     0.031 C 
ATOM     41  C   UNL A   1      38.821  29.411  28.032  1.00  0.00     0.029 A 
ATOM     42  C   UNL A   1      38.989  29.918  29.389  1.00  0.00     0.049 A 
ATOM     43  H   UNL A   1      40.473  29.404  30.757  1.00  0.00     0.167 HD
ATOM     44  C   UNL A   1      43.443  28.102  33.647  1.00  0.00     0.037 A 
ATOM     45  C   UNL A   1      38.176  30.811  29.986  1.00  0.00     0.037 A 
ATOM     46  C   UNL A   1      42.591  28.995  34.388  1.00  0.00     0.049 A 
ATOM     47  C   UNL A   1      38.401  31.178  31.423  1.00  0.00     0.074 A 
ATOM     48  C   UNL A   1      42.709  29.407  35.706  1.00  0.00     0.029 A 
ATOM     49  N   UNL A   1      41.479  29.637  33.869  1.00  0.00    -0.354 N 
ATOM     50  N   UNL A   1      39.339  30.770  32.242  1.00  0.00    -0.248 NA
ATOM     51  C   UNL A   1      37.435  32.107  32.030  1.00  0.00     0.031 C 
ATOM     52  C   UNL A   1      41.657  30.285  35.988  1.00  0.00     0.029 A 
ATOM     53  C   UNL A   1      40.901  30.441  34.838  1.00  0.00     0.049 A 
ATOM     54  H   UNL A   1      41.149  29.538  32.946  1.00  0.00     0.167 HD
ATOM     55  C   UNL A   1      39.075  31.385  33.458  1.00  0.00     0.074 A 
ATOM     56  C   UNL A   1      37.904  32.216  33.264  1.00  0.00     0.031 C 
ATOM     57  C   UNL A   1      39.736  31.261  34.634  1.00  0.00     0.037 A 
BRANCH  44  58
ATOM     58  C   UNL A   1      44.591  27.463  34.371  1.00  0.00     0.057 A 
ATOM     59  C   UNL A   1      44.483  26.212  34.988  1.00  0.00     0.134 A 
ATOM     60  C   UNL A   1      45.836  28.105  34.420  1.00  0.00     0.134 A 
ATOM     61  F   UNL A   1      43.315  25.553  34.989  1.00  0.00    -0.206 F 
ATOM     62  C   UNL A   1      45.569  25.630  35.648  1.00  0.00     0.040 A 
ATOM     63  C   UNL A   1      46.933  27.524  35.056  1.00  0.00     0.040 A 
ATOM     64  F   UNL A   1      46.007  29.304  33.842  1.00  0.00    -0.206 F 
ATOM     65  C   UNL A   1      46.799  26.284  35.678  1.00  0.00     0.006 A 
ENDBRANCH  44  58
BRANCH  45  66
ATOM     66  C   UNL A   1      37.040  31.391  29.227  1.00  0.00     0.057 A 
ATOM     67  C   UNL A   1      37.099  32.697  28.727  1.00  0.00     0.134 A 
ATOM     68  C   UNL A   1      35.881  30.650  28.966  1.00  0.00     0.134 A 
ATOM     69  F   UNL A   1      38.173  33.463  28.966  1.00  0.00    -0.206 F 
ATOM     70  C   UNL A   1      36.045  33.245  27.994  1.00  0.00     0.040 A 
ATOM     71  C   UNL A   1      34.831  31.177  28.215  1.00  0.00     0.040 A 
ATOM     72  F   UNL A   1      35.765  29.393  29.420  1.00  0.00    -0.206 F 
ATOM     73  C   UNL A   1      34.911  32.480  27.729  1.00  0.00     0.006 A 
ENDBRANCH  45  66
BRANCH  57  74
ATOM     74  C   UNL A   1      39.215  32.050  35.794  1.00  0.00     0.057 A 
ATOM     75  C   UNL A   1      39.620  33.373  36.019  1.00  0.00     0.134 A 
ATOM     76  C   UNL A   1      38.285  31.494  36.680  1.00  0.00     0.134 A 
ATOM     77  F   UNL A   1      40.520  33.955  35.212  1.00  0.00    -0.206 F 
ATOM     78  C   UNL A   1      39.127  34.109  37.096  1.00  0.00     0.040 A 
ATOM     79  C   UNL A   1      37.772  32.228  37.751  1.00  0.00     0.040 A 
ATOM     80  F   UNL A   1      37.856  30.234  36.515  1.00  0.00    -0.206 F 
ATOM     81  C   UNL A   1      38.196  33.539  37.963  1.00  0.00     0.006 A 
ENDBRANCH  57  74
ENDBRANCH  31  32
ENDBRANCH  24  26
ENDBRANCH  23  24
ENDBRANCH  22  23
ENDBRANCH   1  22
TORSDOF 13
ENDMDL
MODEL 2
REMARK VINA RESULT:     -11.5      4.563     10.103
REMARK SMILES CC(=O)N1CC[NH2+]C[C@@H]1c1ccc(C(=O)OCCOC(=O)c2ccc(-c3c4nc(c(-c5c(F)cccc5F)c5ccc([nH]5)c(-c5c(F)cccc5F)c5nc(c(-c6c(F)cccc6F)c6ccc3[nH]6)C=C5)C=C4)cc2)cc1
REMARK SMILES IDX 17 1 16 2 14 3 15 4 13 5 10 6 11 7 77 8 12 9 76 10 9 11 4 12
REMARK SMILES IDX 5 13 6 14 8 15 7 16 2 19 1 20 3 21 18 22 19 23 20 24 21 25
REMARK SMILES IDX 22 26 23 27 75 28 24 29 74 30 25 31 26 32 27 33 68 34 28 35
REMARK SMILES IDX 73 36 67 37 69 38 29 39 72 40 66 41 65 42 30 44 56 45 39 46
REMARK SMILES IDX 55 47 40 48 43 49 54 50 70 51 41 52 42 53 53 55 71 56 44 57
REMARK SMILES IDX 31 58 32 59 37 60 33 61 34 62 36 63 38 64 35 65 57 66 58 67
REMARK SMILES IDX 63 68 59 69 60 70 62 71 64 72 61 73 45 74 46 75 51 76 47 77
REMARK SMILES IDX 48 78 50 79 52 80 49 81
REMARK H PARENT 7 17 7 18 69 43 43 54
REMARK Flexibility Score: inf
ROOT
ATOM      1  C   UNL A   1      34.214  33.905  29.674  1.00  0.00     0.275 C 
ENDROOT
BRANCH   1   2
ATOM      2  O   UNL A   1      33.785  32.678  29.045  1.00  0.00    -0.458 OA
BRANCH   2   3
ATOM      3  C   UNL A   1      34.523  32.270  27.983  1.00  0.00     0.338 C 
ATOM      4  O   UNL A   1      35.513  32.816  27.523  1.00  0.00    -0.246 OA
BRANCH   3   5
ATOM      5  C   UNL A   1      34.032  30.962  27.494  1.00  0.00     0.060 A 
ATOM      6  C   UNL A   1      33.012  28.511  26.513  1.00  0.00    -0.020 A 
ATOM      7  C   UNL A   1      32.169  29.613  26.725  1.00  0.00     0.007 A 
ATOM      8  C   UNL A   1      34.364  28.647  26.886  1.00  0.00     0.007 A 
ATOM      9  C   UNL A   1      32.670  30.816  27.226  1.00  0.00     0.016 A 
ATOM     10  C   UNL A   1      34.880  29.868  27.341  1.00  0.00     0.016 A 
BRANCH   6  11
ATOM     11  C   UNL A   1      32.423  27.208  25.954  1.00  0.00     0.170 C 
ATOM     12  N   UNL A   1      33.370  26.451  25.105  1.00  0.00    -0.325 N 
ATOM     13  C   UNL A   1      33.593  27.003  23.759  1.00  0.00     0.181 C 
ATOM     14  C   UNL A   1      32.261  27.272  23.032  1.00  0.00     0.282 C 
ATOM     15  C   UNL A   1      31.104  27.409  25.137  1.00  0.00     0.290 C 
ATOM     16  N   UNL A   1      31.305  28.067  23.828  1.00  0.00    -0.343 N 
ATOM     17  H   UNL A   1      30.415  28.126  23.334  1.00  0.00     0.346 HD
ATOM     18  H   UNL A   1      31.672  29.009  23.969  1.00  0.00     0.346 HD
BRANCH  12  19
ATOM     19  C   UNL A   1      33.956  25.242  25.442  1.00  0.00     0.220 C 
ATOM     20  C   UNL A   1      33.194  24.334  26.375  1.00  0.00     0.114 C 
ATOM     21  O   UNL A   1      35.039  24.882  24.984  1.00  0.00    -0.275 OA
ENDBRANCH  12  19
ENDBRANCH   6  11
ENDBRANCH   3   5
ENDBRANCH   2   3
ENDBRANCH   1   2
BRANCH   1  22
ATOM     22  C   UNL A   1      34.384  33.715  31.182  1.00  0.00     0.275 C 
BRANCH  22  23
ATOM     23  O   UNL A   1      34.619  32.325  31.464  1.00  0.00    -0.458 OA
BRANCH  23  24
ATOM     24  C   UNL A   1      35.592  32.059  32.365  1.00  0.00     0.338 C 
ATOM     25  O   UNL A   1      35.594  32.338  33.551  1.00  0.00    -0.246 OA
BRANCH  24  26
ATOM     26  C   UNL A   1      36.702  31.340  31.702  1.00  0.00     0.060 A 
ATOM     27  C   UNL A   1      37.563  30.538  32.448  1.00  0.00     0.016 A 
ATOM     28  C   UNL A   1      36.954  31.548  30.348  1.00  0.00     0.016 A 
ATOM     29  C   UNL A   1      38.729  30.029  31.875  1.00  0.00     0.010 A 
ATOM     30  C   UNL A   1      38.068  30.947  29.748  1.00  0.00     0.010 A 
ATOM     31  C   UNL A   1      38.997  30.217  30.512  1.00  0.00    -0.014 A 
BRANCH  31  32
ATOM     32  C   UNL A   1      40.262  29.709  29.900  1.00  0.00     0.031 A 
ATOM     33  C   UNL A   1      41.468  30.612  29.790  1.00  0.00     0.074 A 
ATOM     34  C   UNL A   1      40.360  28.441  29.447  1.00  0.00     0.049 A 
ATOM     35  N   UNL A   1      42.577  30.437  29.116  1.00  0.00    -0.248 NA
ATOM     36  C   UNL A   1      41.408  31.888  30.519  1.00  0.00     0.031 C 
ATOM     37  C   UNL A   1      39.306  27.429  29.511  1.00  0.00     0.029 A 
ATOM     38  N   UNL A   1      41.411  27.785  28.849  1.00  0.00    -0.354 N 
ATOM     39  C   UNL A   1      43.307  31.610  29.272  1.00  0.00     0.074 A 
ATOM     40  C   UNL A   1      42.521  32.484  30.116  1.00  0.00     0.031 C 
ATOM     41  C   UNL A   1      39.777  26.269  29.028  1.00  0.00     0.029 A 
ATOM     42  C   UNL A   1      41.134  26.476  28.533  1.00  0.00     0.049 A 
ATOM     43  H   UNL A   1      42.279  28.211  28.667  1.00  0.00     0.167 HD
ATOM     44  C   UNL A   1      44.517  31.933  28.756  1.00  0.00     0.037 A 
ATOM     45  C   UNL A   1      41.867  25.553  27.881  1.00  0.00     0.037 A 
ATOM     46  C   UNL A   1      45.345  31.037  27.991  1.00  0.00     0.049 A 
ATOM     47  C   UNL A   1      43.216  25.923  27.336  1.00  0.00     0.074 A 
ATOM     48  C   UNL A   1      46.599  31.268  27.451  1.00  0.00     0.029 A 
ATOM     49  N   UNL A   1      45.014  29.727  27.683  1.00  0.00    -0.354 N 
ATOM     50  N   UNL A   1      43.855  27.063  27.420  1.00  0.00    -0.248 NA
ATOM     51  C   UNL A   1      43.931  24.885  26.577  1.00  0.00     0.031 C 
ATOM     52  C   UNL A   1      47.019  30.103  26.800  1.00  0.00     0.029 A 
ATOM     53  C   UNL A   1      46.039  29.139  26.960  1.00  0.00     0.049 A 
ATOM     54  H   UNL A   1      44.175  29.280  27.941  1.00  0.00     0.167 HD
ATOM     55  C   UNL A   1      45.041  26.884  26.723  1.00  0.00     0.074 A 
ATOM     56  C   UNL A   1      45.048  25.517  26.245  1.00  0.00     0.031 C 
ATOM     57  C   UNL A   1      46.032  27.779  26.488  1.00  0.00     0.037 A 
BRANCH  44  58
ATOM     58  C   UNL A   1      45.010  33.332  28.973  1.00  0.00     0.057 A 
ATOM     59  C   UNL A   1      45.837  33.676  30.049  1.00  0.00     0.134 A 
ATOM     60  C   UNL A   1      44.674  34.346  28.065  1.00  0.00     0.134 A 
ATOM     61  F   UNL A   1      46.183  32.755  30.960  1.00  0.00    -0.206 F 
ATOM     62  C   UNL A   1      46.295  34.984  30.227  1.00  0.00     0.040 A 
ATOM     63  C   UNL A   1      45.142  35.651  28.220  1.00  0.00     0.040 A 
ATOM     64  F   UNL A   1      43.890  34.081  27.009  1.00  0.00    -0.206 F 
ATOM     65  C   UNL A   1      45.951  35.974  29.307  1.00  0.00     0.006 A 
ENDBRANCH  44  58
BRANCH  45  66
ATOM     66  C   UNL A   1      41.316  24.191  27.674  1.00  0.00     0.057 A 
ATOM     67  C   UNL A   1      40.332  23.951  26.708  1.00  0.00     0.134 A 
ATOM     68  C   UNL A   1      41.769  23.097  28.421  1.00  0.00     0.134 A 
ATOM     69  F   UNL A   1      39.841  24.964  25.979  1.00  0.00    -0.206 F 
ATOM     70  C   UNL A   1      39.822  22.670  26.490  1.00  0.00     0.040 A 
ATOM     71  C   UNL A   1      41.285  21.809  28.198  1.00  0.00     0.040 A 
ATOM     72  F   UNL A   1      42.710  23.265  29.362  1.00  0.00    -0.206 F 
ATOM     73  C   UNL A   1      40.305  21.594  27.231  1.00  0.00     0.006 A 
ENDBRANCH  45  66
BRANCH  57  74
ATOM     74  C   UNL A   1      47.205  27.302  25.691  1.00  0.00     0.057 A 
ATOM     75  C   UNL A   1      47.297  27.536  24.313  1.00  0.00     0.134 A 
ATOM     76  C   UNL A   1      48.264  26.626  26.308  1.00  0.00     0.134 A 
ATOM     77  F   UNL A   1      46.307  28.167  23.663  1.00  0.00    -0.206 F 
ATOM     78  C   UNL A   1      48.396  27.099  23.573  1.00  0.00     0.040 A 
ATOM     79  C   UNL A   1      49.376  26.198  25.581  1.00  0.00     0.040 A 
ATOM     80  F   UNL A   1      48.236  26.375  27.625  1.00  0.00    -0.206 F 
ATOM     81  C   UNL A   1      49.442  26.431  24.208  1.00  0.00     0.006 A 
ENDBRANCH  57  74
ENDBRANCH  31  32
ENDBRANCH  24  26
ENDBRANCH  23  24
ENDBRANCH  22  23
ENDBRANCH   1  22
TORSDOF 13
ENDMDL
MODEL 3
REMARK VINA RESULT:     -11.4      0.744      1.543
REMARK SMILES CC(=O)N1CC[NH2+]C[C@@H]1c1ccc(C(=O)OCCOC(=O)c2ccc(-c3c4nc(c(-c5c(F)cccc5F)c5ccc([nH]5)c(-c5c(F)cccc5F)c5nc(c(-c6c(F)cccc6F)c6ccc3[nH]6)C=C5)C=C4)cc2)cc1
REMARK SMILES IDX 17 1 16 2 14 3 15 4 13 5 10 6 11 7 77 8 12 9 76 10 9 11 4 12
REMARK SMILES IDX 5 13 6 14 8 15 7 16 2 19 1 20 3 21 18 22 19 23 20 24 21 25
REMARK SMILES IDX 22 26 23 27 75 28 24 29 74 30 25 31 26 32 27 33 68 34 28 35
REMARK SMILES IDX 73 36 67 37 69 38 29 39 72 40 66 41 65 42 30 44 56 45 39 46
REMARK SMILES IDX 55 47 40 48 43 49 54 50 70 51 41 52 42 53 53 55 71 56 44 57
REMARK SMILES IDX 31 58 32 59 37 60 33 61 34 62 36 63 38 64 35 65 57 66 58 67
REMARK SMILES IDX 63 68 59 69 60 70 62 71 64 72 61 73 45 74 46 75 51 76 47 77
REMARK SMILES IDX 48 78 50 79 52 80 49 81
REMARK H PARENT 7 17 7 18 69 43 43 54
REMARK Flexibility Score: inf
ROOT
ATOM      1  C   UNL A   1      42.967  19.839  25.751  1.00  0.00     0.275 C 
ENDROOT
BRANCH   1   2
ATOM      2  O   UNL A   1      41.609  20.202  25.417  1.00  0.00    -0.458 OA
BRANCH   2   3
ATOM      3  C   UNL A   1      40.733  20.221  26.453  1.00  0.00     0.338 C 
ATOM      4  O   UNL A   1      40.988  20.055  27.634  1.00  0.00    -0.246 OA
BRANCH   3   5
ATOM      5  C   UNL A   1      39.385  20.601  25.971  1.00  0.00     0.060 A 
ATOM      6  C   UNL A   1      36.779  21.225  25.063  1.00  0.00    -0.020 A 
ATOM      7  C   UNL A   1      37.295  19.925  24.944  1.00  0.00     0.007 A 
ATOM      8  C   UNL A   1      37.637  22.220  25.571  1.00  0.00     0.007 A 
ATOM      9  C   UNL A   1      38.587  19.622  25.376  1.00  0.00     0.016 A 
ATOM     10  C   UNL A   1      38.916  21.909  26.053  1.00  0.00     0.016 A 
BRANCH   6  11
ATOM     11  C   UNL A   1      35.350  21.516  24.582  1.00  0.00     0.170 C 
ATOM     12  N   UNL A   1      34.897  22.892  24.883  1.00  0.00    -0.325 N 
ATOM     13  C   UNL A   1      34.545  23.150  26.288  1.00  0.00     0.181 C 
ATOM     14  C   UNL A   1      33.562  22.093  26.826  1.00  0.00     0.282 C 
ATOM     15  C   UNL A   1      34.278  20.525  25.147  1.00  0.00     0.290 C 
ATOM     16  N   UNL A   1      34.001  20.704  26.589  1.00  0.00    -0.343 N 
ATOM     17  H   UNL A   1      33.266  20.058  26.879  1.00  0.00     0.346 HD
ATOM     18  H   UNL A   1      34.846  20.512  27.129  1.00  0.00     0.346 HD
BRANCH  12  19
ATOM     19  C   UNL A   1      34.686  23.887  23.943  1.00  0.00     0.220 C 
ATOM     20  C   UNL A   1      34.162  25.213  24.436  1.00  0.00     0.114 C 
ATOM     21  O   UNL A   1      34.941  23.734  22.749  1.00  0.00    -0.275 OA
ENDBRANCH  12  19
ENDBRANCH   6  11
ENDBRANCH   3   5
ENDBRANCH   2   3
ENDBRANCH   1   2
BRANCH   1  22
ATOM     22  C   UNL A   1      43.929  20.989  25.452  1.00  0.00     0.275 C 
BRANCH  22  23
ATOM     23  O   UNL A   1      43.551  22.140  26.226  1.00  0.00    -0.458 OA
BRANCH  23  24
ATOM     24  C   UNL A   1      43.443  23.303  25.544  1.00  0.00     0.338 C 
ATOM     25  O   UNL A   1      43.734  23.504  24.377  1.00  0.00    -0.246 OA
BRANCH  24  26
ATOM     26  C   UNL A   1      42.887  24.350  26.429  1.00  0.00     0.060 A 
ATOM     27  C   UNL A   1      43.364  25.657  26.357  1.00  0.00     0.016 A 
ATOM     28  C   UNL A   1      41.960  24.009  27.411  1.00  0.00     0.016 A 
ATOM     29  C   UNL A   1      43.002  26.597  27.322  1.00  0.00     0.010 A 
ATOM     30  C   UNL A   1      41.514  24.982  28.315  1.00  0.00     0.010 A 
ATOM     31  C   UNL A   1      42.062  26.278  28.313  1.00  0.00    -0.014 A 
BRANCH  31  32
ATOM     32  C   UNL A   1      41.698  27.266  29.374  1.00  0.00     0.031 A 
ATOM     33  C   UNL A   1      42.499  27.337  30.652  1.00  0.00     0.074 A 
ATOM     34  C   UNL A   1      40.664  28.117  29.211  1.00  0.00     0.049 A 
ATOM     35  N   UNL A   1      42.228  27.968  31.767  1.00  0.00    -0.248 NA
ATOM     36  C   UNL A   1      43.761  26.582  30.685  1.00  0.00     0.031 C 
ATOM     37  C   UNL A   1      39.812  28.208  28.025  1.00  0.00     0.029 A 
ATOM     38  N   UNL A   1      40.160  29.082  30.051  1.00  0.00    -0.354 N 
ATOM     39  C   UNL A   1      43.239  27.619  32.656  1.00  0.00     0.074 A 
ATOM     40  C   UNL A   1      44.136  26.733  31.947  1.00  0.00     0.031 C 
ATOM     41  C   UNL A   1      38.931  29.207  28.188  1.00  0.00     0.029 A 
ATOM     42  C   UNL A   1      39.090  29.767  29.525  1.00  0.00     0.049 A 
ATOM     43  H   UNL A   1      40.531  29.266  30.944  1.00  0.00     0.167 HD
ATOM     44  C   UNL A   1      43.402  27.998  33.947  1.00  0.00     0.037 A 
ATOM     45  C   UNL A   1      38.296  30.711  30.067  1.00  0.00     0.037 A 
ATOM     46  C   UNL A   1      42.566  28.949  34.631  1.00  0.00     0.049 A 
ATOM     47  C   UNL A   1      38.507  31.134  31.491  1.00  0.00     0.074 A 
ATOM     48  C   UNL A   1      42.673  29.415  35.932  1.00  0.00     0.029 A 
ATOM     49  N   UNL A   1      41.486  29.604  34.062  1.00  0.00    -0.354 N 
ATOM     50  N   UNL A   1      39.415  30.732  32.345  1.00  0.00    -0.248 NA
ATOM     51  C   UNL A   1      37.560  32.119  32.037  1.00  0.00     0.031 C 
ATOM     52  C   UNL A   1      41.645  30.338  36.154  1.00  0.00     0.029 A 
ATOM     53  C   UNL A   1      40.917  30.467  34.984  1.00  0.00     0.049 A 
ATOM     54  H   UNL A   1      41.170  29.474  33.138  1.00  0.00     0.167 HD
ATOM     55  C   UNL A   1      39.149  31.408  33.527  1.00  0.00     0.074 A 
ATOM     56  C   UNL A   1      38.010  32.267  33.275  1.00  0.00     0.031 C 
ATOM     57  C   UNL A   1      39.783  31.314  34.721  1.00  0.00     0.037 A 
BRANCH  44  58
ATOM     58  C   UNL A   1      44.514  27.355  34.720  1.00  0.00     0.057 A 
ATOM     59  C   UNL A   1      44.340  26.162  35.432  1.00  0.00     0.134 A 
ATOM     60  C   UNL A   1      45.793  27.930  34.724  1.00  0.00     0.134 A 
ATOM     61  F   UNL A   1      43.138  25.570  35.479  1.00  0.00    -0.206 F 
ATOM     62  C   UNL A   1      45.394  25.574  36.137  1.00  0.00     0.040 A 
ATOM     63  C   UNL A   1      46.858  27.341  35.406  1.00  0.00     0.040 A 
ATOM     64  F   UNL A   1      46.027  29.070  34.056  1.00  0.00    -0.206 F 
ATOM     65  C   UNL A   1      46.658  26.162  36.120  1.00  0.00     0.006 A 
ENDBRANCH  44  58
BRANCH  45  66
ATOM     66  C   UNL A   1      37.195  31.293  29.260  1.00  0.00     0.057 A 
ATOM     67  C   UNL A   1      36.018  30.574  29.022  1.00  0.00     0.134 A 
ATOM     68  C   UNL A   1      37.283  32.584  28.726  1.00  0.00     0.134 A 
ATOM     69  F   UNL A   1      35.886  29.323  29.487  1.00  0.00    -0.206 F 
ATOM     70  C   UNL A   1      34.968  31.120  28.282  1.00  0.00     0.040 A 
ATOM     71  C   UNL A   1      36.232  33.151  28.006  1.00  0.00     0.040 A 
ATOM     72  F   UNL A   1      38.387  33.322  28.920  1.00  0.00    -0.206 F 
ATOM     73  C   UNL A   1      35.070  32.415  27.780  1.00  0.00     0.006 A 
ENDBRANCH  45  66
BRANCH  57  74
ATOM     74  C   UNL A   1      39.267  32.170  35.835  1.00  0.00     0.057 A 
ATOM     75  C   UNL A   1      38.298  31.698  36.731  1.00  0.00     0.134 A 
ATOM     76  C   UNL A   1      39.760  33.465  36.033  1.00  0.00     0.134 A 
ATOM     77  F   UNL A   1      37.777  30.470  36.584  1.00  0.00    -0.206 F 
ATOM     78  C   UNL A   1      37.824  32.494  37.774  1.00  0.00     0.040 A 
ATOM     79  C   UNL A   1      39.306  34.263  37.084  1.00  0.00     0.040 A 
ATOM     80  F   UNL A   1      40.692  33.971  35.212  1.00  0.00    -0.206 F 
ATOM     81  C   UNL A   1      38.332  33.779  37.956  1.00  0.00     0.006 A 
ENDBRANCH  57  74
ENDBRANCH  31  32
ENDBRANCH  24  26
ENDBRANCH  23  24
ENDBRANCH  22  23
ENDBRANCH   1  22
TORSDOF 13
ENDMDL
