MODEL 1
REMARK VINA RESULT:     -13.7      0.000      0.000
REMARK SMILES Cc1ccc(S(=O)(=O)n2cc(C(=O)C(=O)N[C@@H](Cc3c[nH]c4ccccc34)C(=O)OCCOC(=O)c3ccc(-c4c5nc(c(-c6c(F)cccc6F)c6ccc([nH]6)c(-c6c(F)cccc6F)c6nc(c(-c7c(F)cccc7F)c7ccc4[nH]7)C=C6)C=C5)cc3)c3ccccc32)cc1
REMARK SMILES IDX 30 1 28 2 29 3 17 4 16 5 14 6 15 7 12 9 13 10 11 11 9 12
REMARK SMILES IDX 10 13 95 14 90 15 94 16 91 17 93 18 92 19 6 20 7 21 8 22
REMARK SMILES IDX 5 23 1 24 2 25 3 26 97 27 4 28 96 29 18 30 19 31 20 32 27 33
REMARK SMILES IDX 21 34 22 35 26 36 23 38 25 39 24 40 31 41 32 42 33 43 34 44
REMARK SMILES IDX 35 45 36 46 37 47 89 48 38 49 88 50 39 51 40 52 41 53 82 54
REMARK SMILES IDX 42 55 87 56 81 57 83 58 43 59 86 60 80 61 79 62 44 64 70 65
REMARK SMILES IDX 53 66 69 67 54 68 57 69 68 70 84 71 55 72 56 73 67 75 85 76
REMARK SMILES IDX 58 77 45 78 46 79 51 80 47 81 48 82 50 83 52 84 49 85 71 86
REMARK SMILES IDX 72 87 77 88 73 89 74 90 76 91 78 92 75 93 59 94 60 95 65 96
REMARK SMILES IDX 61 97 62 98 64 99 66 100 63 101
REMARK H PARENT 16 8 21 37 83 63 57 74
REMARK Flexibility Score: inf
ROOT
ATOM      1  O   UNL A   1      34.735  23.063  26.779  1.00  0.00    -0.461 OA
ENDROOT
BRANCH   1   2
ATOM      2  C   UNL A   1      33.384  22.944  26.642  1.00  0.00     0.329 C 
ATOM      3  O   UNL A   1      32.604  22.956  27.592  1.00  0.00    -0.250 OA
BRANCH   2   4
ATOM      4  C   UNL A   1      32.937  22.959  25.170  1.00  0.00     0.197 C 
BRANCH   4   5
ATOM      5  N   UNL A   1      34.078  22.894  24.211  1.00  0.00    -0.335 N 
ATOM      6  C   UNL A   1      34.434  23.697  23.127  1.00  0.00     0.293 C 
ATOM      7  O   UNL A   1      35.459  23.454  22.496  1.00  0.00    -0.265 OA
ATOM      8  H   UNL A   1      34.695  22.144  24.373  1.00  0.00     0.164 HD
BRANCH   6   9
ATOM      9  C   UNL A   1      33.546  24.870  22.693  1.00  0.00     0.252 C 
ATOM     10  O   UNL A   1      33.253  24.898  21.495  1.00  0.00    -0.283 OA
BRANCH   9  11
ATOM     11  C   UNL A   1      33.101  26.015  23.515  1.00  0.00     0.054 A 
ATOM     12  N   UNL A   1      32.717  28.078  24.332  1.00  0.00    -0.240 N 
ATOM     13  C   UNL A   1      33.714  27.108  24.151  1.00  0.00     0.117 A 
ATOM     14  C   UNL A   1      31.528  27.572  23.781  1.00  0.00     0.065 A 
ATOM     15  C   UNL A   1      31.706  26.203  23.750  1.00  0.00     0.012 A 
ATOM     16  C   UNL A   1      30.254  28.151  23.614  1.00  0.00     0.028 A 
ATOM     17  C   UNL A   1      30.569  25.369  23.797  1.00  0.00     0.011 A 
ATOM     18  C   UNL A   1      29.146  27.318  23.736  1.00  0.00     0.002 A 
ATOM     19  C   UNL A   1      29.301  25.946  23.883  1.00  0.00     0.001 A 
BRANCH  12  20
ATOM     20  S   UNL A   1      32.357  29.104  25.674  1.00  0.00     0.268 S 
ATOM     21  O   UNL A   1      31.690  28.197  26.596  1.00  0.00    -0.201 OA
ATOM     22  O   UNL A   1      31.618  30.170  25.004  1.00  0.00    -0.201 OA
BRANCH  20  23
ATOM     23  C   UNL A   1      33.384  30.069  26.709  1.00  0.00     0.088 A 
ATOM     24  C   UNL A   1      36.256  31.321  29.677  1.00  0.00     0.044 C 
ATOM     25  C   UNL A   1      35.279  30.952  28.599  1.00  0.00    -0.051 A 
ATOM     26  C   UNL A   1      35.441  29.708  28.011  1.00  0.00     0.005 A 
ATOM     27  C   UNL A   1      34.191  31.764  28.201  1.00  0.00     0.005 A 
ATOM     28  C   UNL A   1      34.518  29.291  27.075  1.00  0.00     0.022 A 
ATOM     29  C   UNL A   1      33.226  31.327  27.254  1.00  0.00     0.022 A 
ENDBRANCH  20  23
ENDBRANCH  12  20
ENDBRANCH   9  11
ENDBRANCH   6   9
ENDBRANCH   4   5
BRANCH   4  30
ATOM     30  C   UNL A   1      31.832  21.896  24.929  1.00  0.00     0.074 C 
BRANCH  30  31
ATOM     31  C   UNL A   1      32.170  20.967  23.801  1.00  0.00    -0.020 A 
ATOM     32  C   UNL A   1      31.779  21.093  22.481  1.00  0.00     0.087 A 
ATOM     33  C   UNL A   1      32.740  19.672  23.929  1.00  0.00     0.003 A 
ATOM     34  N   UNL A   1      31.990  19.904  21.842  1.00  0.00    -0.361 N 
ATOM     35  C   UNL A   1      32.510  18.996  22.730  1.00  0.00     0.046 A 
ATOM     36  C   UNL A   1      33.316  18.980  25.007  1.00  0.00     0.010 A 
ATOM     37  H   UNL A   1      31.800  19.726  20.893  1.00  0.00     0.166 HD
ATOM     38  C   UNL A   1      32.758  17.632  22.579  1.00  0.00     0.026 A 
ATOM     39  C   UNL A   1      33.569  17.617  24.875  1.00  0.00     0.001 A 
ATOM     40  C   UNL A   1      33.275  16.951  23.685  1.00  0.00     0.002 A 
ENDBRANCH  30  31
ENDBRANCH   4  30
ENDBRANCH   2   4
ENDBRANCH   1   2
BRANCH   1  41
ATOM     41  C   UNL A   1      35.423  21.813  26.872  1.00  0.00     0.274 C 
BRANCH  41  42
ATOM     42  C   UNL A   1      36.383  21.603  25.697  1.00  0.00     0.275 C 
BRANCH  42  43
ATOM     43  O   UNL A   1      37.606  22.399  25.576  1.00  0.00    -0.458 OA
BRANCH  43  44
ATOM     44  C   UNL A   1      38.844  22.208  26.096  1.00  0.00     0.338 C 
ATOM     45  O   UNL A   1      39.465  21.171  25.911  1.00  0.00    -0.246 OA
BRANCH  44  46
ATOM     46  C   UNL A   1      39.425  23.280  26.930  1.00  0.00     0.060 A 
ATOM     47  C   UNL A   1      40.604  23.048  27.669  1.00  0.00     0.016 A 
ATOM     48  C   UNL A   1      38.873  24.545  26.880  1.00  0.00     0.016 A 
ATOM     49  C   UNL A   1      41.335  24.122  28.201  1.00  0.00     0.010 A 
ATOM     50  C   UNL A   1      39.653  25.602  27.282  1.00  0.00     0.010 A 
ATOM     51  C   UNL A   1      40.882  25.416  27.953  1.00  0.00    -0.014 A 
BRANCH  51  52
ATOM     52  C   UNL A   1      41.438  26.681  28.446  1.00  0.00     0.031 A 
ATOM     53  C   UNL A   1      40.634  27.871  28.824  1.00  0.00     0.074 A 
ATOM     54  C   UNL A   1      42.730  26.535  28.808  1.00  0.00     0.049 A 
ATOM     55  N   UNL A   1      40.759  28.508  29.949  1.00  0.00    -0.248 NA
ATOM     56  C   UNL A   1      39.627  28.461  27.934  1.00  0.00     0.031 C 
ATOM     57  C   UNL A   1      43.579  27.336  29.661  1.00  0.00     0.029 A 
ATOM     58  N   UNL A   1      43.594  25.554  28.303  1.00  0.00    -0.354 N 
ATOM     59  C   UNL A   1      39.970  29.645  29.892  1.00  0.00     0.074 A 
ATOM     60  C   UNL A   1      39.229  29.531  28.639  1.00  0.00     0.031 C 
ATOM     61  C   UNL A   1      44.864  27.039  29.383  1.00  0.00     0.029 A 
ATOM     62  C   UNL A   1      44.860  26.132  28.239  1.00  0.00     0.049 A 
ATOM     63  H   UNL A   1      43.353  24.635  28.045  1.00  0.00     0.167 HD
ATOM     64  C   UNL A   1      40.458  30.855  30.296  1.00  0.00     0.037 A 
ATOM     65  C   UNL A   1      45.352  26.406  26.994  1.00  0.00     0.037 A 
ATOM     66  C   UNL A   1      41.890  30.918  30.167  1.00  0.00     0.049 A 
ATOM     67  C   UNL A   1      45.448  27.895  26.815  1.00  0.00     0.074 A 
ATOM     68  C   UNL A   1      42.943  30.594  30.997  1.00  0.00     0.029 A 
ATOM     69  N   UNL A   1      42.410  31.157  28.909  1.00  0.00    -0.354 N 
ATOM     70  N   UNL A   1      44.578  28.754  27.280  1.00  0.00    -0.248 NA
ATOM     71  C   UNL A   1      46.625  28.520  26.227  1.00  0.00     0.031 C 
ATOM     72  C   UNL A   1      44.114  30.568  30.196  1.00  0.00     0.029 A 
ATOM     73  C   UNL A   1      43.761  30.906  28.898  1.00  0.00     0.049 A 
ATOM     74  H   UNL A   1      41.887  31.463  28.132  1.00  0.00     0.167 HD
ATOM     75  C   UNL A   1      45.111  30.011  27.156  1.00  0.00     0.074 A 
ATOM     76  C   UNL A   1      46.371  29.817  26.461  1.00  0.00     0.031 C 
ATOM     77  C   UNL A   1      44.550  31.127  27.700  1.00  0.00     0.037 A 
BRANCH  64  78
ATOM     78  C   UNL A   1      39.634  31.792  31.146  1.00  0.00     0.057 A 
ATOM     79  C   UNL A   1      39.181  33.022  30.626  1.00  0.00     0.134 A 
ATOM     80  C   UNL A   1      39.328  31.570  32.500  1.00  0.00     0.134 A 
ATOM     81  F   UNL A   1      39.374  33.357  29.343  1.00  0.00    -0.206 F 
ATOM     82  C   UNL A   1      38.528  33.987  31.406  1.00  0.00     0.040 A 
ATOM     83  C   UNL A   1      38.658  32.522  33.288  1.00  0.00     0.040 A 
ATOM     84  F   UNL A   1      39.674  30.431  33.115  1.00  0.00    -0.206 F 
ATOM     85  C   UNL A   1      38.272  33.743  32.746  1.00  0.00     0.006 A 
ENDBRANCH  64  78
BRANCH  65  86
ATOM     86  C   UNL A   1      44.894  25.410  25.966  1.00  0.00     0.057 A 
ATOM     87  C   UNL A   1      45.583  24.179  25.892  1.00  0.00     0.134 A 
ATOM     88  C   UNL A   1      43.627  25.449  25.371  1.00  0.00     0.134 A 
ATOM     89  F   UNL A   1      46.803  24.059  26.442  1.00  0.00    -0.206 F 
ATOM     90  C   UNL A   1      44.992  23.016  25.386  1.00  0.00     0.040 A 
ATOM     91  C   UNL A   1      43.037  24.293  24.832  1.00  0.00     0.040 A 
ATOM     92  F   UNL A   1      42.896  26.571  25.387  1.00  0.00    -0.206 F 
ATOM     93  C   UNL A   1      43.699  23.066  24.880  1.00  0.00     0.006 A 
ENDBRANCH  65  86
BRANCH  77  94
ATOM     94  C   UNL A   1      44.822  32.536  27.235  1.00  0.00     0.057 A 
ATOM     95  C   UNL A   1      44.247  33.089  26.080  1.00  0.00     0.134 A 
ATOM     96  C   UNL A   1      45.547  33.450  28.034  1.00  0.00     0.134 A 
ATOM     97  F   UNL A   1      43.404  32.391  25.309  1.00  0.00    -0.206 F 
ATOM     98  C   UNL A   1      44.459  34.415  25.692  1.00  0.00     0.040 A 
ATOM     99  C   UNL A   1      45.713  34.793  27.688  1.00  0.00     0.040 A 
ATOM    100  F   UNL A   1      46.087  33.095  29.209  1.00  0.00    -0.206 F 
ATOM    101  C   UNL A   1      45.189  35.276  26.499  1.00  0.00     0.006 A 
ENDBRANCH  77  94
ENDBRANCH  51  52
ENDBRANCH  44  46
ENDBRANCH  43  44
ENDBRANCH  42  43
ENDBRANCH  41  42
ENDBRANCH   1  41
TORSDOF 18
ENDMDL
MODEL 2
REMARK VINA RESULT:     -13.5      2.954      9.172
REMARK SMILES Cc1ccc(S(=O)(=O)n2cc(C(=O)C(=O)N[C@@H](Cc3c[nH]c4ccccc34)C(=O)OCCOC(=O)c3ccc(-c4c5nc(c(-c6c(F)cccc6F)c6ccc([nH]6)c(-c6c(F)cccc6F)c6nc(c(-c7c(F)cccc7F)c7ccc4[nH]7)C=C6)C=C5)cc3)c3ccccc32)cc1
REMARK SMILES IDX 30 1 28 2 29 3 17 4 16 5 14 6 15 7 12 9 13 10 11 11 9 12
REMARK SMILES IDX 10 13 95 14 90 15 94 16 91 17 93 18 92 19 6 20 7 21 8 22
REMARK SMILES IDX 5 23 1 24 2 25 3 26 97 27 4 28 96 29 18 30 19 31 20 32 27 33
REMARK SMILES IDX 21 34 22 35 26 36 23 38 25 39 24 40 31 41 32 42 33 43 34 44
REMARK SMILES IDX 35 45 36 46 37 47 89 48 38 49 88 50 39 51 40 52 41 53 82 54
REMARK SMILES IDX 42 55 87 56 81 57 83 58 43 59 86 60 80 61 79 62 44 64 70 65
REMARK SMILES IDX 53 66 69 67 54 68 57 69 68 70 84 71 55 72 56 73 67 75 85 76
REMARK SMILES IDX 58 77 45 78 46 79 51 80 47 81 48 82 50 83 52 84 49 85 71 86
REMARK SMILES IDX 72 87 77 88 73 89 74 90 76 91 78 92 75 93 59 94 60 95 65 96
REMARK SMILES IDX 61 97 62 98 64 99 66 100 63 101
REMARK H PARENT 16 8 21 37 83 63 57 74
REMARK Flexibility Score: inf
ROOT
ATOM      1  O   UNL A   1      32.881  30.434  27.338  1.00  0.00    -0.461 OA
ENDROOT
BRANCH   1   2
ATOM      2  C   UNL A   1      33.139  29.193  26.834  1.00  0.00     0.329 C 
ATOM      3  O   UNL A   1      34.053  28.476  27.238  1.00  0.00    -0.250 OA
BRANCH   2   4
ATOM      4  C   UNL A   1      32.070  28.730  25.829  1.00  0.00     0.197 C 
BRANCH   4   5
ATOM      5  N   UNL A   1      31.229  27.611  26.345  1.00  0.00    -0.335 N 
ATOM      6  C   UNL A   1      31.143  26.266  25.986  1.00  0.00     0.293 C 
ATOM      7  O   UNL A   1      30.380  25.519  26.592  1.00  0.00    -0.265 OA
ATOM      8  H   UNL A   1      30.620  27.870  27.074  1.00  0.00     0.164 HD
BRANCH   6   9
ATOM      9  C   UNL A   1      31.972  25.708  24.822  1.00  0.00     0.252 C 
ATOM     10  O   UNL A   1      31.566  26.001  23.694  1.00  0.00    -0.283 OA
BRANCH   9  11
ATOM     11  C   UNL A   1      33.120  24.780  24.897  1.00  0.00     0.054 A 
ATOM     12  N   UNL A   1      34.788  23.449  25.614  1.00  0.00    -0.240 N 
ATOM     13  C   UNL A   1      34.397  24.790  25.483  1.00  0.00     0.117 A 
ATOM     14  C   UNL A   1      33.736  22.651  25.136  1.00  0.00     0.065 A 
ATOM     15  C   UNL A   1      33.007  23.484  24.310  1.00  0.00     0.012 A 
ATOM     16  C   UNL A   1      33.560  21.253  25.109  1.00  0.00     0.028 A 
ATOM     17  C   UNL A   1      32.257  22.914  23.260  1.00  0.00     0.011 A 
ATOM     18  C   UNL A   1      32.876  20.709  24.025  1.00  0.00     0.002 A 
ATOM     19  C   UNL A   1      32.278  21.530  23.078  1.00  0.00     0.001 A 
BRANCH  12  20
ATOM     20  S   UNL A   1      36.302  22.670  25.322  1.00  0.00     0.268 S 
ATOM     21  O   UNL A   1      36.458  22.813  23.882  1.00  0.00    -0.201 OA
ATOM     22  O   UNL A   1      36.051  21.364  25.924  1.00  0.00    -0.201 OA
BRANCH  20  23
ATOM     23  C   UNL A   1      37.906  22.974  25.947  1.00  0.00     0.088 A 
ATOM     24  C   UNL A   1      41.794  22.508  27.762  1.00  0.00     0.044 C 
ATOM     25  C   UNL A   1      40.474  22.728  27.080  1.00  0.00    -0.051 A 
ATOM     26  C   UNL A   1      39.896  21.626  26.471  1.00  0.00     0.005 A 
ATOM     27  C   UNL A   1      39.777  23.960  27.077  1.00  0.00     0.005 A 
ATOM     28  C   UNL A   1      38.647  21.760  25.905  1.00  0.00     0.022 A 
ATOM     29  C   UNL A   1      38.479  24.094  26.514  1.00  0.00     0.022 A 
ENDBRANCH  20  23
ENDBRANCH  12  20
ENDBRANCH   9  11
ENDBRANCH   6   9
ENDBRANCH   4   5
BRANCH   4  30
ATOM     30  C   UNL A   1      31.268  29.946  25.294  1.00  0.00     0.074 C 
BRANCH  30  31
ATOM     31  C   UNL A   1      30.678  29.689  23.939  1.00  0.00    -0.020 A 
ATOM     32  C   UNL A   1      31.246  28.952  22.917  1.00  0.00     0.087 A 
ATOM     33  C   UNL A   1      29.556  30.355  23.378  1.00  0.00     0.003 A 
ATOM     34  N   UNL A   1      30.584  29.225  21.754  1.00  0.00    -0.361 N 
ATOM     35  C   UNL A   1      29.590  30.140  22.000  1.00  0.00     0.046 A 
ATOM     36  C   UNL A   1      28.592  31.226  23.912  1.00  0.00     0.010 A 
ATOM     37  H   UNL A   1      30.786  28.827  20.877  1.00  0.00     0.166 HD
ATOM     38  C   UNL A   1      28.752  30.816  21.114  1.00  0.00     0.026 A 
ATOM     39  C   UNL A   1      27.747  31.911  23.042  1.00  0.00     0.001 A 
ATOM     40  C   UNL A   1      27.842  31.723  21.664  1.00  0.00     0.002 A 
ENDBRANCH  30  31
ENDBRANCH   4  30
ENDBRANCH   2   4
ENDBRANCH   1   2
BRANCH   1  41
ATOM     41  C   UNL A   1      34.053  31.187  27.659  1.00  0.00     0.274 C 
BRANCH  41  42
ATOM     42  C   UNL A   1      33.712  32.618  28.084  1.00  0.00     0.275 C 
BRANCH  42  43
ATOM     43  O   UNL A   1      34.198  33.160  29.354  1.00  0.00    -0.458 OA
BRANCH  43  44
ATOM     44  C   UNL A   1      34.826  32.556  30.393  1.00  0.00     0.338 C 
ATOM     45  O   UNL A   1      34.354  32.564  31.521  1.00  0.00    -0.246 OA
BRANCH  44  46
ATOM     46  C   UNL A   1      36.127  31.905  30.139  1.00  0.00     0.060 A 
ATOM     47  C   UNL A   1      37.195  32.638  29.581  1.00  0.00     0.016 A 
ATOM     48  C   UNL A   1      36.325  30.607  30.569  1.00  0.00     0.016 A 
ATOM     49  C   UNL A   1      38.506  32.137  29.628  1.00  0.00     0.010 A 
ATOM     50  C   UNL A   1      37.619  30.176  30.737  1.00  0.00     0.010 A 
ATOM     51  C   UNL A   1      38.724  30.919  30.266  1.00  0.00    -0.014 A 
BRANCH  51  52
ATOM     52  C   UNL A   1      39.982  30.173  30.392  1.00  0.00     0.031 A 
ATOM     53  C   UNL A   1      40.337  28.968  29.601  1.00  0.00     0.074 A 
ATOM     54  C   UNL A   1      40.900  30.885  31.079  1.00  0.00     0.049 A 
ATOM     55  N   UNL A   1      41.453  28.822  28.953  1.00  0.00    -0.248 NA
ATOM     56  C   UNL A   1      39.453  27.799  29.502  1.00  0.00     0.031 C 
ATOM     57  C   UNL A   1      42.340  30.768  31.153  1.00  0.00     0.029 A 
ATOM     58  N   UNL A   1      40.599  31.889  32.010  1.00  0.00    -0.354 N 
ATOM     59  C   UNL A   1      41.505  27.526  28.468  1.00  0.00     0.074 A 
ATOM     60  C   UNL A   1      40.200  26.950  28.779  1.00  0.00     0.031 C 
ATOM     61  C   UNL A   1      42.763  31.399  32.266  1.00  0.00     0.029 A 
ATOM     62  C   UNL A   1      41.574  31.818  33.003  1.00  0.00     0.049 A 
ATOM     63  H   UNL A   1      39.846  32.521  31.969  1.00  0.00     0.167 HD
ATOM     64  C   UNL A   1      42.639  26.776  28.603  1.00  0.00     0.037 A 
ATOM     65  C   UNL A   1      41.179  31.350  34.224  1.00  0.00     0.037 A 
ATOM     66  C   UNL A   1      43.419  27.194  29.738  1.00  0.00     0.049 A 
ATOM     67  C   UNL A   1      41.838  30.024  34.484  1.00  0.00     0.074 A 
ATOM     68  C   UNL A   1      44.418  28.127  29.924  1.00  0.00     0.029 A 
ATOM     69  N   UNL A   1      43.015  26.762  30.988  1.00  0.00    -0.354 N 
ATOM     70  N   UNL A   1      42.050  29.112  33.571  1.00  0.00    -0.248 NA
ATOM     71  C   UNL A   1      42.442  29.709  35.772  1.00  0.00     0.031 C 
ATOM     72  C   UNL A   1      44.564  28.310  31.323  1.00  0.00     0.029 A 
ATOM     73  C   UNL A   1      43.673  27.464  31.969  1.00  0.00     0.049 A 
ATOM     74  H   UNL A   1      42.351  26.053  31.151  1.00  0.00     0.167 HD
ATOM     75  C   UNL A   1      42.888  28.165  34.101  1.00  0.00     0.074 A 
ATOM     76  C   UNL A   1      43.073  28.560  35.486  1.00  0.00     0.031 C 
ATOM     77  C   UNL A   1      43.456  27.164  33.372  1.00  0.00     0.037 A 
BRANCH  64  78
ATOM     78  C   UNL A   1      43.167  25.938  27.464  1.00  0.00     0.057 A 
ATOM     79  C   UNL A   1      44.265  25.072  27.658  1.00  0.00     0.134 A 
ATOM     80  C   UNL A   1      42.689  26.003  26.144  1.00  0.00     0.134 A 
ATOM     81  F   UNL A   1      44.807  24.885  28.870  1.00  0.00    -0.206 F 
ATOM     82  C   UNL A   1      44.879  24.373  26.611  1.00  0.00     0.040 A 
ATOM     83  C   UNL A   1      43.286  25.292  25.089  1.00  0.00     0.040 A 
ATOM     84  F   UNL A   1      41.634  26.765  25.823  1.00  0.00    -0.206 F 
ATOM     85  C   UNL A   1      44.397  24.488  25.317  1.00  0.00     0.006 A 
ENDBRANCH  64  78
BRANCH  65  86
ATOM     86  C   UNL A   1      39.759  31.720  34.547  1.00  0.00     0.057 A 
ATOM     87  C   UNL A   1      39.497  33.059  34.916  1.00  0.00     0.134 A 
ATOM     88  C   UNL A   1      38.656  30.963  34.136  1.00  0.00     0.134 A 
ATOM     89  F   UNL A   1      40.504  33.852  35.319  1.00  0.00    -0.206 F 
ATOM     90  C   UNL A   1      38.242  33.653  34.748  1.00  0.00     0.040 A 
ATOM     91  C   UNL A   1      37.383  31.543  33.993  1.00  0.00     0.040 A 
ATOM     92  F   UNL A   1      38.801  29.683  33.768  1.00  0.00    -0.206 F 
ATOM     93  C   UNL A   1      37.185  32.898  34.255  1.00  0.00     0.006 A 
ENDBRANCH  65  86
BRANCH  77  94
ATOM     94  C   UNL A   1      43.992  25.879  33.952  1.00  0.00     0.057 A 
ATOM     95  C   UNL A   1      43.205  24.982  34.691  1.00  0.00     0.134 A 
ATOM     96  C   UNL A   1      45.289  25.411  33.638  1.00  0.00     0.134 A 
ATOM     97  F   UNL A   1      41.908  25.214  34.930  1.00  0.00    -0.206 F 
ATOM     98  C   UNL A   1      43.697  23.766  35.173  1.00  0.00     0.040 A 
ATOM     99  C   UNL A   1      45.770  24.169  34.060  1.00  0.00     0.040 A 
ATOM    100  F   UNL A   1      46.132  26.115  32.869  1.00  0.00    -0.206 F 
ATOM    101  C   UNL A   1      44.981  23.351  34.853  1.00  0.00     0.006 A 
ENDBRANCH  77  94
ENDBRANCH  51  52
ENDBRANCH  44  46
ENDBRANCH  43  44
ENDBRANCH  42  43
ENDBRANCH  41  42
ENDBRANCH   1  41
TORSDOF 18
ENDMDL
MODEL 3
REMARK VINA RESULT:     -13.3      2.074      3.347
REMARK SMILES Cc1ccc(S(=O)(=O)n2cc(C(=O)C(=O)N[C@@H](Cc3c[nH]c4ccccc34)C(=O)OCCOC(=O)c3ccc(-c4c5nc(c(-c6c(F)cccc6F)c6ccc([nH]6)c(-c6c(F)cccc6F)c6nc(c(-c7c(F)cccc7F)c7ccc4[nH]7)C=C6)C=C5)cc3)c3ccccc32)cc1
REMARK SMILES IDX 30 1 28 2 29 3 17 4 16 5 14 6 15 7 12 9 13 10 11 11 9 12
REMARK SMILES IDX 10 13 95 14 90 15 94 16 91 17 93 18 92 19 6 20 7 21 8 22
REMARK SMILES IDX 5 23 1 24 2 25 3 26 97 27 4 28 96 29 18 30 19 31 20 32 27 33
REMARK SMILES IDX 21 34 22 35 26 36 23 38 25 39 24 40 31 41 32 42 33 43 34 44
REMARK SMILES IDX 35 45 36 46 37 47 89 48 38 49 88 50 39 51 40 52 41 53 82 54
REMARK SMILES IDX 42 55 87 56 81 57 83 58 43 59 86 60 80 61 79 62 44 64 70 65
REMARK SMILES IDX 53 66 69 67 54 68 57 69 68 70 84 71 55 72 56 73 67 75 85 76
REMARK SMILES IDX 58 77 45 78 46 79 51 80 47 81 48 82 50 83 52 84 49 85 71 86
REMARK SMILES IDX 72 87 77 88 73 89 74 90 76 91 78 92 75 93 59 94 60 95 65 96
REMARK SMILES IDX 61 97 62 98 64 99 66 100 63 101
REMARK H PARENT 16 8 21 37 83 63 57 74
REMARK Flexibility Score: inf
ROOT
ATOM      1  O   UNL A   1      35.751  22.209  24.932  1.00  0.00    -0.461 OA
ENDROOT
BRANCH   1   2
ATOM      2  C   UNL A   1      34.642  21.943  25.680  1.00  0.00     0.329 C 
ATOM      3  O   UNL A   1      34.688  21.616  26.864  1.00  0.00    -0.250 OA
BRANCH   2   4
ATOM      4  C   UNL A   1      33.336  22.256  24.930  1.00  0.00     0.197 C 
BRANCH   4   5
ATOM      5  N   UNL A   1      33.564  22.774  23.550  1.00  0.00    -0.335 N 
ATOM      6  C   UNL A   1      32.987  23.829  22.841  1.00  0.00     0.293 C 
ATOM      7  O   UNL A   1      33.372  24.084  21.704  1.00  0.00    -0.265 OA
ATOM      8  H   UNL A   1      34.248  22.279  23.044  1.00  0.00     0.164 HD
BRANCH   6   9
ATOM      9  C   UNL A   1      31.855  24.662  23.456  1.00  0.00     0.252 C 
ATOM     10  O   UNL A   1      30.716  24.358  23.092  1.00  0.00    -0.283 OA
BRANCH   9  11
ATOM     11  C   UNL A   1      31.982  25.844  24.334  1.00  0.00     0.054 A 
ATOM     12  N   UNL A   1      32.744  27.647  25.446  1.00  0.00    -0.240 N 
ATOM     13  C   UNL A   1      32.834  26.249  25.376  1.00  0.00     0.117 A 
ATOM     14  C   UNL A   1      31.867  28.069  24.433  1.00  0.00     0.065 A 
ATOM     15  C   UNL A   1      31.106  26.954  24.137  1.00  0.00     0.012 A 
ATOM     16  C   UNL A   1      31.485  29.354  24.002  1.00  0.00     0.028 A 
ATOM     17  C   UNL A   1      29.810  27.137  23.611  1.00  0.00     0.011 A 
ATOM     18  C   UNL A   1      30.178  29.522  23.553  1.00  0.00     0.002 A 
ATOM     19  C   UNL A   1      29.329  28.432  23.412  1.00  0.00     0.001 A 
BRANCH  12  20
ATOM     20  S   UNL A   1      32.641  28.715  26.800  1.00  0.00     0.268 S 
ATOM     21  O   UNL A   1      33.839  28.382  27.557  1.00  0.00    -0.201 OA
ATOM     22  O   UNL A   1      31.314  28.376  27.307  1.00  0.00    -0.201 OA
BRANCH  20  23
ATOM     23  C   UNL A   1      32.555  30.458  26.903  1.00  0.00     0.088 A 
ATOM     24  C   UNL A   1      33.095  34.560  28.133  1.00  0.00     0.044 C 
ATOM     25  C   UNL A   1      32.902  33.159  27.626  1.00  0.00    -0.051 A 
ATOM     26  C   UNL A   1      33.908  32.250  27.908  1.00  0.00     0.005 A 
ATOM     27  C   UNL A   1      31.745  32.715  26.942  1.00  0.00     0.005 A 
ATOM     28  C   UNL A   1      33.737  30.934  27.536  1.00  0.00     0.022 A 
ATOM     29  C   UNL A   1      31.557  31.354  26.578  1.00  0.00     0.022 A 
ENDBRANCH  20  23
ENDBRANCH  12  20
ENDBRANCH   9  11
ENDBRANCH   6   9
ENDBRANCH   4   5
BRANCH   4  30
ATOM     30  C   UNL A   1      32.363  21.050  25.013  1.00  0.00     0.074 C 
BRANCH  30  31
ATOM     31  C   UNL A   1      32.588  20.058  23.911  1.00  0.00    -0.020 A 
ATOM     32  C   UNL A   1      31.858  19.938  22.744  1.00  0.00     0.087 A 
ATOM     33  C   UNL A   1      33.428  18.914  23.978  1.00  0.00     0.003 A 
ATOM     34  N   UNL A   1      32.142  18.734  22.165  1.00  0.00    -0.361 N 
ATOM     35  C   UNL A   1      33.047  18.057  22.944  1.00  0.00     0.046 A 
ATOM     36  C   UNL A   1      34.389  18.483  24.907  1.00  0.00     0.010 A 
ATOM     37  H   UNL A   1      31.758  18.403  21.322  1.00  0.00     0.166 HD
ATOM     38  C   UNL A   1      33.525  16.752  22.838  1.00  0.00     0.026 A 
ATOM     39  C   UNL A   1      34.878  17.181  24.816  1.00  0.00     0.001 A 
ATOM     40  C   UNL A   1      34.435  16.325  23.808  1.00  0.00     0.002 A 
ENDBRANCH  30  31
ENDBRANCH   4  30
ENDBRANCH   2   4
ENDBRANCH   1   2
BRANCH   1  41
ATOM     41  C   UNL A   1      36.972  21.753  25.520  1.00  0.00     0.274 C 
BRANCH  41  42
ATOM     42  C   UNL A   1      38.077  22.810  25.431  1.00  0.00     0.275 C 
BRANCH  42  43
ATOM     43  O   UNL A   1      39.034  22.989  26.525  1.00  0.00    -0.458 OA
BRANCH  43  44
ATOM     44  C   UNL A   1      40.063  23.860  26.669  1.00  0.00     0.338 C 
ATOM     45  O   UNL A   1      41.187  23.597  26.262  1.00  0.00    -0.246 OA
BRANCH  44  46
ATOM     46  C   UNL A   1      39.808  25.138  27.363  1.00  0.00     0.060 A 
ATOM     47  C   UNL A   1      39.149  25.152  28.611  1.00  0.00     0.016 A 
ATOM     48  C   UNL A   1      40.329  26.304  26.839  1.00  0.00     0.016 A 
ATOM     49  C   UNL A   1      39.180  26.298  29.421  1.00  0.00     0.010 A 
ATOM     50  C   UNL A   1      40.476  27.378  27.683  1.00  0.00     0.010 A 
ATOM     51  C   UNL A   1      39.902  27.402  28.974  1.00  0.00    -0.014 A 
BRANCH  51  52
ATOM     52  C   UNL A   1      40.033  28.718  29.610  1.00  0.00     0.031 A 
ATOM     53  C   UNL A   1      38.937  29.713  29.736  1.00  0.00     0.074 A 
ATOM     54  C   UNL A   1      41.168  28.795  30.337  1.00  0.00     0.049 A 
ATOM     55  N   UNL A   1      38.606  30.296  30.848  1.00  0.00    -0.248 NA
ATOM     56  C   UNL A   1      38.136  30.155  28.589  1.00  0.00     0.031 C 
ATOM     57  C   UNL A   1      41.561  29.689  31.403  1.00  0.00     0.029 A 
ATOM     58  N   UNL A   1      42.316  28.023  30.108  1.00  0.00    -0.354 N 
ATOM     59  C   UNL A   1      37.660  31.267  30.562  1.00  0.00     0.074 A 
ATOM     60  C   UNL A   1      37.350  31.089  29.146  1.00  0.00     0.031 C 
ATOM     61  C   UNL A   1      42.903  29.654  31.515  1.00  0.00     0.029 A 
ATOM     62  C   UNL A   1      43.407  28.830  30.420  1.00  0.00     0.049 A 
ATOM     63  H   UNL A   1      42.345  27.092  29.790  1.00  0.00     0.167 HD
ATOM     64  C   UNL A   1      37.764  32.521  31.093  1.00  0.00     0.037 A 
ATOM     65  C   UNL A   1      44.174  29.263  29.376  1.00  0.00     0.037 A 
ATOM     66  C   UNL A   1      39.131  32.857  31.391  1.00  0.00     0.049 A 
ATOM     67  C   UNL A   1      44.025  30.752  29.234  1.00  0.00     0.074 A 
ATOM     68  C   UNL A   1      39.942  32.688  32.495  1.00  0.00     0.029 A 
ATOM     69  N   UNL A   1      39.936  33.262  30.343  1.00  0.00    -0.354 N 
ATOM     70  N   UNL A   1      42.907  31.405  29.423  1.00  0.00    -0.248 NA
ATOM     71  C   UNL A   1      45.176  31.620  29.020  1.00  0.00     0.031 C 
ATOM     72  C   UNL A   1      41.276  32.927  32.074  1.00  0.00     0.029 A 
ATOM     73  C   UNL A   1      41.254  33.269  30.730  1.00  0.00     0.049 A 
ATOM     74  H   UNL A   1      39.610  33.510  29.447  1.00  0.00     0.167 HD
ATOM     75  C   UNL A   1      43.197  32.744  29.463  1.00  0.00     0.074 A 
ATOM     76  C   UNL A   1      44.616  32.830  29.170  1.00  0.00     0.031 C 
ATOM     77  C   UNL A   1      42.296  33.703  29.818  1.00  0.00     0.037 A 
BRANCH  64  78
ATOM     78  C   UNL A   1      36.563  33.235  31.663  1.00  0.00     0.057 A 
ATOM     79  C   UNL A   1      36.195  33.057  33.013  1.00  0.00     0.134 A 
ATOM     80  C   UNL A   1      35.692  34.043  30.912  1.00  0.00     0.134 A 
ATOM     81  F   UNL A   1      36.948  32.337  33.858  1.00  0.00    -0.206 F 
ATOM     82  C   UNL A   1      35.020  33.587  33.561  1.00  0.00     0.040 A 
ATOM     83  C   UNL A   1      34.519  34.595  31.455  1.00  0.00     0.040 A 
ATOM     84  F   UNL A   1      35.934  34.318  29.623  1.00  0.00    -0.206 F 
ATOM     85  C   UNL A   1      34.169  34.353  32.778  1.00  0.00     0.006 A 
ENDBRANCH  64  78
BRANCH  65  86
ATOM     86  C   UNL A   1      44.237  28.262  28.257  1.00  0.00     0.057 A 
ATOM     87  C   UNL A   1      43.630  28.610  27.029  1.00  0.00     0.134 A 
ATOM     88  C   UNL A   1      45.165  27.215  28.215  1.00  0.00     0.134 A 
ATOM     89  F   UNL A   1      42.730  29.607  26.986  1.00  0.00    -0.206 F 
ATOM     90  C   UNL A   1      44.026  28.052  25.810  1.00  0.00     0.040 A 
ATOM     91  C   UNL A   1      45.549  26.626  26.997  1.00  0.00     0.040 A 
ATOM     92  F   UNL A   1      45.793  26.810  29.327  1.00  0.00    -0.206 F 
ATOM     93  C   UNL A   1      45.014  27.075  25.790  1.00  0.00     0.006 A 
ENDBRANCH  65  86
BRANCH  77  94
ATOM     94  C   UNL A   1      42.410  35.162  29.455  1.00  0.00     0.057 A 
ATOM     95  C   UNL A   1      43.370  36.020  30.013  1.00  0.00     0.134 A 
ATOM     96  C   UNL A   1      41.661  35.719  28.393  1.00  0.00     0.134 A 
ATOM     97  F   UNL A   1      44.260  35.590  30.916  1.00  0.00    -0.206 F 
ATOM     98  C   UNL A   1      43.506  37.356  29.624  1.00  0.00     0.040 A 
ATOM     99  C   UNL A   1      41.832  37.034  27.953  1.00  0.00     0.040 A 
ATOM    100  F   UNL A   1      40.763  35.002  27.702  1.00  0.00    -0.206 F 
ATOM    101  C   UNL A   1      42.740  37.868  28.587  1.00  0.00     0.006 A 
ENDBRANCH  77  94
ENDBRANCH  51  52
ENDBRANCH  44  46
ENDBRANCH  43  44
ENDBRANCH  42  43
ENDBRANCH  41  42
ENDBRANCH   1  41
TORSDOF 18
ENDMDL
