MODEL 1
REMARK VINA RESULT:     -10.7      0.000      0.000
REMARK SMILES CCC[C@@]1(C(=O)N[C@@](C)(C(=O)OCCOC(=O)c2ccc(-c3c4nc(c(-c5c(F)cccc5F)c5ccc([nH]5)c(-c5c(F)cccc5F)c5nc(c(-c6c(F)cccc6F)c6ccc3[nH]6)C=C5)C=C4)cc2)C(F)(F)F)CC[NH2+]C1
REMARK SMILES IDX 13 1 12 2 10 3 11 4 8 5 9 6 7 7 5 8 6 9 4 11 76 12 79 13
REMARK SMILES IDX 77 14 78 15 3 18 2 19 1 20 72 21 73 22 74 23 75 24 14 25
REMARK SMILES IDX 15 26 16 27 17 28 18 29 19 30 71 31 20 32 70 33 21 34 22 35
REMARK SMILES IDX 23 36 64 37 24 38 69 39 63 40 65 41 25 42 68 43 62 44 61 45
REMARK SMILES IDX 26 47 52 48 35 49 51 50 36 51 39 52 50 53 66 54 37 55 38 56
REMARK SMILES IDX 49 58 67 59 40 60 27 61 28 62 33 63 29 64 30 65 32 66 34 67
REMARK SMILES IDX 31 68 53 69 54 70 59 71 55 72 56 73 58 74 60 75 57 76 41 77
REMARK SMILES IDX 42 78 47 79 43 80 44 81 46 82 48 83 45 84
REMARK H PARENT 7 10 78 16 78 17 65 46 39 57
REMARK Flexibility Score: inf
ROOT
ATOM      1  C   UNL A   1      30.817  29.018  24.453  1.00  0.00     0.274 C 
ENDROOT
BRANCH   1   2
ATOM      2  O   UNL A   1      30.837  27.590  24.722  1.00  0.00    -0.460 OA
BRANCH   2   3
ATOM      3  C   UNL A   1      31.216  26.785  23.681  1.00  0.00     0.341 C 
ATOM      4  O   UNL A   1      30.721  26.861  22.562  1.00  0.00    -0.249 OA
BRANCH   3   5
ATOM      5  C   UNL A   1      32.148  25.634  24.130  1.00  0.00     0.231 C 
ATOM      6  C   UNL A   1      31.957  24.559  23.023  1.00  0.00     0.058 C 
BRANCH   5   7
ATOM      7  N   UNL A   1      31.755  24.892  25.416  1.00  0.00    -0.332 N 
ATOM      8  C   UNL A   1      32.149  23.979  26.335  1.00  0.00     0.233 C 
ATOM      9  O   UNL A   1      31.340  23.895  27.271  1.00  0.00    -0.274 OA
ATOM     10  H   UNL A   1      30.858  25.205  25.675  1.00  0.00     0.164 HD
BRANCH   8  11
ATOM     11  C   UNL A   1      33.370  23.024  26.309  1.00  0.00     0.103 C 
ATOM     12  C   UNL A   1      33.296  22.110  25.061  1.00  0.00     0.084 C 
ATOM     13  C   UNL A   1      33.302  21.984  27.472  1.00  0.00     0.277 C 
ATOM     14  C   UNL A   1      32.990  20.716  25.591  1.00  0.00     0.261 C 
ATOM     15  N   UNL A   1      33.652  20.679  26.890  1.00  0.00    -0.345 N 
ATOM     16  H   UNL A   1      34.661  20.583  26.785  1.00  0.00     0.346 HD
ATOM     17  H   UNL A   1      33.363  19.891  27.468  1.00  0.00     0.346 HD
BRANCH  11  18
ATOM     18  C   UNL A   1      34.724  23.723  26.398  1.00  0.00     0.023 C 
BRANCH  18  19
ATOM     19  C   UNL A   1      35.843  22.992  25.673  1.00  0.00    -0.002 C 
ATOM     20  C   UNL A   1      37.175  23.705  25.592  1.00  0.00     0.004 C 
ENDBRANCH  18  19
ENDBRANCH  11  18
ENDBRANCH   8  11
ENDBRANCH   5   7
BRANCH   5  21
ATOM     21  C   UNL A   1      33.582  26.173  23.981  1.00  0.00     0.422 C 
ATOM     22  F   UNL A   1      33.685  27.181  23.090  1.00  0.00    -0.168 F 
ATOM     23  F   UNL A   1      34.052  26.629  25.168  1.00  0.00    -0.168 F 
ATOM     24  F   UNL A   1      34.451  25.214  23.574  1.00  0.00    -0.168 F 
ENDBRANCH   5  21
ENDBRANCH   3   5
ENDBRANCH   2   3
ENDBRANCH   1   2
BRANCH   1  25
ATOM     25  C   UNL A   1      32.156  29.693  24.761  1.00  0.00     0.275 C 
BRANCH  25  26
ATOM     26  O   UNL A   1      32.414  29.615  26.169  1.00  0.00    -0.458 OA
BRANCH  26  27
ATOM     27  C   UNL A   1      32.783  30.773  26.776  1.00  0.00     0.338 C 
ATOM     28  O   UNL A   1      32.046  31.711  27.046  1.00  0.00    -0.246 OA
BRANCH  27  29
ATOM     29  C   UNL A   1      34.191  30.640  27.245  1.00  0.00     0.060 A 
ATOM     30  C   UNL A   1      34.723  29.380  27.509  1.00  0.00     0.016 A 
ATOM     31  C   UNL A   1      34.920  31.776  27.623  1.00  0.00     0.016 A 
ATOM     32  C   UNL A   1      35.872  29.264  28.294  1.00  0.00     0.010 A 
ATOM     33  C   UNL A   1      36.149  31.643  28.298  1.00  0.00     0.010 A 
ATOM     34  C   UNL A   1      36.636  30.380  28.671  1.00  0.00    -0.014 A 
BRANCH  34  35
ATOM     35  C   UNL A   1      37.939  30.201  29.395  1.00  0.00     0.031 A 
ATOM     36  C   UNL A   1      39.055  29.337  28.852  1.00  0.00     0.074 A 
ATOM     37  C   UNL A   1      38.140  30.820  30.579  1.00  0.00     0.049 A 
ATOM     38  N   UNL A   1      40.098  28.843  29.480  1.00  0.00    -0.248 NA
ATOM     39  C   UNL A   1      39.005  28.984  27.425  1.00  0.00     0.031 C 
ATOM     40  C   UNL A   1      37.212  31.747  31.230  1.00  0.00     0.029 A 
ATOM     41  N   UNL A   1      39.197  30.755  31.458  1.00  0.00    -0.354 N 
ATOM     42  C   UNL A   1      40.786  28.072  28.547  1.00  0.00     0.074 A 
ATOM     43  C   UNL A   1      40.061  28.187  27.299  1.00  0.00     0.031 C 
ATOM     44  C   UNL A   1      37.752  32.200  32.365  1.00  0.00     0.029 A 
ATOM     45  C   UNL A   1      38.983  31.468  32.613  1.00  0.00     0.049 A 
ATOM     46  H   UNL A   1      40.022  30.249  31.278  1.00  0.00     0.167 HD
ATOM     47  C   UNL A   1      41.907  27.328  28.724  1.00  0.00     0.037 A 
ATOM     48  C   UNL A   1      39.622  31.470  33.797  1.00  0.00     0.037 A 
ATOM     49  C   UNL A   1      42.665  27.261  29.951  1.00  0.00     0.049 A 
ATOM     50  C   UNL A   1      40.793  30.567  34.007  1.00  0.00     0.074 A 
ATOM     51  C   UNL A   1      43.820  26.540  30.215  1.00  0.00     0.029 A 
ATOM     52  N   UNL A   1      42.356  27.949  31.114  1.00  0.00    -0.354 N 
ATOM     53  N   UNL A   1      41.365  29.751  33.158  1.00  0.00    -0.248 NA
ATOM     54  C   UNL A   1      41.385  30.560  35.350  1.00  0.00     0.031 C 
ATOM     55  C   UNL A   1      44.185  26.759  31.547  1.00  0.00     0.029 A 
ATOM     56  C   UNL A   1      43.285  27.653  32.100  1.00  0.00     0.049 A 
ATOM     57  H   UNL A   1      41.589  28.556  31.224  1.00  0.00     0.167 HD
ATOM     58  C   UNL A   1      42.391  29.137  33.862  1.00  0.00     0.074 A 
ATOM     59  C   UNL A   1      42.373  29.689  35.200  1.00  0.00     0.031 C 
ATOM     60  C   UNL A   1      43.264  28.197  33.432  1.00  0.00     0.037 A 
BRANCH  47  61
ATOM     61  C   UNL A   1      42.384  26.473  27.583  1.00  0.00     0.057 A 
ATOM     62  C   UNL A   1      41.866  25.198  27.333  1.00  0.00     0.134 A 
ATOM     63  C   UNL A   1      43.298  26.992  26.654  1.00  0.00     0.134 A 
ATOM     64  F   UNL A   1      40.990  24.642  28.182  1.00  0.00    -0.206 F 
ATOM     65  C   UNL A   1      42.243  24.467  26.201  1.00  0.00     0.040 A 
ATOM     66  C   UNL A   1      43.666  26.282  25.510  1.00  0.00     0.040 A 
ATOM     67  F   UNL A   1      43.821  28.216  26.826  1.00  0.00    -0.206 F 
ATOM     68  C   UNL A   1      43.136  25.014  25.281  1.00  0.00     0.006 A 
ENDBRANCH  47  61
BRANCH  48  69
ATOM     69  C   UNL A   1      39.073  32.280  34.913  1.00  0.00     0.057 A 
ATOM     70  C   UNL A   1      39.412  33.625  35.067  1.00  0.00     0.134 A 
ATOM     71  C   UNL A   1      38.163  31.729  35.827  1.00  0.00     0.134 A 
ATOM     72  F   UNL A   1      40.296  34.199  34.238  1.00  0.00    -0.206 F 
ATOM     73  C   UNL A   1      38.862  34.400  36.090  1.00  0.00     0.040 A 
ATOM     74  C   UNL A   1      37.579  32.499  36.831  1.00  0.00     0.040 A 
ATOM     75  F   UNL A   1      37.794  30.443  35.726  1.00  0.00    -0.206 F 
ATOM     76  C   UNL A   1      37.934  33.839  36.967  1.00  0.00     0.006 A 
ENDBRANCH  48  69
BRANCH  60  77
ATOM     77  C   UNL A   1      44.297  27.737  34.415  1.00  0.00     0.057 A 
ATOM     78  C   UNL A   1      45.524  28.395  34.557  1.00  0.00     0.134 A 
ATOM     79  C   UNL A   1      44.065  26.614  35.220  1.00  0.00     0.134 A 
ATOM     80  F   UNL A   1      45.815  29.463  33.799  1.00  0.00    -0.206 F 
ATOM     81  C   UNL A   1      46.497  27.938  35.449  1.00  0.00     0.040 A 
ATOM     82  C   UNL A   1      45.019  26.162  36.130  1.00  0.00     0.040 A 
ATOM     83  F   UNL A   1      42.909  25.940  35.131  1.00  0.00    -0.206 F 
ATOM     84  C   UNL A   1      46.243  26.819  36.242  1.00  0.00     0.006 A 
ENDBRANCH  60  77
ENDBRANCH  34  35
ENDBRANCH  27  29
ENDBRANCH  26  27
ENDBRANCH  25  26
ENDBRANCH   1  25
TORSDOF 16
ENDMDL
MODEL 2
REMARK VINA RESULT:     -10.7      3.869      8.640
REMARK SMILES CCC[C@@]1(C(=O)N[C@@](C)(C(=O)OCCOC(=O)c2ccc(-c3c4nc(c(-c5c(F)cccc5F)c5ccc([nH]5)c(-c5c(F)cccc5F)c5nc(c(-c6c(F)cccc6F)c6ccc3[nH]6)C=C5)C=C4)cc2)C(F)(F)F)CC[NH2+]C1
REMARK SMILES IDX 13 1 12 2 10 3 11 4 8 5 9 6 7 7 5 8 6 9 4 11 76 12 79 13
REMARK SMILES IDX 77 14 78 15 3 18 2 19 1 20 72 21 73 22 74 23 75 24 14 25
REMARK SMILES IDX 15 26 16 27 17 28 18 29 19 30 71 31 20 32 70 33 21 34 22 35
REMARK SMILES IDX 23 36 64 37 24 38 69 39 63 40 65 41 25 42 68 43 62 44 61 45
REMARK SMILES IDX 26 47 52 48 35 49 51 50 36 51 39 52 50 53 66 54 37 55 38 56
REMARK SMILES IDX 49 58 67 59 40 60 27 61 28 62 33 63 29 64 30 65 32 66 34 67
REMARK SMILES IDX 31 68 53 69 54 70 59 71 55 72 56 73 58 74 60 75 57 76 41 77
REMARK SMILES IDX 42 78 47 79 43 80 44 81 46 82 48 83 45 84
REMARK H PARENT 7 10 78 16 78 17 65 46 39 57
REMARK Flexibility Score: inf
ROOT
ATOM      1  C   UNL A   1      35.174  21.488  26.210  1.00  0.00     0.274 C 
ENDROOT
BRANCH   1   2
ATOM      2  O   UNL A   1      33.924  22.105  25.804  1.00  0.00    -0.460 OA
BRANCH   2   3
ATOM      3  C   UNL A   1      34.021  23.341  25.222  1.00  0.00     0.341 C 
ATOM      4  O   UNL A   1      34.765  24.221  25.640  1.00  0.00    -0.249 OA
BRANCH   3   5
ATOM      5  C   UNL A   1      32.935  23.576  24.144  1.00  0.00     0.231 C 
ATOM      6  C   UNL A   1      32.920  22.241  23.348  1.00  0.00     0.058 C 
BRANCH   5   7
ATOM      7  N   UNL A   1      33.249  24.626  23.069  1.00  0.00    -0.332 N 
ATOM      8  C   UNL A   1      33.306  25.952  22.795  1.00  0.00     0.233 C 
ATOM      9  O   UNL A   1      33.777  26.165  21.668  1.00  0.00    -0.274 OA
ATOM     10  H   UNL A   1      33.515  24.144  22.253  1.00  0.00     0.164 HD
BRANCH   8  11
ATOM     11  C   UNL A   1      32.799  27.151  23.636  1.00  0.00     0.103 C 
ATOM     12  C   UNL A   1      31.268  27.305  23.463  1.00  0.00     0.084 C 
ATOM     13  C   UNL A   1      33.324  28.507  23.068  1.00  0.00     0.277 C 
ATOM     14  C   UNL A   1      31.073  28.580  22.652  1.00  0.00     0.261 C 
ATOM     15  N   UNL A   1      32.181  29.433  23.066  1.00  0.00    -0.345 N 
ATOM     16  H   UNL A   1      32.020  29.819  23.995  1.00  0.00     0.346 HD
ATOM     17  H   UNL A   1      32.319  30.240  22.458  1.00  0.00     0.346 HD
BRANCH  11  18
ATOM     18  C   UNL A   1      33.180  27.095  25.113  1.00  0.00     0.023 C 
BRANCH  18  19
ATOM     19  C   UNL A   1      32.034  27.420  26.059  1.00  0.00    -0.002 C 
ATOM     20  C   UNL A   1      32.013  28.817  26.640  1.00  0.00     0.004 C 
ENDBRANCH  18  19
ENDBRANCH  11  18
ENDBRANCH   8  11
ENDBRANCH   5   7
BRANCH   5  21
ATOM     21  C   UNL A   1      31.599  23.653  24.903  1.00  0.00     0.422 C 
ATOM     22  F   UNL A   1      30.652  24.360  24.250  1.00  0.00    -0.168 F 
ATOM     23  F   UNL A   1      31.098  22.413  25.127  1.00  0.00    -0.168 F 
ATOM     24  F   UNL A   1      31.733  24.232  26.123  1.00  0.00    -0.168 F 
ENDBRANCH   5  21
ENDBRANCH   3   5
ENDBRANCH   2   3
ENDBRANCH   1   2
BRANCH   1  25
ATOM     25  C   UNL A   1      35.981  20.957  25.022  1.00  0.00     0.275 C 
BRANCH  25  26
ATOM     26  O   UNL A   1      37.186  21.722  24.887  1.00  0.00    -0.458 OA
BRANCH  26  27
ATOM     27  C   UNL A   1      38.276  21.247  25.544  1.00  0.00     0.338 C 
ATOM     28  O   UNL A   1      38.763  20.133  25.417  1.00  0.00    -0.246 OA
BRANCH  27  29
ATOM     29  C   UNL A   1      38.907  22.368  26.297  1.00  0.00     0.060 A 
ATOM     30  C   UNL A   1      38.457  23.672  26.114  1.00  0.00     0.016 A 
ATOM     31  C   UNL A   1      40.082  22.152  27.029  1.00  0.00     0.016 A 
ATOM     32  C   UNL A   1      39.264  24.744  26.502  1.00  0.00     0.010 A 
ATOM     33  C   UNL A   1      40.819  23.242  27.533  1.00  0.00     0.010 A 
ATOM     34  C   UNL A   1      40.436  24.564  27.253  1.00  0.00    -0.014 A 
BRANCH  34  35
ATOM     35  C   UNL A   1      41.199  25.748  27.770  1.00  0.00     0.031 A 
ATOM     36  C   UNL A   1      40.556  26.816  28.627  1.00  0.00     0.074 A 
ATOM     37  C   UNL A   1      42.507  25.890  27.463  1.00  0.00     0.049 A 
ATOM     38  N   UNL A   1      40.982  28.029  28.894  1.00  0.00    -0.248 NA
ATOM     39  C   UNL A   1      39.277  26.485  29.274  1.00  0.00     0.031 C 
ATOM     40  C   UNL A   1      43.320  24.933  26.708  1.00  0.00     0.029 A 
ATOM     41  N   UNL A   1      43.391  26.907  27.745  1.00  0.00    -0.354 N 
ATOM     42  C   UNL A   1      39.999  28.624  29.680  1.00  0.00     0.074 A 
ATOM     43  C   UNL A   1      38.965  27.629  29.873  1.00  0.00     0.031 C 
ATOM     44  C   UNL A   1      44.578  25.376  26.630  1.00  0.00     0.029 A 
ATOM     45  C   UNL A   1      44.627  26.723  27.173  1.00  0.00     0.049 A 
ATOM     46  H   UNL A   1      43.161  27.688  28.298  1.00  0.00     0.167 HD
ATOM     47  C   UNL A   1      39.959  29.887  30.175  1.00  0.00     0.037 A 
ATOM     48  C   UNL A   1      45.664  27.560  26.990  1.00  0.00     0.037 A 
ATOM     49  C   UNL A   1      41.016  30.860  30.034  1.00  0.00     0.049 A 
ATOM     50  C   UNL A   1      45.562  28.977  27.452  1.00  0.00     0.074 A 
ATOM     51  C   UNL A   1      41.063  32.160  30.515  1.00  0.00     0.029 A 
ATOM     52  N   UNL A   1      42.216  30.639  29.378  1.00  0.00    -0.354 N 
ATOM     53  N   UNL A   1      44.580  29.566  28.086  1.00  0.00    -0.248 NA
ATOM     54  C   UNL A   1      46.698  29.853  27.140  1.00  0.00     0.031 C 
ATOM     55  C   UNL A   1      42.273  32.738  30.115  1.00  0.00     0.029 A 
ATOM     56  C   UNL A   1      42.999  31.783  29.425  1.00  0.00     0.049 A 
ATOM     57  H   UNL A   1      42.475  29.795  28.942  1.00  0.00     0.167 HD
ATOM     58  C   UNL A   1      44.983  30.882  28.257  1.00  0.00     0.074 A 
ATOM     59  C   UNL A   1      46.304  30.999  27.677  1.00  0.00     0.031 C 
ATOM     60  C   UNL A   1      44.310  31.901  28.842  1.00  0.00     0.037 A 
BRANCH  47  61
ATOM     61  C   UNL A   1      38.714  30.334  30.889  1.00  0.00     0.057 A 
ATOM     62  C   UNL A   1      37.627  30.902  30.219  1.00  0.00     0.134 A 
ATOM     63  C   UNL A   1      38.565  30.081  32.262  1.00  0.00     0.134 A 
ATOM     64  F   UNL A   1      37.703  31.173  28.907  1.00  0.00    -0.206 F 
ATOM     65  C   UNL A   1      36.436  31.207  30.886  1.00  0.00     0.040 A 
ATOM     66  C   UNL A   1      37.374  30.361  32.934  1.00  0.00     0.040 A 
ATOM     67  F   UNL A   1      39.564  29.523  32.962  1.00  0.00    -0.206 F 
ATOM     68  C   UNL A   1      36.305  30.925  32.245  1.00  0.00     0.006 A 
ENDBRANCH  47  61
BRANCH  48  69
ATOM     69  C   UNL A   1      46.844  27.091  26.220  1.00  0.00     0.057 A 
ATOM     70  C   UNL A   1      47.911  26.448  26.849  1.00  0.00     0.134 A 
ATOM     71  C   UNL A   1      46.905  27.244  24.827  1.00  0.00     0.134 A 
ATOM     72  F   UNL A   1      47.918  26.297  28.181  1.00  0.00    -0.206 F 
ATOM     73  C   UNL A   1      49.000  25.967  26.121  1.00  0.00     0.040 A 
ATOM     74  C   UNL A   1      47.969  26.738  24.083  1.00  0.00     0.040 A 
ATOM     75  F   UNL A   1      45.906  27.847  24.166  1.00  0.00    -0.206 F 
ATOM     76  C   UNL A   1      49.024  26.101  24.733  1.00  0.00     0.006 A 
ENDBRANCH  48  69
BRANCH  60  77
ATOM     77  C   UNL A   1      45.014  33.221  28.914  1.00  0.00     0.057 A 
ATOM     78  C   UNL A   1      45.868  33.545  29.976  1.00  0.00     0.134 A 
ATOM     79  C   UNL A   1      44.827  34.184  27.915  1.00  0.00     0.134 A 
ATOM     80  F   UNL A   1      46.070  32.673  30.975  1.00  0.00    -0.206 F 
ATOM     81  C   UNL A   1      46.491  34.792  30.054  1.00  0.00     0.040 A 
ATOM     82  C   UNL A   1      45.463  35.424  27.970  1.00  0.00     0.040 A 
ATOM     83  F   UNL A   1      44.023  33.934  26.871  1.00  0.00    -0.206 F 
ATOM     84  C   UNL A   1      46.291  35.734  29.046  1.00  0.00     0.006 A 
ENDBRANCH  60  77
ENDBRANCH  34  35
ENDBRANCH  27  29
ENDBRANCH  26  27
ENDBRANCH  25  26
ENDBRANCH   1  25
TORSDOF 16
ENDMDL
MODEL 3
REMARK VINA RESULT:     -10.5      1.244      2.058
REMARK SMILES CCC[C@@]1(C(=O)N[C@@](C)(C(=O)OCCOC(=O)c2ccc(-c3c4nc(c(-c5c(F)cccc5F)c5ccc([nH]5)c(-c5c(F)cccc5F)c5nc(c(-c6c(F)cccc6F)c6ccc3[nH]6)C=C5)C=C4)cc2)C(F)(F)F)CC[NH2+]C1
REMARK SMILES IDX 13 1 12 2 10 3 11 4 8 5 9 6 7 7 5 8 6 9 4 11 76 12 79 13
REMARK SMILES IDX 77 14 78 15 3 18 2 19 1 20 72 21 73 22 74 23 75 24 14 25
REMARK SMILES IDX 15 26 16 27 17 28 18 29 19 30 71 31 20 32 70 33 21 34 22 35
REMARK SMILES IDX 23 36 64 37 24 38 69 39 63 40 65 41 25 42 68 43 62 44 61 45
REMARK SMILES IDX 26 47 52 48 35 49 51 50 36 51 39 52 50 53 66 54 37 55 38 56
REMARK SMILES IDX 49 58 67 59 40 60 27 61 28 62 33 63 29 64 30 65 32 66 34 67
REMARK SMILES IDX 31 68 53 69 54 70 59 71 55 72 56 73 58 74 60 75 57 76 41 77
REMARK SMILES IDX 42 78 47 79 43 80 44 81 46 82 48 83 45 84
REMARK H PARENT 7 10 78 16 78 17 65 46 39 57
REMARK Flexibility Score: inf
ROOT
ATOM      1  C   UNL A   1      31.238  28.825  24.284  1.00  0.00     0.274 C 
ENDROOT
BRANCH   1   2
ATOM      2  O   UNL A   1      31.492  27.579  24.987  1.00  0.00    -0.460 OA
BRANCH   2   3
ATOM      3  C   UNL A   1      31.538  26.448  24.216  1.00  0.00     0.341 C 
ATOM      4  O   UNL A   1      30.797  26.261  23.258  1.00  0.00    -0.249 OA
BRANCH   3   5
ATOM      5  C   UNL A   1      32.450  25.355  24.822  1.00  0.00     0.231 C 
ATOM      6  C   UNL A   1      33.380  26.149  25.782  1.00  0.00     0.058 C 
BRANCH   5   7
ATOM      7  N   UNL A   1      33.435  24.671  23.861  1.00  0.00    -0.332 N 
ATOM      8  C   UNL A   1      34.361  23.691  23.733  1.00  0.00     0.233 C 
ATOM      9  O   UNL A   1      34.751  23.582  22.561  1.00  0.00    -0.274 OA
ATOM     10  H   UNL A   1      33.366  25.128  22.992  1.00  0.00     0.164 HD
BRANCH   8  11
ATOM     11  C   UNL A   1      35.014  22.808  24.827  1.00  0.00     0.103 C 
ATOM     12  C   UNL A   1      35.721  23.704  25.873  1.00  0.00     0.084 C 
ATOM     13  C   UNL A   1      36.207  21.981  24.253  1.00  0.00     0.277 C 
ATOM     14  C   UNL A   1      37.213  23.478  25.665  1.00  0.00     0.261 C 
ATOM     15  N   UNL A   1      37.301  22.088  25.230  1.00  0.00    -0.345 N 
ATOM     16  H   UNL A   1      37.160  21.450  26.012  1.00  0.00     0.346 HD
ATOM     17  H   UNL A   1      38.212  21.844  24.842  1.00  0.00     0.346 HD
BRANCH  11  18
ATOM     18  C   UNL A   1      34.059  21.826  25.502  1.00  0.00     0.023 C 
BRANCH  18  19
ATOM     19  C   UNL A   1      33.813  20.556  24.700  1.00  0.00    -0.002 C 
ATOM     20  C   UNL A   1      32.528  20.498  23.905  1.00  0.00     0.004 C 
ENDBRANCH  18  19
ENDBRANCH  11  18
ENDBRANCH   8  11
ENDBRANCH   5   7
BRANCH   5  21
ATOM     21  C   UNL A   1      31.538  24.487  25.706  1.00  0.00     0.422 C 
ATOM     22  F   UNL A   1      31.110  23.363  25.093  1.00  0.00    -0.168 F 
ATOM     23  F   UNL A   1      32.179  24.113  26.840  1.00  0.00    -0.168 F 
ATOM     24  F   UNL A   1      30.424  25.152  26.103  1.00  0.00    -0.168 F 
ENDBRANCH   5  21
ENDBRANCH   3   5
ENDBRANCH   2   3
ENDBRANCH   1   2
BRANCH   1  25
ATOM     25  C   UNL A   1      31.404  30.053  25.183  1.00  0.00     0.275 C 
BRANCH  25  26
ATOM     26  O   UNL A   1      32.561  29.881  26.011  1.00  0.00    -0.458 OA
BRANCH  26  27
ATOM     27  C   UNL A   1      32.892  30.932  26.806  1.00  0.00     0.338 C 
ATOM     28  O   UNL A   1      32.131  31.803  27.201  1.00  0.00    -0.246 OA
BRANCH  27  29
ATOM     29  C   UNL A   1      34.291  30.746  27.288  1.00  0.00     0.060 A 
ATOM     30  C   UNL A   1      34.757  29.473  27.602  1.00  0.00     0.016 A 
ATOM     31  C   UNL A   1      35.074  31.858  27.626  1.00  0.00     0.016 A 
ATOM     32  C   UNL A   1      35.896  29.330  28.397  1.00  0.00     0.010 A 
ATOM     33  C   UNL A   1      36.292  31.690  28.313  1.00  0.00     0.010 A 
ATOM     34  C   UNL A   1      36.713  30.419  28.736  1.00  0.00    -0.014 A 
BRANCH  34  35
ATOM     35  C   UNL A   1      38.003  30.203  29.474  1.00  0.00     0.031 A 
ATOM     36  C   UNL A   1      39.106  29.318  28.936  1.00  0.00     0.074 A 
ATOM     37  C   UNL A   1      38.204  30.806  30.666  1.00  0.00     0.049 A 
ATOM     38  N   UNL A   1      40.129  28.795  29.571  1.00  0.00    -0.248 NA
ATOM     39  C   UNL A   1      39.065  28.980  27.505  1.00  0.00     0.031 C 
ATOM     40  C   UNL A   1      37.290  31.749  31.315  1.00  0.00     0.029 A 
ATOM     41  N   UNL A   1      39.249  30.709  31.557  1.00  0.00    -0.354 N 
ATOM     42  C   UNL A   1      40.811  28.017  28.639  1.00  0.00     0.074 A 
ATOM     43  C   UNL A   1      40.103  28.160  27.384  1.00  0.00     0.031 C 
ATOM     44  C   UNL A   1      37.827  32.178  32.461  1.00  0.00     0.029 A 
ATOM     45  C   UNL A   1      39.037  31.415  32.716  1.00  0.00     0.049 A 
ATOM     46  H   UNL A   1      40.064  30.185  31.383  1.00  0.00     0.167 HD
ATOM     47  C   UNL A   1      41.912  27.245  28.823  1.00  0.00     0.037 A 
ATOM     48  C   UNL A   1      39.662  31.391  33.908  1.00  0.00     0.037 A 
ATOM     49  C   UNL A   1      42.653  27.149  30.058  1.00  0.00     0.049 A 
ATOM     50  C   UNL A   1      40.809  30.459  34.123  1.00  0.00     0.074 A 
ATOM     51  C   UNL A   1      43.787  26.399  30.328  1.00  0.00     0.029 A 
ATOM     52  N   UNL A   1      42.346  27.833  31.223  1.00  0.00    -0.354 N 
ATOM     53  N   UNL A   1      41.372  29.638  33.273  1.00  0.00    -0.248 NA
ATOM     54  C   UNL A   1      41.384  30.426  35.473  1.00  0.00     0.031 C 
ATOM     55  C   UNL A   1      44.142  26.597  31.667  1.00  0.00     0.029 A 
ATOM     56  C   UNL A   1      43.256  27.506  32.218  1.00  0.00     0.049 A 
ATOM     57  H   UNL A   1      41.592  28.457  31.330  1.00  0.00     0.167 HD
ATOM     58  C   UNL A   1      42.374  28.994  33.984  1.00  0.00     0.074 A 
ATOM     59  C   UNL A   1      42.354  29.534  35.327  1.00  0.00     0.031 C 
ATOM     60  C   UNL A   1      43.231  28.038  33.555  1.00  0.00     0.037 A 
BRANCH  47  61
ATOM     61  C   UNL A   1      42.382  26.390  27.679  1.00  0.00     0.057 A 
ATOM     62  C   UNL A   1      41.915  25.088  27.473  1.00  0.00     0.134 A 
ATOM     63  C   UNL A   1      43.234  26.932  26.705  1.00  0.00     0.134 A 
ATOM     64  F   UNL A   1      41.099  24.510  28.367  1.00  0.00    -0.206 F 
ATOM     65  C   UNL A   1      42.280  24.353  26.341  1.00  0.00     0.040 A 
ATOM     66  C   UNL A   1      43.589  26.216  25.560  1.00  0.00     0.040 A 
ATOM     67  F   UNL A   1      43.706  28.181  26.833  1.00  0.00    -0.206 F 
ATOM     68  C   UNL A   1      43.110  24.921  25.376  1.00  0.00     0.006 A 
ENDBRANCH  47  61
BRANCH  48  69
ATOM     69  C   UNL A   1      39.118  32.203  35.025  1.00  0.00     0.057 A 
ATOM     70  C   UNL A   1      38.253  31.649  35.970  1.00  0.00     0.134 A 
ATOM     71  C   UNL A   1      39.490  33.545  35.191  1.00  0.00     0.134 A 
ATOM     72  F   UNL A   1      37.844  30.378  35.848  1.00  0.00    -0.206 F 
ATOM     73  C   UNL A   1      37.776  32.399  37.046  1.00  0.00     0.040 A 
ATOM     74  C   UNL A   1      39.050  34.296  36.279  1.00  0.00     0.040 A 
ATOM     75  F   UNL A   1      40.324  34.131  34.318  1.00  0.00    -0.206 F 
ATOM     76  C   UNL A   1      38.185  33.723  37.208  1.00  0.00     0.006 A 
ENDBRANCH  48  69
BRANCH  60  77
ATOM     77  C   UNL A   1      44.241  27.544  34.545  1.00  0.00     0.057 A 
ATOM     78  C   UNL A   1      45.460  28.203  34.746  1.00  0.00     0.134 A 
ATOM     79  C   UNL A   1      43.995  26.390  35.299  1.00  0.00     0.134 A 
ATOM     80  F   UNL A   1      45.763  29.302  34.038  1.00  0.00    -0.206 F 
ATOM     81  C   UNL A   1      46.412  27.716  35.644  1.00  0.00     0.040 A 
ATOM     82  C   UNL A   1      44.928  25.906  36.215  1.00  0.00     0.040 A 
ATOM     83  F   UNL A   1      42.846  25.714  35.153  1.00  0.00    -0.206 F 
ATOM     84  C   UNL A   1      46.144  26.565  36.384  1.00  0.00     0.006 A 
ENDBRANCH  60  77
ENDBRANCH  34  35
ENDBRANCH  27  29
ENDBRANCH  26  27
ENDBRANCH  25  26
ENDBRANCH   1  25
TORSDOF 16
ENDMDL
