MODEL 1
REMARK VINA RESULT:     -10.6      0.000      0.000
REMARK SMILES Nc1ccc(SCCn2cc(C(=O)OCCOC(=O)c3ccc(-c4c5nc(c(-c6c(F)cccc6F)c6ccc([nH]6)c(-c6c(F)cccc6F)c6nc(c(-c7c(F)cccc7F)c7ccc4[nH]7)C=C6)C=C5)cc3)nn2)cc1Cl
REMARK SMILES IDX 14 1 12 2 13 3 11 4 9 5 10 6 75 7 74 8 8 9 7 10 6 11 5 12
REMARK SMILES IDX 2 13 3 14 77 15 4 16 76 17 78 18 1 19 15 22 16 23 17 24
REMARK SMILES IDX 18 25 19 26 20 27 21 28 73 29 22 30 72 31 23 32 24 33 25 34
REMARK SMILES IDX 66 35 26 36 71 37 65 38 67 39 27 40 70 41 64 42 63 43 28 45
REMARK SMILES IDX 54 46 37 47 53 48 38 49 41 50 52 51 68 52 39 53 40 54 51 56
REMARK SMILES IDX 69 57 42 58 29 59 30 60 35 61 31 62 32 63 34 64 36 65 33 66
REMARK SMILES IDX 55 67 56 68 61 69 57 70 58 71 60 72 62 73 59 74 43 75 44 76
REMARK SMILES IDX 49 77 45 78 46 79 48 80 50 81 47 82
REMARK H PARENT 1 20 1 21 67 44 41 55
REMARK Flexibility Score: inf
ROOT
ATOM      1  O   UNL A   1      40.990  21.092  26.345  1.00  0.00    -0.457 OA
ENDROOT
BRANCH   1   2
ATOM      2  C   UNL A   1      39.719  20.780  25.944  1.00  0.00     0.360 C 
ATOM      3  O   UNL A   1      39.342  19.636  25.691  1.00  0.00    -0.244 OA
BRANCH   2   4
ATOM      4  C   UNL A   1      38.836  21.928  25.919  1.00  0.00     0.190 A 
ATOM      5  N   UNL A   1      37.156  23.267  25.795  1.00  0.00    -0.251 N 
ATOM      6  C   UNL A   1      37.585  22.051  25.349  1.00  0.00     0.147 A 
ATOM      7  N   UNL A   1      38.138  23.947  26.403  1.00  0.00    -0.067 NA
ATOM      8  N   UNL A   1      39.156  23.112  26.545  1.00  0.00    -0.123 NA
BRANCH   5   9
ATOM      9  C   UNL A   1      35.806  23.779  25.808  1.00  0.00     0.157 C 
BRANCH   9  10
ATOM     10  C   UNL A   1      34.864  22.978  26.713  1.00  0.00     0.098 C 
BRANCH  10  11
ATOM     11  S   UNL A   1      33.097  22.893  26.203  1.00  0.00    -0.124 SA
BRANCH  11  12
ATOM     12  C   UNL A   1      32.957  21.388  25.246  1.00  0.00     0.009 A 
ATOM     13  C   UNL A   1      32.457  19.079  23.680  1.00  0.00     0.050 A 
ATOM     14  C   UNL A   1      32.997  18.975  24.962  1.00  0.00     0.028 A 
ATOM     15  C   UNL A   1      32.319  20.363  23.133  1.00  0.00     0.065 A 
ATOM     16  C   UNL A   1      33.248  20.115  25.738  1.00  0.00     0.017 A 
ATOM     17  C   UNL A   1      32.547  21.504  23.912  1.00  0.00     0.037 A 
ATOM     18  Cl  UNL A   1      31.819  20.570  21.488  1.00  0.00    -0.082 Cl
BRANCH  13  19
ATOM     19  N   UNL A   1      32.209  17.915  22.948  1.00  0.00    -0.398 N 
ATOM     20  H   UNL A   1      31.414  17.856  22.371  1.00  0.00     0.156 HD
ATOM     21  H   UNL A   1      32.830  17.153  23.010  1.00  0.00     0.156 HD
ENDBRANCH  13  19
ENDBRANCH  11  12
ENDBRANCH  10  11
ENDBRANCH   9  10
ENDBRANCH   5   9
ENDBRANCH   2   4
ENDBRANCH   1   2
BRANCH   1  22
ATOM     22  C   UNL A   1      41.718  19.998  26.930  1.00  0.00     0.275 C 
BRANCH  22  23
ATOM     23  C   UNL A   1      42.923  19.606  26.080  1.00  0.00     0.275 C 
BRANCH  23  24
ATOM     24  O   UNL A   1      43.146  20.530  25.013  1.00  0.00    -0.458 OA
BRANCH  24  25
ATOM     25  C   UNL A   1      44.437  20.914  24.865  1.00  0.00     0.338 C 
ATOM     26  O   UNL A   1      45.396  20.189  24.666  1.00  0.00    -0.246 OA
BRANCH  25  27
ATOM     27  C   UNL A   1      44.567  22.324  25.231  1.00  0.00     0.060 A 
ATOM     28  C   UNL A   1      45.479  22.668  26.235  1.00  0.00     0.016 A 
ATOM     29  C   UNL A   1      43.557  23.200  24.812  1.00  0.00     0.016 A 
ATOM     30  C   UNL A   1      45.274  23.841  26.934  1.00  0.00     0.010 A 
ATOM     31  C   UNL A   1      43.335  24.347  25.529  1.00  0.00     0.010 A 
ATOM     32  C   UNL A   1      44.155  24.623  26.622  1.00  0.00    -0.014 A 
BRANCH  32  33
ATOM     33  C   UNL A   1      43.920  25.848  27.363  1.00  0.00     0.031 A 
ATOM     34  C   UNL A   1      44.933  26.886  27.056  1.00  0.00     0.074 A 
ATOM     35  C   UNL A   1      42.791  26.039  28.076  1.00  0.00     0.049 A 
ATOM     36  N   UNL A   1      45.767  27.446  27.866  1.00  0.00    -0.248 NA
ATOM     37  C   UNL A   1      45.164  27.223  25.638  1.00  0.00     0.031 C 
ATOM     38  C   UNL A   1      41.626  25.145  28.144  1.00  0.00     0.029 A 
ATOM     39  N   UNL A   1      42.378  27.122  28.792  1.00  0.00    -0.354 N 
ATOM     40  C   UNL A   1      46.467  28.370  27.093  1.00  0.00     0.074 A 
ATOM     41  C   UNL A   1      46.216  28.036  25.721  1.00  0.00     0.031 C 
ATOM     42  C   UNL A   1      40.571  25.821  28.652  1.00  0.00     0.029 A 
ATOM     43  C   UNL A   1      41.010  27.145  29.056  1.00  0.00     0.049 A 
ATOM     44  H   UNL A   1      42.993  27.828  29.096  1.00  0.00     0.167 HD
ATOM     45  C   UNL A   1      46.914  29.527  27.648  1.00  0.00     0.037 A 
ATOM     46  C   UNL A   1      40.291  28.206  29.502  1.00  0.00     0.037 A 
ATOM     47  C   UNL A   1      46.981  29.407  29.083  1.00  0.00     0.049 A 
ATOM     48  C   UNL A   1      41.250  29.190  30.054  1.00  0.00     0.074 A 
ATOM     49  C   UNL A   1      47.688  28.639  29.982  1.00  0.00     0.029 A 
ATOM     50  N   UNL A   1      45.907  29.922  29.760  1.00  0.00    -0.354 N 
ATOM     51  N   UNL A   1      41.936  29.013  31.146  1.00  0.00    -0.248 NA
ATOM     52  C   UNL A   1      41.744  30.237  29.172  1.00  0.00     0.031 C 
ATOM     53  C   UNL A   1      46.809  28.442  31.089  1.00  0.00     0.029 A 
ATOM     54  C   UNL A   1      45.627  29.145  30.848  1.00  0.00     0.049 A 
ATOM     55  H   UNL A   1      45.412  30.732  29.501  1.00  0.00     0.167 HD
ATOM     56  C   UNL A   1      43.171  29.580  30.877  1.00  0.00     0.074 A 
ATOM     57  C   UNL A   1      42.941  30.446  29.724  1.00  0.00     0.031 C 
ATOM     58  C   UNL A   1      44.304  29.055  31.427  1.00  0.00     0.037 A 
BRANCH  45  59
ATOM     59  C   UNL A   1      46.782  30.879  26.969  1.00  0.00     0.057 A 
ATOM     60  C   UNL A   1      47.895  31.739  26.967  1.00  0.00     0.134 A 
ATOM     61  C   UNL A   1      45.559  31.495  26.622  1.00  0.00     0.134 A 
ATOM     62  F   UNL A   1      49.116  31.286  27.294  1.00  0.00    -0.206 F 
ATOM     63  C   UNL A   1      47.785  33.115  26.727  1.00  0.00     0.040 A 
ATOM     64  C   UNL A   1      45.447  32.858  26.331  1.00  0.00     0.040 A 
ATOM     65  F   UNL A   1      44.387  30.853  26.641  1.00  0.00    -0.206 F 
ATOM     66  C   UNL A   1      46.556  33.680  26.417  1.00  0.00     0.006 A 
ENDBRANCH  45  59
BRANCH  46  67
ATOM     67  C   UNL A   1      38.886  28.584  29.213  1.00  0.00     0.057 A 
ATOM     68  C   UNL A   1      37.932  28.664  30.241  1.00  0.00     0.134 A 
ATOM     69  C   UNL A   1      38.514  29.161  27.987  1.00  0.00     0.134 A 
ATOM     70  F   UNL A   1      38.204  28.178  31.462  1.00  0.00    -0.206 F 
ATOM     71  C   UNL A   1      36.700  29.311  30.072  1.00  0.00     0.040 A 
ATOM     72  C   UNL A   1      37.285  29.804  27.802  1.00  0.00     0.040 A 
ATOM     73  F   UNL A   1      39.369  29.207  26.956  1.00  0.00    -0.206 F 
ATOM     74  C   UNL A   1      36.379  29.896  28.852  1.00  0.00     0.006 A 
ENDBRANCH  46  67
BRANCH  58  75
ATOM     75  C   UNL A   1      44.140  28.164  32.627  1.00  0.00     0.057 A 
ATOM     76  C   UNL A   1      43.918  26.780  32.580  1.00  0.00     0.134 A 
ATOM     77  C   UNL A   1      44.308  28.737  33.893  1.00  0.00     0.134 A 
ATOM     78  F   UNL A   1      43.835  26.126  31.413  1.00  0.00    -0.206 F 
ATOM     79  C   UNL A   1      43.814  26.014  33.747  1.00  0.00     0.040 A 
ATOM     80  C   UNL A   1      44.247  27.978  35.061  1.00  0.00     0.040 A 
ATOM     81  F   UNL A   1      44.570  30.048  34.013  1.00  0.00    -0.206 F 
ATOM     82  C   UNL A   1      43.984  26.613  34.992  1.00  0.00     0.006 A 
ENDBRANCH  58  75
ENDBRANCH  32  33
ENDBRANCH  25  27
ENDBRANCH  24  25
ENDBRANCH  23  24
ENDBRANCH  22  23
ENDBRANCH   1  22
TORSDOF 16
ENDMDL
MODEL 2
REMARK VINA RESULT:     -10.6      1.704      1.950
REMARK SMILES Nc1ccc(SCCn2cc(C(=O)OCCOC(=O)c3ccc(-c4c5nc(c(-c6c(F)cccc6F)c6ccc([nH]6)c(-c6c(F)cccc6F)c6nc(c(-c7c(F)cccc7F)c7ccc4[nH]7)C=C6)C=C5)cc3)nn2)cc1Cl
REMARK SMILES IDX 14 1 12 2 13 3 11 4 9 5 10 6 75 7 74 8 8 9 7 10 6 11 5 12
REMARK SMILES IDX 2 13 3 14 77 15 4 16 76 17 78 18 1 19 15 22 16 23 17 24
REMARK SMILES IDX 18 25 19 26 20 27 21 28 73 29 22 30 72 31 23 32 24 33 25 34
REMARK SMILES IDX 66 35 26 36 71 37 65 38 67 39 27 40 70 41 64 42 63 43 28 45
REMARK SMILES IDX 54 46 37 47 53 48 38 49 41 50 52 51 68 52 39 53 40 54 51 56
REMARK SMILES IDX 69 57 42 58 29 59 30 60 35 61 31 62 32 63 34 64 36 65 33 66
REMARK SMILES IDX 55 67 56 68 61 69 57 70 58 71 60 72 62 73 59 74 43 75 44 76
REMARK SMILES IDX 49 77 45 78 46 79 48 80 50 81 47 82
REMARK H PARENT 1 20 1 21 67 44 41 55
REMARK Flexibility Score: inf
ROOT
ATOM      1  O   UNL A   1      41.347  20.456  26.080  1.00  0.00    -0.457 OA
ENDROOT
BRANCH   1   2
ATOM      2  C   UNL A   1      40.039  20.165  25.799  1.00  0.00     0.360 C 
ATOM      3  O   UNL A   1      39.612  19.023  25.632  1.00  0.00    -0.244 OA
BRANCH   2   4
ATOM      4  C   UNL A   1      39.188  21.337  25.794  1.00  0.00     0.190 A 
ATOM      5  N   UNL A   1      37.571  22.742  25.585  1.00  0.00    -0.251 N 
ATOM      6  C   UNL A   1      38.057  21.588  25.043  1.00  0.00     0.147 A 
ATOM      7  N   UNL A   1      38.441  23.291  26.444  1.00  0.00    -0.067 NA
ATOM      8  N   UNL A   1      39.408  22.407  26.634  1.00  0.00    -0.123 NA
BRANCH   5   9
ATOM      9  C   UNL A   1      36.247  23.298  25.442  1.00  0.00     0.157 C 
BRANCH   9  10
ATOM     10  C   UNL A   1      35.640  23.066  24.054  1.00  0.00     0.098 C 
BRANCH  10  11
ATOM     11  S   UNL A   1      34.273  24.192  23.548  1.00  0.00    -0.124 SA
BRANCH  11  12
ATOM     12  C   UNL A   1      32.830  23.604  24.427  1.00  0.00     0.009 A 
ATOM     13  C   UNL A   1      30.628  22.846  26.041  1.00  0.00     0.050 A 
ATOM     14  C   UNL A   1      31.467  21.887  25.474  1.00  0.00     0.028 A 
ATOM     15  C   UNL A   1      30.813  24.182  25.660  1.00  0.00     0.065 A 
ATOM     16  C   UNL A   1      32.555  22.259  24.673  1.00  0.00     0.017 A 
ATOM     17  C   UNL A   1      31.912  24.560  24.879  1.00  0.00     0.037 A 
ATOM     18  Cl  UNL A   1      29.709  25.409  26.183  1.00  0.00    -0.082 Cl
BRANCH  13  19
ATOM     19  N   UNL A   1      29.563  22.431  26.845  1.00  0.00    -0.398 N 
ATOM     20  H   UNL A   1      29.041  21.634  26.599  1.00  0.00     0.156 HD
ATOM     21  H   UNL A   1      29.336  22.935  27.660  1.00  0.00     0.156 HD
ENDBRANCH  13  19
ENDBRANCH  11  12
ENDBRANCH  10  11
ENDBRANCH   9  10
ENDBRANCH   5   9
ENDBRANCH   2   4
ENDBRANCH   1   2
BRANCH   1  22
ATOM     22  C   UNL A   1      42.089  19.371  26.662  1.00  0.00     0.275 C 
BRANCH  22  23
ATOM     23  C   UNL A   1      43.332  19.036  25.843  1.00  0.00     0.275 C 
BRANCH  23  24
ATOM     24  O   UNL A   1      43.386  19.783  24.626  1.00  0.00    -0.458 OA
BRANCH  24  25
ATOM     25  C   UNL A   1      44.632  20.167  24.259  1.00  0.00     0.338 C 
ATOM     26  O   UNL A   1      45.511  19.456  23.804  1.00  0.00    -0.246 OA
BRANCH  25  27
ATOM     27  C   UNL A   1      44.873  21.532  24.725  1.00  0.00     0.060 A 
ATOM     28  C   UNL A   1      45.800  21.729  25.755  1.00  0.00     0.016 A 
ATOM     29  C   UNL A   1      43.943  22.516  24.364  1.00  0.00     0.016 A 
ATOM     30  C   UNL A   1      45.685  22.863  26.534  1.00  0.00     0.010 A 
ATOM     31  C   UNL A   1      43.808  23.624  25.159  1.00  0.00     0.010 A 
ATOM     32  C   UNL A   1      44.637  23.754  26.273  1.00  0.00    -0.014 A 
BRANCH  32  33
ATOM     33  C   UNL A   1      44.495  24.939  27.097  1.00  0.00     0.031 A 
ATOM     34  C   UNL A   1      45.614  25.892  26.899  1.00  0.00     0.074 A 
ATOM     35  C   UNL A   1      43.365  25.189  27.790  1.00  0.00     0.049 A 
ATOM     36  N   UNL A   1      46.469  26.306  27.771  1.00  0.00    -0.248 NA
ATOM     37  C   UNL A   1      45.927  26.306  25.517  1.00  0.00     0.031 C 
ATOM     38  C   UNL A   1      42.118  24.413  27.758  1.00  0.00     0.029 A 
ATOM     39  N   UNL A   1      43.034  26.254  28.574  1.00  0.00    -0.354 N 
ATOM     40  C   UNL A   1      47.282  27.210  27.091  1.00  0.00     0.074 A 
ATOM     41  C   UNL A   1      47.049  27.003  25.690  1.00  0.00     0.031 C 
ATOM     42  C   UNL A   1      41.116  25.152  28.286  1.00  0.00     0.029 A 
ATOM     43  C   UNL A   1      41.666  26.393  28.801  1.00  0.00     0.049 A 
ATOM     44  H   UNL A   1      43.703  26.871  28.948  1.00  0.00     0.167 HD
ATOM     45  C   UNL A   1      47.819  28.273  27.744  1.00  0.00     0.037 A 
ATOM     46  C   UNL A   1      41.038  27.485  29.305  1.00  0.00     0.037 A 
ATOM     47  C   UNL A   1      47.823  28.044  29.167  1.00  0.00     0.049 A 
ATOM     48  C   UNL A   1      42.067  28.326  29.957  1.00  0.00     0.074 A 
ATOM     49  C   UNL A   1      48.420  27.146  30.025  1.00  0.00     0.029 A 
ATOM     50  N   UNL A   1      46.781  28.613  29.850  1.00  0.00    -0.354 N 
ATOM     51  N   UNL A   1      42.693  28.003  31.051  1.00  0.00    -0.248 NA
ATOM     52  C   UNL A   1      42.691  29.380  29.170  1.00  0.00     0.031 C 
ATOM     53  C   UNL A   1      47.487  26.958  31.088  1.00  0.00     0.029 A 
ATOM     54  C   UNL A   1      46.388  27.790  30.868  1.00  0.00     0.049 A 
ATOM     55  H   UNL A   1      46.375  29.484  29.640  1.00  0.00     0.167 HD
ATOM     56  C   UNL A   1      43.986  28.464  30.860  1.00  0.00     0.074 A 
ATOM     57  C   UNL A   1      43.883  29.429  29.770  1.00  0.00     0.031 C 
ATOM     58  C   UNL A   1      45.043  27.790  31.401  1.00  0.00     0.037 A 
BRANCH  45  59
ATOM     59  C   UNL A   1      47.842  29.678  27.166  1.00  0.00     0.057 A 
ATOM     60  C   UNL A   1      49.029  30.425  27.270  1.00  0.00     0.134 A 
ATOM     61  C   UNL A   1      46.698  30.431  26.822  1.00  0.00     0.134 A 
ATOM     62  F   UNL A   1      50.187  29.835  27.606  1.00  0.00    -0.206 F 
ATOM     63  C   UNL A   1      49.058  31.819  27.131  1.00  0.00     0.040 A 
ATOM     64  C   UNL A   1      46.726  31.816  26.632  1.00  0.00     0.040 A 
ATOM     65  F   UNL A   1      45.472  29.905  26.749  1.00  0.00    -0.206 F 
ATOM     66  C   UNL A   1      47.901  32.521  26.820  1.00  0.00     0.006 A 
ENDBRANCH  45  59
BRANCH  46  67
ATOM     67  C   UNL A   1      39.687  28.020  29.006  1.00  0.00     0.057 A 
ATOM     68  C   UNL A   1      38.701  28.094  30.003  1.00  0.00     0.134 A 
ATOM     69  C   UNL A   1      39.423  28.742  27.830  1.00  0.00     0.134 A 
ATOM     70  F   UNL A   1      38.873  27.472  31.179  1.00  0.00    -0.206 F 
ATOM     71  C   UNL A   1      37.542  28.868  29.856  1.00  0.00     0.040 A 
ATOM     72  C   UNL A   1      38.267  29.513  27.665  1.00  0.00     0.040 A 
ATOM     73  F   UNL A   1      40.323  28.803  26.838  1.00  0.00    -0.206 F 
ATOM     74  C   UNL A   1      37.328  29.593  28.688  1.00  0.00     0.006 A 
ENDBRANCH  46  67
BRANCH  58  75
ATOM     75  C   UNL A   1      44.751  26.836  32.525  1.00  0.00     0.057 A 
ATOM     76  C   UNL A   1      44.462  25.472  32.371  1.00  0.00     0.134 A 
ATOM     77  C   UNL A   1      44.860  27.317  33.835  1.00  0.00     0.134 A 
ATOM     78  F   UNL A   1      44.426  24.899  31.160  1.00  0.00    -0.206 F 
ATOM     79  C   UNL A   1      44.239  24.640  33.474  1.00  0.00     0.040 A 
ATOM     80  C   UNL A   1      44.680  26.489  34.943  1.00  0.00     0.040 A 
ATOM     81  F   UNL A   1      45.181  28.601  34.060  1.00  0.00    -0.206 F 
ATOM     82  C   UNL A   1      44.352  25.149  34.765  1.00  0.00     0.006 A 
ENDBRANCH  58  75
ENDBRANCH  32  33
ENDBRANCH  25  27
ENDBRANCH  24  25
ENDBRANCH  23  24
ENDBRANCH  22  23
ENDBRANCH   1  22
TORSDOF 16
ENDMDL
MODEL 3
REMARK VINA RESULT:     -10.4      5.402      9.651
REMARK SMILES Nc1ccc(SCCn2cc(C(=O)OCCOC(=O)c3ccc(-c4c5nc(c(-c6c(F)cccc6F)c6ccc([nH]6)c(-c6c(F)cccc6F)c6nc(c(-c7c(F)cccc7F)c7ccc4[nH]7)C=C6)C=C5)cc3)nn2)cc1Cl
REMARK SMILES IDX 14 1 12 2 13 3 11 4 9 5 10 6 75 7 74 8 8 9 7 10 6 11 5 12
REMARK SMILES IDX 2 13 3 14 77 15 4 16 76 17 78 18 1 19 15 22 16 23 17 24
REMARK SMILES IDX 18 25 19 26 20 27 21 28 73 29 22 30 72 31 23 32 24 33 25 34
REMARK SMILES IDX 66 35 26 36 71 37 65 38 67 39 27 40 70 41 64 42 63 43 28 45
REMARK SMILES IDX 54 46 37 47 53 48 38 49 41 50 52 51 68 52 39 53 40 54 51 56
REMARK SMILES IDX 69 57 42 58 29 59 30 60 35 61 31 62 32 63 34 64 36 65 33 66
REMARK SMILES IDX 55 67 56 68 61 69 57 70 58 71 60 72 62 73 59 74 43 75 44 76
REMARK SMILES IDX 49 77 45 78 46 79 48 80 50 81 47 82
REMARK H PARENT 1 20 1 21 67 44 41 55
REMARK Flexibility Score: inf
ROOT
ATOM      1  O   UNL A   1      33.674  33.346  28.908  1.00  0.00    -0.457 OA
ENDROOT
BRANCH   1   2
ATOM      2  C   UNL A   1      34.572  32.792  28.037  1.00  0.00     0.360 C 
ATOM      3  O   UNL A   1      35.607  33.350  27.673  1.00  0.00    -0.244 OA
BRANCH   2   4
ATOM      4  C   UNL A   1      34.220  31.443  27.643  1.00  0.00     0.190 A 
ATOM      5  N   UNL A   1      33.388  29.690  26.712  1.00  0.00    -0.251 N 
ATOM      6  C   UNL A   1      33.096  30.996  26.977  1.00  0.00     0.147 A 
ATOM      7  N   UNL A   1      34.495  29.289  27.352  1.00  0.00    -0.067 NA
ATOM      8  N   UNL A   1      35.054  30.371  27.874  1.00  0.00    -0.123 NA
BRANCH   5   9
ATOM      9  C   UNL A   1      32.749  28.817  25.757  1.00  0.00     0.157 C 
BRANCH   9  10
ATOM     10  C   UNL A   1      33.716  28.255  24.709  1.00  0.00     0.098 C 
BRANCH  10  11
ATOM     11  S   UNL A   1      33.048  28.009  23.011  1.00  0.00    -0.124 SA
BRANCH  11  12
ATOM     12  C   UNL A   1      31.383  27.401  23.244  1.00  0.00     0.009 A 
ATOM     13  C   UNL A   1      28.702  26.664  23.793  1.00  0.00     0.050 A 
ATOM     14  C   UNL A   1      29.745  25.751  23.952  1.00  0.00     0.028 A 
ATOM     15  C   UNL A   1      29.002  27.900  23.205  1.00  0.00     0.065 A 
ATOM     16  C   UNL A   1      31.071  26.112  23.679  1.00  0.00     0.017 A 
ATOM     17  C   UNL A   1      30.327  28.273  22.951  1.00  0.00     0.037 A 
ATOM     18  Cl  UNL A   1      27.739  29.020  22.816  1.00  0.00    -0.082 Cl
BRANCH  13  19
ATOM     19  N   UNL A   1      27.397  26.265  24.093  1.00  0.00    -0.398 N 
ATOM     20  H   UNL A   1      26.835  25.854  23.397  1.00  0.00     0.156 HD
ATOM     21  H   UNL A   1      27.038  26.396  25.001  1.00  0.00     0.156 HD
ENDBRANCH  13  19
ENDBRANCH  11  12
ENDBRANCH  10  11
ENDBRANCH   9  10
ENDBRANCH   5   9
ENDBRANCH   2   4
ENDBRANCH   1   2
BRANCH   1  22
ATOM     22  C   UNL A   1      33.449  34.753  28.722  1.00  0.00     0.275 C 
BRANCH  22  23
ATOM     23  C   UNL A   1      33.110  35.449  30.037  1.00  0.00     0.275 C 
BRANCH  23  24
ATOM     24  O   UNL A   1      34.190  35.382  30.970  1.00  0.00    -0.458 OA
BRANCH  24  25
ATOM     25  C   UNL A   1      33.937  34.631  32.069  1.00  0.00     0.338 C 
ATOM     26  O   UNL A   1      32.974  34.724  32.810  1.00  0.00    -0.246 OA
BRANCH  25  27
ATOM     27  C   UNL A   1      35.124  33.843  32.399  1.00  0.00     0.060 A 
ATOM     28  C   UNL A   1      36.330  34.518  32.617  1.00  0.00     0.016 A 
ATOM     29  C   UNL A   1      35.077  32.465  32.156  1.00  0.00     0.016 A 
ATOM     30  C   UNL A   1      37.512  33.829  32.429  1.00  0.00     0.010 A 
ATOM     31  C   UNL A   1      36.250  31.790  31.936  1.00  0.00     0.010 A 
ATOM     32  C   UNL A   1      37.451  32.493  32.012  1.00  0.00    -0.014 A 
BRANCH  32  33
ATOM     33  C   UNL A   1      38.686  31.765  31.793  1.00  0.00     0.031 A 
ATOM     34  C   UNL A   1      39.420  31.523  33.059  1.00  0.00     0.074 A 
ATOM     35  C   UNL A   1      38.986  31.221  30.596  1.00  0.00     0.049 A 
ATOM     36  N   UNL A   1      40.600  31.931  33.384  1.00  0.00    -0.248 NA
ATOM     37  C   UNL A   1      38.683  30.891  34.170  1.00  0.00     0.031 C 
ATOM     38  C   UNL A   1      38.128  31.180  29.404  1.00  0.00     0.029 A 
ATOM     39  N   UNL A   1      40.062  30.476  30.215  1.00  0.00    -0.354 N 
ATOM     40  C   UNL A   1      40.835  31.407  34.653  1.00  0.00     0.074 A 
ATOM     41  C   UNL A   1      39.565  30.977  35.164  1.00  0.00     0.031 C 
ATOM     42  C   UNL A   1      38.608  30.261  28.536  1.00  0.00     0.029 A 
ATOM     43  C   UNL A   1      39.863  29.740  29.049  1.00  0.00     0.049 A 
ATOM     44  H   UNL A   1      40.907  30.461  30.719  1.00  0.00     0.167 HD
ATOM     45  C   UNL A   1      42.095  31.065  35.030  1.00  0.00     0.037 A 
ATOM     46  C   UNL A   1      40.641  28.726  28.591  1.00  0.00     0.037 A 
ATOM     47  C   UNL A   1      43.069  31.729  34.200  1.00  0.00     0.049 A 
ATOM     48  C   UNL A   1      41.940  28.813  29.296  1.00  0.00     0.074 A 
ATOM     49  C   UNL A   1      43.438  33.034  33.953  1.00  0.00     0.029 A 
ATOM     50  N   UNL A   1      43.563  30.976  33.168  1.00  0.00    -0.354 N 
ATOM     51  N   UNL A   1      42.814  29.759  29.109  1.00  0.00    -0.248 NA
ATOM     52  C   UNL A   1      42.113  28.037  30.515  1.00  0.00     0.031 C 
ATOM     53  C   UNL A   1      43.849  33.061  32.587  1.00  0.00     0.029 A 
ATOM     54  C   UNL A   1      43.771  31.766  32.073  1.00  0.00     0.049 A 
ATOM     55  H   UNL A   1      43.743  30.009  33.210  1.00  0.00     0.167 HD
ATOM     56  C   UNL A   1      43.343  29.997  30.367  1.00  0.00     0.074 A 
ATOM     57  C   UNL A   1      42.994  28.815  31.149  1.00  0.00     0.031 C 
ATOM     58  C   UNL A   1      43.740  31.254  30.721  1.00  0.00     0.037 A 
BRANCH  45  59
ATOM     59  C   UNL A   1      42.422  29.775  35.761  1.00  0.00     0.057 A 
ATOM     60  C   UNL A   1      43.405  29.806  36.767  1.00  0.00     0.134 A 
ATOM     61  C   UNL A   1      42.074  28.480  35.316  1.00  0.00     0.134 A 
ATOM     62  F   UNL A   1      43.839  30.973  37.269  1.00  0.00    -0.206 F 
ATOM     63  C   UNL A   1      44.051  28.651  37.227  1.00  0.00     0.040 A 
ATOM     64  C   UNL A   1      42.677  27.319  35.805  1.00  0.00     0.040 A 
ATOM     65  F   UNL A   1      41.213  28.259  34.318  1.00  0.00    -0.206 F 
ATOM     66  C   UNL A   1      43.693  27.402  36.739  1.00  0.00     0.006 A 
ENDBRANCH  45  59
BRANCH  46  67
ATOM     67  C   UNL A   1      40.258  27.509  27.835  1.00  0.00     0.057 A 
ATOM     68  C   UNL A   1      40.862  27.201  26.605  1.00  0.00     0.134 A 
ATOM     69  C   UNL A   1      39.520  26.472  28.431  1.00  0.00     0.134 A 
ATOM     70  F   UNL A   1      41.620  28.109  25.972  1.00  0.00    -0.206 F 
ATOM     71  C   UNL A   1      40.769  25.930  26.022  1.00  0.00     0.040 A 
ATOM     72  C   UNL A   1      39.412  25.200  27.856  1.00  0.00     0.040 A 
ATOM     73  F   UNL A   1      38.958  26.627  29.638  1.00  0.00    -0.206 F 
ATOM     74  C   UNL A   1      40.053  24.919  26.655  1.00  0.00     0.006 A 
ENDBRANCH  46  67
BRANCH  58  75
ATOM     75  C   UNL A   1      43.990  32.236  29.610  1.00  0.00     0.057 A 
ATOM     76  C   UNL A   1      43.067  33.184  29.147  1.00  0.00     0.134 A 
ATOM     77  C   UNL A   1      45.272  32.273  29.048  1.00  0.00     0.134 A 
ATOM     78  F   UNL A   1      41.844  33.288  29.686  1.00  0.00    -0.206 F 
ATOM     79  C   UNL A   1      43.392  34.091  28.132  1.00  0.00     0.040 A 
ATOM     80  C   UNL A   1      45.621  33.198  28.064  1.00  0.00     0.040 A 
ATOM     81  F   UNL A   1      46.223  31.427  29.475  1.00  0.00    -0.206 F 
ATOM     82  C   UNL A   1      44.675  34.102  27.591  1.00  0.00     0.006 A 
ENDBRANCH  58  75
ENDBRANCH  32  33
ENDBRANCH  25  27
ENDBRANCH  24  25
ENDBRANCH  23  24
ENDBRANCH  22  23
ENDBRANCH   1  22
TORSDOF 16
ENDMDL
