MODEL 1
REMARK VINA RESULT:     -12.0      0.000      0.000
REMARK SMILES O=C(OCCOC(=O)[C@H]1C[N@H+](Cc2ccc(Cl)c(Cl)c2)CC12CCCCC2)c1ccc(-c2c3nc(c(-c4c(F)cccc4F)c4ccc([nH]4)c(-c4c(F)cccc4F)c4nc(c(-c5c(F)cccc5F)c5ccc2[nH]5)C=C4)C=C3)cc1
REMARK SMILES IDX 4 1 3 2 2 3 1 4 28 5 29 6 81 7 30 8 80 9 31 10 32 11 33 12
REMARK SMILES IDX 74 13 34 14 79 15 73 16 75 17 35 18 78 19 72 20 71 21 36 23
REMARK SMILES IDX 62 24 45 25 61 26 46 27 49 28 60 29 76 30 47 31 48 32 59 34
REMARK SMILES IDX 77 35 50 36 37 37 38 38 43 39 39 40 40 41 42 42 44 43 41 44
REMARK SMILES IDX 63 45 64 46 69 47 65 48 66 49 68 50 70 51 67 52 51 53 52 54
REMARK SMILES IDX 57 55 53 56 54 57 56 58 58 59 55 60 5 61 6 62 7 63 8 64 9 65
REMARK SMILES IDX 10 66 22 67 11 68 21 69 23 70 27 71 24 73 26 74 25 75 12 76
REMARK SMILES IDX 13 77 14 78 20 79 15 80 18 81 16 82 19 83 17 84
REMARK H PARENT 75 22 49 33 11 72
REMARK Flexibility Score: inf
ROOT
ATOM      1  C   UNL A   1      31.468  32.099  27.137  1.00  0.00     0.275 C 
ENDROOT
BRANCH   1   2
ATOM      2  O   UNL A   1      32.321  33.246  27.002  1.00  0.00    -0.458 OA
BRANCH   2   3
ATOM      3  C   UNL A   1      32.942  33.949  27.972  1.00  0.00     0.338 C 
ATOM      4  O   UNL A   1      32.396  34.965  28.400  1.00  0.00    -0.246 OA
BRANCH   3   5
ATOM      5  C   UNL A   1      34.263  33.553  28.565  1.00  0.00     0.060 A 
ATOM      6  C   UNL A   1      35.485  34.219  28.436  1.00  0.00     0.016 A 
ATOM      7  C   UNL A   1      34.252  32.386  29.333  1.00  0.00     0.016 A 
ATOM      8  C   UNL A   1      36.640  33.775  29.098  1.00  0.00     0.010 A 
ATOM      9  C   UNL A   1      35.385  31.973  30.038  1.00  0.00     0.010 A 
ATOM     10  C   UNL A   1      36.604  32.652  29.920  1.00  0.00    -0.014 A 
BRANCH  10  11
ATOM     11  C   UNL A   1      37.817  32.117  30.598  1.00  0.00     0.031 A 
ATOM     12  C   UNL A   1      38.568  30.987  29.935  1.00  0.00     0.074 A 
ATOM     13  C   UNL A   1      38.136  32.497  31.855  1.00  0.00     0.049 A 
ATOM     14  N   UNL A   1      39.469  30.179  30.430  1.00  0.00    -0.248 NA
ATOM     15  C   UNL A   1      38.181  30.670  28.549  1.00  0.00     0.031 C 
ATOM     16  C   UNL A   1      37.398  33.468  32.674  1.00  0.00     0.029 A 
ATOM     17  N   UNL A   1      39.083  31.997  32.719  1.00  0.00    -0.354 N 
ATOM     18  C   UNL A   1      39.698  29.230  29.438  1.00  0.00     0.074 A 
ATOM     19  C   UNL A   1      38.759  29.494  28.374  1.00  0.00     0.031 C 
ATOM     20  C   UNL A   1      37.870  33.435  33.934  1.00  0.00     0.029 A 
ATOM     21  C   UNL A   1      38.941  32.449  34.013  1.00  0.00     0.049 A 
ATOM     22  H   UNL A   1      39.793  31.376  32.440  1.00  0.00     0.167 HD
ATOM     23  C   UNL A   1      40.647  28.266  29.382  1.00  0.00     0.037 A 
ATOM     24  C   UNL A   1      39.584  32.087  35.140  1.00  0.00     0.037 A 
ATOM     25  C   UNL A   1      41.631  28.076  30.411  1.00  0.00     0.049 A 
ATOM     26  C   UNL A   1      40.704  31.087  35.044  1.00  0.00     0.074 A 
ATOM     27  C   UNL A   1      42.760  27.279  30.398  1.00  0.00     0.029 A 
ATOM     28  N   UNL A   1      41.590  28.702  31.647  1.00  0.00    -0.354 N 
ATOM     29  N   UNL A   1      41.043  30.322  34.036  1.00  0.00    -0.248 NA
ATOM     30  C   UNL A   1      41.573  30.952  36.221  1.00  0.00     0.031 C 
ATOM     31  C   UNL A   1      43.390  27.403  31.640  1.00  0.00     0.029 A 
ATOM     32  C   UNL A   1      42.682  28.319  32.403  1.00  0.00     0.049 A 
ATOM     33  H   UNL A   1      40.889  29.327  31.941  1.00  0.00     0.167 HD
ATOM     34  C   UNL A   1      42.208  29.674  34.427  1.00  0.00     0.074 A 
ATOM     35  C   UNL A   1      42.502  30.119  35.773  1.00  0.00     0.031 C 
ATOM     36  C   UNL A   1      42.981  28.811  33.722  1.00  0.00     0.037 A 
BRANCH  23  37
ATOM     37  C   UNL A   1      40.692  27.400  28.151  1.00  0.00     0.057 A 
ATOM     38  C   UNL A   1      40.036  26.160  28.086  1.00  0.00     0.134 A 
ATOM     39  C   UNL A   1      41.411  27.799  27.017  1.00  0.00     0.134 A 
ATOM     40  F   UNL A   1      39.322  25.712  29.130  1.00  0.00    -0.206 F 
ATOM     41  C   UNL A   1      40.154  25.321  26.977  1.00  0.00     0.040 A 
ATOM     42  C   UNL A   1      41.499  26.987  25.883  1.00  0.00     0.040 A 
ATOM     43  F   UNL A   1      42.046  28.980  26.989  1.00  0.00    -0.206 F 
ATOM     44  C   UNL A   1      40.887  25.736  25.869  1.00  0.00     0.006 A 
ENDBRANCH  23  37
BRANCH  24  45
ATOM     45  C   UNL A   1      39.271  32.735  36.438  1.00  0.00     0.057 A 
ATOM     46  C   UNL A   1      38.349  32.152  37.316  1.00  0.00     0.134 A 
ATOM     47  C   UNL A   1      39.840  33.955  36.817  1.00  0.00     0.134 A 
ATOM     48  F   UNL A   1      37.760  30.989  36.996  1.00  0.00    -0.206 F 
ATOM     49  C   UNL A   1      37.973  32.774  38.506  1.00  0.00     0.040 A 
ATOM     50  C   UNL A   1      39.485  34.582  38.015  1.00  0.00     0.040 A 
ATOM     51  F   UNL A   1      40.742  34.558  36.029  1.00  0.00    -0.206 F 
ATOM     52  C   UNL A   1      38.541  33.997  38.859  1.00  0.00     0.006 A 
ENDBRANCH  24  45
BRANCH  36  53
ATOM     53  C   UNL A   1      44.279  28.383  34.338  1.00  0.00     0.057 A 
ATOM     54  C   UNL A   1      44.411  27.203  35.076  1.00  0.00     0.134 A 
ATOM     55  C   UNL A   1      45.432  29.153  34.132  1.00  0.00     0.134 A 
ATOM     56  F   UNL A   1      43.342  26.431  35.323  1.00  0.00    -0.206 F 
ATOM     57  C   UNL A   1      45.643  26.810  35.601  1.00  0.00     0.040 A 
ATOM     58  C   UNL A   1      46.673  28.756  34.625  1.00  0.00     0.040 A 
ATOM     59  F   UNL A   1      45.373  30.295  33.428  1.00  0.00    -0.206 F 
ATOM     60  C   UNL A   1      46.780  27.583  35.367  1.00  0.00     0.006 A 
ENDBRANCH  36  53
ENDBRANCH  10  11
ENDBRANCH   3   5
ENDBRANCH   2   3
ENDBRANCH   1   2
BRANCH   1  61
ATOM     61  C   UNL A   1      31.930  30.850  26.380  1.00  0.00     0.274 C 
BRANCH  61  62
ATOM     62  O   UNL A   1      32.167  29.702  27.222  1.00  0.00    -0.462 OA
BRANCH  62  63
ATOM     63  C   UNL A   1      33.269  28.939  26.937  1.00  0.00     0.315 C 
ATOM     64  O   UNL A   1      34.425  29.317  27.091  1.00  0.00    -0.252 OA
BRANCH  63  65
ATOM     65  C   UNL A   1      32.871  27.601  26.312  1.00  0.00     0.166 C 
ATOM     66  C   UNL A   1      31.552  27.158  26.959  1.00  0.00     0.278 C 
ATOM     67  C   UNL A   1      32.634  27.553  24.755  1.00  0.00     0.038 C 
ATOM     68  N   UNL A   1      30.689  26.695  25.889  1.00  0.00    -0.330 N 
ATOM     69  C   UNL A   1      31.107  27.327  24.643  1.00  0.00     0.270 C 
ATOM     70  C   UNL A   1      33.128  28.812  24.008  1.00  0.00     0.014 C 
ATOM     71  C   UNL A   1      33.375  26.336  24.155  1.00  0.00     0.014 C 
ATOM     72  H   UNL A   1      29.738  27.023  26.061  1.00  0.00     0.348 HD
ATOM     73  C   UNL A   1      33.159  28.681  22.482  1.00  0.00     0.001 C 
ATOM     74  C   UNL A   1      33.436  26.217  22.641  1.00  0.00     0.001 C 
ATOM     75  C   UNL A   1      33.987  27.487  22.028  1.00  0.00     0.000 C 
BRANCH  68  76
ATOM     76  C   UNL A   1      30.169  25.329  25.920  1.00  0.00     0.299 C 
BRANCH  76  77
ATOM     77  C   UNL A   1      31.152  24.199  25.691  1.00  0.00     0.008 A 
ATOM     78  C   UNL A   1      32.142  23.895  26.632  1.00  0.00     0.011 A 
ATOM     79  C   UNL A   1      31.153  23.487  24.476  1.00  0.00     0.031 A 
ATOM     80  C   UNL A   1      33.186  23.031  26.291  1.00  0.00     0.022 A 
ATOM     81  C   UNL A   1      32.190  22.598  24.154  1.00  0.00     0.060 A 
ATOM     82  C   UNL A   1      33.239  22.407  25.048  1.00  0.00     0.059 A 
ATOM     83  Cl  UNL A   1      32.149  21.822  22.612  1.00  0.00    -0.083 Cl
ATOM     84  Cl  UNL A   1      34.655  21.495  24.669  1.00  0.00    -0.083 Cl
ENDBRANCH  76  77
ENDBRANCH  68  76
ENDBRANCH  63  65
ENDBRANCH  62  63
ENDBRANCH  61  62
ENDBRANCH   1  61
TORSDOF 13
ENDMDL
MODEL 2
REMARK VINA RESULT:     -11.9      4.539      9.342
REMARK SMILES O=C(OCCOC(=O)[C@H]1C[N@H+](Cc2ccc(Cl)c(Cl)c2)CC12CCCCC2)c1ccc(-c2c3nc(c(-c4c(F)cccc4F)c4ccc([nH]4)c(-c4c(F)cccc4F)c4nc(c(-c5c(F)cccc5F)c5ccc2[nH]5)C=C4)C=C3)cc1
REMARK SMILES IDX 4 1 3 2 2 3 1 4 28 5 29 6 81 7 30 8 80 9 31 10 32 11 33 12
REMARK SMILES IDX 74 13 34 14 79 15 73 16 75 17 35 18 78 19 72 20 71 21 36 23
REMARK SMILES IDX 62 24 45 25 61 26 46 27 49 28 60 29 76 30 47 31 48 32 59 34
REMARK SMILES IDX 77 35 50 36 37 37 38 38 43 39 39 40 40 41 42 42 44 43 41 44
REMARK SMILES IDX 63 45 64 46 69 47 65 48 66 49 68 50 70 51 67 52 51 53 52 54
REMARK SMILES IDX 57 55 53 56 54 57 56 58 58 59 55 60 5 61 6 62 7 63 8 64 9 65
REMARK SMILES IDX 10 66 22 67 11 68 21 69 23 70 27 71 24 73 26 74 25 75 12 76
REMARK SMILES IDX 13 77 14 78 20 79 15 80 18 81 16 82 19 83 17 84
REMARK H PARENT 75 22 49 33 11 72
REMARK Flexibility Score: inf
ROOT
ATOM      1  C   UNL A   1      33.985  32.954  28.001  1.00  0.00     0.275 C 
ENDROOT
BRANCH   1   2
ATOM      2  O   UNL A   1      33.953  31.573  28.395  1.00  0.00    -0.458 OA
BRANCH   2   3
ATOM      3  C   UNL A   1      34.612  30.529  27.850  1.00  0.00     0.338 C 
ATOM      4  O   UNL A   1      34.091  29.936  26.907  1.00  0.00    -0.246 OA
BRANCH   3   5
ATOM      5  C   UNL A   1      35.953  30.055  28.330  1.00  0.00     0.060 A 
ATOM      6  C   UNL A   1      36.280  29.586  29.605  1.00  0.00     0.016 A 
ATOM      7  C   UNL A   1      36.978  30.091  27.382  1.00  0.00     0.016 A 
ATOM      8  C   UNL A   1      37.566  29.109  29.908  1.00  0.00     0.010 A 
ATOM      9  C   UNL A   1      38.242  29.566  27.663  1.00  0.00     0.010 A 
ATOM     10  C   UNL A   1      38.562  29.080  28.937  1.00  0.00    -0.014 A 
BRANCH  10  11
ATOM     11  C   UNL A   1      39.952  28.633  29.229  1.00  0.00     0.031 A 
ATOM     12  C   UNL A   1      40.957  29.667  29.678  1.00  0.00     0.074 A 
ATOM     13  C   UNL A   1      40.357  27.380  28.927  1.00  0.00     0.049 A 
ATOM     14  N   UNL A   1      42.262  29.595  29.733  1.00  0.00    -0.248 NA
ATOM     15  C   UNL A   1      40.418  30.993  30.027  1.00  0.00     0.031 C 
ATOM     16  C   UNL A   1      39.524  26.324  28.338  1.00  0.00     0.029 A 
ATOM     17  N   UNL A   1      41.618  26.829  28.938  1.00  0.00    -0.354 N 
ATOM     18  C   UNL A   1      42.688  30.880  30.055  1.00  0.00     0.074 A 
ATOM     19  C   UNL A   1      41.519  31.726  30.063  1.00  0.00     0.031 C 
ATOM     20  C   UNL A   1      40.307  25.291  27.976  1.00  0.00     0.029 A 
ATOM     21  C   UNL A   1      41.690  25.605  28.309  1.00  0.00     0.049 A 
ATOM     22  H   UNL A   1      42.395  27.268  29.354  1.00  0.00     0.167 HD
ATOM     23  C   UNL A   1      43.930  31.310  30.383  1.00  0.00     0.037 A 
ATOM     24  C   UNL A   1      42.757  24.839  28.011  1.00  0.00     0.037 A 
ATOM     25  C   UNL A   1      45.066  30.435  30.458  1.00  0.00     0.049 A 
ATOM     26  C   UNL A   1      44.119  25.283  28.471  1.00  0.00     0.074 A 
ATOM     27  C   UNL A   1      46.328  30.690  30.961  1.00  0.00     0.029 A 
ATOM     28  N   UNL A   1      45.067  29.124  30.005  1.00  0.00    -0.354 N 
ATOM     29  N   UNL A   1      44.487  26.441  28.958  1.00  0.00    -0.248 NA
ATOM     30  C   UNL A   1      45.198  24.287  28.402  1.00  0.00     0.031 C 
ATOM     31  C   UNL A   1      47.102  29.537  30.789  1.00  0.00     0.029 A 
ATOM     32  C   UNL A   1      46.304  28.551  30.229  1.00  0.00     0.049 A 
ATOM     33  H   UNL A   1      44.299  28.670  29.588  1.00  0.00     0.167 HD
ATOM     34  C   UNL A   1      45.819  26.291  29.327  1.00  0.00     0.074 A 
ATOM     35  C   UNL A   1      46.196  24.936  28.985  1.00  0.00     0.031 C 
ATOM     36  C   UNL A   1      46.644  27.186  29.924  1.00  0.00     0.037 A 
BRANCH  23  37
ATOM     37  C   UNL A   1      44.095  32.764  30.737  1.00  0.00     0.057 A 
ATOM     38  C   UNL A   1      43.927  33.238  32.048  1.00  0.00     0.134 A 
ATOM     39  C   UNL A   1      44.414  33.711  29.756  1.00  0.00     0.134 A 
ATOM     40  F   UNL A   1      43.626  32.391  33.045  1.00  0.00    -0.206 F 
ATOM     41  C   UNL A   1      43.992  34.598  32.355  1.00  0.00     0.040 A 
ATOM     42  C   UNL A   1      44.528  35.071  30.059  1.00  0.00     0.040 A 
ATOM     43  F   UNL A   1      44.616  33.337  28.483  1.00  0.00    -0.206 F 
ATOM     44  C   UNL A   1      44.297  35.519  31.357  1.00  0.00     0.006 A 
ENDBRANCH  23  37
BRANCH  24  45
ATOM     45  C   UNL A   1      42.588  23.528  27.336  1.00  0.00     0.057 A 
ATOM     46  C   UNL A   1      42.294  22.380  28.082  1.00  0.00     0.134 A 
ATOM     47  C   UNL A   1      42.752  23.375  25.955  1.00  0.00     0.134 A 
ATOM     48  F   UNL A   1      42.141  22.465  29.412  1.00  0.00    -0.206 F 
ATOM     49  C   UNL A   1      42.207  21.120  27.488  1.00  0.00     0.040 A 
ATOM     50  C   UNL A   1      42.651  22.121  25.344  1.00  0.00     0.040 A 
ATOM     51  F   UNL A   1      43.019  24.437  25.181  1.00  0.00    -0.206 F 
ATOM     52  C   UNL A   1      42.388  20.988  26.113  1.00  0.00     0.006 A 
ENDBRANCH  24  45
BRANCH  36  53
ATOM     53  C   UNL A   1      47.994  26.701  30.357  1.00  0.00     0.057 A 
ATOM     54  C   UNL A   1      48.212  26.079  31.590  1.00  0.00     0.134 A 
ATOM     55  C   UNL A   1      49.085  26.814  29.484  1.00  0.00     0.134 A 
ATOM     56  F   UNL A   1      47.213  25.956  32.477  1.00  0.00    -0.206 F 
ATOM     57  C   UNL A   1      49.473  25.600  31.948  1.00  0.00     0.040 A 
ATOM     58  C   UNL A   1      50.342  26.312  29.817  1.00  0.00     0.040 A 
ATOM     59  F   UNL A   1      48.940  27.396  28.283  1.00  0.00    -0.206 F 
ATOM     60  C   UNL A   1      50.540  25.707  31.055  1.00  0.00     0.006 A 
ENDBRANCH  36  53
ENDBRANCH  10  11
ENDBRANCH   3   5
ENDBRANCH   2   3
ENDBRANCH   1   2
BRANCH   1  61
ATOM     61  C   UNL A   1      33.587  33.953  29.092  1.00  0.00     0.274 C 
BRANCH  61  62
ATOM     62  O   UNL A   1      34.120  33.646  30.398  1.00  0.00    -0.462 OA
BRANCH  62  63
ATOM     63  C   UNL A   1      34.454  34.707  31.197  1.00  0.00     0.315 C 
ATOM     64  O   UNL A   1      33.886  35.794  31.169  1.00  0.00    -0.252 OA
BRANCH  63  65
ATOM     65  C   UNL A   1      35.683  34.394  32.052  1.00  0.00     0.166 C 
ATOM     66  C   UNL A   1      35.292  33.287  33.042  1.00  0.00     0.278 C 
ATOM     67  C   UNL A   1      36.984  33.889  31.322  1.00  0.00     0.038 C 
ATOM     68  N   UNL A   1      36.372  32.319  33.044  1.00  0.00    -0.330 N 
ATOM     69  C   UNL A   1      37.088  32.413  31.777  1.00  0.00     0.270 C 
ATOM     70  C   UNL A   1      36.945  34.059  29.786  1.00  0.00     0.014 C 
ATOM     71  C   UNL A   1      38.210  34.673  31.846  1.00  0.00     0.014 C 
ATOM     72  H   UNL A   1      35.977  31.379  33.070  1.00  0.00     0.348 HD
ATOM     73  C   UNL A   1      38.287  33.834  29.083  1.00  0.00     0.001 C 
ATOM     74  C   UNL A   1      39.537  34.475  31.132  1.00  0.00     0.001 C 
ATOM     75  C   UNL A   1      39.385  34.724  29.646  1.00  0.00     0.000 C 
BRANCH  68  76
ATOM     76  C   UNL A   1      37.062  32.010  34.295  1.00  0.00     0.299 C 
BRANCH  76  77
ATOM     77  C   UNL A   1      38.373  31.256  34.206  1.00  0.00     0.008 A 
ATOM     78  C   UNL A   1      39.583  31.857  34.568  1.00  0.00     0.011 A 
ATOM     79  C   UNL A   1      38.416  29.957  33.662  1.00  0.00     0.031 A 
ATOM     80  C   UNL A   1      40.793  31.242  34.238  1.00  0.00     0.022 A 
ATOM     81  C   UNL A   1      39.637  29.334  33.362  1.00  0.00     0.060 A 
ATOM     82  C   UNL A   1      40.833  30.002  33.607  1.00  0.00     0.059 A 
ATOM     83  Cl  UNL A   1      39.596  27.771  32.630  1.00  0.00    -0.083 Cl
ATOM     84  Cl  UNL A   1      42.372  29.412  33.094  1.00  0.00    -0.083 Cl
ENDBRANCH  76  77
ENDBRANCH  68  76
ENDBRANCH  63  65
ENDBRANCH  62  63
ENDBRANCH  61  62
ENDBRANCH   1  61
TORSDOF 13
ENDMDL
MODEL 3
REMARK VINA RESULT:     -11.7      3.825      7.441
REMARK SMILES O=C(OCCOC(=O)[C@H]1C[N@H+](Cc2ccc(Cl)c(Cl)c2)CC12CCCCC2)c1ccc(-c2c3nc(c(-c4c(F)cccc4F)c4ccc([nH]4)c(-c4c(F)cccc4F)c4nc(c(-c5c(F)cccc5F)c5ccc2[nH]5)C=C4)C=C3)cc1
REMARK SMILES IDX 4 1 3 2 2 3 1 4 28 5 29 6 81 7 30 8 80 9 31 10 32 11 33 12
REMARK SMILES IDX 74 13 34 14 79 15 73 16 75 17 35 18 78 19 72 20 71 21 36 23
REMARK SMILES IDX 62 24 45 25 61 26 46 27 49 28 60 29 76 30 47 31 48 32 59 34
REMARK SMILES IDX 77 35 50 36 37 37 38 38 43 39 39 40 40 41 42 42 44 43 41 44
REMARK SMILES IDX 63 45 64 46 69 47 65 48 66 49 68 50 70 51 67 52 51 53 52 54
REMARK SMILES IDX 57 55 53 56 54 57 56 58 58 59 55 60 5 61 6 62 7 63 8 64 9 65
REMARK SMILES IDX 10 66 22 67 11 68 21 69 23 70 27 71 24 73 26 74 25 75 12 76
REMARK SMILES IDX 13 77 14 78 20 79 15 80 18 81 16 82 19 83 17 84
REMARK H PARENT 75 22 49 33 11 72
REMARK Flexibility Score: inf
ROOT
ATOM      1  C   UNL A   1      33.542  28.547  27.177  1.00  0.00     0.275 C 
ENDROOT
BRANCH   1   2
ATOM      2  O   UNL A   1      33.837  29.952  27.198  1.00  0.00    -0.458 OA
BRANCH   2   3
ATOM      3  C   UNL A   1      34.637  30.629  28.047  1.00  0.00     0.338 C 
ATOM      4  O   UNL A   1      34.247  31.711  28.482  1.00  0.00    -0.246 OA
BRANCH   3   5
ATOM      5  C   UNL A   1      35.978  30.128  28.497  1.00  0.00     0.060 A 
ATOM      6  C   UNL A   1      36.318  29.627  29.757  1.00  0.00     0.016 A 
ATOM      7  C   UNL A   1      36.990  30.170  27.536  1.00  0.00     0.016 A 
ATOM      8  C   UNL A   1      37.601  29.127  30.031  1.00  0.00     0.010 A 
ATOM      9  C   UNL A   1      38.251  29.624  27.787  1.00  0.00     0.010 A 
ATOM     10  C   UNL A   1      38.583  29.106  29.045  1.00  0.00    -0.014 A 
BRANCH  10  11
ATOM     11  C   UNL A   1      39.971  28.635  29.308  1.00  0.00     0.031 A 
ATOM     12  C   UNL A   1      41.002  29.651  29.738  1.00  0.00     0.074 A 
ATOM     13  C   UNL A   1      40.349  27.376  28.995  1.00  0.00     0.049 A 
ATOM     14  N   UNL A   1      42.307  29.557  29.765  1.00  0.00    -0.248 NA
ATOM     15  C   UNL A   1      40.494  30.986  30.101  1.00  0.00     0.031 C 
ATOM     16  C   UNL A   1      39.485  26.335  28.421  1.00  0.00     0.029 A 
ATOM     17  N   UNL A   1      41.600  26.804  28.979  1.00  0.00    -0.354 N 
ATOM     18  C   UNL A   1      42.762  30.833  30.081  1.00  0.00     0.074 A 
ATOM     19  C   UNL A   1      41.607  31.699  30.115  1.00  0.00     0.031 C 
ATOM     20  C   UNL A   1      40.243  25.290  28.041  1.00  0.00     0.029 A 
ATOM     21  C   UNL A   1      41.638  25.580  28.347  1.00  0.00     0.049 A 
ATOM     22  H   UNL A   1      42.392  27.228  29.380  1.00  0.00     0.167 HD
ATOM     23  C   UNL A   1      44.017  31.242  30.384  1.00  0.00     0.037 A 
ATOM     24  C   UNL A   1      42.685  24.796  28.025  1.00  0.00     0.037 A 
ATOM     25  C   UNL A   1      45.140  30.347  30.433  1.00  0.00     0.049 A 
ATOM     26  C   UNL A   1      44.064  25.216  28.457  1.00  0.00     0.074 A 
ATOM     27  C   UNL A   1      46.416  30.579  30.911  1.00  0.00     0.029 A 
ATOM     28  N   UNL A   1      45.108  29.038  29.979  1.00  0.00    -0.354 N 
ATOM     29  N   UNL A   1      44.462  26.367  28.938  1.00  0.00    -0.248 NA
ATOM     30  C   UNL A   1      45.124  24.203  28.364  1.00  0.00     0.031 C 
ATOM     31  C   UNL A   1      47.166  29.414  30.721  1.00  0.00     0.029 A 
ATOM     32  C   UNL A   1      46.340  28.443  30.176  1.00  0.00     0.049 A 
ATOM     33  H   UNL A   1      44.325  28.598  29.577  1.00  0.00     0.167 HD
ATOM     34  C   UNL A   1      45.798  26.194  29.279  1.00  0.00     0.074 A 
ATOM     35  C   UNL A   1      46.145  24.833  28.927  1.00  0.00     0.031 C 
ATOM     36  C   UNL A   1      46.650  27.073  29.861  1.00  0.00     0.037 A 
BRANCH  23  37
ATOM     37  C   UNL A   1      44.214  32.692  30.737  1.00  0.00     0.057 A 
ATOM     38  C   UNL A   1      44.553  33.655  29.774  1.00  0.00     0.134 A 
ATOM     39  C   UNL A   1      44.079  33.135  32.059  1.00  0.00     0.134 A 
ATOM     40  F   UNL A   1      44.695  33.309  28.485  1.00  0.00    -0.206 F 
ATOM     41  C   UNL A   1      44.823  34.980  30.119  1.00  0.00     0.040 A 
ATOM     42  C   UNL A   1      44.303  34.469  32.411  1.00  0.00     0.040 A 
ATOM     43  F   UNL A   1      43.734  32.282  33.035  1.00  0.00    -0.206 F 
ATOM     44  C   UNL A   1      44.695  35.391  31.443  1.00  0.00     0.006 A 
ENDBRANCH  23  37
BRANCH  24  45
ATOM     45  C   UNL A   1      42.480  23.490  27.351  1.00  0.00     0.057 A 
ATOM     46  C   UNL A   1      42.176  22.346  28.100  1.00  0.00     0.134 A 
ATOM     47  C   UNL A   1      42.617  23.337  25.968  1.00  0.00     0.134 A 
ATOM     48  F   UNL A   1      42.048  22.432  29.433  1.00  0.00    -0.206 F 
ATOM     49  C   UNL A   1      42.055  21.090  27.507  1.00  0.00     0.040 A 
ATOM     50  C   UNL A   1      42.483  22.086  25.357  1.00  0.00     0.040 A 
ATOM     51  F   UNL A   1      42.891  24.394  25.191  1.00  0.00    -0.206 F 
ATOM     52  C   UNL A   1      42.211  20.956  26.129  1.00  0.00     0.006 A 
ENDBRANCH  24  45
BRANCH  36  53
ATOM     53  C   UNL A   1      48.001  26.564  30.265  1.00  0.00     0.057 A 
ATOM     54  C   UNL A   1      48.235  25.943  31.496  1.00  0.00     0.134 A 
ATOM     55  C   UNL A   1      49.073  26.653  29.367  1.00  0.00     0.134 A 
ATOM     56  F   UNL A   1      47.255  25.841  32.405  1.00  0.00    -0.206 F 
ATOM     57  C   UNL A   1      49.495  25.442  31.826  1.00  0.00     0.040 A 
ATOM     58  C   UNL A   1      50.328  26.130  29.673  1.00  0.00     0.040 A 
ATOM     59  F   UNL A   1      48.912  27.234  28.167  1.00  0.00    -0.206 F 
ATOM     60  C   UNL A   1      50.542  25.525  30.909  1.00  0.00     0.006 A 
ENDBRANCH  36  53
ENDBRANCH  10  11
ENDBRANCH   3   5
ENDBRANCH   2   3
ENDBRANCH   1   2
BRANCH   1  61
ATOM     61  C   UNL A   1      32.051  28.193  27.177  1.00  0.00     0.274 C 
BRANCH  61  62
ATOM     62  O   UNL A   1      31.772  26.810  27.481  1.00  0.00    -0.462 OA
BRANCH  62  63
ATOM     63  C   UNL A   1      31.323  26.026  26.451  1.00  0.00     0.315 C 
ATOM     64  O   UNL A   1      30.197  25.542  26.396  1.00  0.00    -0.252 OA
BRANCH  63  65
ATOM     65  C   UNL A   1      32.433  25.751  25.436  1.00  0.00     0.166 C 
ATOM     66  C   UNL A   1      32.472  24.237  25.187  1.00  0.00     0.278 C 
ATOM     67  C   UNL A   1      32.323  26.427  24.017  1.00  0.00     0.038 C 
ATOM     68  N   UNL A   1      32.585  24.046  23.753  1.00  0.00    -0.330 N 
ATOM     69  C   UNL A   1      32.051  25.225  23.080  1.00  0.00     0.270 C 
ATOM     70  C   UNL A   1      31.245  27.531  23.932  1.00  0.00     0.014 C 
ATOM     71  C   UNL A   1      33.678  27.070  23.643  1.00  0.00     0.014 C 
ATOM     72  H   UNL A   1      31.984  23.271  23.472  1.00  0.00     0.348 HD
ATOM     73  C   UNL A   1      31.300  28.383  22.660  1.00  0.00     0.001 C 
ATOM     74  C   UNL A   1      33.731  27.941  22.398  1.00  0.00     0.001 C 
ATOM     75  C   UNL A   1      32.668  29.018  22.456  1.00  0.00     0.000 C 
BRANCH  68  76
ATOM     76  C   UNL A   1      33.718  23.299  23.211  1.00  0.00     0.299 C 
BRANCH  76  77
ATOM     77  C   UNL A   1      34.886  23.026  24.136  1.00  0.00     0.008 A 
ATOM     78  C   UNL A   1      35.559  24.068  24.784  1.00  0.00     0.011 A 
ATOM     79  C   UNL A   1      35.385  21.718  24.292  1.00  0.00     0.031 A 
ATOM     80  C   UNL A   1      36.778  23.821  25.420  1.00  0.00     0.022 A 
ATOM     81  C   UNL A   1      36.596  21.476  24.959  1.00  0.00     0.060 A 
ATOM     82  C   UNL A   1      37.321  22.541  25.483  1.00  0.00     0.059 A 
ATOM     83  Cl  UNL A   1      37.170  19.850  25.040  1.00  0.00    -0.083 Cl
ATOM     84  Cl  UNL A   1      38.908  22.376  26.143  1.00  0.00    -0.083 Cl
ENDBRANCH  76  77
ENDBRANCH  68  76
ENDBRANCH  63  65
ENDBRANCH  62  63
ENDBRANCH  61  62
ENDBRANCH   1  61
TORSDOF 13
ENDMDL
