MODEL 1
REMARK VINA RESULT:     -12.7      0.000      0.000
REMARK SMILES C[NH+]1CCC([NH+]2CCC(Oc3ccc4ccccc4c3)(C(=O)OCCOC(=O)c3ccc(-c4c5nc(c(-c6c(F)cccc6F)c6ccc([nH]6)c(-c6c(F)cccc6F)c6nc(c(-c7c(F)cccc7F)c7ccc4[nH]7)C=C6)C=C5)cc3)CC2)CC1
REMARK SMILES IDX 24 1 23 2 21 3 22 4 9 5 6 6 7 7 84 8 8 10 83 11 5 12 1 13
REMARK SMILES IDX 2 14 3 15 86 16 4 18 85 19 10 20 11 21 12 22 20 23 13 24
REMARK SMILES IDX 19 25 14 26 18 27 15 28 17 29 16 30 25 31 26 32 27 33 28 34
REMARK SMILES IDX 29 35 30 36 82 37 31 38 81 39 32 40 33 41 34 42 75 43 35 44
REMARK SMILES IDX 80 45 74 46 76 47 36 48 79 49 73 50 72 51 37 53 63 54 46 55
REMARK SMILES IDX 62 56 47 57 50 58 61 59 77 60 48 61 49 62 60 64 78 65 51 66
REMARK SMILES IDX 38 67 39 68 44 69 40 70 41 71 43 72 45 73 42 74 64 75 65 76
REMARK SMILES IDX 70 77 66 78 67 79 69 80 71 81 68 82 52 83 53 84 58 85 54 86
REMARK SMILES IDX 55 87 57 88 59 89 56 90
REMARK H PARENT 6 9 2 17 76 52 50 63
REMARK Flexibility Score: inf
ROOT
ATOM      1  C   UNL A   1      31.541  28.058  26.554  1.00  0.00     0.274 C 
ENDROOT
BRANCH   1   2
ATOM      2  O   UNL A   1      31.992  26.967  25.724  1.00  0.00    -0.459 OA
BRANCH   2   3
ATOM      3  C   UNL A   1      31.157  25.892  25.628  1.00  0.00     0.351 C 
ATOM      4  O   UNL A   1      30.336  25.587  26.490  1.00  0.00    -0.247 OA
BRANCH   3   5
ATOM      5  C   UNL A   1      31.417  25.036  24.371  1.00  0.00     0.216 C 
ATOM      6  N   UNL A   1      33.905  23.486  24.712  1.00  0.00    -0.332 N 
ATOM      7  C   UNL A   1      32.678  23.085  25.414  1.00  0.00     0.267 C 
ATOM      8  C   UNL A   1      33.950  24.943  24.539  1.00  0.00     0.267 C 
ATOM      9  H   UNL A   1      33.864  23.043  23.794  1.00  0.00     0.348 HD
ATOM     10  C   UNL A   1      31.435  23.525  24.640  1.00  0.00     0.122 C 
ATOM     11  C   UNL A   1      32.757  25.466  23.739  1.00  0.00     0.122 C 
BRANCH   6  12
ATOM     12  C   UNL A   1      35.157  22.974  25.337  1.00  0.00     0.195 C 
ATOM     13  C   UNL A   1      39.305  21.958  25.953  1.00  0.00     0.332 C 
ATOM     14  N   UNL A   1      38.033  22.400  25.387  1.00  0.00    -0.337 N 
ATOM     15  C   UNL A   1      37.496  23.550  26.126  1.00  0.00     0.268 C 
ATOM     16  C   UNL A   1      37.067  21.299  25.361  1.00  0.00     0.268 C 
ATOM     17  H   UNL A   1      38.202  22.700  24.425  1.00  0.00     0.347 HD
ATOM     18  C   UNL A   1      36.222  24.079  25.459  1.00  0.00     0.126 C 
ATOM     19  C   UNL A   1      35.771  21.730  24.674  1.00  0.00     0.126 C 
ENDBRANCH   6  12
BRANCH   5  20
ATOM     20  O   UNL A   1      30.212  25.396  23.638  1.00  0.00    -0.475 OA
BRANCH  20  21
ATOM     21  C   UNL A   1      30.078  26.698  23.263  1.00  0.00     0.121 A 
ATOM     22  C   UNL A   1      31.065  27.310  22.502  1.00  0.00     0.047 A 
ATOM     23  C   UNL A   1      28.886  27.363  23.549  1.00  0.00     0.055 A 
ATOM     24  C   UNL A   1      30.892  28.625  22.075  1.00  0.00     0.012 A 
ATOM     25  C   UNL A   1      28.691  28.685  23.116  1.00  0.00    -0.015 A 
ATOM     26  C   UNL A   1      29.714  29.326  22.377  1.00  0.00    -0.018 A 
ATOM     27  C   UNL A   1      27.505  29.387  23.392  1.00  0.00     0.009 A 
ATOM     28  C   UNL A   1      29.527  30.647  21.943  1.00  0.00     0.009 A 
ATOM     29  C   UNL A   1      27.333  30.699  22.948  1.00  0.00     0.001 A 
ATOM     30  C   UNL A   1      28.343  31.329  22.227  1.00  0.00     0.001 A 
ENDBRANCH  20  21
ENDBRANCH   5  20
ENDBRANCH   3   5
ENDBRANCH   2   3
ENDBRANCH   1   2
BRANCH   1  31
ATOM     31  C   UNL A   1      31.439  29.352  25.750  1.00  0.00     0.275 C 
BRANCH  31  32
ATOM     32  O   UNL A   1      32.730  29.978  25.707  1.00  0.00    -0.458 OA
BRANCH  32  33
ATOM     33  C   UNL A   1      32.974  30.907  26.654  1.00  0.00     0.338 C 
ATOM     34  O   UNL A   1      32.211  31.796  27.014  1.00  0.00    -0.246 OA
BRANCH  33  35
ATOM     35  C   UNL A   1      34.301  30.675  27.277  1.00  0.00     0.060 A 
ATOM     36  C   UNL A   1      34.728  29.392  27.627  1.00  0.00     0.016 A 
ATOM     37  C   UNL A   1      35.084  31.777  27.636  1.00  0.00     0.016 A 
ATOM     38  C   UNL A   1      35.863  29.216  28.419  1.00  0.00     0.010 A 
ATOM     39  C   UNL A   1      36.277  31.590  28.343  1.00  0.00     0.010 A 
ATOM     40  C   UNL A   1      36.669  30.309  28.763  1.00  0.00    -0.014 A 
BRANCH  40  41
ATOM     41  C   UNL A   1      37.930  30.120  29.532  1.00  0.00     0.031 A 
ATOM     42  C   UNL A   1      39.049  29.279  28.983  1.00  0.00     0.074 A 
ATOM     43  C   UNL A   1      38.066  30.678  30.752  1.00  0.00     0.049 A 
ATOM     44  N   UNL A   1      40.089  28.776  29.599  1.00  0.00    -0.248 NA
ATOM     45  C   UNL A   1      38.986  28.949  27.551  1.00  0.00     0.031 C 
ATOM     46  C   UNL A   1      37.089  31.556  31.399  1.00  0.00     0.029 A 
ATOM     47  N   UNL A   1      39.083  30.581  31.670  1.00  0.00    -0.354 N 
ATOM     48  C   UNL A   1      40.766  28.018  28.652  1.00  0.00     0.074 A 
ATOM     49  C   UNL A   1      40.029  28.140  27.410  1.00  0.00     0.031 C 
ATOM     50  C   UNL A   1      37.564  31.939  32.592  1.00  0.00     0.029 A 
ATOM     51  C   UNL A   1      38.827  31.255  32.839  1.00  0.00     0.049 A 
ATOM     52  H   UNL A   1      39.913  30.077  31.506  1.00  0.00     0.167 HD
ATOM     53  C   UNL A   1      41.894  27.284  28.811  1.00  0.00     0.037 A 
ATOM     54  C   UNL A   1      39.494  31.278  34.006  1.00  0.00     0.037 A 
ATOM     55  C   UNL A   1      42.658  27.218  30.030  1.00  0.00     0.049 A 
ATOM     56  C   UNL A   1      40.724  30.438  34.168  1.00  0.00     0.074 A 
ATOM     57  C   UNL A   1      43.825  26.514  30.282  1.00  0.00     0.029 A 
ATOM     58  N   UNL A   1      42.344  27.898  31.196  1.00  0.00    -0.354 N 
ATOM     59  N   UNL A   1      41.303  29.649  33.297  1.00  0.00    -0.248 NA
ATOM     60  C   UNL A   1      41.374  30.467  35.486  1.00  0.00     0.031 C 
ATOM     61  C   UNL A   1      44.204  26.752  31.608  1.00  0.00     0.029 A 
ATOM     62  C   UNL A   1      43.291  27.627  32.171  1.00  0.00     0.049 A 
ATOM     63  H   UNL A   1      41.565  28.488  31.314  1.00  0.00     0.167 HD
ATOM     64  C   UNL A   1      42.380  29.082  33.960  1.00  0.00     0.074 A 
ATOM     65  C   UNL A   1      42.390  29.635  35.299  1.00  0.00     0.031 C 
ATOM     66  C   UNL A   1      43.277  28.175  33.502  1.00  0.00     0.037 A 
BRANCH  53  67
ATOM     67  C   UNL A   1      42.362  26.461  27.648  1.00  0.00     0.057 A 
ATOM     68  C   UNL A   1      41.938  25.142  27.451  1.00  0.00     0.134 A 
ATOM     69  C   UNL A   1      43.194  27.027  26.672  1.00  0.00     0.134 A 
ATOM     70  F   UNL A   1      41.152  24.538  28.354  1.00  0.00    -0.206 F 
ATOM     71  C   UNL A   1      42.331  24.412  26.327  1.00  0.00     0.040 A 
ATOM     72  C   UNL A   1      43.579  26.314  25.536  1.00  0.00     0.040 A 
ATOM     73  F   UNL A   1      43.630  28.289  26.799  1.00  0.00    -0.206 F 
ATOM     74  C   UNL A   1      43.147  25.000  25.361  1.00  0.00     0.006 A 
ENDBRANCH  53  67
BRANCH  54  75
ATOM     75  C   UNL A   1      38.962  32.083  35.130  1.00  0.00     0.057 A 
ATOM     76  C   UNL A   1      38.233  31.486  36.162  1.00  0.00     0.134 A 
ATOM     77  C   UNL A   1      39.215  33.458  35.223  1.00  0.00     0.134 A 
ATOM     78  F   UNL A   1      37.943  30.178  36.113  1.00  0.00    -0.206 F 
ATOM     79  C   UNL A   1      37.779  32.226  37.254  1.00  0.00     0.040 A 
ATOM     80  C   UNL A   1      38.788  34.205  36.319  1.00  0.00     0.040 A 
ATOM     81  F   UNL A   1      39.913  34.084  34.264  1.00  0.00    -0.206 F 
ATOM     82  C   UNL A   1      38.067  33.588  37.339  1.00  0.00     0.006 A 
ENDBRANCH  54  75
BRANCH  66  83
ATOM     83  C   UNL A   1      44.341  27.737  34.460  1.00  0.00     0.057 A 
ATOM     84  C   UNL A   1      44.172  26.610  35.272  1.00  0.00     0.134 A 
ATOM     85  C   UNL A   1      45.545  28.443  34.563  1.00  0.00     0.134 A 
ATOM     86  F   UNL A   1      43.032  25.904  35.227  1.00  0.00    -0.206 F 
ATOM     87  C   UNL A   1      45.161  26.209  36.171  1.00  0.00     0.040 A 
ATOM     88  C   UNL A   1      46.548  28.042  35.447  1.00  0.00     0.040 A 
ATOM     89  F   UNL A   1      45.765  29.529  33.808  1.00  0.00    -0.206 F 
ATOM     90  C   UNL A   1      46.355  26.925  36.257  1.00  0.00     0.006 A 
ENDBRANCH  66  83
ENDBRANCH  40  41
ENDBRANCH  33  35
ENDBRANCH  32  33
ENDBRANCH  31  32
ENDBRANCH   1  31
TORSDOF 14
ENDMDL
MODEL 2
REMARK VINA RESULT:     -12.3      1.723      5.005
REMARK SMILES C[NH+]1CCC([NH+]2CCC(Oc3ccc4ccccc4c3)(C(=O)OCCOC(=O)c3ccc(-c4c5nc(c(-c6c(F)cccc6F)c6ccc([nH]6)c(-c6c(F)cccc6F)c6nc(c(-c7c(F)cccc7F)c7ccc4[nH]7)C=C6)C=C5)cc3)CC2)CC1
REMARK SMILES IDX 24 1 23 2 21 3 22 4 9 5 6 6 7 7 84 8 8 10 83 11 5 12 1 13
REMARK SMILES IDX 2 14 3 15 86 16 4 18 85 19 10 20 11 21 12 22 20 23 13 24
REMARK SMILES IDX 19 25 14 26 18 27 15 28 17 29 16 30 25 31 26 32 27 33 28 34
REMARK SMILES IDX 29 35 30 36 82 37 31 38 81 39 32 40 33 41 34 42 75 43 35 44
REMARK SMILES IDX 80 45 74 46 76 47 36 48 79 49 73 50 72 51 37 53 63 54 46 55
REMARK SMILES IDX 62 56 47 57 50 58 61 59 77 60 48 61 49 62 60 64 78 65 51 66
REMARK SMILES IDX 38 67 39 68 44 69 40 70 41 71 43 72 45 73 42 74 64 75 65 76
REMARK SMILES IDX 70 77 66 78 67 79 69 80 71 81 68 82 52 83 53 84 58 85 54 86
REMARK SMILES IDX 55 87 57 88 59 89 56 90
REMARK H PARENT 6 9 2 17 76 52 50 63
REMARK Flexibility Score: inf
ROOT
ATOM      1  C   UNL A   1      32.016  28.195  27.186  1.00  0.00     0.274 C 
ENDROOT
BRANCH   1   2
ATOM      2  O   UNL A   1      31.887  26.941  26.483  1.00  0.00    -0.459 OA
BRANCH   2   3
ATOM      3  C   UNL A   1      32.997  26.497  25.826  1.00  0.00     0.351 C 
ATOM      4  O   UNL A   1      34.144  26.810  26.134  1.00  0.00    -0.247 OA
BRANCH   3   5
ATOM      5  C   UNL A   1      32.662  25.638  24.588  1.00  0.00     0.216 C 
ATOM      6  N   UNL A   1      30.719  27.059  22.879  1.00  0.00    -0.332 N 
ATOM      7  C   UNL A   1      32.129  27.473  22.904  1.00  0.00     0.267 C 
ATOM      8  C   UNL A   1      30.315  26.522  24.184  1.00  0.00     0.267 C 
ATOM      9  H   UNL A   1      30.654  26.319  22.180  1.00  0.00     0.348 HD
ATOM     10  C   UNL A   1      33.040  26.296  23.254  1.00  0.00     0.122 C 
ATOM     11  C   UNL A   1      31.154  25.312  24.596  1.00  0.00     0.122 C 
BRANCH   6  12
ATOM     12  C   UNL A   1      29.783  28.120  22.414  1.00  0.00     0.195 C 
ATOM     13  C   UNL A   1      27.591  31.830  22.184  1.00  0.00     0.332 C 
ATOM     14  N   UNL A   1      28.457  30.729  22.602  1.00  0.00    -0.337 N 
ATOM     15  C   UNL A   1      29.552  30.524  21.645  1.00  0.00     0.268 C 
ATOM     16  C   UNL A   1      27.681  29.500  22.779  1.00  0.00     0.268 C 
ATOM     17  H   UNL A   1      28.872  30.978  23.501  1.00  0.00     0.347 HD
ATOM     18  C   UNL A   1      30.518  29.446  22.146  1.00  0.00     0.126 C 
ATOM     19  C   UNL A   1      28.564  28.374  23.317  1.00  0.00     0.126 C 
ENDBRANCH   6  12
BRANCH   5  20
ATOM     20  O   UNL A   1      33.564  24.531  24.870  1.00  0.00    -0.475 OA
BRANCH  20  21
ATOM     21  C   UNL A   1      33.187  23.297  24.435  1.00  0.00     0.121 A 
ATOM     22  C   UNL A   1      32.828  23.104  23.107  1.00  0.00     0.047 A 
ATOM     23  C   UNL A   1      33.286  22.214  25.308  1.00  0.00     0.055 A 
ATOM     24  C   UNL A   1      32.499  21.827  22.659  1.00  0.00     0.012 A 
ATOM     25  C   UNL A   1      32.970  20.918  24.869  1.00  0.00    -0.015 A 
ATOM     26  C   UNL A   1      32.562  20.726  23.527  1.00  0.00    -0.018 A 
ATOM     27  C   UNL A   1      33.054  19.806  25.724  1.00  0.00     0.009 A 
ATOM     28  C   UNL A   1      32.242  19.434  23.082  1.00  0.00     0.009 A 
ATOM     29  C   UNL A   1      32.737  18.526  25.263  1.00  0.00     0.001 A 
ATOM     30  C   UNL A   1      32.329  18.341  23.945  1.00  0.00     0.001 A 
ENDBRANCH  20  21
ENDBRANCH   5  20
ENDBRANCH   3   5
ENDBRANCH   2   3
ENDBRANCH   1   2
BRANCH   1  31
ATOM     31  C   UNL A   1      31.759  29.376  26.254  1.00  0.00     0.275 C 
BRANCH  31  32
ATOM     32  O   UNL A   1      32.994  30.075  26.034  1.00  0.00    -0.458 OA
BRANCH  32  33
ATOM     33  C   UNL A   1      33.283  31.063  26.904  1.00  0.00     0.338 C 
ATOM     34  O   UNL A   1      32.551  31.998  27.212  1.00  0.00    -0.246 OA
BRANCH  33  35
ATOM     35  C   UNL A   1      34.616  30.842  27.516  1.00  0.00     0.060 A 
ATOM     36  C   UNL A   1      35.057  29.561  27.859  1.00  0.00     0.016 A 
ATOM     37  C   UNL A   1      35.392  31.949  27.872  1.00  0.00     0.016 A 
ATOM     38  C   UNL A   1      36.199  29.393  28.642  1.00  0.00     0.010 A 
ATOM     39  C   UNL A   1      36.592  31.771  28.568  1.00  0.00     0.010 A 
ATOM     40  C   UNL A   1      36.999  30.492  28.983  1.00  0.00    -0.014 A 
BRANCH  40  41
ATOM     41  C   UNL A   1      38.268  30.313  29.741  1.00  0.00     0.031 A 
ATOM     42  C   UNL A   1      39.399  29.502  29.171  1.00  0.00     0.074 A 
ATOM     43  C   UNL A   1      38.400  30.851  30.970  1.00  0.00     0.049 A 
ATOM     44  N   UNL A   1      40.451  29.007  29.772  1.00  0.00    -0.248 NA
ATOM     45  C   UNL A   1      39.333  29.196  27.733  1.00  0.00     0.031 C 
ATOM     46  C   UNL A   1      37.411  31.699  31.639  1.00  0.00     0.029 A 
ATOM     47  N   UNL A   1      39.424  30.755  31.880  1.00  0.00    -0.354 N 
ATOM     48  C   UNL A   1      41.136  28.279  28.808  1.00  0.00     0.074 A 
ATOM     49  C   UNL A   1      40.390  28.410  27.573  1.00  0.00     0.031 C 
ATOM     50  C   UNL A   1      37.886  32.069  32.836  1.00  0.00     0.029 A 
ATOM     51  C   UNL A   1      39.162  31.404  33.063  1.00  0.00     0.049 A 
ATOM     52  H   UNL A   1      40.262  30.270  31.703  1.00  0.00     0.167 HD
ATOM     53  C   UNL A   1      42.277  27.563  28.947  1.00  0.00     0.037 A 
ATOM     54  C   UNL A   1      39.836  31.418  34.227  1.00  0.00     0.037 A 
ATOM     55  C   UNL A   1      43.050  27.488  30.160  1.00  0.00     0.049 A 
ATOM     56  C   UNL A   1      41.082  30.598  34.368  1.00  0.00     0.074 A 
ATOM     57  C   UNL A   1      44.230  26.801  30.394  1.00  0.00     0.029 A 
ATOM     58  N   UNL A   1      42.730  28.141  31.341  1.00  0.00    -0.354 N 
ATOM     59  N   UNL A   1      41.669  29.835  33.479  1.00  0.00    -0.248 NA
ATOM     60  C   UNL A   1      41.739  30.614  35.682  1.00  0.00     0.031 C 
ATOM     61  C   UNL A   1      44.613  27.022  31.722  1.00  0.00     0.029 A 
ATOM     62  C   UNL A   1      43.688  27.870  32.306  1.00  0.00     0.049 A 
ATOM     63  H   UNL A   1      41.941  28.715  31.473  1.00  0.00     0.167 HD
ATOM     64  C   UNL A   1      42.760  29.275  34.126  1.00  0.00     0.074 A 
ATOM     65  C   UNL A   1      42.768  29.804  35.475  1.00  0.00     0.031 C 
ATOM     66  C   UNL A   1      43.671  28.394  33.646  1.00  0.00     0.037 A 
BRANCH  53  67
ATOM     67  C   UNL A   1      42.754  26.769  27.767  1.00  0.00     0.057 A 
ATOM     68  C   UNL A   1      43.663  27.287  26.839  1.00  0.00     0.134 A 
ATOM     69  C   UNL A   1      42.348  25.437  27.603  1.00  0.00     0.134 A 
ATOM     70  F   UNL A   1      44.080  28.558  26.933  1.00  0.00    -0.206 F 
ATOM     71  C   UNL A   1      44.148  26.511  25.784  1.00  0.00     0.040 A 
ATOM     72  C   UNL A   1      42.838  24.646  26.563  1.00  0.00     0.040 A 
ATOM     73  F   UNL A   1      41.482  24.879  28.462  1.00  0.00    -0.206 F 
ATOM     74  C   UNL A   1      43.742  25.184  25.648  1.00  0.00     0.006 A 
ENDBRANCH  53  67
BRANCH  54  75
ATOM     75  C   UNL A   1      39.295  32.193  35.368  1.00  0.00     0.057 A 
ATOM     76  C   UNL A   1      39.580  33.553  35.515  1.00  0.00     0.134 A 
ATOM     77  C   UNL A   1      38.439  31.602  36.307  1.00  0.00     0.134 A 
ATOM     78  F   UNL A   1      40.410  34.164  34.658  1.00  0.00    -0.206 F 
ATOM     79  C   UNL A   1      39.027  34.304  36.552  1.00  0.00     0.040 A 
ATOM     80  C   UNL A   1      37.860  32.346  37.334  1.00  0.00     0.040 A 
ATOM     81  F   UNL A   1      38.126  30.301  36.212  1.00  0.00    -0.206 F 
ATOM     82  C   UNL A   1      38.154  33.701  37.459  1.00  0.00     0.006 A 
ENDBRANCH  54  75
BRANCH  66  83
ATOM     83  C   UNL A   1      44.748  27.958  34.590  1.00  0.00     0.057 A 
ATOM     84  C   UNL A   1      44.603  26.816  35.386  1.00  0.00     0.134 A 
ATOM     85  C   UNL A   1      45.941  28.681  34.697  1.00  0.00     0.134 A 
ATOM     86  F   UNL A   1      43.474  26.092  35.338  1.00  0.00    -0.206 F 
ATOM     87  C   UNL A   1      45.604  26.416  36.272  1.00  0.00     0.040 A 
ATOM     88  C   UNL A   1      46.956  28.282  35.568  1.00  0.00     0.040 A 
ATOM     89  F   UNL A   1      46.139  29.782  33.957  1.00  0.00    -0.206 F 
ATOM     90  C   UNL A   1      46.786  27.150  36.362  1.00  0.00     0.006 A 
ENDBRANCH  66  83
ENDBRANCH  40  41
ENDBRANCH  33  35
ENDBRANCH  32  33
ENDBRANCH  31  32
ENDBRANCH   1  31
TORSDOF 14
ENDMDL
MODEL 3
REMARK VINA RESULT:     -12.3      3.988      8.588
REMARK SMILES C[NH+]1CCC([NH+]2CCC(Oc3ccc4ccccc4c3)(C(=O)OCCOC(=O)c3ccc(-c4c5nc(c(-c6c(F)cccc6F)c6ccc([nH]6)c(-c6c(F)cccc6F)c6nc(c(-c7c(F)cccc7F)c7ccc4[nH]7)C=C6)C=C5)cc3)CC2)CC1
REMARK SMILES IDX 24 1 23 2 21 3 22 4 9 5 6 6 7 7 84 8 8 10 83 11 5 12 1 13
REMARK SMILES IDX 2 14 3 15 86 16 4 18 85 19 10 20 11 21 12 22 20 23 13 24
REMARK SMILES IDX 19 25 14 26 18 27 15 28 17 29 16 30 25 31 26 32 27 33 28 34
REMARK SMILES IDX 29 35 30 36 82 37 31 38 81 39 32 40 33 41 34 42 75 43 35 44
REMARK SMILES IDX 80 45 74 46 76 47 36 48 79 49 73 50 72 51 37 53 63 54 46 55
REMARK SMILES IDX 62 56 47 57 50 58 61 59 77 60 48 61 49 62 60 64 78 65 51 66
REMARK SMILES IDX 38 67 39 68 44 69 40 70 41 71 43 72 45 73 42 74 64 75 65 76
REMARK SMILES IDX 70 77 66 78 67 79 69 80 71 81 68 82 52 83 53 84 58 85 54 86
REMARK SMILES IDX 55 87 57 88 59 89 56 90
REMARK H PARENT 6 9 2 17 76 52 50 63
REMARK Flexibility Score: inf
ROOT
ATOM      1  C   UNL A   1      32.718  30.065  26.757  1.00  0.00     0.274 C 
ENDROOT
BRANCH   1   2
ATOM      2  O   UNL A   1      33.103  28.678  26.859  1.00  0.00    -0.459 OA
BRANCH   2   3
ATOM      3  C   UNL A   1      32.093  27.779  27.038  1.00  0.00     0.351 C 
ATOM      4  O   UNL A   1      31.293  27.827  27.970  1.00  0.00    -0.247 OA
BRANCH   3   5
ATOM      5  C   UNL A   1      32.115  26.632  26.006  1.00  0.00     0.216 C 
ATOM      6  N   UNL A   1      30.685  27.458  23.560  1.00  0.00    -0.332 N 
ATOM      7  C   UNL A   1      32.030  27.976  23.845  1.00  0.00     0.267 C 
ATOM      8  C   UNL A   1      29.951  27.210  24.806  1.00  0.00     0.267 C 
ATOM      9  H   UNL A   1      30.820  26.572  23.071  1.00  0.00     0.348 HD
ATOM     10  C   UNL A   1      32.829  26.988  24.695  1.00  0.00     0.122 C 
ATOM     11  C   UNL A   1      30.665  26.199  25.705  1.00  0.00     0.122 C 
BRANCH   6  12
ATOM     12  C   UNL A   1      29.894  28.305  22.623  1.00  0.00     0.195 C 
ATOM     13  C   UNL A   1      27.815  31.682  20.922  1.00  0.00     0.332 C 
ATOM     14  N   UNL A   1      28.550  30.780  21.807  1.00  0.00    -0.337 N 
ATOM     15  C   UNL A   1      29.855  30.425  21.236  1.00  0.00     0.268 C 
ATOM     16  C   UNL A   1      27.761  29.580  22.094  1.00  0.00     0.268 C 
ATOM     17  H   UNL A   1      28.719  31.270  22.687  1.00  0.00     0.347 HD
ATOM     18  C   UNL A   1      30.666  29.573  22.217  1.00  0.00     0.126 C 
ATOM     19  C   UNL A   1      28.482  28.685  23.102  1.00  0.00     0.126 C 
ENDBRANCH   6  12
BRANCH   5  20
ATOM     20  O   UNL A   1      32.923  25.695  26.773  1.00  0.00    -0.475 OA
BRANCH  20  21
ATOM     21  C   UNL A   1      33.320  24.556  26.142  1.00  0.00     0.121 A 
ATOM     22  C   UNL A   1      34.625  24.429  25.685  1.00  0.00     0.047 A 
ATOM     23  C   UNL A   1      32.436  23.479  26.073  1.00  0.00     0.055 A 
ATOM     24  C   UNL A   1      35.037  23.238  25.093  1.00  0.00     0.012 A 
ATOM     25  C   UNL A   1      32.839  22.267  25.489  1.00  0.00    -0.015 A 
ATOM     26  C   UNL A   1      34.156  22.151  24.984  1.00  0.00    -0.018 A 
ATOM     27  C   UNL A   1      31.972  21.165  25.398  1.00  0.00     0.009 A 
ATOM     28  C   UNL A   1      34.566  20.944  24.397  1.00  0.00     0.009 A 
ATOM     29  C   UNL A   1      32.398  19.969  24.815  1.00  0.00     0.001 A 
ATOM     30  C   UNL A   1      33.691  19.859  24.314  1.00  0.00     0.001 A 
ENDBRANCH  20  21
ENDBRANCH   5  20
ENDBRANCH   3   5
ENDBRANCH   2   3
ENDBRANCH   1   2
BRANCH   1  31
ATOM     31  C   UNL A   1      33.683  30.959  27.531  1.00  0.00     0.275 C 
BRANCH  31  32
ATOM     32  O   UNL A   1      34.765  30.158  28.030  1.00  0.00    -0.458 OA
BRANCH  32  33
ATOM     33  C   UNL A   1      35.595  30.755  28.908  1.00  0.00     0.338 C 
ATOM     34  O   UNL A   1      35.305  31.665  29.678  1.00  0.00    -0.246 OA
BRANCH  33  35
ATOM     35  C   UNL A   1      36.932  30.113  28.877  1.00  0.00     0.060 A 
ATOM     36  C   UNL A   1      37.551  29.662  30.046  1.00  0.00     0.016 A 
ATOM     37  C   UNL A   1      37.639  30.075  27.671  1.00  0.00     0.016 A 
ATOM     38  C   UNL A   1      38.893  29.281  30.032  1.00  0.00     0.010 A 
ATOM     39  C   UNL A   1      38.952  29.595  27.642  1.00  0.00     0.010 A 
ATOM     40  C   UNL A   1      39.604  29.214  28.827  1.00  0.00    -0.014 A 
BRANCH  40  41
ATOM     41  C   UNL A   1      41.009  28.723  28.790  1.00  0.00     0.031 A 
ATOM     42  C   UNL A   1      42.160  29.663  29.024  1.00  0.00     0.074 A 
ATOM     43  C   UNL A   1      41.265  27.429  28.510  1.00  0.00     0.049 A 
ATOM     44  N   UNL A   1      43.433  29.496  28.767  1.00  0.00    -0.248 NA
ATOM     45  C   UNL A   1      41.836  30.970  29.616  1.00  0.00     0.031 C 
ATOM     46  C   UNL A   1      40.255  26.388  28.304  1.00  0.00     0.029 A 
ATOM     47  N   UNL A   1      42.458  26.771  28.342  1.00  0.00    -0.354 N 
ATOM     48  C   UNL A   1      44.051  30.694  29.101  1.00  0.00     0.074 A 
ATOM     49  C   UNL A   1      43.016  31.578  29.598  1.00  0.00     0.031 C 
ATOM     50  C   UNL A   1      40.869  25.221  28.067  1.00  0.00     0.029 A 
ATOM     51  C   UNL A   1      42.307  25.449  28.002  1.00  0.00     0.049 A 
ATOM     52  H   UNL A   1      43.335  27.204  28.453  1.00  0.00     0.167 HD
ATOM     53  C   UNL A   1      45.361  31.024  28.994  1.00  0.00     0.037 A 
ATOM     54  C   UNL A   1      43.210  24.530  27.617  1.00  0.00     0.037 A 
ATOM     55  C   UNL A   1      46.396  30.121  28.561  1.00  0.00     0.049 A 
ATOM     56  C   UNL A   1      44.649  24.923  27.480  1.00  0.00     0.074 A 
ATOM     57  C   UNL A   1      47.755  30.360  28.436  1.00  0.00     0.029 A 
ATOM     58  N   UNL A   1      46.190  28.798  28.201  1.00  0.00    -0.354 N 
ATOM     59  N   UNL A   1      45.209  26.086  27.706  1.00  0.00    -0.248 NA
ATOM     60  C   UNL A   1      45.575  23.886  27.004  1.00  0.00     0.031 C 
ATOM     61  C   UNL A   1      48.367  29.186  27.981  1.00  0.00     0.029 A 
ATOM     62  C   UNL A   1      47.395  28.210  27.851  1.00  0.00     0.049 A 
ATOM     63  H   UNL A   1      45.317  28.344  28.197  1.00  0.00     0.167 HD
ATOM     64  C   UNL A   1      46.550  25.925  27.394  1.00  0.00     0.074 A 
ATOM     65  C   UNL A   1      46.725  24.545  26.986  1.00  0.00     0.031 C 
ATOM     66  C   UNL A   1      47.547  26.842  27.433  1.00  0.00     0.037 A 
BRANCH  53  67
ATOM     67  C   UNL A   1      45.756  32.434  29.321  1.00  0.00     0.057 A 
ATOM     68  C   UNL A   1      45.714  33.459  28.369  1.00  0.00     0.134 A 
ATOM     69  C   UNL A   1      46.115  32.780  30.631  1.00  0.00     0.134 A 
ATOM     70  F   UNL A   1      45.391  33.190  27.095  1.00  0.00    -0.206 F 
ATOM     71  C   UNL A   1      46.021  34.778  28.707  1.00  0.00     0.040 A 
ATOM     72  C   UNL A   1      46.407  34.098  30.985  1.00  0.00     0.040 A 
ATOM     73  F   UNL A   1      46.169  31.845  31.591  1.00  0.00    -0.206 F 
ATOM     74  C   UNL A   1      46.360  35.103  30.020  1.00  0.00     0.006 A 
ENDBRANCH  53  67
BRANCH  54  75
ATOM     75  C   UNL A   1      42.753  23.163  27.273  1.00  0.00     0.057 A 
ATOM     76  C   UNL A   1      42.494  22.218  28.270  1.00  0.00     0.134 A 
ATOM     77  C   UNL A   1      42.514  22.790  25.944  1.00  0.00     0.134 A 
ATOM     78  F   UNL A   1      42.726  22.514  29.557  1.00  0.00    -0.206 F 
ATOM     79  C   UNL A   1      42.006  20.949  27.959  1.00  0.00     0.040 A 
ATOM     80  C   UNL A   1      42.003  21.534  25.621  1.00  0.00     0.040 A 
ATOM     81  F   UNL A   1      42.739  23.658  24.947  1.00  0.00    -0.206 F 
ATOM     82  C   UNL A   1      41.748  20.609  26.631  1.00  0.00     0.006 A 
ENDBRANCH  54  75
BRANCH  66  83
ATOM     83  C   UNL A   1      48.910  26.372  27.030  1.00  0.00     0.057 A 
ATOM     84  C   UNL A   1      49.784  25.787  27.954  1.00  0.00     0.134 A 
ATOM     85  C   UNL A   1      49.348  26.498  25.707  1.00  0.00     0.134 A 
ATOM     86  F   UNL A   1      49.424  25.654  29.240  1.00  0.00    -0.206 F 
ATOM     87  C   UNL A   1      51.057  25.358  27.578  1.00  0.00     0.040 A 
ATOM     88  C   UNL A   1      50.614  26.058  25.316  1.00  0.00     0.040 A 
ATOM     89  F   UNL A   1      48.554  27.048  24.776  1.00  0.00    -0.206 F 
ATOM     90  C   UNL A   1      51.473  25.491  26.254  1.00  0.00     0.006 A 
ENDBRANCH  66  83
ENDBRANCH  40  41
ENDBRANCH  33  35
ENDBRANCH  32  33
ENDBRANCH  31  32
ENDBRANCH   1  31
TORSDOF 14
ENDMDL
