MODEL 1
REMARK VINA RESULT:     -11.9      0.000      0.000
REMARK SMILES COc1cc2c(cc1OC)[C@H](C(=O)OCCOC(=O)c1ccc(-c3c4nc(c(-c5c(F)cccc5F)c5ccc([nH]5)c(-c5c(F)cccc5F)c5nc(c(-c6c(F)cccc6F)c6ccc3[nH]6)C=C5)C=C4)cc1)[C@H](c1cccc(Cl)c1)N(C)C2=O
REMARK SMILES IDX 16 1 15 2 14 3 12 4 13 5 11 6 3 7 4 8 8 9 5 10 7 11 6 12
REMARK SMILES IDX 84 13 82 14 85 15 74 16 83 17 2 18 1 19 9 20 10 21 75 22
REMARK SMILES IDX 76 23 81 24 77 25 79 26 78 27 80 28 17 29 18 30 19 31 20 32
REMARK SMILES IDX 21 33 73 34 22 35 72 36 23 37 24 38 25 39 66 40 26 41 71 42
REMARK SMILES IDX 65 43 67 44 27 45 70 46 64 47 63 48 28 50 54 51 37 52 53 53
REMARK SMILES IDX 38 54 41 55 52 56 68 57 39 58 40 59 51 61 69 62 42 63 29 64
REMARK SMILES IDX 30 65 35 66 31 67 32 68 34 69 36 70 33 71 55 72 56 73 61 74
REMARK SMILES IDX 57 75 58 76 60 77 62 78 59 79 43 80 44 81 49 82 45 83 46 84
REMARK SMILES IDX 48 85 50 86 47 87
REMARK H PARENT 67 49 41 60
REMARK Flexibility Score: inf
ROOT
ATOM      1  C   UNL A   1      31.838  30.366  26.736  1.00  0.00     0.275 C 
ENDROOT
BRANCH   1   2
ATOM      2  C   UNL A   1      31.605  29.147  27.629  1.00  0.00     0.274 C 
BRANCH   2   3
ATOM      3  O   UNL A   1      32.574  28.097  27.392  1.00  0.00    -0.462 OA
BRANCH   3   4
ATOM      4  C   UNL A   1      32.083  27.020  26.711  1.00  0.00     0.316 C 
ATOM      5  O   UNL A   1      31.156  26.333  27.125  1.00  0.00    -0.251 OA
BRANCH   4   6
ATOM      6  C   UNL A   1      32.835  26.759  25.407  1.00  0.00     0.157 C 
ATOM      7  C   UNL A   1      31.778  22.993  23.574  1.00  0.00     0.161 A 
ATOM      8  C   UNL A   1      32.385  24.010  22.821  1.00  0.00     0.064 A 
ATOM      9  C   UNL A   1      31.645  23.141  24.961  1.00  0.00     0.161 A 
ATOM     10  C   UNL A   1      32.805  25.190  23.439  1.00  0.00     0.048 A 
ATOM     11  C   UNL A   1      32.090  24.319  25.564  1.00  0.00     0.056 A 
ATOM     12  C   UNL A   1      32.582  25.386  24.808  1.00  0.00    -0.015 A 
ATOM     13  C   UNL A   1      33.450  26.256  22.619  1.00  0.00     0.254 C 
ATOM     14  N   UNL A   1      33.386  27.546  23.140  1.00  0.00    -0.333 N 
ATOM     15  O   UNL A   1      33.977  25.977  21.550  1.00  0.00    -0.269 OA
ATOM     16  C   UNL A   1      32.527  27.819  24.310  1.00  0.00     0.134 C 
ATOM     17  C   UNL A   1      33.946  28.651  22.375  1.00  0.00     0.147 C 
BRANCH   7  18
ATOM     18  O   UNL A   1      31.241  21.896  22.956  1.00  0.00    -0.493 OA
ATOM     19  C   UNL A   1      32.153  20.816  22.797  1.00  0.00     0.278 C 
ENDBRANCH   7  18
BRANCH   9  20
ATOM     20  O   UNL A   1      31.117  22.278  25.879  1.00  0.00    -0.493 OA
ATOM     21  C   UNL A   1      30.180  22.772  26.817  1.00  0.00     0.278 C 
ENDBRANCH   9  20
BRANCH  16  22
ATOM     22  C   UNL A   1      31.051  28.030  23.915  1.00  0.00    -0.023 A 
ATOM     23  C   UNL A   1      30.141  26.958  23.954  1.00  0.00     0.006 A 
ATOM     24  C   UNL A   1      30.534  29.283  23.528  1.00  0.00     0.026 A 
ATOM     25  C   UNL A   1      28.823  27.092  23.507  1.00  0.00     0.002 A 
ATOM     26  C   UNL A   1      29.204  29.427  23.123  1.00  0.00     0.041 A 
ATOM     27  C   UNL A   1      28.355  28.328  23.080  1.00  0.00     0.020 A 
ATOM     28  Cl  UNL A   1      28.605  30.979  22.681  1.00  0.00    -0.084 Cl
ENDBRANCH  16  22
ENDBRANCH   4   6
ENDBRANCH   3   4
ENDBRANCH   2   3
ENDBRANCH   1   2
BRANCH   1  29
ATOM     29  O   UNL A   1      33.247  30.628  26.575  1.00  0.00    -0.458 OA
BRANCH  29  30
ATOM     30  C   UNL A   1      33.694  31.714  27.246  1.00  0.00     0.338 C 
ATOM     31  O   UNL A   1      33.069  32.740  27.488  1.00  0.00    -0.246 OA
BRANCH  30  32
ATOM     32  C   UNL A   1      34.976  31.411  27.901  1.00  0.00     0.060 A 
ATOM     33  C   UNL A   1      35.077  30.138  28.454  1.00  0.00     0.016 A 
ATOM     34  C   UNL A   1      36.025  32.318  28.048  1.00  0.00     0.016 A 
ATOM     35  C   UNL A   1      36.253  29.704  29.054  1.00  0.00     0.010 A 
ATOM     36  C   UNL A   1      37.178  31.920  28.750  1.00  0.00     0.010 A 
ATOM     37  C   UNL A   1      37.301  30.606  29.244  1.00  0.00    -0.014 A 
BRANCH  37  38
ATOM     38  C   UNL A   1      38.398  30.194  30.155  1.00  0.00     0.031 A 
ATOM     39  C   UNL A   1      39.471  29.295  29.615  1.00  0.00     0.074 A 
ATOM     40  C   UNL A   1      38.532  30.720  31.385  1.00  0.00     0.049 A 
ATOM     41  N   UNL A   1      40.511  28.784  30.219  1.00  0.00    -0.248 NA
ATOM     42  C   UNL A   1      39.365  28.945  28.189  1.00  0.00     0.031 C 
ATOM     43  C   UNL A   1      37.646  31.719  31.971  1.00  0.00     0.029 A 
ATOM     44  N   UNL A   1      39.481  30.505  32.354  1.00  0.00    -0.354 N 
ATOM     45  C   UNL A   1      41.174  28.038  29.255  1.00  0.00     0.074 A 
ATOM     46  C   UNL A   1      40.423  28.167  28.025  1.00  0.00     0.031 C 
ATOM     47  C   UNL A   1      38.095  32.040  33.197  1.00  0.00     0.029 A 
ATOM     48  C   UNL A   1      39.263  31.220  33.508  1.00  0.00     0.049 A 
ATOM     49  H   UNL A   1      40.245  29.896  32.234  1.00  0.00     0.167 HD
ATOM     50  C   UNL A   1      42.302  27.300  29.388  1.00  0.00     0.037 A 
ATOM     51  C   UNL A   1      39.911  31.185  34.690  1.00  0.00     0.037 A 
ATOM     52  C   UNL A   1      43.036  27.160  30.617  1.00  0.00     0.049 A 
ATOM     53  C   UNL A   1      41.081  30.248  34.855  1.00  0.00     0.074 A 
ATOM     54  C   UNL A   1      44.150  26.381  30.873  1.00  0.00     0.029 A 
ATOM     55  N   UNL A   1      42.725  27.814  31.800  1.00  0.00    -0.354 N 
ATOM     56  N   UNL A   1      41.658  29.477  33.964  1.00  0.00    -0.248 NA
ATOM     57  C   UNL A   1      41.679  30.161  36.195  1.00  0.00     0.031 C 
ATOM     58  C   UNL A   1      44.481  26.523  32.225  1.00  0.00     0.029 A 
ATOM     59  C   UNL A   1      43.614  27.440  32.795  1.00  0.00     0.049 A 
ATOM     60  H   UNL A   1      41.983  28.451  31.916  1.00  0.00     0.167 HD
ATOM     61  C   UNL A   1      42.704  28.843  34.626  1.00  0.00     0.074 A 
ATOM     62  C   UNL A   1      42.688  29.327  35.990  1.00  0.00     0.031 C 
ATOM     63  C   UNL A   1      43.596  27.940  34.147  1.00  0.00     0.037 A 
BRANCH  50  64
ATOM     64  C   UNL A   1      42.745  26.522  28.185  1.00  0.00     0.057 A 
ATOM     65  C   UNL A   1      42.286  25.224  27.920  1.00  0.00     0.134 A 
ATOM     66  C   UNL A   1      43.668  27.076  27.289  1.00  0.00     0.134 A 
ATOM     67  F   UNL A   1      41.423  24.625  28.754  1.00  0.00    -0.206 F 
ATOM     68  C   UNL A   1      42.756  24.496  26.825  1.00  0.00     0.040 A 
ATOM     69  C   UNL A   1      44.122  26.370  26.176  1.00  0.00     0.040 A 
ATOM     70  F   UNL A   1      44.150  28.313  27.488  1.00  0.00    -0.206 F 
ATOM     71  C   UNL A   1      43.672  25.071  25.947  1.00  0.00     0.006 A 
ENDBRANCH  50  64
BRANCH  51  72
ATOM     72  C   UNL A   1      39.441  32.007  35.839  1.00  0.00     0.057 A 
ATOM     73  C   UNL A   1      38.384  31.588  36.656  1.00  0.00     0.134 A 
ATOM     74  C   UNL A   1      39.994  33.266  36.106  1.00  0.00     0.134 A 
ATOM     75  F   UNL A   1      37.784  30.409  36.432  1.00  0.00    -0.206 F 
ATOM     76  C   UNL A   1      37.882  32.396  37.679  1.00  0.00     0.040 A 
ATOM     77  C   UNL A   1      39.524  34.071  37.144  1.00  0.00     0.040 A 
ATOM     78  F   UNL A   1      41.002  33.738  35.356  1.00  0.00    -0.206 F 
ATOM     79  C   UNL A   1      38.456  33.641  37.929  1.00  0.00     0.006 A 
ENDBRANCH  51  72
BRANCH  63  80
ATOM     80  C   UNL A   1      44.665  27.459  35.087  1.00  0.00     0.057 A 
ATOM     81  C   UNL A   1      45.884  28.131  35.239  1.00  0.00     0.134 A 
ATOM     82  C   UNL A   1      44.453  26.322  35.878  1.00  0.00     0.134 A 
ATOM     83  F   UNL A   1      46.158  29.220  34.505  1.00  0.00    -0.206 F 
ATOM     84  C   UNL A   1      46.864  27.674  36.123  1.00  0.00     0.040 A 
ATOM     85  C   UNL A   1      45.412  25.873  36.788  1.00  0.00     0.040 A 
ATOM     86  F   UNL A   1      43.303  25.636  35.792  1.00  0.00    -0.206 F 
ATOM     87  C   UNL A   1      46.626  26.546  36.906  1.00  0.00     0.006 A 
ENDBRANCH  63  80
ENDBRANCH  37  38
ENDBRANCH  30  32
ENDBRANCH  29  30
ENDBRANCH   1  29
TORSDOF 14
ENDMDL
MODEL 2
REMARK VINA RESULT:     -11.8      1.073      6.127
REMARK SMILES COc1cc2c(cc1OC)[C@H](C(=O)OCCOC(=O)c1ccc(-c3c4nc(c(-c5c(F)cccc5F)c5ccc([nH]5)c(-c5c(F)cccc5F)c5nc(c(-c6c(F)cccc6F)c6ccc3[nH]6)C=C5)C=C4)cc1)[C@H](c1cccc(Cl)c1)N(C)C2=O
REMARK SMILES IDX 16 1 15 2 14 3 12 4 13 5 11 6 3 7 4 8 8 9 5 10 7 11 6 12
REMARK SMILES IDX 84 13 82 14 85 15 74 16 83 17 2 18 1 19 9 20 10 21 75 22
REMARK SMILES IDX 76 23 81 24 77 25 79 26 78 27 80 28 17 29 18 30 19 31 20 32
REMARK SMILES IDX 21 33 73 34 22 35 72 36 23 37 24 38 25 39 66 40 26 41 71 42
REMARK SMILES IDX 65 43 67 44 27 45 70 46 64 47 63 48 28 50 54 51 37 52 53 53
REMARK SMILES IDX 38 54 41 55 52 56 68 57 39 58 40 59 51 61 69 62 42 63 29 64
REMARK SMILES IDX 30 65 35 66 31 67 32 68 34 69 36 70 33 71 55 72 56 73 61 74
REMARK SMILES IDX 57 75 58 76 60 77 62 78 59 79 43 80 44 81 49 82 45 83 46 84
REMARK SMILES IDX 48 85 50 86 47 87
REMARK H PARENT 67 49 41 60
REMARK Flexibility Score: inf
ROOT
ATOM      1  C   UNL A   1      31.796  31.937  27.273  1.00  0.00     0.275 C 
ENDROOT
BRANCH   1   2
ATOM      2  C   UNL A   1      32.070  30.673  26.458  1.00  0.00     0.274 C 
BRANCH   2   3
ATOM      3  O   UNL A   1      32.495  29.565  27.287  1.00  0.00    -0.462 OA
BRANCH   3   4
ATOM      4  C   UNL A   1      32.050  28.343  26.868  1.00  0.00     0.316 C 
ATOM      5  O   UNL A   1      31.151  27.729  27.430  1.00  0.00    -0.251 OA
BRANCH   4   6
ATOM      6  C   UNL A   1      32.817  27.827  25.651  1.00  0.00     0.157 C 
ATOM      7  C   UNL A   1      32.343  23.579  25.032  1.00  0.00     0.161 A 
ATOM      8  C   UNL A   1      32.772  24.411  23.987  1.00  0.00     0.064 A 
ATOM      9  C   UNL A   1      32.207  24.102  26.325  1.00  0.00     0.161 A 
ATOM     10  C   UNL A   1      33.009  25.767  24.217  1.00  0.00     0.048 A 
ATOM     11  C   UNL A   1      32.468  25.458  26.540  1.00  0.00     0.056 A 
ATOM     12  C   UNL A   1      32.776  26.318  25.484  1.00  0.00    -0.015 A 
ATOM     13  C   UNL A   1      33.467  26.632  23.091  1.00  0.00     0.254 C 
ATOM     14  N   UNL A   1      33.208  27.993  23.225  1.00  0.00    -0.333 N 
ATOM     15  O   UNL A   1      34.017  26.134  22.118  1.00  0.00    -0.269 OA
ATOM     16  C   UNL A   1      32.331  28.466  24.316  1.00  0.00     0.134 C 
ATOM     17  C   UNL A   1      33.576  28.898  22.145  1.00  0.00     0.147 C 
BRANCH   7  18
ATOM     18  O   UNL A   1      31.978  22.283  24.786  1.00  0.00    -0.493 OA
ATOM     19  C   UNL A   1      32.364  21.806  23.502  1.00  0.00     0.278 C 
ENDBRANCH   7  18
BRANCH   9  20
ATOM     20  O   UNL A   1      31.834  23.476  27.481  1.00  0.00    -0.493 OA
ATOM     21  C   UNL A   1      32.705  22.516  28.048  1.00  0.00     0.278 C 
ENDBRANCH   9  20
BRANCH  16  22
ATOM     22  C   UNL A   1      30.836  28.333  23.965  1.00  0.00    -0.023 A 
ATOM     23  C   UNL A   1      30.174  27.101  24.111  1.00  0.00     0.006 A 
ATOM     24  C   UNL A   1      30.057  29.418  23.513  1.00  0.00     0.026 A 
ATOM     25  C   UNL A   1      28.847  26.923  23.707  1.00  0.00     0.002 A 
ATOM     26  C   UNL A   1      28.718  29.250  23.150  1.00  0.00     0.041 A 
ATOM     27  C   UNL A   1      28.119  27.998  23.214  1.00  0.00     0.020 A 
ATOM     28  Cl  UNL A   1      27.794  30.605  22.626  1.00  0.00    -0.084 Cl
ENDBRANCH  16  22
ENDBRANCH   4   6
ENDBRANCH   3   4
ENDBRANCH   2   3
ENDBRANCH   1   2
BRANCH   1  29
ATOM     29  O   UNL A   1      32.712  32.992  26.914  1.00  0.00    -0.458 OA
BRANCH  29  30
ATOM     30  C   UNL A   1      33.245  33.651  27.968  1.00  0.00     0.338 C 
ATOM     31  O   UNL A   1      32.685  34.474  28.684  1.00  0.00    -0.246 OA
BRANCH  30  32
ATOM     32  C   UNL A   1      34.541  33.057  28.332  1.00  0.00     0.060 A 
ATOM     33  C   UNL A   1      34.473  31.822  28.971  1.00  0.00     0.016 A 
ATOM     34  C   UNL A   1      35.777  33.672  28.139  1.00  0.00     0.016 A 
ATOM     35  C   UNL A   1      35.623  31.127  29.320  1.00  0.00     0.010 A 
ATOM     36  C   UNL A   1      36.941  33.021  28.588  1.00  0.00     0.010 A 
ATOM     37  C   UNL A   1      36.869  31.738  29.169  1.00  0.00    -0.014 A 
BRANCH  37  38
ATOM     38  C   UNL A   1      38.029  31.097  29.835  1.00  0.00     0.031 A 
ATOM     39  C   UNL A   1      38.265  31.388  31.288  1.00  0.00     0.074 A 
ATOM     40  C   UNL A   1      38.771  30.160  29.218  1.00  0.00     0.049 A 
ATOM     41  N   UNL A   1      39.220  30.969  32.077  1.00  0.00    -0.248 NA
ATOM     42  C   UNL A   1      37.272  32.254  31.944  1.00  0.00     0.031 C 
ATOM     43  C   UNL A   1      38.550  29.674  27.862  1.00  0.00     0.029 A 
ATOM     44  N   UNL A   1      39.845  29.430  29.665  1.00  0.00    -0.354 N 
ATOM     45  C   UNL A   1      38.954  31.533  33.317  1.00  0.00     0.074 A 
ATOM     46  C   UNL A   1      37.747  32.319  33.178  1.00  0.00     0.031 C 
ATOM     47  C   UNL A   1      39.455  28.719  27.583  1.00  0.00     0.029 A 
ATOM     48  C   UNL A   1      40.360  28.573  28.720  1.00  0.00     0.049 A 
ATOM     49  H   UNL A   1      40.212  29.512  30.574  1.00  0.00     0.167 HD
ATOM     50  C   UNL A   1      39.661  31.416  34.465  1.00  0.00     0.037 A 
ATOM     51  C   UNL A   1      41.458  27.791  28.760  1.00  0.00     0.037 A 
ATOM     52  C   UNL A   1      40.870  30.647  34.594  1.00  0.00     0.049 A 
ATOM     53  C   UNL A   1      42.309  27.788  30.005  1.00  0.00     0.074 A 
ATOM     54  C   UNL A   1      41.699  30.521  35.696  1.00  0.00     0.029 A 
ATOM     55  N   UNL A   1      41.426  29.876  33.585  1.00  0.00    -0.354 N 
ATOM     56  N   UNL A   1      42.101  28.388  31.153  1.00  0.00    -0.248 NA
ATOM     57  C   UNL A   1      43.556  27.011  29.955  1.00  0.00     0.031 C 
ATOM     58  C   UNL A   1      42.784  29.716  35.335  1.00  0.00     0.029 A 
ATOM     59  C   UNL A   1      42.598  29.287  34.031  1.00  0.00     0.049 A 
ATOM     60  H   UNL A   1      41.044  29.761  32.685  1.00  0.00     0.167 HD
ATOM     61  C   UNL A   1      43.171  28.036  31.968  1.00  0.00     0.074 A 
ATOM     62  C   UNL A   1      44.020  27.160  31.188  1.00  0.00     0.031 C 
ATOM     63  C   UNL A   1      43.428  28.406  33.248  1.00  0.00     0.037 A 
BRANCH  50  64
ATOM     64  C   UNL A   1      39.179  32.215  35.639  1.00  0.00     0.057 A 
ATOM     65  C   UNL A   1      38.327  31.678  36.614  1.00  0.00     0.134 A 
ATOM     66  C   UNL A   1      39.558  33.556  35.780  1.00  0.00     0.134 A 
ATOM     67  F   UNL A   1      37.904  30.408  36.522  1.00  0.00    -0.206 F 
ATOM     68  C   UNL A   1      37.845  32.457  37.668  1.00  0.00     0.040 A 
ATOM     69  C   UNL A   1      39.107  34.335  36.844  1.00  0.00     0.040 A 
ATOM     70  F   UNL A   1      40.369  34.132  34.879  1.00  0.00    -0.206 F 
ATOM     71  C   UNL A   1      38.239  33.788  37.787  1.00  0.00     0.006 A 
ENDBRANCH  50  64
BRANCH  51  72
ATOM     72  C   UNL A   1      41.867  26.995  27.570  1.00  0.00     0.057 A 
ATOM     73  C   UNL A   1      42.588  27.569  26.516  1.00  0.00     0.134 A 
ATOM     74  C   UNL A   1      41.485  25.654  27.428  1.00  0.00     0.134 A 
ATOM     75  F   UNL A   1      42.952  28.858  26.571  1.00  0.00    -0.206 F 
ATOM     76  C   UNL A   1      42.896  26.848  25.359  1.00  0.00     0.040 A 
ATOM     77  C   UNL A   1      41.813  24.912  26.292  1.00  0.00     0.040 A 
ATOM     78  F   UNL A   1      40.782  25.042  28.393  1.00  0.00    -0.206 F 
ATOM     79  C   UNL A   1      42.512  25.513  25.247  1.00  0.00     0.006 A 
ENDBRANCH  51  72
BRANCH  63  80
ATOM     80  C   UNL A   1      44.645  27.819  33.906  1.00  0.00     0.057 A 
ATOM     81  C   UNL A   1      45.884  28.473  33.906  1.00  0.00     0.134 A 
ATOM     82  C   UNL A   1      44.563  26.595  34.583  1.00  0.00     0.134 A 
ATOM     83  F   UNL A   1      46.037  29.643  33.268  1.00  0.00    -0.206 F 
ATOM     84  C   UNL A   1      47.002  27.916  34.529  1.00  0.00     0.040 A 
ATOM     85  C   UNL A   1      45.666  26.044  35.237  1.00  0.00     0.040 A 
ATOM     86  F   UNL A   1      43.404  25.920  34.633  1.00  0.00    -0.206 F 
ATOM     87  C   UNL A   1      46.893  26.701  35.204  1.00  0.00     0.006 A 
ENDBRANCH  63  80
ENDBRANCH  37  38
ENDBRANCH  30  32
ENDBRANCH  29  30
ENDBRANCH   1  29
TORSDOF 14
ENDMDL
MODEL 3
REMARK VINA RESULT:     -11.8      4.274      8.657
REMARK SMILES COc1cc2c(cc1OC)[C@H](C(=O)OCCOC(=O)c1ccc(-c3c4nc(c(-c5c(F)cccc5F)c5ccc([nH]5)c(-c5c(F)cccc5F)c5nc(c(-c6c(F)cccc6F)c6ccc3[nH]6)C=C5)C=C4)cc1)[C@H](c1cccc(Cl)c1)N(C)C2=O
REMARK SMILES IDX 16 1 15 2 14 3 12 4 13 5 11 6 3 7 4 8 8 9 5 10 7 11 6 12
REMARK SMILES IDX 84 13 82 14 85 15 74 16 83 17 2 18 1 19 9 20 10 21 75 22
REMARK SMILES IDX 76 23 81 24 77 25 79 26 78 27 80 28 17 29 18 30 19 31 20 32
REMARK SMILES IDX 21 33 73 34 22 35 72 36 23 37 24 38 25 39 66 40 26 41 71 42
REMARK SMILES IDX 65 43 67 44 27 45 70 46 64 47 63 48 28 50 54 51 37 52 53 53
REMARK SMILES IDX 38 54 41 55 52 56 68 57 39 58 40 59 51 61 69 62 42 63 29 64
REMARK SMILES IDX 30 65 35 66 31 67 32 68 34 69 36 70 33 71 55 72 56 73 61 74
REMARK SMILES IDX 57 75 58 76 60 77 62 78 59 79 43 80 44 81 49 82 45 83 46 84
REMARK SMILES IDX 48 85 50 86 47 87
REMARK H PARENT 67 49 41 60
REMARK Flexibility Score: inf
ROOT
ATOM      1  C   UNL A   1      38.911  21.669  25.765  1.00  0.00     0.275 C 
ENDROOT
BRANCH   1   2
ATOM      2  C   UNL A   1      37.599  21.825  24.996  1.00  0.00     0.274 C 
BRANCH   2   3
ATOM      3  O   UNL A   1      37.186  23.209  24.888  1.00  0.00    -0.462 OA
BRANCH   3   4
ATOM      4  C   UNL A   1      35.980  23.391  24.272  1.00  0.00     0.316 C 
ATOM      5  O   UNL A   1      35.827  23.299  23.060  1.00  0.00    -0.251 OA
BRANCH   4   6
ATOM      6  C   UNL A   1      34.868  23.747  25.258  1.00  0.00     0.157 C 
ATOM      7  C   UNL A   1      31.768  26.186  23.496  1.00  0.00     0.161 A 
ATOM      8  C   UNL A   1      31.528  25.464  24.675  1.00  0.00     0.064 A 
ATOM      9  C   UNL A   1      33.063  26.235  22.965  1.00  0.00     0.161 A 
ATOM     10  C   UNL A   1      32.559  24.749  25.288  1.00  0.00     0.048 A 
ATOM     11  C   UNL A   1      34.087  25.530  23.603  1.00  0.00     0.056 A 
ATOM     12  C   UNL A   1      33.832  24.710  24.705  1.00  0.00    -0.015 A 
ATOM     13  C   UNL A   1      32.280  23.991  26.542  1.00  0.00     0.254 C 
ATOM     14  N   UNL A   1      33.145  22.936  26.820  1.00  0.00    -0.333 N 
ATOM     15  O   UNL A   1      31.328  24.298  27.248  1.00  0.00    -0.269 OA
ATOM     16  C   UNL A   1      34.113  22.496  25.794  1.00  0.00     0.134 C 
ATOM     17  C   UNL A   1      32.910  22.114  27.998  1.00  0.00     0.147 C 
BRANCH   7  18
ATOM     18  O   UNL A   1      30.735  26.774  22.817  1.00  0.00    -0.493 OA
ATOM     19  C   UNL A   1      30.522  28.139  23.156  1.00  0.00     0.278 C 
ENDBRANCH   7  18
BRANCH   9  20
ATOM     20  O   UNL A   1      33.523  26.889  21.856  1.00  0.00    -0.493 OA
ATOM     21  C   UNL A   1      34.028  28.203  22.002  1.00  0.00     0.278 C 
ENDBRANCH   9  20
BRANCH  16  22
ATOM     22  C   UNL A   1      33.475  21.548  24.758  1.00  0.00    -0.023 A 
ATOM     23  C   UNL A   1      32.827  22.064  23.623  1.00  0.00     0.006 A 
ATOM     24  C   UNL A   1      33.528  20.144  24.872  1.00  0.00     0.026 A 
ATOM     25  C   UNL A   1      32.152  21.238  22.718  1.00  0.00     0.002 A 
ATOM     26  C   UNL A   1      32.892  19.315  23.943  1.00  0.00     0.041 A 
ATOM     27  C   UNL A   1      32.176  19.859  22.884  1.00  0.00     0.020 A 
ATOM     28  Cl  UNL A   1      33.000  17.605  24.103  1.00  0.00    -0.084 Cl
ENDBRANCH  16  22
ENDBRANCH   4   6
ENDBRANCH   3   4
ENDBRANCH   2   3
ENDBRANCH   1   2
BRANCH   1  29
ATOM     29  O   UNL A   1      39.229  20.278  25.968  1.00  0.00    -0.458 OA
BRANCH  29  30
ATOM     30  C   UNL A   1      40.549  20.022  26.118  1.00  0.00     0.338 C 
ATOM     31  O   UNL A   1      41.146  19.004  25.788  1.00  0.00    -0.246 OA
BRANCH  30  32
ATOM     32  C   UNL A   1      41.261  21.252  26.501  1.00  0.00     0.060 A 
ATOM     33  C   UNL A   1      41.174  21.598  27.847  1.00  0.00     0.016 A 
ATOM     34  C   UNL A   1      41.932  22.089  25.610  1.00  0.00     0.016 A 
ATOM     35  C   UNL A   1      41.844  22.705  28.351  1.00  0.00     0.010 A 
ATOM     36  C   UNL A   1      42.523  23.270  26.097  1.00  0.00     0.010 A 
ATOM     37  C   UNL A   1      42.492  23.575  27.473  1.00  0.00    -0.014 A 
BRANCH  37  38
ATOM     38  C   UNL A   1      42.920  24.891  28.009  1.00  0.00     0.031 A 
ATOM     39  C   UNL A   1      41.864  25.914  28.308  1.00  0.00     0.074 A 
ATOM     40  C   UNL A   1      44.193  25.129  28.369  1.00  0.00     0.049 A 
ATOM     41  N   UNL A   1      41.990  27.136  28.756  1.00  0.00    -0.248 NA
ATOM     42  C   UNL A   1      40.471  25.489  28.091  1.00  0.00     0.031 C 
ATOM     43  C   UNL A   1      45.285  24.168  28.276  1.00  0.00     0.029 A 
ATOM     44  N   UNL A   1      44.777  26.248  28.911  1.00  0.00    -0.354 N 
ATOM     45  C   UNL A   1      40.698  27.632  28.858  1.00  0.00     0.074 A 
ATOM     46  C   UNL A   1      39.802  26.579  28.432  1.00  0.00     0.031 C 
ATOM     47  C   UNL A   1      46.409  24.732  28.751  1.00  0.00     0.029 A 
ATOM     48  C   UNL A   1      46.129  26.116  29.123  1.00  0.00     0.049 A 
ATOM     49  H   UNL A   1      44.276  27.066  29.128  1.00  0.00     0.167 HD
ATOM     50  C   UNL A   1      40.296  28.861  29.260  1.00  0.00     0.037 A 
ATOM     51  C   UNL A   1      47.040  27.024  29.532  1.00  0.00     0.037 A 
ATOM     52  C   UNL A   1      41.192  29.910  29.667  1.00  0.00     0.049 A 
ATOM     53  C   UNL A   1      46.585  28.428  29.838  1.00  0.00     0.074 A 
ATOM     54  C   UNL A   1      40.889  31.213  30.025  1.00  0.00     0.029 A 
ATOM     55  N   UNL A   1      42.569  29.778  29.766  1.00  0.00    -0.354 N 
ATOM     56  N   UNL A   1      45.370  28.921  29.855  1.00  0.00    -0.248 NA
ATOM     57  C   UNL A   1      47.631  29.408  30.167  1.00  0.00     0.031 C 
ATOM     58  C   UNL A   1      42.089  31.882  30.289  1.00  0.00     0.029 A 
ATOM     59  C   UNL A   1      43.133  30.981  30.160  1.00  0.00     0.049 A 
ATOM     60  H   UNL A   1      43.072  28.952  29.585  1.00  0.00     0.167 HD
ATOM     61  C   UNL A   1      45.503  30.255  30.227  1.00  0.00     0.074 A 
ATOM     62  C   UNL A   1      46.916  30.490  30.437  1.00  0.00     0.031 C 
ATOM     63  C   UNL A   1      44.541  31.200  30.378  1.00  0.00     0.037 A 
BRANCH  50  64
ATOM     64  C   UNL A   1      38.826  29.148  29.187  1.00  0.00     0.057 A 
ATOM     65  C   UNL A   1      38.200  29.553  28.001  1.00  0.00     0.134 A 
ATOM     66  C   UNL A   1      38.030  29.040  30.334  1.00  0.00     0.134 A 
ATOM     67  F   UNL A   1      38.911  29.704  26.873  1.00  0.00    -0.206 F 
ATOM     68  C   UNL A   1      36.840  29.871  27.968  1.00  0.00     0.040 A 
ATOM     69  C   UNL A   1      36.666  29.326  30.307  1.00  0.00     0.040 A 
ATOM     70  F   UNL A   1      38.570  28.661  31.503  1.00  0.00    -0.206 F 
ATOM     71  C   UNL A   1      36.069  29.752  29.122  1.00  0.00     0.006 A 
ENDBRANCH  50  64
BRANCH  51  72
ATOM     72  C   UNL A   1      48.483  26.667  29.615  1.00  0.00     0.057 A 
ATOM     73  C   UNL A   1      49.036  26.116  30.777  1.00  0.00     0.134 A 
ATOM     74  C   UNL A   1      49.359  26.934  28.555  1.00  0.00     0.134 A 
ATOM     75  F   UNL A   1      48.260  25.870  31.843  1.00  0.00    -0.206 F 
ATOM     76  C   UNL A   1      50.406  25.863  30.889  1.00  0.00     0.040 A 
ATOM     77  C   UNL A   1      50.725  26.658  28.641  1.00  0.00     0.040 A 
ATOM     78  F   UNL A   1      48.901  27.474  27.415  1.00  0.00    -0.206 F 
ATOM     79  C   UNL A   1      51.254  26.130  29.817  1.00  0.00     0.006 A 
ENDBRANCH  51  72
BRANCH  63  80
ATOM     80  C   UNL A   1      44.975  32.559  30.848  1.00  0.00     0.057 A 
ATOM     81  C   UNL A   1      45.075  32.885  32.206  1.00  0.00     0.134 A 
ATOM     82  C   UNL A   1      45.333  33.547  29.921  1.00  0.00     0.134 A 
ATOM     83  F   UNL A   1      44.738  31.990  33.148  1.00  0.00    -0.206 F 
ATOM     84  C   UNL A   1      45.488  34.151  32.625  1.00  0.00     0.040 A 
ATOM     85  C   UNL A   1      45.777  34.807  30.327  1.00  0.00     0.040 A 
ATOM     86  F   UNL A   1      45.272  33.301  28.604  1.00  0.00    -0.206 F 
ATOM     87  C   UNL A   1      45.847  35.114  31.684  1.00  0.00     0.006 A 
ENDBRANCH  63  80
ENDBRANCH  37  38
ENDBRANCH  30  32
ENDBRANCH  29  30
ENDBRANCH   1  29
TORSDOF 14
ENDMDL
