MODEL 1
REMARK VINA RESULT:     -12.0      0.000      0.000
REMARK SMILES COC(=O)c1ccc(Cl)c(-c2ccc(C(=O)OCCOC(=O)c3ccc(-c4c5nc(c(-c6c(F)cccc6F)c6ccc([nH]6)c(-c6c(F)cccc6F)c6nc(c(-c7c(F)cccc7F)c7ccc4[nH]7)C=C6)C=C5)cc3)c(F)c2)c1
REMARK SMILES IDX 18 1 17 2 15 3 16 4 14 5 11 6 12 7 79 8 13 9 77 10 78 11
REMARK SMILES IDX 10 12 5 13 6 14 80 15 7 16 8 17 9 18 3 19 4 20 2 21 1 22
REMARK SMILES IDX 19 23 20 24 21 25 22 26 23 27 24 28 76 29 25 30 75 31 26 32
REMARK SMILES IDX 27 33 28 34 69 35 29 36 74 37 68 38 70 39 30 40 73 41 67 42
REMARK SMILES IDX 66 43 31 45 57 46 40 47 56 48 41 49 44 50 55 51 71 52 42 53
REMARK SMILES IDX 43 54 54 56 72 57 45 58 32 59 33 60 38 61 34 62 35 63 37 64
REMARK SMILES IDX 39 65 36 66 58 67 59 68 64 69 60 70 61 71 63 72 65 73 62 74
REMARK SMILES IDX 46 75 47 76 52 77 48 78 49 79 51 80 53 81 50 82
REMARK H PARENT 70 44 44 55
REMARK Flexibility Score: inf
ROOT
ATOM      1  C   UNL A   1      42.277  20.831  26.565  1.00  0.00     0.275 C 
ENDROOT
BRANCH   1   2
ATOM      2  O   UNL A   1      40.953  21.400  26.524  1.00  0.00    -0.458 OA
BRANCH   2   3
ATOM      3  C   UNL A   1      39.993  20.642  25.945  1.00  0.00     0.341 C 
ATOM      4  O   UNL A   1      40.062  19.445  25.706  1.00  0.00    -0.246 OA
BRANCH   3   5
ATOM      5  C   UNL A   1      38.742  21.403  25.755  1.00  0.00     0.095 A 
ATOM      6  C   UNL A   1      36.400  22.948  25.482  1.00  0.00    -0.014 A 
ATOM      7  C   UNL A   1      37.535  23.482  26.102  1.00  0.00     0.010 A 
ATOM      8  C   UNL A   1      36.451  21.627  25.008  1.00  0.00     0.049 A 
ATOM      9  C   UNL A   1      38.677  22.704  26.270  1.00  0.00     0.019 A 
ATOM     10  C   UNL A   1      37.619  20.868  25.134  1.00  0.00     0.138 A 
ATOM     11  F   UNL A   1      37.601  19.595  24.712  1.00  0.00    -0.206 F 
BRANCH   6  12
ATOM     12  C   UNL A   1      35.160  23.731  25.473  1.00  0.00     0.001 A 
ATOM     13  C   UNL A   1      33.770  25.344  24.275  1.00  0.00     0.060 A 
ATOM     14  C   UNL A   1      32.749  25.181  25.213  1.00  0.00     0.017 A 
ATOM     15  C   UNL A   1      34.958  24.620  24.402  1.00  0.00     0.026 A 
ATOM     16  C   UNL A   1      32.928  24.298  26.281  1.00  0.00     0.022 A 
ATOM     17  C   UNL A   1      34.124  23.580  26.414  1.00  0.00     0.048 A 
ATOM     18  Cl  UNL A   1      34.268  22.504  27.760  1.00  0.00    -0.084 Cl
BRANCH  13  19
ATOM     19  C   UNL A   1      33.648  26.252  23.111  1.00  0.00     0.337 C 
ATOM     20  O   UNL A   1      33.919  25.923  21.973  1.00  0.00    -0.246 OA
BRANCH  19  21
ATOM     21  O   UNL A   1      33.299  27.490  23.540  1.00  0.00    -0.465 OA
ATOM     22  C   UNL A   1      32.966  28.382  22.476  1.00  0.00     0.282 C 
ENDBRANCH  19  21
ENDBRANCH  13  19
ENDBRANCH   6  12
ENDBRANCH   3   5
ENDBRANCH   2   3
ENDBRANCH   1   2
BRANCH   1  23
ATOM     23  C   UNL A   1      43.189  21.483  25.524  1.00  0.00     0.275 C 
BRANCH  23  24
ATOM     24  O   UNL A   1      42.615  22.714  25.040  1.00  0.00    -0.458 OA
BRANCH  24  25
ATOM     25  C   UNL A   1      43.401  23.804  25.180  1.00  0.00     0.338 C 
ATOM     26  O   UNL A   1      44.454  24.044  24.613  1.00  0.00    -0.246 OA
BRANCH  25  27
ATOM     27  C   UNL A   1      42.761  24.779  26.073  1.00  0.00     0.060 A 
ATOM     28  C   UNL A   1      43.287  26.064  26.097  1.00  0.00     0.016 A 
ATOM     29  C   UNL A   1      41.810  24.395  27.012  1.00  0.00     0.016 A 
ATOM     30  C   UNL A   1      42.971  26.934  27.135  1.00  0.00     0.010 A 
ATOM     31  C   UNL A   1      41.395  25.318  27.983  1.00  0.00     0.010 A 
ATOM     32  C   UNL A   1      42.002  26.585  28.087  1.00  0.00    -0.014 A 
BRANCH  32  33
ATOM     33  C   UNL A   1      41.646  27.534  29.185  1.00  0.00     0.031 A 
ATOM     34  C   UNL A   1      42.437  27.551  30.470  1.00  0.00     0.074 A 
ATOM     35  C   UNL A   1      40.619  28.396  29.036  1.00  0.00     0.049 A 
ATOM     36  N   UNL A   1      42.172  28.164  31.596  1.00  0.00    -0.248 NA
ATOM     37  C   UNL A   1      43.683  26.767  30.500  1.00  0.00     0.031 C 
ATOM     38  C   UNL A   1      39.789  28.529  27.836  1.00  0.00     0.029 A 
ATOM     39  N   UNL A   1      40.093  29.330  29.899  1.00  0.00    -0.354 N 
ATOM     40  C   UNL A   1      43.179  27.794  32.481  1.00  0.00     0.074 A 
ATOM     41  C   UNL A   1      44.061  26.899  31.764  1.00  0.00     0.031 C 
ATOM     42  C   UNL A   1      38.893  29.509  28.021  1.00  0.00     0.029 A 
ATOM     43  C   UNL A   1      39.007  30.001  29.388  1.00  0.00     0.049 A 
ATOM     44  H   UNL A   1      40.459  29.500  30.797  1.00  0.00     0.167 HD
ATOM     45  C   UNL A   1      43.349  28.168  33.772  1.00  0.00     0.037 A 
ATOM     46  C   UNL A   1      38.155  30.874  29.960  1.00  0.00     0.037 A 
ATOM     47  C   UNL A   1      42.506  29.111  34.463  1.00  0.00     0.049 A 
ATOM     48  C   UNL A   1      38.342  31.244  31.403  1.00  0.00     0.074 A 
ATOM     49  C   UNL A   1      42.624  29.577  35.761  1.00  0.00     0.029 A 
ATOM     50  N   UNL A   1      41.401  29.739  33.911  1.00  0.00    -0.354 N 
ATOM     51  N   UNL A   1      39.272  30.852  32.238  1.00  0.00    -0.248 NA
ATOM     52  C   UNL A   1      37.353  32.159  31.989  1.00  0.00     0.031 C 
ATOM     53  C   UNL A   1      41.561  30.447  36.011  1.00  0.00     0.029 A 
ATOM     54  C   UNL A   1      40.814  30.571  34.851  1.00  0.00     0.049 A 
ATOM     55  H   UNL A   1      41.080  29.614  32.988  1.00  0.00     0.167 HD
ATOM     56  C   UNL A   1      38.991  31.481  33.443  1.00  0.00     0.074 A 
ATOM     57  C   UNL A   1      37.813  32.296  33.225  1.00  0.00     0.031 C 
ATOM     58  C   UNL A   1      39.647  31.385  34.624  1.00  0.00     0.037 A 
BRANCH  45  59
ATOM     59  C   UNL A   1      44.478  27.551  34.551  1.00  0.00     0.057 A 
ATOM     60  C   UNL A   1      44.267  26.370  35.278  1.00  0.00     0.134 A 
ATOM     61  C   UNL A   1      45.730  28.163  34.665  1.00  0.00     0.134 A 
ATOM     62  F   UNL A   1      43.086  25.737  35.223  1.00  0.00    -0.206 F 
ATOM     63  C   UNL A   1      45.255  25.834  36.106  1.00  0.00     0.040 A 
ATOM     64  C   UNL A   1      46.736  27.621  35.469  1.00  0.00     0.040 A 
ATOM     65  F   UNL A   1      46.000  29.290  33.990  1.00  0.00    -0.206 F 
ATOM     66  C   UNL A   1      46.495  26.461  36.203  1.00  0.00     0.006 A 
ENDBRANCH  45  59
BRANCH  46  67
ATOM     67  C   UNL A   1      37.020  31.418  29.169  1.00  0.00     0.057 A 
ATOM     68  C   UNL A   1      37.044  32.724  28.662  1.00  0.00     0.134 A 
ATOM     69  C   UNL A   1      35.870  30.658  28.930  1.00  0.00     0.134 A 
ATOM     70  F   UNL A   1      38.116  33.507  28.857  1.00  0.00    -0.206 F 
ATOM     71  C   UNL A   1      35.955  33.266  27.979  1.00  0.00     0.040 A 
ATOM     72  C   UNL A   1      34.786  31.176  28.220  1.00  0.00     0.040 A 
ATOM     73  F   UNL A   1      35.795  29.392  29.368  1.00  0.00    -0.206 F 
ATOM     74  C   UNL A   1      34.822  32.489  27.753  1.00  0.00     0.006 A 
ENDBRANCH  46  67
BRANCH  58  75
ATOM     75  C   UNL A   1      39.135  32.201  35.773  1.00  0.00     0.057 A 
ATOM     76  C   UNL A   1      39.576  33.518  35.964  1.00  0.00     0.134 A 
ATOM     77  C   UNL A   1      38.272  31.661  36.734  1.00  0.00     0.134 A 
ATOM     78  F   UNL A   1      40.412  34.090  35.085  1.00  0.00    -0.206 F 
ATOM     79  C   UNL A   1      39.190  34.261  37.080  1.00  0.00     0.040 A 
ATOM     80  C   UNL A   1      37.858  32.404  37.840  1.00  0.00     0.040 A 
ATOM     81  F   UNL A   1      37.805  30.410  36.603  1.00  0.00    -0.206 F 
ATOM     82  C   UNL A   1      38.327  33.705  38.021  1.00  0.00     0.006 A 
ENDBRANCH  58  75
ENDBRANCH  32  33
ENDBRANCH  25  27
ENDBRANCH  24  25
ENDBRANCH  23  24
ENDBRANCH   1  23
TORSDOF 14
ENDMDL
MODEL 2
REMARK VINA RESULT:     -12.0      4.610      9.965
REMARK SMILES COC(=O)c1ccc(Cl)c(-c2ccc(C(=O)OCCOC(=O)c3ccc(-c4c5nc(c(-c6c(F)cccc6F)c6ccc([nH]6)c(-c6c(F)cccc6F)c6nc(c(-c7c(F)cccc7F)c7ccc4[nH]7)C=C6)C=C5)cc3)c(F)c2)c1
REMARK SMILES IDX 18 1 17 2 15 3 16 4 14 5 11 6 12 7 79 8 13 9 77 10 78 11
REMARK SMILES IDX 10 12 5 13 6 14 80 15 7 16 8 17 9 18 3 19 4 20 2 21 1 22
REMARK SMILES IDX 19 23 20 24 21 25 22 26 23 27 24 28 76 29 25 30 75 31 26 32
REMARK SMILES IDX 27 33 28 34 69 35 29 36 74 37 68 38 70 39 30 40 73 41 67 42
REMARK SMILES IDX 66 43 31 45 57 46 40 47 56 48 41 49 44 50 55 51 71 52 42 53
REMARK SMILES IDX 43 54 54 56 72 57 45 58 32 59 33 60 38 61 34 62 35 63 37 64
REMARK SMILES IDX 39 65 36 66 58 67 59 68 64 69 60 70 61 71 63 72 65 73 62 74
REMARK SMILES IDX 46 75 47 76 52 77 48 78 49 79 51 80 53 81 50 82
REMARK H PARENT 70 44 44 55
REMARK Flexibility Score: inf
ROOT
ATOM      1  C   UNL A   1      34.023  34.056  29.867  1.00  0.00     0.275 C 
ENDROOT
BRANCH   1   2
ATOM      2  O   UNL A   1      33.742  32.820  29.181  1.00  0.00    -0.458 OA
BRANCH   2   3
ATOM      3  C   UNL A   1      34.471  32.574  28.067  1.00  0.00     0.341 C 
ATOM      4  O   UNL A   1      35.389  33.257  27.639  1.00  0.00    -0.246 OA
BRANCH   3   5
ATOM      5  C   UNL A   1      34.133  31.264  27.475  1.00  0.00     0.095 A 
ATOM      6  C   UNL A   1      33.619  28.732  26.349  1.00  0.00    -0.014 A 
ATOM      7  C   UNL A   1      34.857  29.009  26.938  1.00  0.00     0.010 A 
ATOM      8  C   UNL A   1      32.644  29.743  26.324  1.00  0.00     0.049 A 
ATOM      9  C   UNL A   1      35.122  30.272  27.459  1.00  0.00     0.019 A 
ATOM     10  C   UNL A   1      32.899  30.994  26.895  1.00  0.00     0.138 A 
ATOM     11  F   UNL A   1      31.955  31.942  26.800  1.00  0.00    -0.206 F 
BRANCH   6  12
ATOM     12  C   UNL A   1      33.430  27.452  25.658  1.00  0.00     0.001 A 
ATOM     13  C   UNL A   1      32.688  25.130  25.824  1.00  0.00     0.060 A 
ATOM     14  C   UNL A   1      32.848  24.967  24.447  1.00  0.00     0.017 A 
ATOM     15  C   UNL A   1      32.970  26.362  26.419  1.00  0.00     0.026 A 
ATOM     16  C   UNL A   1      33.299  26.039  23.672  1.00  0.00     0.022 A 
ATOM     17  C   UNL A   1      33.592  27.272  24.272  1.00  0.00     0.048 A 
ATOM     18  Cl  UNL A   1      34.141  28.551  23.247  1.00  0.00    -0.084 Cl
BRANCH  13  19
ATOM     19  C   UNL A   1      32.203  24.043  26.706  1.00  0.00     0.337 C 
ATOM     20  O   UNL A   1      31.128  24.067  27.270  1.00  0.00    -0.246 OA
BRANCH  19  21
ATOM     21  O   UNL A   1      33.178  23.111  26.849  1.00  0.00    -0.465 OA
ATOM     22  C   UNL A   1      32.927  21.915  26.110  1.00  0.00     0.282 C 
ENDBRANCH  19  21
ENDBRANCH  13  19
ENDBRANCH   6  12
ENDBRANCH   3   5
ENDBRANCH   2   3
ENDBRANCH   1   2
BRANCH   1  23
ATOM     23  C   UNL A   1      34.388  33.803  31.331  1.00  0.00     0.275 C 
BRANCH  23  24
ATOM     24  O   UNL A   1      34.609  32.398  31.568  1.00  0.00    -0.458 OA
BRANCH  24  25
ATOM     25  C   UNL A   1      35.637  32.114  32.398  1.00  0.00     0.338 C 
ATOM     26  O   UNL A   1      35.713  32.331  33.595  1.00  0.00    -0.246 OA
BRANCH  25  27
ATOM     27  C   UNL A   1      36.683  31.377  31.675  1.00  0.00     0.060 A 
ATOM     28  C   UNL A   1      37.552  30.599  32.428  1.00  0.00     0.016 A 
ATOM     29  C   UNL A   1      36.937  31.603  30.327  1.00  0.00     0.016 A 
ATOM     30  C   UNL A   1      38.750  30.152  31.881  1.00  0.00     0.010 A 
ATOM     31  C   UNL A   1      38.082  31.042  29.743  1.00  0.00     0.010 A 
ATOM     32  C   UNL A   1      39.028  30.347  30.521  1.00  0.00    -0.014 A 
BRANCH  32  33
ATOM     33  C   UNL A   1      40.304  29.840  29.931  1.00  0.00     0.031 A 
ATOM     34  C   UNL A   1      41.504  30.747  29.806  1.00  0.00     0.074 A 
ATOM     35  C   UNL A   1      40.402  28.561  29.512  1.00  0.00     0.049 A 
ATOM     36  N   UNL A   1      42.627  30.549  29.161  1.00  0.00    -0.248 NA
ATOM     37  C   UNL A   1      41.430  32.052  30.482  1.00  0.00     0.031 C 
ATOM     38  C   UNL A   1      39.344  27.553  29.607  1.00  0.00     0.029 A 
ATOM     39  N   UNL A   1      41.444  27.883  28.922  1.00  0.00    -0.354 N 
ATOM     40  C   UNL A   1      43.362  31.721  29.303  1.00  0.00     0.074 A 
ATOM     41  C   UNL A   1      42.559  32.628  30.092  1.00  0.00     0.031 C 
ATOM     42  C   UNL A   1      39.800  26.384  29.137  1.00  0.00     0.029 A 
ATOM     43  C   UNL A   1      41.142  26.580  28.603  1.00  0.00     0.049 A 
ATOM     44  H   UNL A   1      42.321  28.293  28.744  1.00  0.00     0.167 HD
ATOM     45  C   UNL A   1      44.594  32.009  28.818  1.00  0.00     0.037 A 
ATOM     46  C   UNL A   1      41.833  25.654  27.912  1.00  0.00     0.037 A 
ATOM     47  C   UNL A   1      45.418  31.079  28.088  1.00  0.00     0.049 A 
ATOM     48  C   UNL A   1      43.180  26.009  27.352  1.00  0.00     0.074 A 
ATOM     49  C   UNL A   1      46.695  31.272  27.589  1.00  0.00     0.029 A 
ATOM     50  N   UNL A   1      45.054  29.781  27.765  1.00  0.00    -0.354 N 
ATOM     51  N   UNL A   1      43.844  27.134  27.457  1.00  0.00    -0.248 NA
ATOM     52  C   UNL A   1      43.866  24.977  26.562  1.00  0.00     0.031 C 
ATOM     53  C   UNL A   1      47.083  30.109  26.919  1.00  0.00     0.029 A 
ATOM     54  C   UNL A   1      46.073  29.170  27.052  1.00  0.00     0.049 A 
ATOM     55  H   UNL A   1      44.200  29.356  28.006  1.00  0.00     0.167 HD
ATOM     56  C   UNL A   1      45.029  26.943  26.760  1.00  0.00     0.074 A 
ATOM     57  C   UNL A   1      45.002  25.587  26.252  1.00  0.00     0.031 C 
ATOM     58  C   UNL A   1      46.043  27.817  26.557  1.00  0.00     0.037 A 
BRANCH  45  59
ATOM     59  C   UNL A   1      45.139  33.393  29.034  1.00  0.00     0.057 A 
ATOM     60  C   UNL A   1      45.864  33.691  30.198  1.00  0.00     0.134 A 
ATOM     61  C   UNL A   1      44.870  34.448  28.155  1.00  0.00     0.134 A 
ATOM     62  F   UNL A   1      46.147  32.729  31.088  1.00  0.00    -0.206 F 
ATOM     63  C   UNL A   1      46.281  34.990  30.488  1.00  0.00     0.040 A 
ATOM     64  C   UNL A   1      45.307  35.748  28.422  1.00  0.00     0.040 A 
ATOM     65  F   UNL A   1      44.189  34.231  27.020  1.00  0.00    -0.206 F 
ATOM     66  C   UNL A   1      46.003  36.025  29.597  1.00  0.00     0.006 A 
ENDBRANCH  45  59
BRANCH  46  67
ATOM     67  C   UNL A   1      41.232  24.315  27.675  1.00  0.00     0.057 A 
ATOM     68  C   UNL A   1      41.683  23.180  28.365  1.00  0.00     0.134 A 
ATOM     69  C   UNL A   1      40.219  24.129  26.729  1.00  0.00     0.134 A 
ATOM     70  F   UNL A   1      42.654  23.288  29.284  1.00  0.00    -0.206 F 
ATOM     71  C   UNL A   1      41.173  21.909  28.098  1.00  0.00     0.040 A 
ATOM     72  C   UNL A   1      39.677  22.868  26.475  1.00  0.00     0.040 A 
ATOM     73  F   UNL A   1      39.728  25.178  26.053  1.00  0.00    -0.206 F 
ATOM     74  C   UNL A   1      40.164  21.751  27.152  1.00  0.00     0.006 A 
ENDBRANCH  46  67
BRANCH  58  75
ATOM     75  C   UNL A   1      47.230  27.337  25.777  1.00  0.00     0.057 A 
ATOM     76  C   UNL A   1      47.292  27.523  24.389  1.00  0.00     0.134 A 
ATOM     77  C   UNL A   1      48.270  26.621  26.381  1.00  0.00     0.134 A 
ATOM     78  F   UNL A   1      46.322  28.192  23.747  1.00  0.00    -0.206 F 
ATOM     79  C   UNL A   1      48.338  26.998  23.629  1.00  0.00     0.040 A 
ATOM     80  C   UNL A   1      49.334  26.114  25.635  1.00  0.00     0.040 A 
ATOM     81  F   UNL A   1      48.275  26.418  27.707  1.00  0.00    -0.206 F 
ATOM     82  C   UNL A   1      49.364  26.294  24.252  1.00  0.00     0.006 A 
ENDBRANCH  58  75
ENDBRANCH  32  33
ENDBRANCH  25  27
ENDBRANCH  24  25
ENDBRANCH  23  24
ENDBRANCH   1  23
TORSDOF 14
ENDMDL
MODEL 3
REMARK VINA RESULT:     -11.7      4.103      7.854
REMARK SMILES COC(=O)c1ccc(Cl)c(-c2ccc(C(=O)OCCOC(=O)c3ccc(-c4c5nc(c(-c6c(F)cccc6F)c6ccc([nH]6)c(-c6c(F)cccc6F)c6nc(c(-c7c(F)cccc7F)c7ccc4[nH]7)C=C6)C=C5)cc3)c(F)c2)c1
REMARK SMILES IDX 18 1 17 2 15 3 16 4 14 5 11 6 12 7 79 8 13 9 77 10 78 11
REMARK SMILES IDX 10 12 5 13 6 14 80 15 7 16 8 17 9 18 3 19 4 20 2 21 1 22
REMARK SMILES IDX 19 23 20 24 21 25 22 26 23 27 24 28 76 29 25 30 75 31 26 32
REMARK SMILES IDX 27 33 28 34 69 35 29 36 74 37 68 38 70 39 30 40 73 41 67 42
REMARK SMILES IDX 66 43 31 45 57 46 40 47 56 48 41 49 44 50 55 51 71 52 42 53
REMARK SMILES IDX 43 54 54 56 72 57 45 58 32 59 33 60 38 61 34 62 35 63 37 64
REMARK SMILES IDX 39 65 36 66 58 67 59 68 64 69 60 70 61 71 63 72 65 73 62 74
REMARK SMILES IDX 46 75 47 76 52 77 48 78 49 79 51 80 53 81 50 82
REMARK H PARENT 70 44 44 55
REMARK Flexibility Score: inf
ROOT
ATOM      1  C   UNL A   1      35.191  20.570  25.073  1.00  0.00     0.275 C 
ENDROOT
BRANCH   1   2
ATOM      2  O   UNL A   1      34.917  21.985  25.074  1.00  0.00    -0.458 OA
BRANCH   2   3
ATOM      3  C   UNL A   1      34.365  22.488  26.203  1.00  0.00     0.341 C 
ATOM      4  O   UNL A   1      34.453  22.012  27.324  1.00  0.00    -0.246 OA
BRANCH   3   5
ATOM      5  C   UNL A   1      33.745  23.806  25.962  1.00  0.00     0.095 A 
ATOM      6  C   UNL A   1      32.682  26.370  25.466  1.00  0.00    -0.014 A 
ATOM      7  C   UNL A   1      33.961  26.031  25.012  1.00  0.00     0.010 A 
ATOM      8  C   UNL A   1      31.945  25.410  26.180  1.00  0.00     0.049 A 
ATOM      9  C   UNL A   1      34.498  24.778  25.292  1.00  0.00     0.019 A 
ATOM     10  C   UNL A   1      32.471  24.135  26.412  1.00  0.00     0.138 A 
ATOM     11  F   UNL A   1      31.750  23.271  27.142  1.00  0.00    -0.206 F 
BRANCH   6  12
ATOM     12  C   UNL A   1      32.212  27.750  25.306  1.00  0.00     0.001 A 
ATOM     13  C   UNL A   1      30.722  29.276  24.115  1.00  0.00     0.060 A 
ATOM     14  C   UNL A   1      31.076  30.316  24.977  1.00  0.00     0.017 A 
ATOM     15  C   UNL A   1      31.280  28.006  24.284  1.00  0.00     0.026 A 
ATOM     16  C   UNL A   1      31.995  30.079  26.002  1.00  0.00     0.022 A 
ATOM     17  C   UNL A   1      32.563  28.808  26.165  1.00  0.00     0.048 A 
ATOM     18  Cl  UNL A   1      33.690  28.593  27.459  1.00  0.00    -0.084 Cl
BRANCH  13  19
ATOM     19  C   UNL A   1      29.747  29.449  23.014  1.00  0.00     0.337 C 
ATOM     20  O   UNL A   1      29.729  28.752  22.018  1.00  0.00    -0.246 OA
BRANCH  19  21
ATOM     21  O   UNL A   1      28.982  30.542  23.257  1.00  0.00    -0.465 OA
ATOM     22  C   UNL A   1      27.834  30.626  22.411  1.00  0.00     0.282 C 
ENDBRANCH  19  21
ENDBRANCH  13  19
ENDBRANCH   6  12
ENDBRANCH   3   5
ENDBRANCH   2   3
ENDBRANCH   1   2
BRANCH   1  23
ATOM     23  C   UNL A   1      36.677  20.296  24.838  1.00  0.00     0.275 C 
BRANCH  23  24
ATOM     24  O   UNL A   1      37.479  21.410  25.278  1.00  0.00    -0.458 OA
BRANCH  24  25
ATOM     25  C   UNL A   1      38.671  21.077  25.820  1.00  0.00     0.338 C 
ATOM     26  O   UNL A   1      39.268  20.019  25.719  1.00  0.00    -0.246 OA
BRANCH  25  27
ATOM     27  C   UNL A   1      39.256  22.236  26.509  1.00  0.00     0.060 A 
ATOM     28  C   UNL A   1      38.740  23.488  26.205  1.00  0.00     0.016 A 
ATOM     29  C   UNL A   1      40.414  22.124  27.271  1.00  0.00     0.016 A 
ATOM     30  C   UNL A   1      39.442  24.640  26.542  1.00  0.00     0.010 A 
ATOM     31  C   UNL A   1      41.053  23.288  27.721  1.00  0.00     0.010 A 
ATOM     32  C   UNL A   1      40.602  24.563  27.325  1.00  0.00    -0.014 A 
BRANCH  32  33
ATOM     33  C   UNL A   1      41.339  25.806  27.708  1.00  0.00     0.031 A 
ATOM     34  C   UNL A   1      40.671  26.864  28.552  1.00  0.00     0.074 A 
ATOM     35  C   UNL A   1      42.616  25.992  27.312  1.00  0.00     0.049 A 
ATOM     36  N   UNL A   1      41.075  28.078  28.829  1.00  0.00    -0.248 NA
ATOM     37  C   UNL A   1      39.372  26.519  29.152  1.00  0.00     0.031 C 
ATOM     38  C   UNL A   1      43.410  25.042  26.531  1.00  0.00     0.029 A 
ATOM     39  N   UNL A   1      43.476  27.046  27.513  1.00  0.00    -0.354 N 
ATOM     40  C   UNL A   1      40.060  28.658  29.582  1.00  0.00     0.074 A 
ATOM     41  C   UNL A   1      39.016  27.666  29.716  1.00  0.00     0.031 C 
ATOM     42  C   UNL A   1      44.644  25.532  26.355  1.00  0.00     0.029 A 
ATOM     43  C   UNL A   1      44.702  26.877  26.913  1.00  0.00     0.049 A 
ATOM     44  H   UNL A   1      43.237  27.846  28.036  1.00  0.00     0.167 HD
ATOM     45  C   UNL A   1      40.006  29.905  30.110  1.00  0.00     0.037 A 
ATOM     46  C   UNL A   1      45.743  27.720  26.771  1.00  0.00     0.037 A 
ATOM     47  C   UNL A   1      41.075  30.867  30.030  1.00  0.00     0.049 A 
ATOM     48  C   UNL A   1      45.645  29.109  27.332  1.00  0.00     0.074 A 
ATOM     49  C   UNL A   1      41.124  32.142  30.567  1.00  0.00     0.029 A 
ATOM     50  N   UNL A   1      42.285  30.659  29.385  1.00  0.00    -0.354 N 
ATOM     51  N   UNL A   1      44.662  29.658  28.003  1.00  0.00    -0.248 NA
ATOM     52  C   UNL A   1      46.789  30.003  27.102  1.00  0.00     0.031 C 
ATOM     53  C   UNL A   1      42.341  32.724  30.203  1.00  0.00     0.029 A 
ATOM     54  C   UNL A   1      43.076  31.791  29.491  1.00  0.00     0.049 A 
ATOM     55  H   UNL A   1      42.543  29.830  28.921  1.00  0.00     0.167 HD
ATOM     56  C   UNL A   1      45.072  30.953  28.286  1.00  0.00     0.074 A 
ATOM     57  C   UNL A   1      46.401  31.103  27.731  1.00  0.00     0.031 C 
ATOM     58  C   UNL A   1      44.401  31.930  28.943  1.00  0.00     0.037 A 
BRANCH  45  59
ATOM     59  C   UNL A   1      38.746  30.328  30.813  1.00  0.00     0.057 A 
ATOM     60  C   UNL A   1      37.746  31.016  30.110  1.00  0.00     0.134 A 
ATOM     61  C   UNL A   1      38.561  30.150  32.188  1.00  0.00     0.134 A 
ATOM     62  F   UNL A   1      37.866  31.232  28.791  1.00  0.00    -0.206 F 
ATOM     63  C   UNL A   1      36.619  31.528  30.754  1.00  0.00     0.040 A 
ATOM     64  C   UNL A   1      37.423  30.633  32.838  1.00  0.00     0.040 A 
ATOM     65  F   UNL A   1      39.474  29.494  32.918  1.00  0.00    -0.206 F 
ATOM     66  C   UNL A   1      36.455  31.336  32.124  1.00  0.00     0.006 A 
ENDBRANCH  45  59
BRANCH  46  67
ATOM     67  C   UNL A   1      46.948  27.278  26.021  1.00  0.00     0.057 A 
ATOM     68  C   UNL A   1      48.024  26.657  26.670  1.00  0.00     0.134 A 
ATOM     69  C   UNL A   1      47.070  27.499  24.645  1.00  0.00     0.134 A 
ATOM     70  F   UNL A   1      47.974  26.419  27.989  1.00  0.00    -0.206 F 
ATOM     71  C   UNL A   1      49.188  26.303  25.986  1.00  0.00     0.040 A 
ATOM     72  C   UNL A   1      48.215  27.120  23.942  1.00  0.00     0.040 A 
ATOM     73  F   UNL A   1      46.065  28.066  23.961  1.00  0.00    -0.206 F 
ATOM     74  C   UNL A   1      49.284  26.532  24.616  1.00  0.00     0.006 A 
ENDBRANCH  46  67
BRANCH  58  75
ATOM     75  C   UNL A   1      45.096  33.245  29.131  1.00  0.00     0.057 A 
ATOM     76  C   UNL A   1      45.900  33.471  30.257  1.00  0.00     0.134 A 
ATOM     77  C   UNL A   1      44.908  34.313  28.245  1.00  0.00     0.134 A 
ATOM     78  F   UNL A   1      46.112  32.493  31.150  1.00  0.00    -0.206 F 
ATOM     79  C   UNL A   1      46.476  34.718  30.503  1.00  0.00     0.040 A 
ATOM     80  C   UNL A   1      45.500  35.556  28.467  1.00  0.00     0.040 A 
ATOM     81  F   UNL A   1      44.159  34.158  27.143  1.00  0.00    -0.206 F 
ATOM     82  C   UNL A   1      46.278  35.764  29.605  1.00  0.00     0.006 A 
ENDBRANCH  58  75
ENDBRANCH  32  33
ENDBRANCH  25  27
ENDBRANCH  24  25
ENDBRANCH  23  24
ENDBRANCH   1  23
TORSDOF 14
ENDMDL
