MODEL 1
REMARK VINA RESULT:     -11.7      0.000      0.000
REMARK SMILES CC(=O)n1cc2c3c(cccc31)C(=O)C[C@@H]2C(=O)OCCOC(=O)c1ccc(-c2c3nc(c(-c4c(F)cccc4F)c4ccc([nH]4)c(-c4c(F)cccc4F)c4nc(c(-c5c(F)cccc5F)c5ccc2[nH]5)C=C4)C=C3)cc1
REMARK SMILES IDX 21 1 20 2 19 3 17 4 18 5 16 6 4 7 5 8 12 9 6 10 7 11 11 12
REMARK SMILES IDX 8 13 10 14 15 15 9 16 13 17 14 18 2 19 1 20 3 21 22 22 23 23
REMARK SMILES IDX 24 24 25 25 26 26 78 27 27 28 77 29 28 30 29 31 30 32 71 33
REMARK SMILES IDX 31 34 76 35 70 36 72 37 32 38 75 39 69 40 68 41 33 43 59 44
REMARK SMILES IDX 42 45 58 46 43 47 46 48 57 49 73 50 44 51 45 52 56 54 74 55
REMARK SMILES IDX 47 56 34 57 35 58 40 59 36 60 37 61 39 62 41 63 38 64 60 65
REMARK SMILES IDX 61 66 66 67 62 68 63 69 65 70 67 71 64 72 48 73 49 74 54 75
REMARK SMILES IDX 50 76 51 77 53 78 55 79 52 80
REMARK H PARENT 72 42 46 53
REMARK Flexibility Score: inf
ROOT
ATOM      1  C   UNL A   1      34.651  31.224  28.006  1.00  0.00     0.275 C 
ENDROOT
BRANCH   1   2
ATOM      2  C   UNL A   1      34.106  30.021  27.236  1.00  0.00     0.274 C 
BRANCH   2   3
ATOM      3  O   UNL A   1      32.755  29.674  27.603  1.00  0.00    -0.462 OA
BRANCH   3   4
ATOM      4  C   UNL A   1      32.300  28.468  27.160  1.00  0.00     0.314 C 
ATOM      5  O   UNL A   1      31.400  27.828  27.696  1.00  0.00    -0.252 OA
BRANCH   4   6
ATOM      6  C   UNL A   1      33.089  27.929  25.973  1.00  0.00     0.139 C 
ATOM      7  N   UNL A   1      30.776  28.490  23.101  1.00  0.00    -0.287 N 
ATOM      8  C   UNL A   1      31.324  28.929  24.305  1.00  0.00     0.100 A 
ATOM      9  C   UNL A   1      31.446  27.313  22.738  1.00  0.00     0.057 A 
ATOM     10  C   UNL A   1      32.242  28.010  24.748  1.00  0.00    -0.006 A 
ATOM     11  C   UNL A   1      32.339  27.028  23.759  1.00  0.00     0.015 A 
ATOM     12  C   UNL A   1      31.380  26.463  21.620  1.00  0.00     0.027 A 
ATOM     13  C   UNL A   1      33.177  25.915  23.717  1.00  0.00     0.027 A 
ATOM     14  C   UNL A   1      32.254  25.359  21.571  1.00  0.00     0.003 A 
ATOM     15  C   UNL A   1      33.653  26.499  26.178  1.00  0.00     0.101 C 
ATOM     16  C   UNL A   1      33.154  25.082  22.604  1.00  0.00     0.012 A 
ATOM     17  C   UNL A   1      34.040  25.733  24.905  1.00  0.00     0.164 C 
ATOM     18  O   UNL A   1      34.971  24.934  24.871  1.00  0.00    -0.294 OA
BRANCH   7  19
ATOM     19  C   UNL A   1      29.739  29.118  22.380  1.00  0.00     0.227 C 
ATOM     20  C   UNL A   1      28.359  28.905  22.931  1.00  0.00     0.115 C 
ATOM     21  O   UNL A   1      29.991  29.795  21.393  1.00  0.00    -0.274 OA
ENDBRANCH   7  19
ENDBRANCH   4   6
ENDBRANCH   3   4
ENDBRANCH   2   3
ENDBRANCH   1   2
BRANCH   1  22
ATOM     22  O   UNL A   1      36.076  31.203  28.094  1.00  0.00    -0.458 OA
BRANCH  22  23
ATOM     23  C   UNL A   1      36.525  30.489  29.149  1.00  0.00     0.338 C 
ATOM     24  O   UNL A   1      36.271  30.675  30.326  1.00  0.00    -0.246 OA
BRANCH  23  25
ATOM     25  C   UNL A   1      37.482  29.472  28.731  1.00  0.00     0.060 A 
ATOM     26  C   UNL A   1      37.928  28.578  29.711  1.00  0.00     0.016 A 
ATOM     27  C   UNL A   1      38.167  29.673  27.530  1.00  0.00     0.016 A 
ATOM     28  C   UNL A   1      39.179  28.027  29.578  1.00  0.00     0.010 A 
ATOM     29  C   UNL A   1      39.426  29.138  27.408  1.00  0.00     0.010 A 
ATOM     30  C   UNL A   1      39.943  28.391  28.469  1.00  0.00    -0.014 A 
BRANCH  30  31
ATOM     31  C   UNL A   1      41.330  27.983  28.450  1.00  0.00     0.031 A 
ATOM     32  C   UNL A   1      41.586  26.679  27.803  1.00  0.00     0.074 A 
ATOM     33  C   UNL A   1      42.304  28.812  28.864  1.00  0.00     0.049 A 
ATOM     34  N   UNL A   1      42.139  25.629  28.309  1.00  0.00    -0.248 NA
ATOM     35  C   UNL A   1      41.068  26.495  26.439  1.00  0.00     0.031 C 
ATOM     36  C   UNL A   1      42.189  30.228  29.225  1.00  0.00     0.029 A 
ATOM     37  N   UNL A   1      43.642  28.581  28.927  1.00  0.00    -0.354 N 
ATOM     38  C   UNL A   1      42.204  24.706  27.270  1.00  0.00     0.074 A 
ATOM     39  C   UNL A   1      41.400  25.230  26.198  1.00  0.00     0.031 C 
ATOM     40  C   UNL A   1      43.424  30.776  29.251  1.00  0.00     0.029 A 
ATOM     41  C   UNL A   1      44.409  29.730  29.019  1.00  0.00     0.049 A 
ATOM     42  H   UNL A   1      44.030  27.677  28.908  1.00  0.00     0.167 HD
ATOM     43  C   UNL A   1      43.107  23.691  27.274  1.00  0.00     0.037 A 
ATOM     44  C   UNL A   1      45.746  29.816  28.826  1.00  0.00     0.037 A 
ATOM     45  C   UNL A   1      43.604  23.420  28.596  1.00  0.00     0.049 A 
ATOM     46  C   UNL A   1      46.310  28.446  28.923  1.00  0.00     0.074 A 
ATOM     47  C   UNL A   1      43.028  23.049  29.795  1.00  0.00     0.029 A 
ATOM     48  N   UNL A   1      44.873  23.839  28.910  1.00  0.00    -0.354 N 
ATOM     49  N   UNL A   1      46.403  27.765  30.030  1.00  0.00    -0.248 NA
ATOM     50  C   UNL A   1      46.401  27.659  27.700  1.00  0.00     0.031 C 
ATOM     51  C   UNL A   1      43.799  23.702  30.800  1.00  0.00     0.029 A 
ATOM     52  C   UNL A   1      44.811  24.413  30.152  1.00  0.00     0.049 A 
ATOM     53  H   UNL A   1      45.676  23.745  28.348  1.00  0.00     0.167 HD
ATOM     54  C   UNL A   1      46.141  26.452  29.663  1.00  0.00     0.074 A 
ATOM     55  C   UNL A   1      46.259  26.432  28.208  1.00  0.00     0.031 C 
ATOM     56  C   UNL A   1      45.577  25.573  30.541  1.00  0.00     0.037 A 
BRANCH  43  57
ATOM     57  C   UNL A   1      43.801  23.202  26.030  1.00  0.00     0.057 A 
ATOM     58  C   UNL A   1      44.696  23.981  25.267  1.00  0.00     0.134 A 
ATOM     59  C   UNL A   1      43.814  21.826  25.749  1.00  0.00     0.134 A 
ATOM     60  F   UNL A   1      44.870  25.292  25.477  1.00  0.00    -0.206 F 
ATOM     61  C   UNL A   1      45.548  23.432  24.306  1.00  0.00     0.040 A 
ATOM     62  C   UNL A   1      44.704  21.259  24.830  1.00  0.00     0.040 A 
ATOM     63  F   UNL A   1      43.021  20.978  26.421  1.00  0.00    -0.206 F 
ATOM     64  C   UNL A   1      45.580  22.062  24.110  1.00  0.00     0.006 A 
ENDBRANCH  43  57
BRANCH  44  65
ATOM     65  C   UNL A   1      46.525  30.960  28.305  1.00  0.00     0.057 A 
ATOM     66  C   UNL A   1      47.194  31.852  29.164  1.00  0.00     0.134 A 
ATOM     67  C   UNL A   1      46.435  31.349  26.963  1.00  0.00     0.134 A 
ATOM     68  F   UNL A   1      47.262  31.627  30.484  1.00  0.00    -0.206 F 
ATOM     69  C   UNL A   1      47.745  33.055  28.714  1.00  0.00     0.040 A 
ATOM     70  C   UNL A   1      46.971  32.558  26.501  1.00  0.00     0.040 A 
ATOM     71  F   UNL A   1      45.775  30.589  26.077  1.00  0.00    -0.206 F 
ATOM     72  C   UNL A   1      47.624  33.418  27.379  1.00  0.00     0.006 A 
ENDBRANCH  44  65
BRANCH  56  73
ATOM     73  C   UNL A   1      45.501  25.985  31.982  1.00  0.00     0.057 A 
ATOM     74  C   UNL A   1      46.514  25.586  32.860  1.00  0.00     0.134 A 
ATOM     75  C   UNL A   1      44.396  26.644  32.544  1.00  0.00     0.134 A 
ATOM     76  F   UNL A   1      47.571  24.894  32.404  1.00  0.00    -0.206 F 
ATOM     77  C   UNL A   1      46.447  25.849  34.230  1.00  0.00     0.040 A 
ATOM     78  C   UNL A   1      44.331  26.943  33.907  1.00  0.00     0.040 A 
ATOM     79  F   UNL A   1      43.331  26.965  31.799  1.00  0.00    -0.206 F 
ATOM     80  C   UNL A   1      45.358  26.542  34.755  1.00  0.00     0.006 A 
ENDBRANCH  56  73
ENDBRANCH  30  31
ENDBRANCH  23  25
ENDBRANCH  22  23
ENDBRANCH   1  22
TORSDOF 12
ENDMDL
MODEL 2
REMARK VINA RESULT:     -11.7      2.560      6.716
REMARK SMILES CC(=O)n1cc2c3c(cccc31)C(=O)C[C@@H]2C(=O)OCCOC(=O)c1ccc(-c2c3nc(c(-c4c(F)cccc4F)c4ccc([nH]4)c(-c4c(F)cccc4F)c4nc(c(-c5c(F)cccc5F)c5ccc2[nH]5)C=C4)C=C3)cc1
REMARK SMILES IDX 21 1 20 2 19 3 17 4 18 5 16 6 4 7 5 8 12 9 6 10 7 11 11 12
REMARK SMILES IDX 8 13 10 14 15 15 9 16 13 17 14 18 2 19 1 20 3 21 22 22 23 23
REMARK SMILES IDX 24 24 25 25 26 26 78 27 27 28 77 29 28 30 29 31 30 32 71 33
REMARK SMILES IDX 31 34 76 35 70 36 72 37 32 38 75 39 69 40 68 41 33 43 59 44
REMARK SMILES IDX 42 45 58 46 43 47 46 48 57 49 73 50 44 51 45 52 56 54 74 55
REMARK SMILES IDX 47 56 34 57 35 58 40 59 36 60 37 61 39 62 41 63 38 64 60 65
REMARK SMILES IDX 61 66 66 67 62 68 63 69 65 70 67 71 64 72 48 73 49 74 54 75
REMARK SMILES IDX 50 76 51 77 53 78 55 79 52 80
REMARK H PARENT 72 42 46 53
REMARK Flexibility Score: inf
ROOT
ATOM      1  C   UNL A   1      33.533  30.268  27.083  1.00  0.00     0.275 C 
ENDROOT
BRANCH   1   2
ATOM      2  C   UNL A   1      33.177  28.783  27.143  1.00  0.00     0.274 C 
BRANCH   2   3
ATOM      3  O   UNL A   1      34.117  27.943  26.441  1.00  0.00    -0.462 OA
BRANCH   3   4
ATOM      4  C   UNL A   1      33.586  27.046  25.563  1.00  0.00     0.314 C 
ATOM      5  O   UNL A   1      33.379  27.278  24.375  1.00  0.00    -0.252 OA
BRANCH   4   6
ATOM      6  C   UNL A   1      33.175  25.735  26.222  1.00  0.00     0.139 C 
ATOM      7  N   UNL A   1      35.267  23.208  24.444  1.00  0.00    -0.287 N 
ATOM      8  C   UNL A   1      35.137  24.475  25.012  1.00  0.00     0.100 A 
ATOM      9  C   UNL A   1      34.088  22.501  24.720  1.00  0.00     0.057 A 
ATOM     10  C   UNL A   1      33.879  24.608  25.543  1.00  0.00    -0.006 A 
ATOM     11  C   UNL A   1      33.244  23.372  25.390  1.00  0.00     0.015 A 
ATOM     12  C   UNL A   1      33.664  21.185  24.466  1.00  0.00     0.027 A 
ATOM     13  C   UNL A   1      31.976  22.985  25.821  1.00  0.00     0.027 A 
ATOM     14  C   UNL A   1      32.393  20.793  24.934  1.00  0.00     0.003 A 
ATOM     15  C   UNL A   1      31.644  25.498  26.272  1.00  0.00     0.101 C 
ATOM     16  C   UNL A   1      31.551  21.679  25.613  1.00  0.00     0.012 A 
ATOM     17  C   UNL A   1      31.187  24.047  26.484  1.00  0.00     0.164 C 
ATOM     18  O   UNL A   1      30.168  23.759  27.103  1.00  0.00    -0.294 OA
BRANCH   7  19
ATOM     19  C   UNL A   1      36.382  22.729  23.728  1.00  0.00     0.227 C 
ATOM     20  C   UNL A   1      37.335  21.883  24.522  1.00  0.00     0.115 C 
ATOM     21  O   UNL A   1      36.517  22.991  22.541  1.00  0.00    -0.274 OA
ENDBRANCH   7  19
ENDBRANCH   4   6
ENDBRANCH   3   4
ENDBRANCH   2   3
ENDBRANCH   1   2
BRANCH   1  22
ATOM     22  O   UNL A   1      34.935  30.490  27.238  1.00  0.00    -0.458 OA
BRANCH  22  23
ATOM     23  C   UNL A   1      35.218  31.419  28.177  1.00  0.00     0.338 C 
ATOM     24  O   UNL A   1      34.740  32.536  28.274  1.00  0.00    -0.246 OA
BRANCH  23  25
ATOM     25  C   UNL A   1      36.288  30.972  29.060  1.00  0.00     0.060 A 
ATOM     26  C   UNL A   1      37.420  31.790  29.152  1.00  0.00     0.016 A 
ATOM     27  C   UNL A   1      36.297  29.630  29.447  1.00  0.00     0.016 A 
ATOM     28  C   UNL A   1      38.629  31.208  29.445  1.00  0.00     0.010 A 
ATOM     29  C   UNL A   1      37.510  29.046  29.720  1.00  0.00     0.010 A 
ATOM     30  C   UNL A   1      38.666  29.827  29.635  1.00  0.00    -0.014 A 
BRANCH  30  31
ATOM     31  C   UNL A   1      39.964  29.199  29.724  1.00  0.00     0.031 A 
ATOM     32  C   UNL A   1      40.511  29.093  31.093  1.00  0.00     0.074 A 
ATOM     33  C   UNL A   1      40.538  28.633  28.648  1.00  0.00     0.049 A 
ATOM     34  N   UNL A   1      41.622  29.566  31.551  1.00  0.00    -0.248 NA
ATOM     35  C   UNL A   1      39.658  28.456  32.107  1.00  0.00     0.031 C 
ATOM     36  C   UNL A   1      39.947  28.408  27.325  1.00  0.00     0.029 A 
ATOM     37  N   UNL A   1      41.749  28.023  28.557  1.00  0.00    -0.354 N 
ATOM     38  C   UNL A   1      41.695  29.131  32.870  1.00  0.00     0.074 A 
ATOM     39  C   UNL A   1      40.403  28.590  33.202  1.00  0.00     0.031 C 
ATOM     40  C   UNL A   1      40.712  27.522  26.648  1.00  0.00     0.029 A 
ATOM     41  C   UNL A   1      41.890  27.213  27.444  1.00  0.00     0.049 A 
ATOM     42  H   UNL A   1      42.462  28.147  29.224  1.00  0.00     0.167 HD
ATOM     43  C   UNL A   1      42.882  29.027  33.521  1.00  0.00     0.037 A 
ATOM     44  C   UNL A   1      42.862  26.292  27.243  1.00  0.00     0.037 A 
ATOM     45  C   UNL A   1      43.907  29.823  32.900  1.00  0.00     0.049 A 
ATOM     46  C   UNL A   1      43.970  26.584  28.188  1.00  0.00     0.074 A 
ATOM     47  C   UNL A   1      44.059  31.167  32.621  1.00  0.00     0.029 A 
ATOM     48  N   UNL A   1      44.865  29.180  32.157  1.00  0.00    -0.354 N 
ATOM     49  N   UNL A   1      44.769  27.609  28.091  1.00  0.00    -0.248 NA
ATOM     50  C   UNL A   1      43.933  25.947  29.497  1.00  0.00     0.031 C 
ATOM     51  C   UNL A   1      44.771  31.216  31.388  1.00  0.00     0.029 A 
ATOM     52  C   UNL A   1      45.027  29.899  31.002  1.00  0.00     0.049 A 
ATOM     53  H   UNL A   1      45.346  28.357  32.406  1.00  0.00     0.167 HD
ATOM     54  C   UNL A   1      45.006  28.000  29.402  1.00  0.00     0.074 A 
ATOM     55  C   UNL A   1      44.560  26.878  30.221  1.00  0.00     0.031 C 
ATOM     56  C   UNL A   1      45.275  29.302  29.711  1.00  0.00     0.037 A 
BRANCH  43  57
ATOM     57  C   UNL A   1      43.193  27.920  34.495  1.00  0.00     0.057 A 
ATOM     58  C   UNL A   1      43.074  28.044  35.895  1.00  0.00     0.134 A 
ATOM     59  C   UNL A   1      43.327  26.606  34.018  1.00  0.00     0.134 A 
ATOM     60  F   UNL A   1      42.848  29.218  36.498  1.00  0.00    -0.206 F 
ATOM     61  C   UNL A   1      43.075  26.944  36.755  1.00  0.00     0.040 A 
ATOM     62  C   UNL A   1      43.271  25.494  34.867  1.00  0.00     0.040 A 
ATOM     63  F   UNL A   1      43.430  26.357  32.704  1.00  0.00    -0.206 F 
ATOM     64  C   UNL A   1      43.138  25.661  36.239  1.00  0.00     0.006 A 
ENDBRANCH  43  57
BRANCH  44  65
ATOM     65  C   UNL A   1      42.784  25.028  26.479  1.00  0.00     0.057 A 
ATOM     66  C   UNL A   1      42.085  23.910  26.970  1.00  0.00     0.134 A 
ATOM     67  C   UNL A   1      43.594  24.805  25.360  1.00  0.00     0.134 A 
ATOM     68  F   UNL A   1      41.351  23.985  28.089  1.00  0.00    -0.206 F 
ATOM     69  C   UNL A   1      42.182  22.647  26.379  1.00  0.00     0.040 A 
ATOM     70  C   UNL A   1      43.711  23.541  24.766  1.00  0.00     0.040 A 
ATOM     71  F   UNL A   1      44.337  25.797  24.847  1.00  0.00    -0.206 F 
ATOM     72  C   UNL A   1      43.007  22.456  25.279  1.00  0.00     0.006 A 
ENDBRANCH  44  65
BRANCH  56  73
ATOM     73  C   UNL A   1      45.574  30.237  28.576  1.00  0.00     0.057 A 
ATOM     74  C   UNL A   1      46.904  30.564  28.294  1.00  0.00     0.134 A 
ATOM     75  C   UNL A   1      44.584  30.919  27.852  1.00  0.00     0.134 A 
ATOM     76  F   UNL A   1      47.903  30.000  28.992  1.00  0.00    -0.206 F 
ATOM     77  C   UNL A   1      47.239  31.507  27.320  1.00  0.00     0.040 A 
ATOM     78  C   UNL A   1      44.906  31.840  26.851  1.00  0.00     0.040 A 
ATOM     79  F   UNL A   1      43.285  30.752  28.129  1.00  0.00    -0.206 F 
ATOM     80  C   UNL A   1      46.238  32.139  26.586  1.00  0.00     0.006 A 
ENDBRANCH  56  73
ENDBRANCH  30  31
ENDBRANCH  23  25
ENDBRANCH  22  23
ENDBRANCH   1  22
TORSDOF 12
ENDMDL
MODEL 3
REMARK VINA RESULT:     -11.5      1.909      6.097
REMARK SMILES CC(=O)n1cc2c3c(cccc31)C(=O)C[C@@H]2C(=O)OCCOC(=O)c1ccc(-c2c3nc(c(-c4c(F)cccc4F)c4ccc([nH]4)c(-c4c(F)cccc4F)c4nc(c(-c5c(F)cccc5F)c5ccc2[nH]5)C=C4)C=C3)cc1
REMARK SMILES IDX 21 1 20 2 19 3 17 4 18 5 16 6 4 7 5 8 12 9 6 10 7 11 11 12
REMARK SMILES IDX 8 13 10 14 15 15 9 16 13 17 14 18 2 19 1 20 3 21 22 22 23 23
REMARK SMILES IDX 24 24 25 25 26 26 78 27 27 28 77 29 28 30 29 31 30 32 71 33
REMARK SMILES IDX 31 34 76 35 70 36 72 37 32 38 75 39 69 40 68 41 33 43 59 44
REMARK SMILES IDX 42 45 58 46 43 47 46 48 57 49 73 50 44 51 45 52 56 54 74 55
REMARK SMILES IDX 47 56 34 57 35 58 40 59 36 60 37 61 39 62 41 63 38 64 60 65
REMARK SMILES IDX 61 66 66 67 62 68 63 69 65 70 67 71 64 72 48 73 49 74 54 75
REMARK SMILES IDX 50 76 51 77 53 78 55 79 52 80
REMARK H PARENT 72 42 46 53
REMARK Flexibility Score: inf
ROOT
ATOM      1  C   UNL A   1      34.062  31.654  27.891  1.00  0.00     0.275 C 
ENDROOT
BRANCH   1   2
ATOM      2  C   UNL A   1      33.758  30.275  27.304  1.00  0.00     0.274 C 
BRANCH   2   3
ATOM      3  O   UNL A   1      32.404  29.840  27.545  1.00  0.00    -0.462 OA
BRANCH   3   4
ATOM      4  C   UNL A   1      32.111  28.557  27.191  1.00  0.00     0.314 C 
ATOM      5  O   UNL A   1      31.323  27.835  27.796  1.00  0.00    -0.252 OA
BRANCH   4   6
ATOM      6  C   UNL A   1      32.936  28.057  26.012  1.00  0.00     0.139 C 
ATOM      7  N   UNL A   1      30.678  28.637  23.099  1.00  0.00    -0.287 N 
ATOM      8  C   UNL A   1      31.191  29.061  24.325  1.00  0.00     0.100 A 
ATOM      9  C   UNL A   1      31.377  27.480  22.728  1.00  0.00     0.057 A 
ATOM     10  C   UNL A   1      32.115  28.149  24.769  1.00  0.00    -0.006 A 
ATOM     11  C   UNL A   1      32.252  27.189  23.762  1.00  0.00     0.015 A 
ATOM     12  C   UNL A   1      31.352  26.653  21.591  1.00  0.00     0.027 A 
ATOM     13  C   UNL A   1      33.111  26.092  23.717  1.00  0.00     0.027 A 
ATOM     14  C   UNL A   1      32.247  25.565  21.539  1.00  0.00     0.003 A 
ATOM     15  C   UNL A   1      33.521  26.634  26.200  1.00  0.00     0.101 C 
ATOM     16  C   UNL A   1      33.128  25.283  22.587  1.00  0.00     0.012 A 
ATOM     17  C   UNL A   1      33.950  25.901  24.920  1.00  0.00     0.164 C 
ATOM     18  O   UNL A   1      34.896  25.120  24.892  1.00  0.00    -0.294 OA
BRANCH   7  19
ATOM     19  C   UNL A   1      29.647  29.262  22.368  1.00  0.00     0.227 C 
ATOM     20  C   UNL A   1      28.293  29.222  23.015  1.00  0.00     0.115 C 
ATOM     21  O   UNL A   1      29.885  29.802  21.296  1.00  0.00    -0.274 OA
ENDBRANCH   7  19
ENDBRANCH   4   6
ENDBRANCH   3   4
ENDBRANCH   2   3
ENDBRANCH   1   2
BRANCH   1  22
ATOM     22  O   UNL A   1      35.464  31.919  27.938  1.00  0.00    -0.458 OA
BRANCH  22  23
ATOM     23  C   UNL A   1      36.073  31.342  28.997  1.00  0.00     0.338 C 
ATOM     24  O   UNL A   1      35.704  31.364  30.158  1.00  0.00    -0.246 OA
BRANCH  23  25
ATOM     25  C   UNL A   1      37.343  30.738  28.614  1.00  0.00     0.060 A 
ATOM     26  C   UNL A   1      37.297  29.439  28.095  1.00  0.00     0.016 A 
ATOM     27  C   UNL A   1      38.514  31.305  29.120  1.00  0.00     0.016 A 
ATOM     28  C   UNL A   1      38.390  28.624  28.268  1.00  0.00     0.010 A 
ATOM     29  C   UNL A   1      39.599  30.483  29.311  1.00  0.00     0.010 A 
ATOM     30  C   UNL A   1      39.490  29.136  28.956  1.00  0.00    -0.014 A 
BRANCH  30  31
ATOM     31  C   UNL A   1      40.538  28.211  29.323  1.00  0.00     0.031 A 
ATOM     32  C   UNL A   1      40.860  28.176  30.764  1.00  0.00     0.074 A 
ATOM     33  C   UNL A   1      41.058  27.358  28.424  1.00  0.00     0.049 A 
ATOM     34  N   UNL A   1      41.994  28.407  31.338  1.00  0.00    -0.248 NA
ATOM     35  C   UNL A   1      39.745  27.947  31.695  1.00  0.00     0.031 C 
ATOM     36  C   UNL A   1      40.595  27.096  27.057  1.00  0.00     0.029 A 
ATOM     37  N   UNL A   1      42.051  26.446  28.598  1.00  0.00    -0.354 N 
ATOM     38  C   UNL A   1      41.779  28.174  32.692  1.00  0.00     0.074 A 
ATOM     39  C   UNL A   1      40.357  28.047  32.872  1.00  0.00     0.031 C 
ATOM     40  C   UNL A   1      41.158  25.948  26.616  1.00  0.00     0.029 A 
ATOM     41  C   UNL A   1      42.095  25.467  27.620  1.00  0.00     0.049 A 
ATOM     42  H   UNL A   1      42.682  26.479  29.352  1.00  0.00     0.167 HD
ATOM     43  C   UNL A   1      42.800  27.864  33.533  1.00  0.00     0.037 A 
ATOM     44  C   UNL A   1      42.786  24.304  27.683  1.00  0.00     0.037 A 
ATOM     45  C   UNL A   1      44.075  28.260  32.998  1.00  0.00     0.049 A 
ATOM     46  C   UNL A   1      43.806  24.437  28.754  1.00  0.00     0.074 A 
ATOM     47  C   UNL A   1      44.632  29.459  32.597  1.00  0.00     0.029 A 
ATOM     48  N   UNL A   1      44.898  27.283  32.496  1.00  0.00    -0.354 N 
ATOM     49  N   UNL A   1      44.866  25.190  28.671  1.00  0.00    -0.248 NA
ATOM     50  C   UNL A   1      43.431  24.040  30.104  1.00  0.00     0.031 C 
ATOM     51  C   UNL A   1      45.475  29.131  31.496  1.00  0.00     0.029 A 
ATOM     52  C   UNL A   1      45.397  27.750  31.308  1.00  0.00     0.049 A 
ATOM     53  H   UNL A   1      45.094  26.412  32.910  1.00  0.00     0.167 HD
ATOM     54  C   UNL A   1      45.041  25.702  29.950  1.00  0.00     0.074 A 
ATOM     55  C   UNL A   1      44.200  24.874  30.809  1.00  0.00     0.031 C 
ATOM     56  C   UNL A   1      45.624  26.919  30.150  1.00  0.00     0.037 A 
BRANCH  43  57
ATOM     57  C   UNL A   1      42.665  26.877  34.663  1.00  0.00     0.057 A 
ATOM     58  C   UNL A   1      42.074  27.177  35.908  1.00  0.00     0.134 A 
ATOM     59  C   UNL A   1      42.856  25.510  34.405  1.00  0.00     0.134 A 
ATOM     60  F   UNL A   1      41.741  28.424  36.266  1.00  0.00    -0.206 F 
ATOM     61  C   UNL A   1      41.690  26.194  36.821  1.00  0.00     0.040 A 
ATOM     62  C   UNL A   1      42.423  24.515  35.288  1.00  0.00     0.040 A 
ATOM     63  F   UNL A   1      43.393  25.096  33.247  1.00  0.00    -0.206 F 
ATOM     64  C   UNL A   1      41.831  24.855  36.498  1.00  0.00     0.006 A 
ENDBRANCH  43  57
BRANCH  44  65
ATOM     65  C   UNL A   1      42.450  23.004  27.065  1.00  0.00     0.057 A 
ATOM     66  C   UNL A   1      41.335  22.254  27.479  1.00  0.00     0.134 A 
ATOM     67  C   UNL A   1      43.352  22.348  26.218  1.00  0.00     0.134 A 
ATOM     68  F   UNL A   1      40.454  22.747  28.361  1.00  0.00    -0.206 F 
ATOM     69  C   UNL A   1      41.124  20.933  27.071  1.00  0.00     0.040 A 
ATOM     70  C   UNL A   1      43.161  21.020  25.812  1.00  0.00     0.040 A 
ATOM     71  F   UNL A   1      44.471  22.963  25.807  1.00  0.00    -0.206 F 
ATOM     72  C   UNL A   1      42.047  20.307  26.244  1.00  0.00     0.006 A 
ENDBRANCH  44  65
BRANCH  56  73
ATOM     73  C   UNL A   1      46.311  27.559  28.978  1.00  0.00     0.057 A 
ATOM     74  C   UNL A   1      47.705  27.493  28.886  1.00  0.00     0.134 A 
ATOM     75  C   UNL A   1      45.646  28.345  28.024  1.00  0.00     0.134 A 
ATOM     76  F   UNL A   1      48.412  26.814  29.803  1.00  0.00    -0.206 F 
ATOM     77  C   UNL A   1      48.407  28.157  27.878  1.00  0.00     0.040 A 
ATOM     78  C   UNL A   1      46.334  28.987  26.990  1.00  0.00     0.040 A 
ATOM     79  F   UNL A   1      44.326  28.554  28.098  1.00  0.00    -0.206 F 
ATOM     80  C   UNL A   1      47.720  28.896  26.918  1.00  0.00     0.006 A 
ENDBRANCH  56  73
ENDBRANCH  30  31
ENDBRANCH  23  25
ENDBRANCH  22  23
ENDBRANCH   1  22
TORSDOF 12
ENDMDL
