MODEL 1
REMARK VINA RESULT:     -12.6      0.000      0.000
REMARK SMILES Cc1c(CC(=O)OCCOC(=O)c2ccc(-c3c4nc(c(-c5c(F)cccc5F)c5ccc([nH]5)c(-c5c(F)cccc5F)c5nc(c(-c6c(F)cccc6F)c6ccc3[nH]6)C=C5)C=C4)cc2)cc(-c2ccc(S(C)(=O)=O)cc2)n1-c1cccc(F)c1
REMARK SMILES IDX 8 1 7 2 5 3 6 4 4 5 3 6 1 7 2 8 79 9 67 10 68 11 80 12 81 13
REMARK SMILES IDX 86 14 82 15 84 16 83 17 85 18 69 19 70 20 78 21 71 22 77 23
REMARK SMILES IDX 72 24 73 25 74 26 75 27 76 28 9 29 10 30 11 31 12 32 13 33
REMARK SMILES IDX 14 34 66 35 15 36 65 37 16 38 17 39 18 40 59 41 19 42 64 43
REMARK SMILES IDX 58 44 60 45 20 46 63 47 57 48 56 49 21 51 47 52 30 53 46 54
REMARK SMILES IDX 31 55 34 56 45 57 61 58 32 59 33 60 44 62 62 63 35 64 22 65
REMARK SMILES IDX 23 66 28 67 24 68 25 69 27 70 29 71 26 72 48 73 49 74 54 75
REMARK SMILES IDX 50 76 51 77 53 78 55 79 52 80 36 81 37 82 42 83 38 84 39 85
REMARK SMILES IDX 41 86 43 87 40 88
REMARK H PARENT 60 50 34 61
REMARK Flexibility Score: inf
ROOT
ATOM      1  C   UNL A   1      36.570  21.951  24.249  1.00  0.00     0.274 C 
ENDROOT
BRANCH   1   2
ATOM      2  O   UNL A   1      35.328  21.289  24.619  1.00  0.00    -0.462 OA
BRANCH   2   3
ATOM      3  C   UNL A   1      34.174  21.818  24.121  1.00  0.00     0.310 C 
ATOM      4  O   UNL A   1      33.057  21.446  24.475  1.00  0.00    -0.252 OA
BRANCH   3   5
ATOM      5  C   UNL A   1      34.353  22.998  23.168  1.00  0.00     0.160 C 
BRANCH   5   6
ATOM      6  C   UNL A   1      33.728  24.328  23.514  1.00  0.00    -0.015 A 
ATOM      7  C   UNL A   1      34.806  24.780  25.831  1.00  0.00     0.065 C 
ATOM      8  C   UNL A   1      33.934  25.090  24.656  1.00  0.00     0.024 A 
ATOM      9  N   UNL A   1      33.105  26.202  24.611  1.00  0.00    -0.313 N 
ATOM     10  C   UNL A   1      32.663  24.969  22.807  1.00  0.00     0.033 A 
ATOM     11  C   UNL A   1      32.269  26.106  23.500  1.00  0.00     0.053 A 
BRANCH   9  12
ATOM     12  C   UNL A   1      33.080  27.230  25.586  1.00  0.00     0.049 A 
ATOM     13  C   UNL A   1      34.115  28.172  25.638  1.00  0.00     0.027 A 
ATOM     14  C   UNL A   1      32.007  27.293  26.480  1.00  0.00     0.065 A 
ATOM     15  C   UNL A   1      34.068  29.192  26.587  1.00  0.00     0.005 A 
ATOM     16  C   UNL A   1      31.992  28.302  27.432  1.00  0.00     0.125 A 
ATOM     17  C   UNL A   1      33.006  29.254  27.491  1.00  0.00     0.039 A 
ATOM     18  F   UNL A   1      30.985  28.357  28.315  1.00  0.00    -0.207 F 
ENDBRANCH   9  12
BRANCH  11  19
ATOM     19  C   UNL A   1      31.236  27.093  23.146  1.00  0.00    -0.001 A 
ATOM     20  C   UNL A   1      31.586  28.319  22.559  1.00  0.00     0.011 A 
ATOM     21  C   UNL A   1      29.886  26.837  23.424  1.00  0.00     0.011 A 
ATOM     22  C   UNL A   1      30.613  29.287  22.284  1.00  0.00     0.021 A 
ATOM     23  C   UNL A   1      28.906  27.802  23.155  1.00  0.00     0.021 A 
ATOM     24  C   UNL A   1      29.277  29.028  22.599  1.00  0.00     0.067 A 
BRANCH  24  25
ATOM     25  S   UNL A   1      28.050  30.262  22.227  1.00  0.00     0.175 S 
ATOM     26  C   UNL A   1      28.762  31.782  22.800  1.00  0.00     0.163 C 
ATOM     27  O   UNL A   1      27.925  30.324  20.798  1.00  0.00    -0.224 OA
ATOM     28  O   UNL A   1      26.886  29.989  23.074  1.00  0.00    -0.224 OA
ENDBRANCH  24  25
ENDBRANCH  11  19
ENDBRANCH   5   6
ENDBRANCH   3   5
ENDBRANCH   2   3
ENDBRANCH   1   2
BRANCH   1  29
ATOM     29  C   UNL A   1      37.391  22.354  25.507  1.00  0.00     0.275 C 
BRANCH  29  30
ATOM     30  O   UNL A   1      38.853  22.497  25.393  1.00  0.00    -0.458 OA
BRANCH  30  31
ATOM     31  C   UNL A   1      39.574  22.551  26.548  1.00  0.00     0.338 C 
ATOM     32  O   UNL A   1      39.979  21.549  27.126  1.00  0.00    -0.246 OA
BRANCH  31  33
ATOM     33  C   UNL A   1      39.912  23.957  27.058  1.00  0.00     0.060 A 
ATOM     34  C   UNL A   1      39.145  24.431  28.107  1.00  0.00     0.016 A 
ATOM     35  C   UNL A   1      40.804  24.902  26.503  1.00  0.00     0.016 A 
ATOM     36  C   UNL A   1      39.286  25.767  28.584  1.00  0.00     0.010 A 
ATOM     37  C   UNL A   1      40.880  26.310  26.954  1.00  0.00     0.010 A 
ATOM     38  C   UNL A   1      40.100  26.810  28.011  1.00  0.00    -0.014 A 
BRANCH  38  39
ATOM     39  C   UNL A   1      39.760  28.332  28.472  1.00  0.00     0.031 A 
ATOM     40  C   UNL A   1      41.099  28.935  28.745  1.00  0.00     0.074 A 
ATOM     41  C   UNL A   1      38.744  29.246  28.779  1.00  0.00     0.049 A 
ATOM     42  N   UNL A   1      41.908  28.418  29.627  1.00  0.00    -0.248 NA
ATOM     43  C   UNL A   1      41.723  29.860  27.793  1.00  0.00     0.031 C 
ATOM     44  C   UNL A   1      37.288  29.036  28.820  1.00  0.00     0.029 A 
ATOM     45  N   UNL A   1      38.789  30.641  29.134  1.00  0.00    -0.354 N 
ATOM     46  C   UNL A   1      43.063  29.152  29.534  1.00  0.00     0.074 A 
ATOM     47  C   UNL A   1      42.974  29.841  28.258  1.00  0.00     0.031 C 
ATOM     48  C   UNL A   1      36.611  30.203  29.051  1.00  0.00     0.029 A 
ATOM     49  C   UNL A   1      37.528  31.327  29.246  1.00  0.00     0.049 A 
ATOM     50  H   UNL A   1      39.643  31.104  29.294  1.00  0.00     0.167 HD
ATOM     51  C   UNL A   1      43.655  29.565  30.687  1.00  0.00     0.037 A 
ATOM     52  C   UNL A   1      37.220  32.654  29.535  1.00  0.00     0.037 A 
ATOM     53  C   UNL A   1      43.604  30.990  30.856  1.00  0.00     0.049 A 
ATOM     54  C   UNL A   1      38.392  33.279  30.163  1.00  0.00     0.074 A 
ATOM     55  C   UNL A   1      43.757  32.063  30.000  1.00  0.00     0.029 A 
ATOM     56  N   UNL A   1      42.852  31.451  31.917  1.00  0.00    -0.354 N 
ATOM     57  N   UNL A   1      38.651  33.112  31.421  1.00  0.00    -0.248 NA
ATOM     58  C   UNL A   1      39.234  34.255  29.474  1.00  0.00     0.031 C 
ATOM     59  C   UNL A   1      42.626  32.876  30.259  1.00  0.00     0.029 A 
ATOM     60  C   UNL A   1      42.046  32.467  31.453  1.00  0.00     0.049 A 
ATOM     61  H   UNL A   1      42.884  31.113  32.841  1.00  0.00     0.167 HD
ATOM     62  C   UNL A   1      39.929  33.550  31.538  1.00  0.00     0.074 A 
ATOM     63  C   UNL A   1      40.130  34.472  30.440  1.00  0.00     0.031 C 
ATOM     64  C   UNL A   1      40.797  32.696  32.126  1.00  0.00     0.037 A 
BRANCH  51  65
ATOM     65  C   UNL A   1      43.597  28.589  31.823  1.00  0.00     0.057 A 
ATOM     66  C   UNL A   1      42.392  28.402  32.501  1.00  0.00     0.134 A 
ATOM     67  C   UNL A   1      44.724  27.911  32.319  1.00  0.00     0.134 A 
ATOM     68  F   UNL A   1      41.261  28.962  32.043  1.00  0.00    -0.206 F 
ATOM     69  C   UNL A   1      42.325  27.639  33.670  1.00  0.00     0.040 A 
ATOM     70  C   UNL A   1      44.684  27.193  33.513  1.00  0.00     0.040 A 
ATOM     71  F   UNL A   1      45.887  27.925  31.648  1.00  0.00    -0.206 F 
ATOM     72  C   UNL A   1      43.482  27.065  34.199  1.00  0.00     0.006 A 
ENDBRANCH  51  65
BRANCH  52  73
ATOM     73  C   UNL A   1      36.065  33.688  29.580  1.00  0.00     0.057 A 
ATOM     74  C   UNL A   1      35.417  34.125  28.374  1.00  0.00     0.134 A 
ATOM     75  C   UNL A   1      35.294  33.907  30.725  1.00  0.00     0.134 A 
ATOM     76  F   UNL A   1      36.030  34.060  27.184  1.00  0.00    -0.206 F 
ATOM     77  C   UNL A   1      34.090  34.589  28.302  1.00  0.00     0.040 A 
ATOM     78  C   UNL A   1      33.971  34.425  30.669  1.00  0.00     0.040 A 
ATOM     79  F   UNL A   1      35.756  33.542  31.927  1.00  0.00    -0.206 F 
ATOM     80  C   UNL A   1      33.349  34.725  29.457  1.00  0.00     0.006 A 
ENDBRANCH  52  73
BRANCH  64  81
ATOM     81  C   UNL A   1      40.247  31.870  33.276  1.00  0.00     0.057 A 
ATOM     82  C   UNL A   1      39.348  30.786  33.173  1.00  0.00     0.134 A 
ATOM     83  C   UNL A   1      40.589  32.256  34.575  1.00  0.00     0.134 A 
ATOM     84  F   UNL A   1      39.019  30.244  31.994  1.00  0.00    -0.206 F 
ATOM     85  C   UNL A   1      38.752  30.197  34.297  1.00  0.00     0.040 A 
ATOM     86  C   UNL A   1      40.043  31.639  35.707  1.00  0.00     0.040 A 
ATOM     87  F   UNL A   1      41.476  33.242  34.770  1.00  0.00    -0.206 F 
ATOM     88  C   UNL A   1      39.100  30.625  35.571  1.00  0.00     0.006 A 
ENDBRANCH  64  81
ENDBRANCH  38  39
ENDBRANCH  31  33
ENDBRANCH  30  31
ENDBRANCH  29  30
ENDBRANCH   1  29
TORSDOF 15
ENDMDL
MODEL 2
REMARK VINA RESULT:     -12.4      4.017      9.043
REMARK SMILES Cc1c(CC(=O)OCCOC(=O)c2ccc(-c3c4nc(c(-c5c(F)cccc5F)c5ccc([nH]5)c(-c5c(F)cccc5F)c5nc(c(-c6c(F)cccc6F)c6ccc3[nH]6)C=C5)C=C4)cc2)cc(-c2ccc(S(C)(=O)=O)cc2)n1-c1cccc(F)c1
REMARK SMILES IDX 8 1 7 2 5 3 6 4 4 5 3 6 1 7 2 8 79 9 67 10 68 11 80 12 81 13
REMARK SMILES IDX 86 14 82 15 84 16 83 17 85 18 69 19 70 20 78 21 71 22 77 23
REMARK SMILES IDX 72 24 73 25 74 26 75 27 76 28 9 29 10 30 11 31 12 32 13 33
REMARK SMILES IDX 14 34 66 35 15 36 65 37 16 38 17 39 18 40 59 41 19 42 64 43
REMARK SMILES IDX 58 44 60 45 20 46 63 47 57 48 56 49 21 51 47 52 30 53 46 54
REMARK SMILES IDX 31 55 34 56 45 57 61 58 32 59 33 60 44 62 62 63 35 64 22 65
REMARK SMILES IDX 23 66 28 67 24 68 25 69 27 70 29 71 26 72 48 73 49 74 54 75
REMARK SMILES IDX 50 76 51 77 53 78 55 79 52 80 36 81 37 82 42 83 38 84 39 85
REMARK SMILES IDX 41 86 43 87 40 88
REMARK H PARENT 60 50 34 61
REMARK Flexibility Score: inf
ROOT
ATOM      1  C   UNL A   1      31.723  30.080  26.654  1.00  0.00     0.274 C 
ENDROOT
BRANCH   1   2
ATOM      2  O   UNL A   1      31.373  28.829  25.996  1.00  0.00    -0.462 OA
BRANCH   2   3
ATOM      3  C   UNL A   1      31.234  27.731  26.793  1.00  0.00     0.310 C 
ATOM      4  O   UNL A   1      31.422  27.755  28.008  1.00  0.00    -0.252 OA
BRANCH   3   5
ATOM      5  C   UNL A   1      30.714  26.477  26.094  1.00  0.00     0.160 C 
BRANCH   5   6
ATOM      6  C   UNL A   1      31.655  25.321  25.855  1.00  0.00    -0.015 A 
ATOM      7  C   UNL A   1      33.903  26.581  25.553  1.00  0.00     0.065 C 
ATOM      8  C   UNL A   1      33.024  25.374  25.631  1.00  0.00     0.024 A 
ATOM      9  N   UNL A   1      33.489  24.090  25.380  1.00  0.00    -0.313 N 
ATOM     10  C   UNL A   1      31.278  23.959  25.634  1.00  0.00     0.033 A 
ATOM     11  C   UNL A   1      32.407  23.215  25.319  1.00  0.00     0.053 A 
BRANCH   9  12
ATOM     12  C   UNL A   1      34.847  23.754  25.156  1.00  0.00     0.049 A 
ATOM     13  C   UNL A   1      35.722  23.615  26.241  1.00  0.00     0.027 A 
ATOM     14  C   UNL A   1      35.292  23.554  23.846  1.00  0.00     0.065 A 
ATOM     15  C   UNL A   1      37.051  23.261  26.010  1.00  0.00     0.005 A 
ATOM     16  C   UNL A   1      36.624  23.226  23.637  1.00  0.00     0.125 A 
ATOM     17  C   UNL A   1      37.504  23.072  24.704  1.00  0.00     0.039 A 
ATOM     18  F   UNL A   1      37.071  23.061  22.385  1.00  0.00    -0.207 F 
ENDBRANCH   9  12
BRANCH  11  19
ATOM     19  C   UNL A   1      32.516  21.773  25.040  1.00  0.00    -0.001 A 
ATOM     20  C   UNL A   1      32.827  20.865  26.064  1.00  0.00     0.011 A 
ATOM     21  C   UNL A   1      32.346  21.288  23.736  1.00  0.00     0.011 A 
ATOM     22  C   UNL A   1      32.998  19.503  25.790  1.00  0.00     0.021 A 
ATOM     23  C   UNL A   1      32.519  19.927  23.451  1.00  0.00     0.021 A 
ATOM     24  C   UNL A   1      32.859  19.044  24.479  1.00  0.00     0.067 A 
BRANCH  24  25
ATOM     25  S   UNL A   1      33.062  17.307  24.149  1.00  0.00     0.175 S 
ATOM     26  C   UNL A   1      34.747  16.967  24.588  1.00  0.00     0.163 C 
ATOM     27  O   UNL A   1      32.200  16.596  25.052  1.00  0.00    -0.224 OA
ATOM     28  O   UNL A   1      32.952  17.122  22.700  1.00  0.00    -0.224 OA
ENDBRANCH  24  25
ENDBRANCH  11  19
ENDBRANCH   5   6
ENDBRANCH   3   5
ENDBRANCH   2   3
ENDBRANCH   1   2
BRANCH   1  29
ATOM     29  C   UNL A   1      33.258  30.327  26.616  1.00  0.00     0.275 C 
BRANCH  29  30
ATOM     30  O   UNL A   1      33.981  30.538  27.883  1.00  0.00    -0.458 OA
BRANCH  30  31
ATOM     31  C   UNL A   1      35.042  31.392  27.869  1.00  0.00     0.338 C 
ATOM     32  O   UNL A   1      34.923  32.596  27.675  1.00  0.00    -0.246 OA
BRANCH  31  33
ATOM     33  C   UNL A   1      36.406  30.766  28.180  1.00  0.00     0.060 A 
ATOM     34  C   UNL A   1      37.000  30.049  27.157  1.00  0.00     0.016 A 
ATOM     35  C   UNL A   1      37.076  30.690  29.422  1.00  0.00     0.016 A 
ATOM     36  C   UNL A   1      38.209  29.322  27.366  1.00  0.00     0.010 A 
ATOM     37  C   UNL A   1      38.284  29.864  29.645  1.00  0.00     0.010 A 
ATOM     38  C   UNL A   1      38.894  29.122  28.619  1.00  0.00    -0.014 A 
BRANCH  38  39
ATOM     39  C   UNL A   1      39.988  27.919  28.664  1.00  0.00     0.031 A 
ATOM     40  C   UNL A   1      40.990  28.379  29.672  1.00  0.00     0.074 A 
ATOM     41  C   UNL A   1      40.390  26.703  28.099  1.00  0.00     0.049 A 
ATOM     42  N   UNL A   1      41.634  29.504  29.523  1.00  0.00    -0.248 NA
ATOM     43  C   UNL A   1      41.013  27.822  31.028  1.00  0.00     0.031 C 
ATOM     44  C   UNL A   1      39.807  25.967  26.964  1.00  0.00     0.029 A 
ATOM     45  N   UNL A   1      41.464  25.803  28.433  1.00  0.00    -0.354 N 
ATOM     46  C   UNL A   1      42.373  29.652  30.668  1.00  0.00     0.074 A 
ATOM     47  C   UNL A   1      41.777  28.738  31.628  1.00  0.00     0.031 C 
ATOM     48  C   UNL A   1      40.412  24.754  26.778  1.00  0.00     0.029 A 
ATOM     49  C   UNL A   1      41.508  24.549  27.726  1.00  0.00     0.049 A 
ATOM     50  H   UNL A   1      42.137  26.034  29.113  1.00  0.00     0.167 HD
ATOM     51  C   UNL A   1      43.673  30.033  30.547  1.00  0.00     0.037 A 
ATOM     52  C   UNL A   1      42.373  23.461  27.825  1.00  0.00     0.037 A 
ATOM     53  C   UNL A   1      44.591  29.000  30.936  1.00  0.00     0.049 A 
ATOM     54  C   UNL A   1      43.597  23.900  28.510  1.00  0.00     0.074 A 
ATOM     55  C   UNL A   1      44.610  28.069  31.957  1.00  0.00     0.029 A 
ATOM     56  N   UNL A   1      45.392  28.488  29.937  1.00  0.00    -0.354 N 
ATOM     57  N   UNL A   1      44.534  24.531  27.875  1.00  0.00    -0.248 NA
ATOM     58  C   UNL A   1      43.921  23.513  29.881  1.00  0.00     0.031 C 
ATOM     59  C   UNL A   1      44.880  26.843  31.301  1.00  0.00     0.029 A 
ATOM     60  C   UNL A   1      45.347  27.115  30.021  1.00  0.00     0.049 A 
ATOM     61  H   UNL A   1      45.904  29.012  29.279  1.00  0.00     0.167 HD
ATOM     62  C   UNL A   1      45.305  25.031  28.871  1.00  0.00     0.074 A 
ATOM     63  C   UNL A   1      45.073  24.174  30.015  1.00  0.00     0.031 C 
ATOM     64  C   UNL A   1      45.557  26.358  28.816  1.00  0.00     0.037 A 
BRANCH  51  65
ATOM     65  C   UNL A   1      43.951  31.028  29.462  1.00  0.00     0.057 A 
ATOM     66  C   UNL A   1      44.241  32.349  29.804  1.00  0.00     0.134 A 
ATOM     67  C   UNL A   1      43.839  30.730  28.092  1.00  0.00     0.134 A 
ATOM     68  F   UNL A   1      44.431  32.692  31.087  1.00  0.00    -0.206 F 
ATOM     69  C   UNL A   1      44.336  33.349  28.832  1.00  0.00     0.040 A 
ATOM     70  C   UNL A   1      43.875  31.726  27.117  1.00  0.00     0.040 A 
ATOM     71  F   UNL A   1      43.700  29.463  27.671  1.00  0.00    -0.206 F 
ATOM     72  C   UNL A   1      44.113  33.044  27.488  1.00  0.00     0.006 A 
ENDBRANCH  51  65
BRANCH  52  73
ATOM     73  C   UNL A   1      42.600  21.999  27.364  1.00  0.00     0.057 A 
ATOM     74  C   UNL A   1      41.653  20.967  27.683  1.00  0.00     0.134 A 
ATOM     75  C   UNL A   1      43.423  21.670  26.283  1.00  0.00     0.134 A 
ATOM     76  F   UNL A   1      40.825  21.074  28.732  1.00  0.00    -0.206 F 
ATOM     77  C   UNL A   1      41.448  19.803  26.917  1.00  0.00     0.040 A 
ATOM     78  C   UNL A   1      43.261  20.471  25.534  1.00  0.00     0.040 A 
ATOM     79  F   UNL A   1      44.352  22.534  25.856  1.00  0.00    -0.206 F 
ATOM     80  C   UNL A   1      42.247  19.558  25.819  1.00  0.00     0.006 A 
ENDBRANCH  52  73
BRANCH  64  81
ATOM     81  C   UNL A   1      45.763  26.943  27.430  1.00  0.00     0.057 A 
ATOM     82  C   UNL A   1      44.769  27.133  26.445  1.00  0.00     0.134 A 
ATOM     83  C   UNL A   1      47.070  27.255  27.044  1.00  0.00     0.134 A 
ATOM     84  F   UNL A   1      43.466  26.977  26.709  1.00  0.00    -0.206 F 
ATOM     85  C   UNL A   1      45.079  27.510  25.131  1.00  0.00     0.040 A 
ATOM     86  C   UNL A   1      47.385  27.685  25.750  1.00  0.00     0.040 A 
ATOM     87  F   UNL A   1      48.072  27.155  27.929  1.00  0.00    -0.206 F 
ATOM     88  C   UNL A   1      46.392  27.787  24.779  1.00  0.00     0.006 A 
ENDBRANCH  64  81
ENDBRANCH  38  39
ENDBRANCH  31  33
ENDBRANCH  30  31
ENDBRANCH  29  30
ENDBRANCH   1  29
TORSDOF 15
ENDMDL
MODEL 3
REMARK VINA RESULT:     -11.8      2.301      4.244
REMARK SMILES Cc1c(CC(=O)OCCOC(=O)c2ccc(-c3c4nc(c(-c5c(F)cccc5F)c5ccc([nH]5)c(-c5c(F)cccc5F)c5nc(c(-c6c(F)cccc6F)c6ccc3[nH]6)C=C5)C=C4)cc2)cc(-c2ccc(S(C)(=O)=O)cc2)n1-c1cccc(F)c1
REMARK SMILES IDX 8 1 7 2 5 3 6 4 4 5 3 6 1 7 2 8 79 9 67 10 68 11 80 12 81 13
REMARK SMILES IDX 86 14 82 15 84 16 83 17 85 18 69 19 70 20 78 21 71 22 77 23
REMARK SMILES IDX 72 24 73 25 74 26 75 27 76 28 9 29 10 30 11 31 12 32 13 33
REMARK SMILES IDX 14 34 66 35 15 36 65 37 16 38 17 39 18 40 59 41 19 42 64 43
REMARK SMILES IDX 58 44 60 45 20 46 63 47 57 48 56 49 21 51 47 52 30 53 46 54
REMARK SMILES IDX 31 55 34 56 45 57 61 58 32 59 33 60 44 62 62 63 35 64 22 65
REMARK SMILES IDX 23 66 28 67 24 68 25 69 27 70 29 71 26 72 48 73 49 74 54 75
REMARK SMILES IDX 50 76 51 77 53 78 55 79 52 80 36 81 37 82 42 83 38 84 39 85
REMARK SMILES IDX 41 86 43 87 40 88
REMARK H PARENT 60 50 34 61
REMARK Flexibility Score: inf
ROOT
ATOM      1  C   UNL A   1      41.648  20.672  26.369  1.00  0.00     0.274 C 
ENDROOT
BRANCH   1   2
ATOM      2  O   UNL A   1      40.987  21.380  27.455  1.00  0.00    -0.462 OA
BRANCH   2   3
ATOM      3  C   UNL A   1      40.057  22.316  27.107  1.00  0.00     0.310 C 
ATOM      4  O   UNL A   1      39.838  23.326  27.773  1.00  0.00    -0.252 OA
BRANCH   3   5
ATOM      5  C   UNL A   1      39.373  22.089  25.760  1.00  0.00     0.160 C 
BRANCH   5   6
ATOM      6  C   UNL A   1      37.873  22.226  25.662  1.00  0.00    -0.015 A 
ATOM      7  C   UNL A   1      37.236  19.899  24.706  1.00  0.00     0.065 C 
ATOM      8  C   UNL A   1      36.962  21.278  25.215  1.00  0.00     0.024 A 
ATOM      9  N   UNL A   1      35.693  21.841  25.212  1.00  0.00    -0.313 N 
ATOM     10  C   UNL A   1      37.123  23.431  25.842  1.00  0.00     0.033 A 
ATOM     11  C   UNL A   1      35.789  23.191  25.540  1.00  0.00     0.053 A 
BRANCH   9  12
ATOM     12  C   UNL A   1      34.506  21.150  24.862  1.00  0.00     0.049 A 
ATOM     13  C   UNL A   1      33.761  21.557  23.749  1.00  0.00     0.027 A 
ATOM     14  C   UNL A   1      34.103  20.056  25.634  1.00  0.00     0.065 A 
ATOM     15  C   UNL A   1      32.608  20.855  23.400  1.00  0.00     0.005 A 
ATOM     16  C   UNL A   1      32.939  19.387  25.284  1.00  0.00     0.125 A 
ATOM     17  C   UNL A   1      32.192  19.770  24.174  1.00  0.00     0.039 A 
ATOM     18  F   UNL A   1      32.525  18.355  26.032  1.00  0.00    -0.207 F 
ENDBRANCH   9  12
BRANCH  11  19
ATOM     19  C   UNL A   1      34.645  24.116  25.606  1.00  0.00    -0.001 A 
ATOM     20  C   UNL A   1      34.573  25.230  24.755  1.00  0.00     0.011 A 
ATOM     21  C   UNL A   1      33.626  23.919  26.548  1.00  0.00     0.011 A 
ATOM     22  C   UNL A   1      33.523  26.149  24.861  1.00  0.00     0.021 A 
ATOM     23  C   UNL A   1      32.573  24.835  26.663  1.00  0.00     0.021 A 
ATOM     24  C   UNL A   1      32.534  25.954  25.828  1.00  0.00     0.067 A 
BRANCH  24  25
ATOM     25  S   UNL A   1      31.196  27.121  25.939  1.00  0.00     0.175 S 
ATOM     26  C   UNL A   1      31.841  28.605  25.212  1.00  0.00     0.163 C 
ATOM     27  O   UNL A   1      30.131  26.630  25.111  1.00  0.00    -0.224 OA
ATOM     28  O   UNL A   1      30.978  27.402  27.360  1.00  0.00    -0.224 OA
ENDBRANCH  24  25
ENDBRANCH  11  19
ENDBRANCH   5   6
ENDBRANCH   3   5
ENDBRANCH   2   3
ENDBRANCH   1   2
BRANCH   1  29
ATOM     29  C   UNL A   1      42.977  21.371  25.967  1.00  0.00     0.275 C 
BRANCH  29  30
ATOM     30  O   UNL A   1      42.962  22.373  24.886  1.00  0.00    -0.458 OA
BRANCH  30  31
ATOM     31  C   UNL A   1      43.528  23.586  25.142  1.00  0.00     0.338 C 
ATOM     32  O   UNL A   1      44.567  23.959  24.611  1.00  0.00    -0.246 OA
BRANCH  31  33
ATOM     33  C   UNL A   1      42.746  24.498  26.094  1.00  0.00     0.060 A 
ATOM     34  C   UNL A   1      41.804  25.328  25.514  1.00  0.00     0.016 A 
ATOM     35  C   UNL A   1      42.960  24.720  27.473  1.00  0.00     0.016 A 
ATOM     36  C   UNL A   1      41.103  26.304  26.281  1.00  0.00     0.010 A 
ATOM     37  C   UNL A   1      42.285  25.792  28.238  1.00  0.00     0.010 A 
ATOM     38  C   UNL A   1      41.334  26.651  27.661  1.00  0.00    -0.014 A 
BRANCH  38  39
ATOM     39  C   UNL A   1      40.712  28.066  28.168  1.00  0.00     0.031 A 
ATOM     40  C   UNL A   1      41.901  28.962  28.286  1.00  0.00     0.074 A 
ATOM     41  C   UNL A   1      39.558  28.732  28.596  1.00  0.00     0.049 A 
ATOM     42  N   UNL A   1      42.903  28.660  29.065  1.00  0.00    -0.248 NA
ATOM     43  C   UNL A   1      42.186  29.983  27.273  1.00  0.00     0.031 C 
ATOM     44  C   UNL A   1      38.201  28.200  28.806  1.00  0.00     0.029 A 
ATOM     45  N   UNL A   1      39.325  30.108  28.952  1.00  0.00    -0.354 N 
ATOM     46  C   UNL A   1      43.842  29.633  28.842  1.00  0.00     0.074 A 
ATOM     47  C   UNL A   1      43.454  30.258  27.589  1.00  0.00     0.031 C 
ATOM     48  C   UNL A   1      37.309  29.188  29.120  1.00  0.00     0.029 A 
ATOM     49  C   UNL A   1      37.963  30.494  29.214  1.00  0.00     0.049 A 
ATOM     50  H   UNL A   1      40.064  30.756  29.013  1.00  0.00     0.167 HD
ATOM     51  C   UNL A   1      44.454  30.194  29.921  1.00  0.00     0.037 A 
ATOM     52  C   UNL A   1      37.397  31.723  29.544  1.00  0.00     0.037 A 
ATOM     53  C   UNL A   1      44.101  31.573  30.103  1.00  0.00     0.049 A 
ATOM     54  C   UNL A   1      38.461  32.609  30.035  1.00  0.00     0.074 A 
ATOM     55  C   UNL A   1      43.907  32.635  29.240  1.00  0.00     0.029 A 
ATOM     56  N   UNL A   1      43.390  31.874  31.246  1.00  0.00    -0.354 N 
ATOM     57  N   UNL A   1      38.894  32.532  31.253  1.00  0.00    -0.248 NA
ATOM     58  C   UNL A   1      38.974  33.736  29.258  1.00  0.00     0.031 C 
ATOM     59  C   UNL A   1      42.657  33.176  29.634  1.00  0.00     0.029 A 
ATOM     60  C   UNL A   1      42.327  32.672  30.886  1.00  0.00     0.049 A 
ATOM     61  H   UNL A   1      43.604  31.572  32.158  1.00  0.00     0.167 HD
ATOM     62  C   UNL A   1      40.043  33.250  31.223  1.00  0.00     0.074 A 
ATOM     63  C   UNL A   1      39.902  34.171  30.114  1.00  0.00     0.031 C 
ATOM     64  C   UNL A   1      41.144  32.627  31.701  1.00  0.00     0.037 A 
BRANCH  51  65
ATOM     65  C   UNL A   1      44.749  29.254  31.050  1.00  0.00     0.057 A 
ATOM     66  C   UNL A   1      46.074  28.920  31.332  1.00  0.00     0.134 A 
ATOM     67  C   UNL A   1      43.750  28.598  31.792  1.00  0.00     0.134 A 
ATOM     68  F   UNL A   1      47.081  29.556  30.713  1.00  0.00    -0.206 F 
ATOM     69  C   UNL A   1      46.392  27.921  32.256  1.00  0.00     0.040 A 
ATOM     70  C   UNL A   1      44.051  27.562  32.673  1.00  0.00     0.040 A 
ATOM     71  F   UNL A   1      42.462  28.958  31.682  1.00  0.00    -0.206 F 
ATOM     72  C   UNL A   1      45.377  27.212  32.899  1.00  0.00     0.006 A 
ENDBRANCH  51  65
BRANCH  52  73
ATOM     73  C   UNL A   1      36.050  32.470  29.729  1.00  0.00     0.057 A 
ATOM     74  C   UNL A   1      35.450  32.602  31.028  1.00  0.00     0.134 A 
ATOM     75  C   UNL A   1      35.581  33.414  28.812  1.00  0.00     0.134 A 
ATOM     76  F   UNL A   1      35.724  31.742  32.019  1.00  0.00    -0.206 F 
ATOM     77  C   UNL A   1      34.592  33.650  31.410  1.00  0.00     0.040 A 
ATOM     78  C   UNL A   1      34.672  34.446  29.173  1.00  0.00     0.040 A 
ATOM     79  F   UNL A   1      36.054  33.428  27.559  1.00  0.00    -0.206 F 
ATOM     80  C   UNL A   1      34.210  34.596  30.480  1.00  0.00     0.006 A 
ENDBRANCH  52  73
BRANCH  64  81
ATOM     81  C   UNL A   1      40.932  31.722  32.902  1.00  0.00     0.057 A 
ATOM     82  C   UNL A   1      40.327  30.446  32.892  1.00  0.00     0.134 A 
ATOM     83  C   UNL A   1      41.289  32.217  34.160  1.00  0.00     0.134 A 
ATOM     84  F   UNL A   1      40.033  29.806  31.754  1.00  0.00    -0.206 F 
ATOM     85  C   UNL A   1      40.009  29.759  34.072  1.00  0.00     0.040 A 
ATOM     86  C   UNL A   1      41.026  31.515  35.342  1.00  0.00     0.040 A 
ATOM     87  F   UNL A   1      41.915  33.398  34.262  1.00  0.00    -0.206 F 
ATOM     88  C   UNL A   1      40.359  30.294  35.304  1.00  0.00     0.006 A 
ENDBRANCH  64  81
ENDBRANCH  38  39
ENDBRANCH  31  33
ENDBRANCH  30  31
ENDBRANCH  29  30
ENDBRANCH   1  29
TORSDOF 15
ENDMDL
