MODEL 1
REMARK VINA RESULT:     -11.1      0.000      0.000
REMARK SMILES CC[C@@](C)(NS(=O)(=O)c1ccc(F)c(F)c1)C(=O)OCCOC(=O)c1ccc(-c2c3nc(c(-c4c(F)cccc4F)c4ccc([nH]4)c(-c4c(F)cccc4F)c4nc(c(-c5c(F)cccc5F)c5ccc2[nH]5)C=C4)C=C3)cc1
REMARK SMILES IDX 20 1 19 2 17 3 18 4 3 5 4 6 2 7 1 8 5 9 6 11 7 12 8 13 9 14
REMARK SMILES IDX 10 15 16 16 11 17 14 18 12 19 15 20 13 21 21 22 22 23 23 24
REMARK SMILES IDX 24 25 25 26 26 27 78 28 27 29 77 30 28 31 29 32 30 33 71 34
REMARK SMILES IDX 31 35 76 36 70 37 72 38 32 39 75 40 69 41 68 42 33 44 59 45
REMARK SMILES IDX 42 46 58 47 43 48 46 49 57 50 73 51 44 52 45 53 56 55 74 56
REMARK SMILES IDX 47 57 34 58 35 59 40 60 36 61 37 62 39 63 41 64 38 65 60 66
REMARK SMILES IDX 61 67 66 68 62 69 63 70 65 71 67 72 64 73 48 74 49 75 54 76
REMARK SMILES IDX 50 77 51 78 53 79 55 80 52 81
REMARK H PARENT 5 10 72 43 46 54
REMARK Flexibility Score: inf
ROOT
ATOM      1  C   UNL A   1      31.324  31.500  26.118  1.00  0.00     0.274 C 
ENDROOT
BRANCH   1   2
ATOM      2  O   UNL A   1      32.329  30.462  26.023  1.00  0.00    -0.461 OA
BRANCH   2   3
ATOM      3  C   UNL A   1      31.916  29.184  26.242  1.00  0.00     0.327 C 
ATOM      4  O   UNL A   1      31.691  28.763  27.370  1.00  0.00    -0.250 OA
BRANCH   3   5
ATOM      5  C   UNL A   1      31.789  28.349  24.929  1.00  0.00     0.127 C 
ATOM      6  C   UNL A   1      32.568  29.083  23.842  1.00  0.00     0.042 C 
BRANCH   5   7
ATOM      7  C   UNL A   1      32.425  26.914  25.080  1.00  0.00     0.032 C 
ATOM      8  C   UNL A   1      33.829  26.788  25.677  1.00  0.00     0.006 C 
ENDBRANCH   5   7
BRANCH   5   9
ATOM      9  N   UNL A   1      30.318  28.092  24.629  1.00  0.00    -0.194 NA
ATOM     10  H   UNL A   1      29.823  28.826  25.135  1.00  0.00     0.142 HD
BRANCH   9  11
ATOM     11  S   UNL A   1      29.551  28.021  23.130  1.00  0.00     0.241 S 
ATOM     12  O   UNL A   1      30.479  27.662  22.092  1.00  0.00    -0.207 OA
ATOM     13  O   UNL A   1      28.354  27.242  23.381  1.00  0.00    -0.207 OA
BRANCH  11  14
ATOM     14  C   UNL A   1      28.974  29.666  22.754  1.00  0.00     0.085 A 
ATOM     15  C   UNL A   1      29.087  30.693  23.680  1.00  0.00     0.025 A 
ATOM     16  C   UNL A   1      28.420  29.938  21.500  1.00  0.00     0.064 A 
ATOM     17  C   UNL A   1      28.812  32.016  23.333  1.00  0.00     0.044 A 
ATOM     18  C   UNL A   1      28.081  31.254  21.178  1.00  0.00     0.160 A 
ATOM     19  C   UNL A   1      28.314  32.293  22.073  1.00  0.00     0.158 A 
ATOM     20  F   UNL A   1      27.532  31.521  19.986  1.00  0.00    -0.204 F 
ATOM     21  F   UNL A   1      28.046  33.563  21.742  1.00  0.00    -0.204 F 
ENDBRANCH  11  14
ENDBRANCH   9  11
ENDBRANCH   5   9
ENDBRANCH   3   5
ENDBRANCH   2   3
ENDBRANCH   1   2
BRANCH   1  22
ATOM     22  C   UNL A   1      31.592  32.510  27.246  1.00  0.00     0.275 C 
BRANCH  22  23
ATOM     23  O   UNL A   1      32.822  33.220  27.057  1.00  0.00    -0.458 OA
BRANCH  23  24
ATOM     24  C   UNL A   1      33.239  33.991  28.087  1.00  0.00     0.338 C 
ATOM     25  O   UNL A   1      32.705  34.973  28.571  1.00  0.00    -0.246 OA
BRANCH  24  26
ATOM     26  C   UNL A   1      34.434  33.365  28.645  1.00  0.00     0.060 A 
ATOM     27  C   UNL A   1      34.321  32.044  29.063  1.00  0.00     0.016 A 
ATOM     28  C   UNL A   1      35.633  34.056  28.773  1.00  0.00     0.016 A 
ATOM     29  C   UNL A   1      35.394  31.392  29.636  1.00  0.00     0.010 A 
ATOM     30  C   UNL A   1      36.741  33.382  29.290  1.00  0.00     0.010 A 
ATOM     31  C   UNL A   1      36.621  32.050  29.731  1.00  0.00    -0.014 A 
BRANCH  31  32
ATOM     32  C   UNL A   1      37.754  31.340  30.360  1.00  0.00     0.031 A 
ATOM     33  C   UNL A   1      38.024  31.554  31.817  1.00  0.00     0.074 A 
ATOM     34  C   UNL A   1      38.476  30.466  29.633  1.00  0.00     0.049 A 
ATOM     35  N   UNL A   1      39.004  31.102  32.553  1.00  0.00    -0.248 NA
ATOM     36  C   UNL A   1      37.063  32.399  32.544  1.00  0.00     0.031 C 
ATOM     37  C   UNL A   1      38.236  30.133  28.226  1.00  0.00     0.029 A 
ATOM     38  N   UNL A   1      39.544  29.683  29.982  1.00  0.00    -0.354 N 
ATOM     39  C   UNL A   1      38.802  31.642  33.816  1.00  0.00     0.074 A 
ATOM     40  C   UNL A   1      37.618  32.469  33.744  1.00  0.00     0.031 C 
ATOM     41  C   UNL A   1      39.111  29.191  27.841  1.00  0.00     0.029 A 
ATOM     42  C   UNL A   1      40.016  28.910  28.948  1.00  0.00     0.049 A 
ATOM     43  H   UNL A   1      39.935  29.673  30.885  1.00  0.00     0.167 HD
ATOM     44  C   UNL A   1      39.545  31.458  34.931  1.00  0.00     0.037 A 
ATOM     45  C   UNL A   1      41.084  28.092  28.901  1.00  0.00     0.037 A 
ATOM     46  C   UNL A   1      40.705  30.608  34.977  1.00  0.00     0.049 A 
ATOM     47  C   UNL A   1      41.923  27.951  30.140  1.00  0.00     0.074 A 
ATOM     48  C   UNL A   1      41.546  30.349  36.044  1.00  0.00     0.029 A 
ATOM     49  N   UNL A   1      41.183  29.872  33.901  1.00  0.00    -0.354 N 
ATOM     50  N   UNL A   1      41.753  28.496  31.322  1.00  0.00    -0.248 NA
ATOM     51  C   UNL A   1      43.105  27.086  30.040  1.00  0.00     0.031 C 
ATOM     52  C   UNL A   1      42.564  29.499  35.596  1.00  0.00     0.029 A 
ATOM     53  C   UNL A   1      42.317  29.172  34.272  1.00  0.00     0.049 A 
ATOM     54  H   UNL A   1      40.775  29.851  33.005  1.00  0.00     0.167 HD
ATOM     55  C   UNL A   1      42.783  28.012  32.117  1.00  0.00     0.074 A 
ATOM     56  C   UNL A   1      43.564  27.119  31.283  1.00  0.00     0.031 C 
ATOM     57  C   UNL A   1      43.061  28.277  33.419  1.00  0.00     0.037 A 
BRANCH  44  58
ATOM     58  C   UNL A   1      39.153  32.236  36.155  1.00  0.00     0.057 A 
ATOM     59  C   UNL A   1      38.235  31.750  37.096  1.00  0.00     0.134 A 
ATOM     60  C   UNL A   1      39.689  33.511  36.380  1.00  0.00     0.134 A 
ATOM     61  F   UNL A   1      37.663  30.548  36.931  1.00  0.00    -0.206 F 
ATOM     62  C   UNL A   1      37.840  32.517  38.195  1.00  0.00     0.040 A 
ATOM     63  C   UNL A   1      39.327  34.273  37.492  1.00  0.00     0.040 A 
ATOM     64  F   UNL A   1      40.572  34.041  35.519  1.00  0.00    -0.206 F 
ATOM     65  C   UNL A   1      38.391  33.780  38.398  1.00  0.00     0.006 A 
ENDBRANCH  44  58
BRANCH  45  66
ATOM     66  C   UNL A   1      41.429  27.370  27.647  1.00  0.00     0.057 A 
ATOM     67  C   UNL A   1      42.193  27.979  26.645  1.00  0.00     0.134 A 
ATOM     68  C   UNL A   1      40.986  26.063  27.410  1.00  0.00     0.134 A 
ATOM     69  F   UNL A   1      42.635  29.235  26.801  1.00  0.00    -0.206 F 
ATOM     70  C   UNL A   1      42.484  27.324  25.445  1.00  0.00     0.040 A 
ATOM     71  C   UNL A   1      41.296  25.385  26.229  1.00  0.00     0.040 A 
ATOM     72  F   UNL A   1      40.254  25.417  28.330  1.00  0.00    -0.206 F 
ATOM     73  C   UNL A   1      42.038  26.021  25.237  1.00  0.00     0.006 A 
ENDBRANCH  45  66
BRANCH  57  74
ATOM     74  C   UNL A   1      44.213  27.533  34.028  1.00  0.00     0.057 A 
ATOM     75  C   UNL A   1      45.512  28.057  34.058  1.00  0.00     0.134 A 
ATOM     76  C   UNL A   1      44.007  26.276  34.613  1.00  0.00     0.134 A 
ATOM     77  F   UNL A   1      45.777  29.250  33.504  1.00  0.00    -0.206 F 
ATOM     78  C   UNL A   1      46.571  27.339  34.612  1.00  0.00     0.040 A 
ATOM     79  C   UNL A   1      45.052  25.566  35.202  1.00  0.00     0.040 A 
ATOM     80  F   UNL A   1      42.784  25.724  34.629  1.00  0.00    -0.206 F 
ATOM     81  C   UNL A   1      46.341  26.093  35.193  1.00  0.00     0.006 A 
ENDBRANCH  57  74
ENDBRANCH  31  32
ENDBRANCH  24  26
ENDBRANCH  23  24
ENDBRANCH  22  23
ENDBRANCH   1  22
TORSDOF 15
ENDMDL
MODEL 2
REMARK VINA RESULT:     -10.8      3.094      7.892
REMARK SMILES CC[C@@](C)(NS(=O)(=O)c1ccc(F)c(F)c1)C(=O)OCCOC(=O)c1ccc(-c2c3nc(c(-c4c(F)cccc4F)c4ccc([nH]4)c(-c4c(F)cccc4F)c4nc(c(-c5c(F)cccc5F)c5ccc2[nH]5)C=C4)C=C3)cc1
REMARK SMILES IDX 20 1 19 2 17 3 18 4 3 5 4 6 2 7 1 8 5 9 6 11 7 12 8 13 9 14
REMARK SMILES IDX 10 15 16 16 11 17 14 18 12 19 15 20 13 21 21 22 22 23 23 24
REMARK SMILES IDX 24 25 25 26 26 27 78 28 27 29 77 30 28 31 29 32 30 33 71 34
REMARK SMILES IDX 31 35 76 36 70 37 72 38 32 39 75 40 69 41 68 42 33 44 59 45
REMARK SMILES IDX 42 46 58 47 43 48 46 49 57 50 73 51 44 52 45 53 56 55 74 56
REMARK SMILES IDX 47 57 34 58 35 59 40 60 36 61 37 62 39 63 41 64 38 65 60 66
REMARK SMILES IDX 61 67 66 68 62 69 63 70 65 71 67 72 64 73 48 74 49 75 54 76
REMARK SMILES IDX 50 77 51 78 53 79 55 80 52 81
REMARK H PARENT 5 10 72 43 46 54
REMARK Flexibility Score: inf
ROOT
ATOM      1  C   UNL A   1      31.287  28.545  25.801  1.00  0.00     0.274 C 
ENDROOT
BRANCH   1   2
ATOM      2  O   UNL A   1      31.480  27.542  24.775  1.00  0.00    -0.461 OA
BRANCH   2   3
ATOM      3  C   UNL A   1      32.586  26.756  24.883  1.00  0.00     0.327 C 
ATOM      4  O   UNL A   1      33.163  26.599  25.951  1.00  0.00    -0.250 OA
BRANCH   3   5
ATOM      5  C   UNL A   1      33.020  26.120  23.525  1.00  0.00     0.127 C 
ATOM      6  C   UNL A   1      31.794  25.434  22.929  1.00  0.00     0.042 C 
BRANCH   5   7
ATOM      7  C   UNL A   1      33.502  27.209  22.491  1.00  0.00     0.032 C 
ATOM      8  C   UNL A   1      34.227  28.452  23.013  1.00  0.00     0.006 C 
ENDBRANCH   5   7
BRANCH   5   9
ATOM      9  N   UNL A   1      34.235  25.228  23.745  1.00  0.00    -0.194 NA
ATOM     10  H   UNL A   1      34.590  25.503  24.661  1.00  0.00     0.142 HD
BRANCH   9  11
ATOM     11  S   UNL A   1      34.312  23.545  23.748  1.00  0.00     0.241 S 
ATOM     12  O   UNL A   1      33.215  22.979  24.486  1.00  0.00    -0.207 OA
ATOM     13  O   UNL A   1      34.553  23.198  22.361  1.00  0.00    -0.207 OA
BRANCH  11  14
ATOM     14  C   UNL A   1      35.800  23.087  24.615  1.00  0.00     0.085 A 
ATOM     15  C   UNL A   1      36.345  21.816  24.482  1.00  0.00     0.025 A 
ATOM     16  C   UNL A   1      36.448  24.022  25.426  1.00  0.00     0.064 A 
ATOM     17  C   UNL A   1      37.601  21.507  25.004  1.00  0.00     0.044 A 
ATOM     18  C   UNL A   1      37.675  23.687  26.005  1.00  0.00     0.160 A 
ATOM     19  C   UNL A   1      38.267  22.453  25.762  1.00  0.00     0.158 A 
ATOM     20  F   UNL A   1      38.293  24.571  26.798  1.00  0.00    -0.204 F 
ATOM     21  F   UNL A   1      39.471  22.153  26.266  1.00  0.00    -0.204 F 
ENDBRANCH  11  14
ENDBRANCH   9  11
ENDBRANCH   5   9
ENDBRANCH   3   5
ENDBRANCH   2   3
ENDBRANCH   1   2
BRANCH   1  22
ATOM     22  C   UNL A   1      31.786  29.942  25.394  1.00  0.00     0.275 C 
BRANCH  22  23
ATOM     23  O   UNL A   1      33.102  30.214  25.892  1.00  0.00    -0.458 OA
BRANCH  23  24
ATOM     24  C   UNL A   1      33.210  31.207  26.802  1.00  0.00     0.338 C 
ATOM     25  O   UNL A   1      32.411  32.087  27.071  1.00  0.00    -0.246 OA
BRANCH  24  26
ATOM     26  C   UNL A   1      34.448  30.987  27.545  1.00  0.00     0.060 A 
ATOM     27  C   UNL A   1      34.726  29.684  27.941  1.00  0.00     0.016 A 
ATOM     28  C   UNL A   1      35.309  32.031  27.861  1.00  0.00     0.016 A 
ATOM     29  C   UNL A   1      35.857  29.398  28.678  1.00  0.00     0.010 A 
ATOM     30  C   UNL A   1      36.488  31.738  28.548  1.00  0.00     0.010 A 
ATOM     31  C   UNL A   1      36.761  30.422  28.967  1.00  0.00    -0.014 A 
BRANCH  31  32
ATOM     32  C   UNL A   1      37.959  30.097  29.768  1.00  0.00     0.031 A 
ATOM     33  C   UNL A   1      39.026  29.240  29.161  1.00  0.00     0.074 A 
ATOM     34  C   UNL A   1      38.102  30.630  30.996  1.00  0.00     0.049 A 
ATOM     35  N   UNL A   1      40.115  28.766  29.702  1.00  0.00    -0.248 NA
ATOM     36  C   UNL A   1      38.837  28.859  27.751  1.00  0.00     0.031 C 
ATOM     37  C   UNL A   1      37.150  31.541  31.640  1.00  0.00     0.029 A 
ATOM     38  N   UNL A   1      39.109  30.501  31.914  1.00  0.00    -0.354 N 
ATOM     39  C   UNL A   1      40.717  27.996  28.716  1.00  0.00     0.074 A 
ATOM     40  C   UNL A   1      39.865  28.051  27.549  1.00  0.00     0.031 C 
ATOM     41  C   UNL A   1      37.635  31.912  32.835  1.00  0.00     0.029 A 
ATOM     42  C   UNL A   1      38.891  31.210  33.071  1.00  0.00     0.049 A 
ATOM     43  H   UNL A   1      39.913  29.954  31.761  1.00  0.00     0.167 HD
ATOM     44  C   UNL A   1      41.880  27.307  28.788  1.00  0.00     0.037 A 
ATOM     45  C   UNL A   1      39.615  31.256  34.204  1.00  0.00     0.037 A 
ATOM     46  C   UNL A   1      42.719  27.291  29.957  1.00  0.00     0.049 A 
ATOM     47  C   UNL A   1      40.873  30.436  34.275  1.00  0.00     0.074 A 
ATOM     48  C   UNL A   1      43.912  26.622  30.156  1.00  0.00     0.029 A 
ATOM     49  N   UNL A   1      42.447  27.986  31.128  1.00  0.00    -0.354 N 
ATOM     50  N   UNL A   1      41.418  29.675  33.355  1.00  0.00    -0.248 NA
ATOM     51  C   UNL A   1      41.614  30.475  35.541  1.00  0.00     0.031 C 
ATOM     52  C   UNL A   1      44.334  26.871  31.467  1.00  0.00     0.029 A 
ATOM     53  C   UNL A   1      43.441  27.750  32.061  1.00  0.00     0.049 A 
ATOM     54  H   UNL A   1      41.662  28.562  31.274  1.00  0.00     0.167 HD
ATOM     55  C   UNL A   1      42.585  29.175  33.916  1.00  0.00     0.074 A 
ATOM     56  C   UNL A   1      42.672  29.731  35.252  1.00  0.00     0.031 C 
ATOM     57  C   UNL A   1      43.505  28.335  33.378  1.00  0.00     0.037 A 
BRANCH  44  58
ATOM     58  C   UNL A   1      42.262  26.477  27.595  1.00  0.00     0.057 A 
ATOM     59  C   UNL A   1      41.808  25.164  27.414  1.00  0.00     0.134 A 
ATOM     60  C   UNL A   1      43.123  27.000  26.621  1.00  0.00     0.134 A 
ATOM     61  F   UNL A   1      41.001  24.591  28.320  1.00  0.00    -0.206 F 
ATOM     62  C   UNL A   1      42.225  24.390  26.328  1.00  0.00     0.040 A 
ATOM     63  C   UNL A   1      43.520  26.247  25.514  1.00  0.00     0.040 A 
ATOM     64  F   UNL A   1      43.598  28.250  26.732  1.00  0.00    -0.206 F 
ATOM     65  C   UNL A   1      43.079  24.934  25.371  1.00  0.00     0.006 A 
ENDBRANCH  44  58
BRANCH  45  66
ATOM     66  C   UNL A   1      39.164  32.080  35.357  1.00  0.00     0.057 A 
ATOM     67  C   UNL A   1      38.346  31.544  36.359  1.00  0.00     0.134 A 
ATOM     68  C   UNL A   1      39.520  33.429  35.476  1.00  0.00     0.134 A 
ATOM     69  F   UNL A   1      37.954  30.262  36.296  1.00  0.00    -0.206 F 
ATOM     70  C   UNL A   1      37.880  32.322  37.422  1.00  0.00     0.040 A 
ATOM     71  C   UNL A   1      39.089  34.212  36.549  1.00  0.00     0.040 A 
ATOM     72  F   UNL A   1      40.306  34.008  34.556  1.00  0.00    -0.206 F 
ATOM     73  C   UNL A   1      38.256  33.660  37.521  1.00  0.00     0.006 A 
ENDBRANCH  45  66
BRANCH  57  74
ATOM     74  C   UNL A   1      44.713  28.031  34.215  1.00  0.00     0.057 A 
ATOM     75  C   UNL A   1      45.867  28.824  34.182  1.00  0.00     0.134 A 
ATOM     76  C   UNL A   1      44.707  26.931  35.083  1.00  0.00     0.134 A 
ATOM     77  F   UNL A   1      45.940  29.884  33.362  1.00  0.00    -0.206 F 
ATOM     78  C   UNL A   1      46.985  28.511  34.953  1.00  0.00     0.040 A 
ATOM     79  C   UNL A   1      45.807  26.630  35.886  1.00  0.00     0.040 A 
ATOM     80  F   UNL A   1      43.629  26.138  35.172  1.00  0.00    -0.206 F 
ATOM     81  C   UNL A   1      46.955  27.416  35.814  1.00  0.00     0.006 A 
ENDBRANCH  57  74
ENDBRANCH  31  32
ENDBRANCH  24  26
ENDBRANCH  23  24
ENDBRANCH  22  23
ENDBRANCH   1  22
TORSDOF 15
ENDMDL
MODEL 3
REMARK VINA RESULT:     -10.7      1.597      2.503
REMARK SMILES CC[C@@](C)(NS(=O)(=O)c1ccc(F)c(F)c1)C(=O)OCCOC(=O)c1ccc(-c2c3nc(c(-c4c(F)cccc4F)c4ccc([nH]4)c(-c4c(F)cccc4F)c4nc(c(-c5c(F)cccc5F)c5ccc2[nH]5)C=C4)C=C3)cc1
REMARK SMILES IDX 20 1 19 2 17 3 18 4 3 5 4 6 2 7 1 8 5 9 6 11 7 12 8 13 9 14
REMARK SMILES IDX 10 15 16 16 11 17 14 18 12 19 15 20 13 21 21 22 22 23 23 24
REMARK SMILES IDX 24 25 25 26 26 27 78 28 27 29 77 30 28 31 29 32 30 33 71 34
REMARK SMILES IDX 31 35 76 36 70 37 72 38 32 39 75 40 69 41 68 42 33 44 59 45
REMARK SMILES IDX 42 46 58 47 43 48 46 49 57 50 73 51 44 52 45 53 56 55 74 56
REMARK SMILES IDX 47 57 34 58 35 59 40 60 36 61 37 62 39 63 41 64 38 65 60 66
REMARK SMILES IDX 61 67 66 68 62 69 63 70 65 71 67 72 64 73 48 74 49 75 54 76
REMARK SMILES IDX 50 77 51 78 53 79 55 80 52 81
REMARK H PARENT 5 10 72 43 46 54
REMARK Flexibility Score: inf
ROOT
ATOM      1  C   UNL A   1      31.660  28.660  27.164  1.00  0.00     0.274 C 
ENDROOT
BRANCH   1   2
ATOM      2  O   UNL A   1      32.375  27.466  26.764  1.00  0.00    -0.461 OA
BRANCH   2   3
ATOM      3  C   UNL A   1      31.632  26.448  26.250  1.00  0.00     0.327 C 
ATOM      4  O   UNL A   1      30.441  26.326  26.504  1.00  0.00    -0.250 OA
BRANCH   3   5
ATOM      5  C   UNL A   1      32.461  25.483  25.345  1.00  0.00     0.127 C 
ATOM      6  C   UNL A   1      33.932  25.672  25.702  1.00  0.00     0.042 C 
BRANCH   5   7
ATOM      7  C   UNL A   1      32.100  23.971  25.611  1.00  0.00     0.032 C 
ATOM      8  C   UNL A   1      31.025  23.306  24.748  1.00  0.00     0.006 C 
ENDBRANCH   5   7
BRANCH   5   9
ATOM      9  N   UNL A   1      32.100  25.718  23.884  1.00  0.00    -0.194 NA
ATOM     10  H   UNL A   1      31.091  25.576  23.844  1.00  0.00     0.142 HD
BRANCH   9  11
ATOM     11  S   UNL A   1      32.372  27.091  22.945  1.00  0.00     0.241 S 
ATOM     12  O   UNL A   1      33.278  27.993  23.601  1.00  0.00    -0.207 OA
ATOM     13  O   UNL A   1      32.648  26.566  21.621  1.00  0.00    -0.207 OA
BRANCH  11  14
ATOM     14  C   UNL A   1      30.815  27.946  22.799  1.00  0.00     0.085 A 
ATOM     15  C   UNL A   1      29.627  27.343  23.191  1.00  0.00     0.025 A 
ATOM     16  C   UNL A   1      30.783  29.252  22.304  1.00  0.00     0.064 A 
ATOM     17  C   UNL A   1      28.434  28.065  23.255  1.00  0.00     0.044 A 
ATOM     18  C   UNL A   1      29.573  29.951  22.305  1.00  0.00     0.160 A 
ATOM     19  C   UNL A   1      28.415  29.375  22.815  1.00  0.00     0.158 A 
ATOM     20  F   UNL A   1      29.530  31.197  21.815  1.00  0.00    -0.204 F 
ATOM     21  F   UNL A   1      27.268  30.065  22.873  1.00  0.00    -0.204 F 
ENDBRANCH  11  14
ENDBRANCH   9  11
ENDBRANCH   5   9
ENDBRANCH   3   5
ENDBRANCH   2   3
ENDBRANCH   1   2
BRANCH   1  22
ATOM     22  C   UNL A   1      31.796  29.820  26.165  1.00  0.00     0.275 C 
BRANCH  22  23
ATOM     23  O   UNL A   1      33.123  30.362  26.140  1.00  0.00    -0.458 OA
BRANCH  23  24
ATOM     24  C   UNL A   1      33.375  31.381  26.992  1.00  0.00     0.338 C 
ATOM     25  O   UNL A   1      32.683  32.350  27.249  1.00  0.00    -0.246 OA
BRANCH  24  26
ATOM     26  C   UNL A   1      34.618  31.069  27.691  1.00  0.00     0.060 A 
ATOM     27  C   UNL A   1      34.832  29.742  28.044  1.00  0.00     0.016 A 
ATOM     28  C   UNL A   1      35.547  32.053  28.009  1.00  0.00     0.016 A 
ATOM     29  C   UNL A   1      35.965  29.371  28.738  1.00  0.00     0.010 A 
ATOM     30  C   UNL A   1      36.727  31.674  28.652  1.00  0.00     0.010 A 
ATOM     31  C   UNL A   1      36.934  30.333  29.027  1.00  0.00    -0.014 A 
BRANCH  31  32
ATOM     32  C   UNL A   1      38.133  29.918  29.783  1.00  0.00     0.031 A 
ATOM     33  C   UNL A   1      38.303  30.397  31.192  1.00  0.00     0.074 A 
ATOM     34  C   UNL A   1      39.012  29.067  29.222  1.00  0.00     0.049 A 
ATOM     35  N   UNL A   1      39.307  30.227  32.010  1.00  0.00    -0.248 NA
ATOM     36  C   UNL A   1      37.192  31.182  31.755  1.00  0.00     0.031 C 
ATOM     37  C   UNL A   1      38.889  28.484  27.882  1.00  0.00     0.029 A 
ATOM     38  N   UNL A   1      40.171  28.527  29.712  1.00  0.00    -0.354 N 
ATOM     39  C   UNL A   1      38.969  30.919  33.165  1.00  0.00     0.074 A 
ATOM     40  C   UNL A   1      37.676  31.527  32.937  1.00  0.00     0.031 C 
ATOM     41  C   UNL A   1      39.914  27.644  27.671  1.00  0.00     0.029 A 
ATOM     42  C   UNL A   1      40.802  27.687  28.826  1.00  0.00     0.049 A 
ATOM     43  H   UNL A   1      40.519  28.721  30.613  1.00  0.00     0.167 HD
ATOM     44  C   UNL A   1      39.681  31.032  34.309  1.00  0.00     0.037 A 
ATOM     45  C   UNL A   1      41.983  27.052  28.932  1.00  0.00     0.037 A 
ATOM     46  C   UNL A   1      40.955  30.394  34.514  1.00  0.00     0.049 A 
ATOM     47  C   UNL A   1      42.779  27.241  30.193  1.00  0.00     0.074 A 
ATOM     48  C   UNL A   1      41.778  30.443  35.624  1.00  0.00     0.029 A 
ATOM     49  N   UNL A   1      41.587  29.585  33.580  1.00  0.00    -0.354 N 
ATOM     50  N   UNL A   1      42.476  27.930  31.268  1.00  0.00    -0.248 NA
ATOM     51  C   UNL A   1      44.083  26.570  30.256  1.00  0.00     0.031 C 
ATOM     52  C   UNL A   1      42.933  29.706  35.339  1.00  0.00     0.029 A 
ATOM     53  C   UNL A   1      42.798  29.140  34.080  1.00  0.00     0.049 A 
ATOM     54  H   UNL A   1      41.227  29.360  32.691  1.00  0.00     0.167 HD
ATOM     55  C   UNL A   1      43.531  27.746  32.150  1.00  0.00     0.074 A 
ATOM     56  C   UNL A   1      44.476  26.869  31.486  1.00  0.00     0.031 C 
ATOM     57  C   UNL A   1      43.707  28.252  33.397  1.00  0.00     0.037 A 
BRANCH  44  58
ATOM     58  C   UNL A   1      39.121  31.920  35.383  1.00  0.00     0.057 A 
ATOM     59  C   UNL A   1      39.405  33.291  35.452  1.00  0.00     0.134 A 
ATOM     60  C   UNL A   1      38.299  31.384  36.383  1.00  0.00     0.134 A 
ATOM     61  F   UNL A   1      40.205  33.867  34.542  1.00  0.00    -0.206 F 
ATOM     62  C   UNL A   1      38.921  34.086  36.494  1.00  0.00     0.040 A 
ATOM     63  C   UNL A   1      37.783  32.175  37.411  1.00  0.00     0.040 A 
ATOM     64  F   UNL A   1      37.987  30.078  36.382  1.00  0.00    -0.206 F 
ATOM     65  C   UNL A   1      38.103  33.529  37.474  1.00  0.00     0.006 A 
ENDBRANCH  44  58
BRANCH  45  66
ATOM     66  C   UNL A   1      42.490  26.207  27.818  1.00  0.00     0.057 A 
ATOM     67  C   UNL A   1      42.240  24.830  27.778  1.00  0.00     0.134 A 
ATOM     68  C   UNL A   1      43.254  26.749  26.776  1.00  0.00     0.134 A 
ATOM     69  F   UNL A   1      41.530  24.243  28.753  1.00  0.00    -0.206 F 
ATOM     70  C   UNL A   1      42.751  24.020  26.759  1.00  0.00     0.040 A 
ATOM     71  C   UNL A   1      43.743  25.958  25.735  1.00  0.00     0.040 A 
ATOM     72  F   UNL A   1      43.527  28.062  26.748  1.00  0.00    -0.206 F 
ATOM     73  C   UNL A   1      43.501  24.586  25.731  1.00  0.00     0.006 A 
ENDBRANCH  45  66
BRANCH  57  74
ATOM     74  C   UNL A   1      44.931  27.805  34.141  1.00  0.00     0.057 A 
ATOM     75  C   UNL A   1      46.135  28.520  34.101  1.00  0.00     0.134 A 
ATOM     76  C   UNL A   1      44.892  26.644  34.925  1.00  0.00     0.134 A 
ATOM     77  F   UNL A   1      46.242  29.633  33.359  1.00  0.00    -0.206 F 
ATOM     78  C   UNL A   1      47.267  28.076  34.785  1.00  0.00     0.040 A 
ATOM     79  C   UNL A   1      46.007  26.211  35.641  1.00  0.00     0.040 A 
ATOM     80  F   UNL A   1      43.767  25.920  35.016  1.00  0.00    -0.206 F 
ATOM     81  C   UNL A   1      47.202  26.921  35.563  1.00  0.00     0.006 A 
ENDBRANCH  57  74
ENDBRANCH  31  32
ENDBRANCH  24  26
ENDBRANCH  23  24
ENDBRANCH  22  23
ENDBRANCH   1  22
TORSDOF 15
ENDMDL
