MODEL 1
REMARK VINA RESULT:     -12.0      0.000      0.000
REMARK SMILES CS(=O)(=O)c1ccc(-n2nc(C(F)(F)F)cc2-c2ccc(CC(=O)OCCOC(=O)c3ccc(-c4c5nc(c(-c6c(F)cccc6F)c6ccc([nH]6)c(-c6c(F)cccc6F)c6nc(c(-c7c(F)cccc7F)c7ccc4[nH]7)C=C6)C=C5)cc3)cc2)cc1
REMARK SMILES IDX 26 1 25 2 23 3 24 4 22 5 21 6 18 7 19 8 86 9 20 10 85 11
REMARK SMILES IDX 17 12 9 13 10 14 11 15 16 16 8 17 5 18 6 19 88 20 7 21 87 22
REMARK SMILES IDX 2 23 1 24 3 25 4 26 12 27 13 28 14 29 15 30 27 31 28 32
REMARK SMILES IDX 29 33 30 34 31 35 32 36 84 37 33 38 83 39 34 40 35 41 36 42
REMARK SMILES IDX 77 43 37 44 82 45 76 46 78 47 38 48 81 49 75 50 74 51 39 53
REMARK SMILES IDX 65 54 48 55 64 56 49 57 52 58 63 59 79 60 50 61 51 62 62 64
REMARK SMILES IDX 80 65 53 66 40 67 41 68 46 69 42 70 43 71 45 72 47 73 44 74
REMARK SMILES IDX 66 75 67 76 72 77 68 78 69 79 71 80 73 81 70 82 54 83 55 84
REMARK SMILES IDX 60 85 56 86 57 87 59 88 61 89 58 90
REMARK H PARENT 78 52 52 63
REMARK Flexibility Score: inf
ROOT
ATOM      1  C   UNL A   1      33.648  35.117  28.504  1.00  0.00     0.274 C 
ENDROOT
BRANCH   1   2
ATOM      2  O   UNL A   1      34.195  33.812  28.785  1.00  0.00    -0.462 OA
BRANCH   2   3
ATOM      3  C   UNL A   1      33.632  32.771  28.109  1.00  0.00     0.310 C 
ATOM      4  O   UNL A   1      32.763  32.901  27.251  1.00  0.00    -0.252 OA
BRANCH   3   5
ATOM      5  C   UNL A   1      34.085  31.408  28.588  1.00  0.00     0.158 C 
BRANCH   5   6
ATOM      6  C   UNL A   1      33.912  30.238  27.647  1.00  0.00    -0.037 A 
ATOM      7  C   UNL A   1      33.636  28.032  25.907  1.00  0.00     0.000 A 
ATOM      8  C   UNL A   1      34.900  28.551  26.194  1.00  0.00     0.010 A 
ATOM      9  C   UNL A   1      32.508  28.651  26.456  1.00  0.00     0.010 A 
ATOM     10  C   UNL A   1      35.027  29.657  27.034  1.00  0.00     0.005 A 
ATOM     11  C   UNL A   1      32.646  29.732  27.337  1.00  0.00     0.005 A 
BRANCH   7  12
ATOM     12  C   UNL A   1      33.510  26.863  25.041  1.00  0.00     0.075 A 
ATOM     13  N   UNL A   1      32.434  26.585  24.202  1.00  0.00    -0.233 N 
ATOM     14  N   UNL A   1      32.471  25.300  23.756  1.00  0.00    -0.163 NA
ATOM     15  C   UNL A   1      33.673  24.828  24.135  1.00  0.00     0.167 A 
ATOM     16  C   UNL A   1      34.339  25.762  24.962  1.00  0.00     0.064 A 
BRANCH  13  17
ATOM     17  C   UNL A   1      31.406  27.457  23.738  1.00  0.00     0.065 A 
ATOM     18  C   UNL A   1      29.403  29.203  22.867  1.00  0.00     0.067 A 
ATOM     19  C   UNL A   1      29.062  28.089  23.633  1.00  0.00     0.022 A 
ATOM     20  C   UNL A   1      30.740  29.457  22.541  1.00  0.00     0.022 A 
ATOM     21  C   UNL A   1      30.064  27.214  24.060  1.00  0.00     0.030 A 
ATOM     22  C   UNL A   1      31.744  28.597  22.995  1.00  0.00     0.030 A 
BRANCH  18  23
ATOM     23  S   UNL A   1      28.178  30.349  22.284  1.00  0.00     0.175 S 
ATOM     24  C   UNL A   1      28.856  31.977  22.448  1.00  0.00     0.163 C 
ATOM     25  O   UNL A   1      27.057  30.261  23.199  1.00  0.00    -0.224 OA
ATOM     26  O   UNL A   1      28.014  30.091  20.866  1.00  0.00    -0.224 OA
ENDBRANCH  18  23
ENDBRANCH  13  17
BRANCH  15  27
ATOM     27  C   UNL A   1      34.191  23.476  23.722  1.00  0.00     0.435 C 
ATOM     28  F   UNL A   1      33.518  22.943  22.669  1.00  0.00    -0.164 F 
ATOM     29  F   UNL A   1      35.506  23.520  23.375  1.00  0.00    -0.164 F 
ATOM     30  F   UNL A   1      34.097  22.571  24.737  1.00  0.00    -0.164 F 
ENDBRANCH  15  27
ENDBRANCH   7  12
ENDBRANCH   5   6
ENDBRANCH   3   5
ENDBRANCH   2   3
ENDBRANCH   1   2
BRANCH   1  31
ATOM     31  C   UNL A   1      33.100  35.835  29.736  1.00  0.00     0.275 C 
BRANCH  31  32
ATOM     32  O   UNL A   1      32.587  34.936  30.720  1.00  0.00    -0.458 OA
BRANCH  32  33
ATOM     33  C   UNL A   1      32.885  35.313  31.982  1.00  0.00     0.338 C 
ATOM     34  O   UNL A   1      32.370  36.221  32.612  1.00  0.00    -0.246 OA
BRANCH  33  35
ATOM     35  C   UNL A   1      34.074  34.620  32.476  1.00  0.00     0.060 A 
ATOM     36  C   UNL A   1      35.180  35.407  32.812  1.00  0.00     0.016 A 
ATOM     37  C   UNL A   1      34.186  33.243  32.266  1.00  0.00     0.016 A 
ATOM     38  C   UNL A   1      36.438  34.852  32.765  1.00  0.00     0.010 A 
ATOM     39  C   UNL A   1      35.445  32.687  32.215  1.00  0.00     0.010 A 
ATOM     40  C   UNL A   1      36.557  33.517  32.384  1.00  0.00    -0.014 A 
BRANCH  40  41
ATOM     41  C   UNL A   1      37.892  33.003  32.160  1.00  0.00     0.031 A 
ATOM     42  C   UNL A   1      38.787  33.024  33.342  1.00  0.00     0.074 A 
ATOM     43  C   UNL A   1      38.222  32.411  30.997  1.00  0.00     0.049 A 
ATOM     44  N   UNL A   1      39.969  33.536  33.448  1.00  0.00    -0.248 NA
ATOM     45  C   UNL A   1      38.254  32.466  34.594  1.00  0.00     0.031 C 
ATOM     46  C   UNL A   1      37.342  32.083  29.872  1.00  0.00     0.029 A 
ATOM     47  N   UNL A   1      39.405  31.847  30.642  1.00  0.00    -0.354 N 
ATOM     48  C   UNL A   1      40.400  33.222  34.733  1.00  0.00     0.074 A 
ATOM     49  C   UNL A   1      39.265  32.681  35.433  1.00  0.00     0.031 C 
ATOM     50  C   UNL A   1      37.959  31.174  29.086  1.00  0.00     0.029 A 
ATOM     51  C   UNL A   1      39.301  30.943  29.597  1.00  0.00     0.049 A 
ATOM     52  H   UNL A   1      40.257  32.060  31.086  1.00  0.00     0.167 HD
ATOM     53  C   UNL A   1      41.715  33.236  35.078  1.00  0.00     0.037 A 
ATOM     54  C   UNL A   1      40.220  30.009  29.252  1.00  0.00     0.037 A 
ATOM     55  C   UNL A   1      42.508  34.013  34.166  1.00  0.00     0.049 A 
ATOM     56  C   UNL A   1      41.512  30.390  29.879  1.00  0.00     0.074 A 
ATOM     57  C   UNL A   1      42.495  35.332  33.755  1.00  0.00     0.029 A 
ATOM     58  N   UNL A   1      43.302  33.352  33.261  1.00  0.00    -0.354 N 
ATOM     59  N   UNL A   1      42.241  31.403  29.502  1.00  0.00    -0.248 NA
ATOM     60  C   UNL A   1      41.792  29.891  31.220  1.00  0.00     0.031 C 
ATOM     61  C   UNL A   1      42.864  35.296  32.380  1.00  0.00     0.029 A 
ATOM     62  C   UNL A   1      43.104  33.962  32.049  1.00  0.00     0.049 A 
ATOM     63  H   UNL A   1      43.897  32.591  33.447  1.00  0.00     0.167 HD
ATOM     64  C   UNL A   1      42.759  31.928  30.677  1.00  0.00     0.074 A 
ATOM     65  C   UNL A   1      42.537  30.897  31.687  1.00  0.00     0.031 C 
ATOM     66  C   UNL A   1      43.056  33.256  30.793  1.00  0.00     0.037 A 
BRANCH  53  67
ATOM     67  C   UNL A   1      42.320  32.279  36.067  1.00  0.00     0.057 A 
ATOM     68  C   UNL A   1      43.075  32.772  37.143  1.00  0.00     0.134 A 
ATOM     69  C   UNL A   1      42.421  30.890  35.843  1.00  0.00     0.134 A 
ATOM     70  F   UNL A   1      43.083  34.082  37.434  1.00  0.00    -0.206 F 
ATOM     71  C   UNL A   1      43.907  31.950  37.911  1.00  0.00     0.040 A 
ATOM     72  C   UNL A   1      43.206  30.051  36.637  1.00  0.00     0.040 A 
ATOM     73  F   UNL A   1      41.850  30.293  34.789  1.00  0.00    -0.206 F 
ATOM     74  C   UNL A   1      43.976  30.584  37.657  1.00  0.00     0.006 A 
ENDBRANCH  53  67
BRANCH  54  75
ATOM     75  C   UNL A   1      39.994  28.685  28.630  1.00  0.00     0.057 A 
ATOM     76  C   UNL A   1      40.533  28.373  27.377  1.00  0.00     0.134 A 
ATOM     77  C   UNL A   1      39.437  27.607  29.345  1.00  0.00     0.134 A 
ATOM     78  F   UNL A   1      41.136  29.317  26.639  1.00  0.00    -0.206 F 
ATOM     79  C   UNL A   1      40.524  27.068  26.863  1.00  0.00     0.040 A 
ATOM     80  C   UNL A   1      39.403  26.305  28.837  1.00  0.00     0.040 A 
ATOM     81  F   UNL A   1      38.982  27.759  30.596  1.00  0.00    -0.206 F 
ATOM     82  C   UNL A   1      39.958  26.028  27.596  1.00  0.00     0.006 A 
ENDBRANCH  54  75
BRANCH  66  83
ATOM     83  C   UNL A   1      43.032  34.093  29.546  1.00  0.00     0.057 A 
ATOM     84  C   UNL A   1      41.894  34.781  29.098  1.00  0.00     0.134 A 
ATOM     85  C   UNL A   1      44.229  34.342  28.866  1.00  0.00     0.134 A 
ATOM     86  F   UNL A   1      40.731  34.699  29.755  1.00  0.00    -0.206 F 
ATOM     87  C   UNL A   1      41.933  35.632  27.990  1.00  0.00     0.040 A 
ATOM     88  C   UNL A   1      44.289  35.219  27.779  1.00  0.00     0.040 A 
ATOM     89  F   UNL A   1      45.372  33.775  29.279  1.00  0.00    -0.206 F 
ATOM     90  C   UNL A   1      43.136  35.857  27.330  1.00  0.00     0.006 A 
ENDBRANCH  66  83
ENDBRANCH  40  41
ENDBRANCH  33  35
ENDBRANCH  32  33
ENDBRANCH  31  32
ENDBRANCH   1  31
TORSDOF 16
ENDMDL
MODEL 2
REMARK VINA RESULT:     -11.9      5.740      9.971
REMARK SMILES CS(=O)(=O)c1ccc(-n2nc(C(F)(F)F)cc2-c2ccc(CC(=O)OCCOC(=O)c3ccc(-c4c5nc(c(-c6c(F)cccc6F)c6ccc([nH]6)c(-c6c(F)cccc6F)c6nc(c(-c7c(F)cccc7F)c7ccc4[nH]7)C=C6)C=C5)cc3)cc2)cc1
REMARK SMILES IDX 26 1 25 2 23 3 24 4 22 5 21 6 18 7 19 8 86 9 20 10 85 11
REMARK SMILES IDX 17 12 9 13 10 14 11 15 16 16 8 17 5 18 6 19 88 20 7 21 87 22
REMARK SMILES IDX 2 23 1 24 3 25 4 26 12 27 13 28 14 29 15 30 27 31 28 32
REMARK SMILES IDX 29 33 30 34 31 35 32 36 84 37 33 38 83 39 34 40 35 41 36 42
REMARK SMILES IDX 77 43 37 44 82 45 76 46 78 47 38 48 81 49 75 50 74 51 39 53
REMARK SMILES IDX 65 54 48 55 64 56 49 57 52 58 63 59 79 60 50 61 51 62 62 64
REMARK SMILES IDX 80 65 53 66 40 67 41 68 46 69 42 70 43 71 45 72 47 73 44 74
REMARK SMILES IDX 66 75 67 76 72 77 68 78 69 79 71 80 73 81 70 82 54 83 55 84
REMARK SMILES IDX 60 85 56 86 57 87 59 88 61 89 58 90
REMARK H PARENT 78 52 52 63
REMARK Flexibility Score: inf
ROOT
ATOM      1  C   UNL A   1      40.896  20.273  27.159  1.00  0.00     0.274 C 
ENDROOT
BRANCH   1   2
ATOM      2  O   UNL A   1      40.575  21.613  26.732  1.00  0.00    -0.462 OA
BRANCH   2   3
ATOM      3  C   UNL A   1      39.378  21.765  26.099  1.00  0.00     0.310 C 
ATOM      4  O   UNL A   1      38.712  20.831  25.656  1.00  0.00    -0.252 OA
BRANCH   3   5
ATOM      5  C   UNL A   1      38.977  23.207  25.874  1.00  0.00     0.158 C 
BRANCH   5   6
ATOM      6  C   UNL A   1      37.529  23.494  25.551  1.00  0.00    -0.037 A 
ATOM      7  C   UNL A   1      34.825  23.992  24.910  1.00  0.00     0.000 A 
ATOM      8  C   UNL A   1      35.723  23.592  23.920  1.00  0.00     0.010 A 
ATOM      9  C   UNL A   1      35.295  24.188  26.213  1.00  0.00     0.010 A 
ATOM     10  C   UNL A   1      37.063  23.372  24.238  1.00  0.00     0.005 A 
ATOM     11  C   UNL A   1      36.632  23.920  26.536  1.00  0.00     0.005 A 
BRANCH   7  12
ATOM     12  C   UNL A   1      33.419  24.203  24.575  1.00  0.00     0.075 A 
ATOM     13  N   UNL A   1      32.547  23.235  24.083  1.00  0.00    -0.233 N 
ATOM     14  N   UNL A   1      31.407  23.797  23.595  1.00  0.00    -0.163 NA
ATOM     15  C   UNL A   1      31.461  25.088  23.969  1.00  0.00     0.167 A 
ATOM     16  C   UNL A   1      32.712  25.387  24.558  1.00  0.00     0.064 A 
BRANCH  13  17
ATOM     17  C   UNL A   1      32.680  21.816  24.092  1.00  0.00     0.065 A 
ATOM     18  C   UNL A   1      32.992  19.037  24.097  1.00  0.00     0.067 A 
ATOM     19  C   UNL A   1      32.381  19.661  23.009  1.00  0.00     0.022 A 
ATOM     20  C   UNL A   1      33.457  19.793  25.178  1.00  0.00     0.022 A 
ATOM     21  C   UNL A   1      32.219  21.048  23.014  1.00  0.00     0.030 A 
ATOM     22  C   UNL A   1      33.321  21.185  25.166  1.00  0.00     0.030 A 
BRANCH  18  23
ATOM     23  S   UNL A   1      33.220  17.277  24.159  1.00  0.00     0.175 S 
ATOM     24  C   UNL A   1      34.866  16.977  24.739  1.00  0.00     0.163 C 
ATOM     25  O   UNL A   1      33.157  16.800  22.792  1.00  0.00    -0.224 OA
ATOM     26  O   UNL A   1      32.309  16.779  25.173  1.00  0.00    -0.224 OA
ENDBRANCH  18  23
ENDBRANCH  13  17
BRANCH  15  27
ATOM     27  C   UNL A   1      30.323  26.051  23.757  1.00  0.00     0.435 C 
ATOM     28  F   UNL A   1      29.138  25.435  23.506  1.00  0.00    -0.164 F 
ATOM     29  F   UNL A   1      30.134  26.860  24.834  1.00  0.00    -0.164 F 
ATOM     30  F   UNL A   1      30.558  26.878  22.699  1.00  0.00    -0.164 F 
ENDBRANCH  15  27
ENDBRANCH   7  12
ENDBRANCH   5   6
ENDBRANCH   3   5
ENDBRANCH   2   3
ENDBRANCH   1   2
BRANCH   1  31
ATOM     31  C   UNL A   1      42.044  19.634  26.377  1.00  0.00     0.275 C 
BRANCH  31  32
ATOM     32  O   UNL A   1      42.478  20.435  25.276  1.00  0.00    -0.458 OA
BRANCH  32  33
ATOM     33  C   UNL A   1      43.799  20.711  25.318  1.00  0.00     0.338 C 
ATOM     34  O   UNL A   1      44.710  19.903  25.380  1.00  0.00    -0.246 OA
BRANCH  33  35
ATOM     35  C   UNL A   1      44.038  22.145  25.481  1.00  0.00     0.060 A 
ATOM     36  C   UNL A   1      45.001  22.530  26.418  1.00  0.00     0.016 A 
ATOM     37  C   UNL A   1      43.091  23.045  24.984  1.00  0.00     0.016 A 
ATOM     38  C   UNL A   1      44.913  23.774  26.999  1.00  0.00     0.010 A 
ATOM     39  C   UNL A   1      43.000  24.290  25.567  1.00  0.00     0.010 A 
ATOM     40  C   UNL A   1      43.860  24.605  26.623  1.00  0.00    -0.014 A 
BRANCH  40  41
ATOM     41  C   UNL A   1      43.674  25.829  27.374  1.00  0.00     0.031 A 
ATOM     42  C   UNL A   1      44.700  26.874  27.148  1.00  0.00     0.074 A 
ATOM     43  C   UNL A   1      42.559  26.036  28.098  1.00  0.00     0.049 A 
ATOM     44  N   UNL A   1      45.418  27.501  28.021  1.00  0.00    -0.248 NA
ATOM     45  C   UNL A   1      45.022  27.205  25.751  1.00  0.00     0.031 C 
ATOM     46  C   UNL A   1      41.359  25.197  28.166  1.00  0.00     0.029 A 
ATOM     47  N   UNL A   1      42.213  27.132  28.822  1.00  0.00    -0.354 N 
ATOM     48  C   UNL A   1      46.166  28.426  27.300  1.00  0.00     0.074 A 
ATOM     49  C   UNL A   1      45.982  28.113  25.907  1.00  0.00     0.031 C 
ATOM     50  C   UNL A   1      40.346  25.925  28.681  1.00  0.00     0.029 A 
ATOM     51  C   UNL A   1      40.853  27.232  29.069  1.00  0.00     0.049 A 
ATOM     52  H   UNL A   1      42.868  27.794  29.141  1.00  0.00     0.167 HD
ATOM     53  C   UNL A   1      46.727  29.517  27.885  1.00  0.00     0.037 A 
ATOM     54  C   UNL A   1      40.191  28.345  29.466  1.00  0.00     0.037 A 
ATOM     55  C   UNL A   1      46.850  29.367  29.308  1.00  0.00     0.049 A 
ATOM     56  C   UNL A   1      41.194  29.301  30.005  1.00  0.00     0.074 A 
ATOM     57  C   UNL A   1      47.494  28.465  30.134  1.00  0.00     0.029 A 
ATOM     58  N   UNL A   1      45.973  30.047  30.117  1.00  0.00    -0.354 N 
ATOM     59  N   UNL A   1      41.826  29.143  31.135  1.00  0.00    -0.248 NA
ATOM     60  C   UNL A   1      41.813  30.236  29.075  1.00  0.00     0.031 C 
ATOM     61  C   UNL A   1      46.634  28.313  31.259  1.00  0.00     0.029 A 
ATOM     62  C   UNL A   1      45.538  29.152  31.060  1.00  0.00     0.049 A 
ATOM     63  H   UNL A   1      45.710  30.992  30.036  1.00  0.00     0.167 HD
ATOM     64  C   UNL A   1      43.109  29.614  30.895  1.00  0.00     0.074 A 
ATOM     65  C   UNL A   1      43.012  30.370  29.650  1.00  0.00     0.031 C 
ATOM     66  C   UNL A   1      44.187  29.111  31.565  1.00  0.00     0.037 A 
BRANCH  53  67
ATOM     67  C   UNL A   1      46.869  30.844  27.193  1.00  0.00     0.057 A 
ATOM     68  C   UNL A   1      48.117  31.485  27.164  1.00  0.00     0.134 A 
ATOM     69  C   UNL A   1      45.771  31.638  26.801  1.00  0.00     0.134 A 
ATOM     70  F   UNL A   1      49.231  30.841  27.544  1.00  0.00    -0.206 F 
ATOM     71  C   UNL A   1      48.257  32.834  26.816  1.00  0.00     0.040 A 
ATOM     72  C   UNL A   1      45.905  32.969  26.399  1.00  0.00     0.040 A 
ATOM     73  F   UNL A   1      44.508  31.201  26.883  1.00  0.00    -0.206 F 
ATOM     74  C   UNL A   1      47.148  33.581  26.434  1.00  0.00     0.006 A 
ENDBRANCH  53  67
BRANCH  54  75
ATOM     75  C   UNL A   1      38.792  28.733  29.177  1.00  0.00     0.057 A 
ATOM     76  C   UNL A   1      37.828  28.772  30.192  1.00  0.00     0.134 A 
ATOM     77  C   UNL A   1      38.411  29.299  27.947  1.00  0.00     0.134 A 
ATOM     78  F   UNL A   1      38.109  28.308  31.419  1.00  0.00    -0.206 F 
ATOM     79  C   UNL A   1      36.562  29.340  29.998  1.00  0.00     0.040 A 
ATOM     80  C   UNL A   1      37.144  29.853  27.732  1.00  0.00     0.040 A 
ATOM     81  F   UNL A   1      39.278  29.415  26.931  1.00  0.00    -0.206 F 
ATOM     82  C   UNL A   1      36.217  29.885  28.765  1.00  0.00     0.006 A 
ENDBRANCH  54  75
BRANCH  66  83
ATOM     83  C   UNL A   1      43.929  28.205  32.735  1.00  0.00     0.057 A 
ATOM     84  C   UNL A   1      43.793  26.813  32.619  1.00  0.00     0.134 A 
ATOM     85  C   UNL A   1      43.979  28.729  34.031  1.00  0.00     0.134 A 
ATOM     86  F   UNL A   1      43.853  26.207  31.427  1.00  0.00    -0.206 F 
ATOM     87  C   UNL A   1      43.654  25.989  33.738  1.00  0.00     0.040 A 
ATOM     88  C   UNL A   1      43.878  27.912  35.160  1.00  0.00     0.040 A 
ATOM     89  F   UNL A   1      44.177  30.042  34.222  1.00  0.00    -0.206 F 
ATOM     90  C   UNL A   1      43.702  26.537  35.015  1.00  0.00     0.006 A 
ENDBRANCH  66  83
ENDBRANCH  40  41
ENDBRANCH  33  35
ENDBRANCH  32  33
ENDBRANCH  31  32
ENDBRANCH   1  31
TORSDOF 16
ENDMDL
MODEL 3
REMARK VINA RESULT:     -11.3      5.155      9.634
REMARK SMILES CS(=O)(=O)c1ccc(-n2nc(C(F)(F)F)cc2-c2ccc(CC(=O)OCCOC(=O)c3ccc(-c4c5nc(c(-c6c(F)cccc6F)c6ccc([nH]6)c(-c6c(F)cccc6F)c6nc(c(-c7c(F)cccc7F)c7ccc4[nH]7)C=C6)C=C5)cc3)cc2)cc1
REMARK SMILES IDX 26 1 25 2 23 3 24 4 22 5 21 6 18 7 19 8 86 9 20 10 85 11
REMARK SMILES IDX 17 12 9 13 10 14 11 15 16 16 8 17 5 18 6 19 88 20 7 21 87 22
REMARK SMILES IDX 2 23 1 24 3 25 4 26 12 27 13 28 14 29 15 30 27 31 28 32
REMARK SMILES IDX 29 33 30 34 31 35 32 36 84 37 33 38 83 39 34 40 35 41 36 42
REMARK SMILES IDX 77 43 37 44 82 45 76 46 78 47 38 48 81 49 75 50 74 51 39 53
REMARK SMILES IDX 65 54 48 55 64 56 49 57 52 58 63 59 79 60 50 61 51 62 62 64
REMARK SMILES IDX 80 65 53 66 40 67 41 68 46 69 42 70 43 71 45 72 47 73 44 74
REMARK SMILES IDX 66 75 67 76 72 77 68 78 69 79 71 80 73 81 70 82 54 83 55 84
REMARK SMILES IDX 60 85 56 86 57 87 59 88 61 89 58 90
REMARK H PARENT 78 52 52 63
REMARK Flexibility Score: inf
ROOT
ATOM      1  C   UNL A   1      34.288  28.871  26.265  1.00  0.00     0.274 C 
ENDROOT
BRANCH   1   2
ATOM      2  O   UNL A   1      33.002  28.915  25.612  1.00  0.00    -0.462 OA
BRANCH   2   3
ATOM      3  C   UNL A   1      32.678  27.826  24.860  1.00  0.00     0.310 C 
ATOM      4  O   UNL A   1      31.528  27.425  24.693  1.00  0.00    -0.252 OA
BRANCH   3   5
ATOM      5  C   UNL A   1      33.874  27.065  24.331  1.00  0.00     0.158 C 
BRANCH   5   6
ATOM      6  C   UNL A   1      33.835  25.556  24.400  1.00  0.00    -0.037 A 
ATOM      7  C   UNL A   1      33.801  22.734  24.490  1.00  0.00     0.000 A 
ATOM      8  C   UNL A   1      34.063  23.398  23.291  1.00  0.00     0.010 A 
ATOM      9  C   UNL A   1      33.510  23.486  25.633  1.00  0.00     0.010 A 
ATOM     10  C   UNL A   1      34.052  24.793  23.247  1.00  0.00     0.005 A 
ATOM     11  C   UNL A   1      33.548  24.886  25.593  1.00  0.00     0.005 A 
BRANCH   7  12
ATOM     12  C   UNL A   1      33.831  21.274  24.533  1.00  0.00     0.075 A 
ATOM     13  N   UNL A   1      34.972  20.489  24.681  1.00  0.00    -0.233 N 
ATOM     14  N   UNL A   1      34.716  19.184  24.391  1.00  0.00    -0.163 NA
ATOM     15  C   UNL A   1      33.378  19.103  24.269  1.00  0.00     0.167 A 
ATOM     16  C   UNL A   1      32.793  20.390  24.323  1.00  0.00     0.064 A 
BRANCH  13  17
ATOM     17  C   UNL A   1      36.270  20.863  25.134  1.00  0.00     0.065 A 
ATOM     18  C   UNL A   1      38.812  21.566  26.065  1.00  0.00     0.067 A 
ATOM     19  C   UNL A   1      37.747  22.452  26.229  1.00  0.00     0.022 A 
ATOM     20  C   UNL A   1      38.613  20.327  25.447  1.00  0.00     0.022 A 
ATOM     21  C   UNL A   1      36.480  22.101  25.755  1.00  0.00     0.030 A 
ATOM     22  C   UNL A   1      37.338  19.966  25.001  1.00  0.00     0.030 A 
BRANCH  18  23
ATOM     23  S   UNL A   1      40.448  21.954  26.635  1.00  0.00     0.175 S 
ATOM     24  C   UNL A   1      41.052  20.539  27.511  1.00  0.00     0.163 C 
ATOM     25  O   UNL A   1      40.310  23.026  27.601  1.00  0.00    -0.224 OA
ATOM     26  O   UNL A   1      41.271  22.111  25.450  1.00  0.00    -0.224 OA
ENDBRANCH  18  23
ENDBRANCH  13  17
BRANCH  15  27
ATOM     27  C   UNL A   1      32.648  17.800  24.086  1.00  0.00     0.435 C 
ATOM     28  F   UNL A   1      31.910  17.442  25.169  1.00  0.00    -0.164 F 
ATOM     29  F   UNL A   1      31.804  17.835  23.020  1.00  0.00    -0.164 F 
ATOM     30  F   UNL A   1      33.511  16.770  23.852  1.00  0.00    -0.164 F 
ENDBRANCH  15  27
ENDBRANCH   7  12
ENDBRANCH   5   6
ENDBRANCH   3   5
ENDBRANCH   2   3
ENDBRANCH   1   2
BRANCH   1  31
ATOM     31  C   UNL A   1      34.447  29.897  27.386  1.00  0.00     0.275 C 
BRANCH  31  32
ATOM     32  O   UNL A   1      35.376  29.484  28.390  1.00  0.00    -0.458 OA
BRANCH  32  33
ATOM     33  C   UNL A   1      36.539  30.166  28.341  1.00  0.00     0.338 C 
ATOM     34  O   UNL A   1      36.674  31.378  28.355  1.00  0.00    -0.246 OA
BRANCH  33  35
ATOM     35  C   UNL A   1      37.666  29.276  28.065  1.00  0.00     0.060 A 
ATOM     36  C   UNL A   1      37.982  28.323  29.038  1.00  0.00     0.016 A 
ATOM     37  C   UNL A   1      38.568  29.625  27.055  1.00  0.00     0.016 A 
ATOM     38  C   UNL A   1      39.269  27.842  29.114  1.00  0.00     0.010 A 
ATOM     39  C   UNL A   1      39.857  29.147  27.132  1.00  0.00     0.010 A 
ATOM     40  C   UNL A   1      40.210  28.327  28.208  1.00  0.00    -0.014 A 
BRANCH  40  41
ATOM     41  C   UNL A   1      41.593  27.954  28.417  1.00  0.00     0.031 A 
ATOM     42  C   UNL A   1      42.041  26.742  27.691  1.00  0.00     0.074 A 
ATOM     43  C   UNL A   1      42.432  28.754  29.102  1.00  0.00     0.049 A 
ATOM     44  N   UNL A   1      42.617  25.686  28.164  1.00  0.00    -0.248 NA
ATOM     45  C   UNL A   1      41.729  26.669  26.255  1.00  0.00     0.031 C 
ATOM     46  C   UNL A   1      42.172  30.101  29.617  1.00  0.00     0.029 A 
ATOM     47  N   UNL A   1      43.754  28.574  29.353  1.00  0.00    -0.354 N 
ATOM     48  C   UNL A   1      42.892  24.882  27.063  1.00  0.00     0.074 A 
ATOM     49  C   UNL A   1      42.213  25.470  25.938  1.00  0.00     0.031 C 
ATOM     50  C   UNL A   1      43.352  30.698  29.892  1.00  0.00     0.029 A 
ATOM     51  C   UNL A   1      44.427  29.744  29.670  1.00  0.00     0.049 A 
ATOM     52  H   UNL A   1      44.194  27.695  29.314  1.00  0.00     0.167 HD
ATOM     53  C   UNL A   1      43.829  23.898  27.102  1.00  0.00     0.037 A 
ATOM     54  C   UNL A   1      45.769  29.926  29.648  1.00  0.00     0.037 A 
ATOM     55  C   UNL A   1      44.141  23.499  28.446  1.00  0.00     0.049 A 
ATOM     56  C   UNL A   1      46.409  28.585  29.657  1.00  0.00     0.074 A 
ATOM     57  C   UNL A   1      43.407  22.984  29.498  1.00  0.00     0.029 A 
ATOM     58  N   UNL A   1      45.329  23.915  28.994  1.00  0.00    -0.354 N 
ATOM     59  N   UNL A   1      46.426  27.786  30.688  1.00  0.00    -0.248 NA
ATOM     60  C   UNL A   1      46.670  27.946  28.374  1.00  0.00     0.031 C 
ATOM     61  C   UNL A   1      43.978  23.563  30.667  1.00  0.00     0.029 A 
ATOM     62  C   UNL A   1      45.039  24.370  30.255  1.00  0.00     0.049 A 
ATOM     63  H   UNL A   1      46.215  23.892  28.566  1.00  0.00     0.167 HD
ATOM     64  C   UNL A   1      46.278  26.514  30.155  1.00  0.00     0.074 A 
ATOM     65  C   UNL A   1      46.540  26.664  28.727  1.00  0.00     0.031 C 
ATOM     66  C   UNL A   1      45.675  25.513  30.862  1.00  0.00     0.037 A 
BRANCH  53  67
ATOM     67  C   UNL A   1      44.686  23.525  25.924  1.00  0.00     0.057 A 
ATOM     68  C   UNL A   1      44.808  22.179  25.548  1.00  0.00     0.134 A 
ATOM     69  C   UNL A   1      45.611  24.407  25.326  1.00  0.00     0.134 A 
ATOM     70  F   UNL A   1      44.004  21.242  26.074  1.00  0.00    -0.206 F 
ATOM     71  C   UNL A   1      45.808  21.734  24.676  1.00  0.00     0.040 A 
ATOM     72  C   UNL A   1      46.578  23.983  24.412  1.00  0.00     0.040 A 
ATOM     73  F   UNL A   1      45.691  25.699  25.670  1.00  0.00    -0.206 F 
ATOM     74  C   UNL A   1      46.699  22.638  24.107  1.00  0.00     0.006 A 
ENDBRANCH  53  67
BRANCH  54  75
ATOM     75  C   UNL A   1      46.521  31.169  29.365  1.00  0.00     0.057 A 
ATOM     76  C   UNL A   1      46.549  31.721  28.079  1.00  0.00     0.134 A 
ATOM     77  C   UNL A   1      47.045  31.978  30.392  1.00  0.00     0.134 A 
ATOM     78  F   UNL A   1      46.026  31.055  27.039  1.00  0.00    -0.206 F 
ATOM     79  C   UNL A   1      47.063  33.000  27.826  1.00  0.00     0.040 A 
ATOM     80  C   UNL A   1      47.579  33.248  30.152  1.00  0.00     0.040 A 
ATOM     81  F   UNL A   1      46.982  31.604  31.677  1.00  0.00    -0.206 F 
ATOM     82  C   UNL A   1      47.579  33.769  28.866  1.00  0.00     0.006 A 
ENDBRANCH  54  75
BRANCH  66  83
ATOM     83  C   UNL A   1      45.387  25.754  32.317  1.00  0.00     0.057 A 
ATOM     84  C   UNL A   1      46.304  25.478  33.343  1.00  0.00     0.134 A 
ATOM     85  C   UNL A   1      44.218  26.430  32.680  1.00  0.00     0.134 A 
ATOM     86  F   UNL A   1      47.501  24.941  33.076  1.00  0.00    -0.206 F 
ATOM     87  C   UNL A   1      46.043  25.807  34.675  1.00  0.00     0.040 A 
ATOM     88  C   UNL A   1      43.961  26.797  34.004  1.00  0.00     0.040 A 
ATOM     89  F   UNL A   1      43.325  26.789  31.745  1.00  0.00    -0.206 F 
ATOM     90  C   UNL A   1      44.870  26.475  35.009  1.00  0.00     0.006 A 
ENDBRANCH  66  83
ENDBRANCH  40  41
ENDBRANCH  33  35
ENDBRANCH  32  33
ENDBRANCH  31  32
ENDBRANCH   1  31
TORSDOF 16
ENDMDL
