MODEL 1
REMARK VINA RESULT:     -10.1      0.000      0.000
REMARK SMILES CCOc1ccc(-c2csc3ncn([C@H](C)C(=O)OCCOC(=O)c4ccc(-c5c6nc(c(-c7c(F)cccc7F)c7ccc([nH]7)c(-c7c(F)cccc7F)c7nc(c(-c8c(F)cccc8F)c8ccc5[nH]8)C=C7)C=C6)cc4)c(=O)c23)cc1
REMARK SMILES IDX 20 1 19 2 17 3 18 4 15 5 16 6 14 7 8 8 9 9 81 10 10 11 11 12
REMARK SMILES IDX 79 13 12 14 80 15 13 16 7 17 4 18 5 19 83 20 6 21 82 22 3 23
REMARK SMILES IDX 2 24 1 25 21 26 22 27 23 28 24 29 25 30 26 31 78 32 27 33
REMARK SMILES IDX 77 34 28 35 29 36 30 37 71 38 31 39 76 40 70 41 72 42 32 43
REMARK SMILES IDX 75 44 69 45 68 46 33 48 59 49 42 50 58 51 43 52 46 53 57 54
REMARK SMILES IDX 73 55 44 56 45 57 56 59 74 60 47 61 34 62 35 63 40 64 36 65
REMARK SMILES IDX 37 66 39 67 41 68 38 69 60 70 61 71 66 72 62 73 63 74 65 75
REMARK SMILES IDX 67 76 64 77 48 78 49 79 54 80 50 81 51 82 53 83 55 84 52 85
REMARK H PARENT 72 47 46 58
REMARK Flexibility Score: inf
ROOT
ATOM      1  C   UNL A   1      34.160  34.646  29.283  1.00  0.00     0.274 C 
ENDROOT
BRANCH   1   2
ATOM      2  O   UNL A   1      35.222  34.168  30.132  1.00  0.00    -0.461 OA
BRANCH   2   3
ATOM      3  C   UNL A   1      34.858  33.910  31.421  1.00  0.00     0.329 C 
ATOM      4  O   UNL A   1      34.101  32.998  31.743  1.00  0.00    -0.250 OA
BRANCH   3   5
ATOM      5  C   UNL A   1      35.372  34.960  32.411  1.00  0.00     0.198 C 
ATOM      6  C   UNL A   1      34.327  35.771  33.172  1.00  0.00     0.044 C 
BRANCH   5   7
ATOM      7  N   UNL A   1      36.323  34.241  33.256  1.00  0.00    -0.284 N 
ATOM      8  C   UNL A   1      39.906  33.068  33.441  1.00  0.00     0.007 A 
ATOM      9  C   UNL A   1      40.344  32.211  34.436  1.00  0.00     0.076 A 
ATOM     10  C   UNL A   1      38.531  33.422  33.647  1.00  0.00     0.085 A 
ATOM     11  S   UNL A   1      39.106  31.782  35.533  1.00  0.00    -0.123 S 
ATOM     12  C   UNL A   1      37.962  32.721  34.691  1.00  0.00     0.131 A 
ATOM     13  C   UNL A   1      37.669  34.307  32.890  1.00  0.00     0.263 A 
ATOM     14  N   UNL A   1      36.653  32.705  35.042  1.00  0.00    -0.227 NA
ATOM     15  O   UNL A   1      38.085  35.061  32.014  1.00  0.00    -0.268 OA
ATOM     16  C   UNL A   1      35.895  33.432  34.290  1.00  0.00     0.204 A 
BRANCH   8  17
ATOM     17  C   UNL A   1      40.785  33.411  32.325  1.00  0.00    -0.016 A 
ATOM     18  C   UNL A   1      42.537  34.090  30.243  1.00  0.00     0.119 A 
ATOM     19  C   UNL A   1      41.522  33.161  30.026  1.00  0.00     0.047 A 
ATOM     20  C   UNL A   1      42.663  34.704  31.485  1.00  0.00     0.047 A 
ATOM     21  C   UNL A   1      40.645  32.823  31.064  1.00  0.00     0.012 A 
ATOM     22  C   UNL A   1      41.806  34.351  32.526  1.00  0.00     0.012 A 
BRANCH  18  23
ATOM     23  O   UNL A   1      43.306  34.468  29.177  1.00  0.00    -0.494 OA
BRANCH  23  24
ATOM     24  C   UNL A   1      42.594  35.230  28.193  1.00  0.00     0.226 C 
ATOM     25  C   UNL A   1      43.200  35.078  26.807  1.00  0.00     0.049 C 
ENDBRANCH  23  24
ENDBRANCH  18  23
ENDBRANCH   8  17
ENDBRANCH   5   7
ENDBRANCH   3   5
ENDBRANCH   2   3
ENDBRANCH   1   2
BRANCH   1  26
ATOM     26  C   UNL A   1      33.998  33.784  28.034  1.00  0.00     0.275 C 
BRANCH  26  27
ATOM     27  O   UNL A   1      35.192  33.073  27.700  1.00  0.00    -0.458 OA
BRANCH  27  28
ATOM     28  C   UNL A   1      35.048  31.730  27.709  1.00  0.00     0.338 C 
ATOM     29  O   UNL A   1      34.115  31.089  27.253  1.00  0.00    -0.246 OA
BRANCH  28  30
ATOM     30  C   UNL A   1      36.076  31.098  28.530  1.00  0.00     0.060 A 
ATOM     31  C   UNL A   1      37.166  31.894  28.907  1.00  0.00     0.016 A 
ATOM     32  C   UNL A   1      36.107  29.702  28.613  1.00  0.00     0.016 A 
ATOM     33  C   UNL A   1      38.359  31.276  29.206  1.00  0.00     0.010 A 
ATOM     34  C   UNL A   1      37.304  29.089  28.894  1.00  0.00     0.010 A 
ATOM     35  C   UNL A   1      38.429  29.884  29.117  1.00  0.00    -0.014 A 
BRANCH  35  36
ATOM     36  C   UNL A   1      39.713  29.253  29.330  1.00  0.00     0.031 A 
ATOM     37  C   UNL A   1      40.056  29.043  30.755  1.00  0.00     0.074 A 
ATOM     38  C   UNL A   1      40.438  28.756  28.311  1.00  0.00     0.049 A 
ATOM     39  N   UNL A   1      41.090  29.470  31.400  1.00  0.00    -0.248 NA
ATOM     40  C   UNL A   1      39.061  28.353  31.592  1.00  0.00     0.031 C 
ATOM     41  C   UNL A   1      40.043  28.631  26.905  1.00  0.00     0.029 A 
ATOM     42  N   UNL A   1      41.643  28.128  28.352  1.00  0.00    -0.354 N 
ATOM     43  C   UNL A   1      40.970  28.943  32.682  1.00  0.00     0.074 A 
ATOM     44  C   UNL A   1      39.641  28.404  32.790  1.00  0.00     0.031 C 
ATOM     45  C   UNL A   1      40.884  27.771  26.288  1.00  0.00     0.029 A 
ATOM     46  C   UNL A   1      41.927  27.379  27.221  1.00  0.00     0.049 A 
ATOM     47  H   UNL A   1      42.258  28.199  29.117  1.00  0.00     0.167 HD
ATOM     48  C   UNL A   1      42.055  28.766  33.480  1.00  0.00     0.037 A 
ATOM     49  C   UNL A   1      42.896  26.437  27.108  1.00  0.00     0.037 A 
ATOM     50  C   UNL A   1      43.163  29.586  33.068  1.00  0.00     0.049 A 
ATOM     51  C   UNL A   1      43.864  26.651  28.214  1.00  0.00     0.074 A 
ATOM     52  C   UNL A   1      43.355  30.945  32.901  1.00  0.00     0.029 A 
ATOM     53  N   UNL A   1      44.210  28.982  32.420  1.00  0.00    -0.354 N 
ATOM     54  N   UNL A   1      44.681  27.662  28.293  1.00  0.00    -0.248 NA
ATOM     55  C   UNL A   1      43.641  25.935  29.462  1.00  0.00     0.031 C 
ATOM     56  C   UNL A   1      44.216  31.062  31.772  1.00  0.00     0.029 A 
ATOM     57  C   UNL A   1      44.526  29.771  31.343  1.00  0.00     0.049 A 
ATOM     58  H   UNL A   1      44.653  28.142  32.678  1.00  0.00     0.167 HD
ATOM     59  C   UNL A   1      44.730  27.974  29.644  1.00  0.00     0.074 A 
ATOM     60  C   UNL A   1      44.164  26.812  30.322  1.00  0.00     0.031 C 
ATOM     61  C   UNL A   1      44.955  29.253  30.066  1.00  0.00     0.037 A 
BRANCH  48  62
ATOM     62  C   UNL A   1      42.213  27.579  34.393  1.00  0.00     0.057 A 
ATOM     63  C   UNL A   1      41.892  27.709  35.753  1.00  0.00     0.134 A 
ATOM     64  C   UNL A   1      42.935  26.414  34.053  1.00  0.00     0.134 A 
ATOM     65  F   UNL A   1      41.233  28.787  36.204  1.00  0.00    -0.206 F 
ATOM     66  C   UNL A   1      42.311  26.778  36.712  1.00  0.00     0.040 A 
ATOM     67  C   UNL A   1      43.309  25.453  34.992  1.00  0.00     0.040 A 
ATOM     68  F   UNL A   1      43.408  26.197  32.818  1.00  0.00    -0.206 F 
ATOM     69  C   UNL A   1      43.025  25.648  36.332  1.00  0.00     0.006 A 
ENDBRANCH  48  62
BRANCH  49  70
ATOM     70  C   UNL A   1      42.890  25.195  26.302  1.00  0.00     0.057 A 
ATOM     71  C   UNL A   1      43.878  24.964  25.333  1.00  0.00     0.134 A 
ATOM     72  C   UNL A   1      42.086  24.090  26.636  1.00  0.00     0.134 A 
ATOM     73  F   UNL A   1      44.720  25.943  24.972  1.00  0.00    -0.206 F 
ATOM     74  C   UNL A   1      44.075  23.703  24.755  1.00  0.00     0.040 A 
ATOM     75  C   UNL A   1      42.263  22.831  26.055  1.00  0.00     0.040 A 
ATOM     76  F   UNL A   1      41.160  24.167  27.602  1.00  0.00    -0.206 F 
ATOM     77  C   UNL A   1      43.273  22.629  25.123  1.00  0.00     0.006 A 
ENDBRANCH  49  70
BRANCH  61  78
ATOM     78  C   UNL A   1      45.432  30.250  29.048  1.00  0.00     0.057 A 
ATOM     79  C   UNL A   1      44.580  31.007  28.229  1.00  0.00     0.134 A 
ATOM     80  C   UNL A   1      46.798  30.549  28.982  1.00  0.00     0.134 A 
ATOM     81  F   UNL A   1      43.249  30.874  28.300  1.00  0.00    -0.206 F 
ATOM     82  C   UNL A   1      45.070  31.970  27.342  1.00  0.00     0.040 A 
ATOM     83  C   UNL A   1      47.298  31.534  28.128  1.00  0.00     0.040 A 
ATOM     84  F   UNL A   1      47.669  29.911  29.780  1.00  0.00    -0.206 F 
ATOM     85  C   UNL A   1      46.433  32.239  27.293  1.00  0.00     0.006 A 
ENDBRANCH  61  78
ENDBRANCH  35  36
ENDBRANCH  28  30
ENDBRANCH  27  28
ENDBRANCH  26  27
ENDBRANCH   1  26
TORSDOF 15
ENDMDL
MODEL 2
REMARK VINA RESULT:      -9.3      4.872      9.842
REMARK SMILES CCOc1ccc(-c2csc3ncn([C@H](C)C(=O)OCCOC(=O)c4ccc(-c5c6nc(c(-c7c(F)cccc7F)c7ccc([nH]7)c(-c7c(F)cccc7F)c7nc(c(-c8c(F)cccc8F)c8ccc5[nH]8)C=C7)C=C6)cc4)c(=O)c23)cc1
REMARK SMILES IDX 20 1 19 2 17 3 18 4 15 5 16 6 14 7 8 8 9 9 81 10 10 11 11 12
REMARK SMILES IDX 79 13 12 14 80 15 13 16 7 17 4 18 5 19 83 20 6 21 82 22 3 23
REMARK SMILES IDX 2 24 1 25 21 26 22 27 23 28 24 29 25 30 26 31 78 32 27 33
REMARK SMILES IDX 77 34 28 35 29 36 30 37 71 38 31 39 76 40 70 41 72 42 32 43
REMARK SMILES IDX 75 44 69 45 68 46 33 48 59 49 42 50 58 51 43 52 46 53 57 54
REMARK SMILES IDX 73 55 44 56 45 57 56 59 74 60 47 61 34 62 35 63 40 64 36 65
REMARK SMILES IDX 37 66 39 67 41 68 38 69 60 70 61 71 66 72 62 73 63 74 65 75
REMARK SMILES IDX 67 76 64 77 48 78 49 79 54 80 50 81 51 82 53 83 55 84 52 85
REMARK H PARENT 72 47 46 58
REMARK Flexibility Score: inf
ROOT
ATOM      1  C   UNL A   1      38.953  21.245  25.816  1.00  0.00     0.274 C 
ENDROOT
BRANCH   1   2
ATOM      2  O   UNL A   1      37.705  21.522  25.151  1.00  0.00    -0.461 OA
BRANCH   2   3
ATOM      3  C   UNL A   1      37.181  22.757  25.396  1.00  0.00     0.329 C 
ATOM      4  O   UNL A   1      37.289  23.340  26.471  1.00  0.00    -0.250 OA
BRANCH   3   5
ATOM      5  C   UNL A   1      36.320  23.281  24.243  1.00  0.00     0.198 C 
ATOM      6  C   UNL A   1      36.567  22.685  22.860  1.00  0.00     0.044 C 
BRANCH   5   7
ATOM      7  N   UNL A   1      34.944  23.164  24.722  1.00  0.00    -0.284 N 
ATOM      8  C   UNL A   1      31.952  25.183  25.828  1.00  0.00     0.007 A 
ATOM      9  C   UNL A   1      30.841  24.589  26.399  1.00  0.00     0.076 A 
ATOM     10  C   UNL A   1      32.906  24.189  25.424  1.00  0.00     0.085 A 
ATOM     11  S   UNL A   1      30.986  22.891  26.521  1.00  0.00    -0.123 S 
ATOM     12  C   UNL A   1      32.540  22.921  25.827  1.00  0.00     0.131 A 
ATOM     13  C   UNL A   1      34.186  24.335  24.761  1.00  0.00     0.263 A 
ATOM     14  N   UNL A   1      33.289  21.793  25.744  1.00  0.00    -0.227 NA
ATOM     15  O   UNL A   1      34.567  25.392  24.263  1.00  0.00    -0.268 OA
ATOM     16  C   UNL A   1      34.462  21.974  25.233  1.00  0.00     0.204 A 
BRANCH   8  17
ATOM     17  C   UNL A   1      32.072  26.639  25.791  1.00  0.00    -0.016 A 
ATOM     18  C   UNL A   1      32.389  29.425  25.743  1.00  0.00     0.119 A 
ATOM     19  C   UNL A   1      31.423  28.819  24.943  1.00  0.00     0.047 A 
ATOM     20  C   UNL A   1      33.177  28.650  26.588  1.00  0.00     0.047 A 
ATOM     21  C   UNL A   1      31.262  27.428  24.968  1.00  0.00     0.012 A 
ATOM     22  C   UNL A   1      33.034  27.264  26.597  1.00  0.00     0.012 A 
BRANCH  18  23
ATOM     23  O   UNL A   1      32.444  30.791  25.767  1.00  0.00    -0.494 OA
BRANCH  23  24
ATOM     24  C   UNL A   1      31.372  31.400  26.497  1.00  0.00     0.226 C 
ATOM     25  C   UNL A   1      31.719  32.810  26.951  1.00  0.00     0.049 C 
ENDBRANCH  23  24
ENDBRANCH  18  23
ENDBRANCH   8  17
ENDBRANCH   5   7
ENDBRANCH   3   5
ENDBRANCH   2   3
ENDBRANCH   1   2
BRANCH   1  26
ATOM     26  C   UNL A   1      39.534  19.897  25.400  1.00  0.00     0.275 C 
BRANCH  26  27
ATOM     27  O   UNL A   1      40.581  19.460  26.270  1.00  0.00    -0.458 OA
BRANCH  27  28
ATOM     28  C   UNL A   1      41.820  19.771  25.833  1.00  0.00     0.338 C 
ATOM     29  O   UNL A   1      42.471  19.177  24.988  1.00  0.00    -0.246 OA
BRANCH  28  30
ATOM     30  C   UNL A   1      42.413  20.827  26.647  1.00  0.00     0.060 A 
ATOM     31  C   UNL A   1      42.011  20.897  27.988  1.00  0.00     0.016 A 
ATOM     32  C   UNL A   1      43.060  21.888  26.006  1.00  0.00     0.016 A 
ATOM     33  C   UNL A   1      42.104  22.106  28.640  1.00  0.00     0.010 A 
ATOM     34  C   UNL A   1      43.136  23.098  26.653  1.00  0.00     0.010 A 
ATOM     35  C   UNL A   1      42.593  23.208  27.934  1.00  0.00    -0.014 A 
BRANCH  35  36
ATOM     36  C   UNL A   1      42.588  24.494  28.595  1.00  0.00     0.031 A 
ATOM     37  C   UNL A   1      41.394  25.320  28.306  1.00  0.00     0.074 A 
ATOM     38  C   UNL A   1      43.509  24.820  29.520  1.00  0.00     0.049 A 
ATOM     39  N   UNL A   1      41.347  26.509  27.804  1.00  0.00    -0.248 NA
ATOM     40  C   UNL A   1      40.077  24.695  28.507  1.00  0.00     0.031 C 
ATOM     41  C   UNL A   1      44.539  23.957  30.106  1.00  0.00     0.029 A 
ATOM     42  N   UNL A   1      43.627  25.971  30.234  1.00  0.00    -0.354 N 
ATOM     43  C   UNL A   1      40.000  26.857  27.801  1.00  0.00     0.074 A 
ATOM     44  C   UNL A   1      39.258  25.659  28.090  1.00  0.00     0.031 C 
ATOM     45  C   UNL A   1      45.012  24.538  31.231  1.00  0.00     0.029 A 
ATOM     46  C   UNL A   1      44.402  25.849  31.377  1.00  0.00     0.049 A 
ATOM     47  H   UNL A   1      43.200  26.815  29.962  1.00  0.00     0.167 HD
ATOM     48  C   UNL A   1      39.603  28.155  27.803  1.00  0.00     0.037 A 
ATOM     49  C   UNL A   1      44.451  26.730  32.407  1.00  0.00     0.037 A 
ATOM     50  C   UNL A   1      40.642  29.035  27.339  1.00  0.00     0.049 A 
ATOM     51  C   UNL A   1      43.903  28.023  31.922  1.00  0.00     0.074 A 
ATOM     52  C   UNL A   1      41.378  29.136  26.174  1.00  0.00     0.029 A 
ATOM     53  N   UNL A   1      41.310  29.795  28.265  1.00  0.00    -0.354 N 
ATOM     54  N   UNL A   1      44.499  28.800  31.064  1.00  0.00    -0.248 NA
ATOM     55  C   UNL A   1      42.478  28.264  32.093  1.00  0.00     0.031 C 
ATOM     56  C   UNL A   1      42.680  29.542  26.590  1.00  0.00     0.029 A 
ATOM     57  C   UNL A   1      42.647  29.699  27.975  1.00  0.00     0.049 A 
ATOM     58  H   UNL A   1      40.907  30.313  28.998  1.00  0.00     0.167 HD
ATOM     59  C   UNL A   1      43.475  29.317  30.284  1.00  0.00     0.074 A 
ATOM     60  C   UNL A   1      42.252  29.044  31.033  1.00  0.00     0.031 C 
ATOM     61  C   UNL A   1      43.685  29.658  28.978  1.00  0.00     0.037 A 
BRANCH  48  62
ATOM     62  C   UNL A   1      38.407  28.643  28.579  1.00  0.00     0.057 A 
ATOM     63  C   UNL A   1      37.520  29.549  27.979  1.00  0.00     0.134 A 
ATOM     64  C   UNL A   1      38.256  28.484  29.974  1.00  0.00     0.134 A 
ATOM     65  F   UNL A   1      37.585  29.808  26.664  1.00  0.00    -0.206 F 
ATOM     66  C   UNL A   1      36.591  30.289  28.722  1.00  0.00     0.040 A 
ATOM     67  C   UNL A   1      37.296  29.174  30.715  1.00  0.00     0.040 A 
ATOM     68  F   UNL A   1      39.092  27.738  30.708  1.00  0.00    -0.206 F 
ATOM     69  C   UNL A   1      36.480  30.104  30.095  1.00  0.00     0.006 A 
ENDBRANCH  48  62
BRANCH  49  70
ATOM     70  C   UNL A   1      44.659  26.458  33.847  1.00  0.00     0.057 A 
ATOM     71  C   UNL A   1      45.838  26.862  34.491  1.00  0.00     0.134 A 
ATOM     72  C   UNL A   1      43.611  26.041  34.689  1.00  0.00     0.134 A 
ATOM     73  F   UNL A   1      46.882  27.313  33.781  1.00  0.00    -0.206 F 
ATOM     74  C   UNL A   1      45.957  26.880  35.887  1.00  0.00     0.040 A 
ATOM     75  C   UNL A   1      43.723  26.039  36.082  1.00  0.00     0.040 A 
ATOM     76  F   UNL A   1      42.412  25.705  34.195  1.00  0.00    -0.206 F 
ATOM     77  C   UNL A   1      44.894  26.477  36.687  1.00  0.00     0.006 A 
ENDBRANCH  49  70
BRANCH  61  78
ATOM     78  C   UNL A   1      45.106  29.731  28.495  1.00  0.00     0.057 A 
ATOM     79  C   UNL A   1      45.834  28.628  28.022  1.00  0.00     0.134 A 
ATOM     80  C   UNL A   1      45.720  30.984  28.386  1.00  0.00     0.134 A 
ATOM     81  F   UNL A   1      45.291  27.404  27.981  1.00  0.00    -0.206 F 
ATOM     82  C   UNL A   1      47.133  28.759  27.523  1.00  0.00     0.040 A 
ATOM     83  C   UNL A   1      47.003  31.134  27.854  1.00  0.00     0.040 A 
ATOM     84  F   UNL A   1      45.063  32.093  28.759  1.00  0.00    -0.206 F 
ATOM     85  C   UNL A   1      47.719  30.016  27.434  1.00  0.00     0.006 A 
ENDBRANCH  61  78
ENDBRANCH  35  36
ENDBRANCH  28  30
ENDBRANCH  27  28
ENDBRANCH  26  27
ENDBRANCH   1  26
TORSDOF 15
ENDMDL
MODEL 3
REMARK VINA RESULT:      -9.2      4.909      9.749
REMARK SMILES CCOc1ccc(-c2csc3ncn([C@H](C)C(=O)OCCOC(=O)c4ccc(-c5c6nc(c(-c7c(F)cccc7F)c7ccc([nH]7)c(-c7c(F)cccc7F)c7nc(c(-c8c(F)cccc8F)c8ccc5[nH]8)C=C7)C=C6)cc4)c(=O)c23)cc1
REMARK SMILES IDX 20 1 19 2 17 3 18 4 15 5 16 6 14 7 8 8 9 9 81 10 10 11 11 12
REMARK SMILES IDX 79 13 12 14 80 15 13 16 7 17 4 18 5 19 83 20 6 21 82 22 3 23
REMARK SMILES IDX 2 24 1 25 21 26 22 27 23 28 24 29 25 30 26 31 78 32 27 33
REMARK SMILES IDX 77 34 28 35 29 36 30 37 71 38 31 39 76 40 70 41 72 42 32 43
REMARK SMILES IDX 75 44 69 45 68 46 33 48 59 49 42 50 58 51 43 52 46 53 57 54
REMARK SMILES IDX 73 55 44 56 45 57 56 59 74 60 47 61 34 62 35 63 40 64 36 65
REMARK SMILES IDX 37 66 39 67 41 68 38 69 60 70 61 71 66 72 62 73 63 74 65 75
REMARK SMILES IDX 67 76 64 77 48 78 49 79 54 80 50 81 51 82 53 83 55 84 52 85
REMARK H PARENT 72 47 46 58
REMARK Flexibility Score: inf
ROOT
ATOM      1  C   UNL A   1      33.826  30.898  27.082  1.00  0.00     0.274 C 
ENDROOT
BRANCH   1   2
ATOM      2  O   UNL A   1      33.181  29.719  27.603  1.00  0.00    -0.461 OA
BRANCH   2   3
ATOM      3  C   UNL A   1      33.600  28.542  27.057  1.00  0.00     0.329 C 
ATOM      4  O   UNL A   1      34.727  28.368  26.600  1.00  0.00    -0.250 OA
BRANCH   3   5
ATOM      5  C   UNL A   1      32.480  27.504  26.938  1.00  0.00     0.198 C 
ATOM      6  C   UNL A   1      31.141  27.846  27.583  1.00  0.00     0.044 C 
BRANCH   5   7
ATOM      7  N   UNL A   1      32.411  27.193  25.512  1.00  0.00    -0.284 N 
ATOM      8  C   UNL A   1      32.884  24.412  23.003  1.00  0.00     0.007 A 
ATOM      9  C   UNL A   1      32.868  24.648  21.639  1.00  0.00     0.076 A 
ATOM     10  C   UNL A   1      32.599  25.617  23.728  1.00  0.00     0.085 A 
ATOM     11  S   UNL A   1      32.604  26.292  21.254  1.00  0.00    -0.123 S 
ATOM     12  C   UNL A   1      32.520  26.719  22.900  1.00  0.00     0.131 A 
ATOM     13  C   UNL A   1      32.478  25.846  25.154  1.00  0.00     0.263 A 
ATOM     14  N   UNL A   1      32.420  28.017  23.279  1.00  0.00    -0.227 NA
ATOM     15  O   UNL A   1      32.423  24.935  25.977  1.00  0.00    -0.268 OA
ATOM     16  C   UNL A   1      32.408  28.194  24.559  1.00  0.00     0.204 A 
BRANCH   8  17
ATOM     17  C   UNL A   1      33.257  23.097  23.519  1.00  0.00    -0.016 A 
ATOM     18  C   UNL A   1      33.917  20.535  24.449  1.00  0.00     0.119 A 
ATOM     19  C   UNL A   1      34.832  21.578  24.570  1.00  0.00     0.047 A 
ATOM     20  C   UNL A   1      32.664  20.771  23.894  1.00  0.00     0.047 A 
ATOM     21  C   UNL A   1      34.503  22.859  24.108  1.00  0.00     0.012 A 
ATOM     22  C   UNL A   1      32.343  22.039  23.412  1.00  0.00     0.012 A 
BRANCH  18  23
ATOM     23  O   UNL A   1      34.237  19.327  25.004  1.00  0.00    -0.494 OA
BRANCH  23  24
ATOM     24  C   UNL A   1      33.798  18.202  24.231  1.00  0.00     0.226 C 
ATOM     25  C   UNL A   1      34.506  16.919  24.638  1.00  0.00     0.049 C 
ENDBRANCH  23  24
ENDBRANCH  18  23
ENDBRANCH   8  17
ENDBRANCH   5   7
ENDBRANCH   3   5
ENDBRANCH   2   3
ENDBRANCH   1   2
BRANCH   1  26
ATOM     26  C   UNL A   1      34.755  31.539  28.108  1.00  0.00     0.275 C 
BRANCH  26  27
ATOM     27  O   UNL A   1      36.094  31.046  28.018  1.00  0.00    -0.458 OA
BRANCH  27  28
ATOM     28  C   UNL A   1      36.498  30.362  29.110  1.00  0.00     0.338 C 
ATOM     29  O   UNL A   1      36.178  30.574  30.269  1.00  0.00    -0.246 OA
BRANCH  28  30
ATOM     30  C   UNL A   1      37.560  29.419  28.774  1.00  0.00     0.060 A 
ATOM     31  C   UNL A   1      38.012  28.579  29.801  1.00  0.00     0.016 A 
ATOM     32  C   UNL A   1      38.290  29.618  27.597  1.00  0.00     0.016 A 
ATOM     33  C   UNL A   1      39.288  28.069  29.720  1.00  0.00     0.010 A 
ATOM     34  C   UNL A   1      39.569  29.122  27.527  1.00  0.00     0.010 A 
ATOM     35  C   UNL A   1      40.075  28.416  28.619  1.00  0.00    -0.014 A 
BRANCH  35  36
ATOM     36  C   UNL A   1      41.449  27.962  28.596  1.00  0.00     0.031 A 
ATOM     37  C   UNL A   1      41.645  26.657  27.925  1.00  0.00     0.074 A 
ATOM     38  C   UNL A   1      42.463  28.748  29.000  1.00  0.00     0.049 A 
ATOM     39  N   UNL A   1      42.167  25.580  28.408  1.00  0.00    -0.248 NA
ATOM     40  C   UNL A   1      41.088  26.506  26.570  1.00  0.00     0.031 C 
ATOM     41  C   UNL A   1      42.407  30.162  29.381  1.00  0.00     0.029 A 
ATOM     42  N   UNL A   1      43.794  28.473  29.024  1.00  0.00    -0.354 N 
ATOM     43  C   UNL A   1      42.178  24.669  27.357  1.00  0.00     0.074 A 
ATOM     44  C   UNL A   1      41.367  25.230  26.310  1.00  0.00     0.031 C 
ATOM     45  C   UNL A   1      43.660  30.670  29.371  1.00  0.00     0.029 A 
ATOM     46  C   UNL A   1      44.601  29.597  29.094  1.00  0.00     0.049 A 
ATOM     47  H   UNL A   1      44.152  27.556  28.995  1.00  0.00     0.167 HD
ATOM     48  C   UNL A   1      43.053  23.631  27.327  1.00  0.00     0.037 A 
ATOM     49  C   UNL A   1      45.933  29.642  28.844  1.00  0.00     0.037 A 
ATOM     50  C   UNL A   1      43.571  23.328  28.634  1.00  0.00     0.049 A 
ATOM     51  C   UNL A   1      46.454  28.253  28.921  1.00  0.00     0.074 A 
ATOM     52  C   UNL A   1      43.003  22.972  29.843  1.00  0.00     0.029 A 
ATOM     53  N   UNL A   1      44.857  23.705  28.926  1.00  0.00    -0.354 N 
ATOM     54  N   UNL A   1      46.557  27.565  30.022  1.00  0.00    -0.248 NA
ATOM     55  C   UNL A   1      46.489  27.470  27.695  1.00  0.00     0.031 C 
ATOM     56  C   UNL A   1      43.806  23.609  30.833  1.00  0.00     0.029 A 
ATOM     57  C   UNL A   1      44.833  24.282  30.171  1.00  0.00     0.049 A 
ATOM     58  H   UNL A   1      45.647  23.585  28.353  1.00  0.00     0.167 HD
ATOM     59  C   UNL A   1      46.233  26.266  29.659  1.00  0.00     0.074 A 
ATOM     60  C   UNL A   1      46.313  26.248  28.202  1.00  0.00     0.031 C 
ATOM     61  C   UNL A   1      45.653  25.408  30.549  1.00  0.00     0.037 A 
BRANCH  48  62
ATOM     62  C   UNL A   1      43.709  23.152  26.058  1.00  0.00     0.057 A 
ATOM     63  C   UNL A   1      43.747  21.777  25.780  1.00  0.00     0.134 A 
ATOM     64  C   UNL A   1      44.549  23.953  25.254  1.00  0.00     0.134 A 
ATOM     65  F   UNL A   1      43.015  20.909  26.496  1.00  0.00    -0.206 F 
ATOM     66  C   UNL A   1      44.602  21.234  24.813  1.00  0.00     0.040 A 
ATOM     67  C   UNL A   1      45.363  23.427  24.251  1.00  0.00     0.040 A 
ATOM     68  F   UNL A   1      44.705  25.267  25.465  1.00  0.00    -0.206 F 
ATOM     69  C   UNL A   1      45.417  22.060  24.048  1.00  0.00     0.006 A 
ENDBRANCH  48  62
BRANCH  49  70
ATOM     70  C   UNL A   1      46.727  30.745  28.256  1.00  0.00     0.057 A 
ATOM     71  C   UNL A   1      46.405  31.269  26.995  1.00  0.00     0.134 A 
ATOM     72  C   UNL A   1      47.645  31.493  29.015  1.00  0.00     0.134 A 
ATOM     73  F   UNL A   1      45.510  30.652  26.209  1.00  0.00    -0.206 F 
ATOM     74  C   UNL A   1      46.939  32.478  26.530  1.00  0.00     0.040 A 
ATOM     75  C   UNL A   1      48.197  32.693  28.557  1.00  0.00     0.040 A 
ATOM     76  F   UNL A   1      47.972  31.135  30.264  1.00  0.00    -0.206 F 
ATOM     77  C   UNL A   1      47.831  33.199  27.316  1.00  0.00     0.006 A 
ENDBRANCH  49  70
BRANCH  61  78
ATOM     78  C   UNL A   1      45.640  25.808  31.998  1.00  0.00     0.057 A 
ATOM     79  C   UNL A   1      46.719  25.622  32.875  1.00  0.00     0.134 A 
ATOM     80  C   UNL A   1      44.542  26.523  32.491  1.00  0.00     0.134 A 
ATOM     81  F   UNL A   1      47.858  25.049  32.464  1.00  0.00    -0.206 F 
ATOM     82  C   UNL A   1      46.681  26.071  34.198  1.00  0.00     0.040 A 
ATOM     83  C   UNL A   1      44.507  27.010  33.800  1.00  0.00     0.040 A 
ATOM     84  F   UNL A   1      43.498  26.795  31.693  1.00  0.00    -0.206 F 
ATOM     85  C   UNL A   1      45.574  26.771  34.663  1.00  0.00     0.006 A 
ENDBRANCH  61  78
ENDBRANCH  35  36
ENDBRANCH  28  30
ENDBRANCH  27  28
ENDBRANCH  26  27
ENDBRANCH   1  26
TORSDOF 15
ENDMDL
