MODEL 1
REMARK VINA RESULT:     -11.4      0.000      0.000
REMARK SMILES O=C(OCCOC(=O)[C@@H]1CCC[N@@H+](Cc2ccc(F)cc2Cl)C1)c1ccc(-c2c3nc(c(-c4c(F)cccc4F)c4ccc([nH]4)c(-c4c(F)cccc4F)c4nc(c(-c5c(F)cccc5F)c5ccc2[nH]5)C=C4)C=C3)cc1
REMARK SMILES IDX 4 1 3 2 2 3 1 4 24 5 25 6 77 7 26 8 76 9 27 10 28 11 29 12
REMARK SMILES IDX 70 13 30 14 75 15 69 16 71 17 31 18 74 19 68 20 67 21 32 23
REMARK SMILES IDX 58 24 41 25 57 26 42 27 45 28 56 29 72 30 43 31 44 32 55 34
REMARK SMILES IDX 73 35 46 36 33 37 34 38 39 39 35 40 36 41 38 42 40 43 37 44
REMARK SMILES IDX 59 45 60 46 65 47 61 48 62 49 64 50 66 51 63 52 47 53 48 54
REMARK SMILES IDX 53 55 49 56 50 57 52 58 54 59 51 60 5 61 6 62 7 63 8 64 9 65
REMARK SMILES IDX 10 66 23 67 11 68 13 69 12 70 14 72 15 73 16 74 21 75 17 76
REMARK SMILES IDX 20 77 22 78 18 79 19 80
REMARK H PARENT 71 22 45 33 13 71
REMARK Flexibility Score: inf
ROOT
ATOM      1  C   UNL A   1      31.355  31.979  26.871  1.00  0.00     0.275 C 
ENDROOT
BRANCH   1   2
ATOM      2  O   UNL A   1      32.287  33.061  26.758  1.00  0.00    -0.458 OA
BRANCH   2   3
ATOM      3  C   UNL A   1      32.902  33.655  27.811  1.00  0.00     0.338 C 
ATOM      4  O   UNL A   1      32.555  34.776  28.171  1.00  0.00    -0.246 OA
BRANCH   3   5
ATOM      5  C   UNL A   1      34.184  33.097  28.350  1.00  0.00     0.060 A 
ATOM      6  C   UNL A   1      35.388  33.790  28.526  1.00  0.00     0.016 A 
ATOM      7  C   UNL A   1      34.133  31.756  28.761  1.00  0.00     0.016 A 
ATOM      8  C   UNL A   1      36.474  33.207  29.187  1.00  0.00     0.010 A 
ATOM      9  C   UNL A   1      35.193  31.183  29.464  1.00  0.00     0.010 A 
ATOM     10  C   UNL A   1      36.377  31.907  29.681  1.00  0.00    -0.014 A 
BRANCH  10  11
ATOM     11  C   UNL A   1      37.567  31.212  30.216  1.00  0.00     0.031 A 
ATOM     12  C   UNL A   1      37.899  31.478  31.654  1.00  0.00     0.074 A 
ATOM     13  C   UNL A   1      38.341  30.405  29.464  1.00  0.00     0.049 A 
ATOM     14  N   UNL A   1      38.950  31.139  32.347  1.00  0.00    -0.248 NA
ATOM     15  C   UNL A   1      36.930  32.310  32.391  1.00  0.00     0.031 C 
ATOM     16  C   UNL A   1      38.135  30.085  28.052  1.00  0.00     0.029 A 
ATOM     17  N   UNL A   1      39.476  29.708  29.798  1.00  0.00    -0.354 N 
ATOM     18  C   UNL A   1      38.785  31.767  33.574  1.00  0.00     0.074 A 
ATOM     19  C   UNL A   1      37.611  32.599  33.482  1.00  0.00     0.031 C 
ATOM     20  C   UNL A   1      39.105  29.245  27.643  1.00  0.00     0.029 A 
ATOM     21  C   UNL A   1      40.007  28.977  28.760  1.00  0.00     0.049 A 
ATOM     22  H   UNL A   1      39.874  29.729  30.697  1.00  0.00     0.167 HD
ATOM     23  C   UNL A   1      39.504  31.610  34.707  1.00  0.00     0.037 A 
ATOM     24  C   UNL A   1      41.091  28.177  28.738  1.00  0.00     0.037 A 
ATOM     25  C   UNL A   1      40.618  30.717  34.808  1.00  0.00     0.049 A 
ATOM     26  C   UNL A   1      41.879  27.995  30.015  1.00  0.00     0.074 A 
ATOM     27  C   UNL A   1      41.401  30.428  35.906  1.00  0.00     0.029 A 
ATOM     28  N   UNL A   1      41.088  29.947  33.752  1.00  0.00    -0.354 N 
ATOM     29  N   UNL A   1      41.686  28.544  31.192  1.00  0.00    -0.248 NA
ATOM     30  C   UNL A   1      43.022  27.072  29.968  1.00  0.00     0.031 C 
ATOM     31  C   UNL A   1      42.364  29.493  35.508  1.00  0.00     0.029 A 
ATOM     32  C   UNL A   1      42.150  29.174  34.174  1.00  0.00     0.049 A 
ATOM     33  H   UNL A   1      40.718  29.951  32.841  1.00  0.00     0.167 HD
ATOM     34  C   UNL A   1      42.648  27.999  32.033  1.00  0.00     0.074 A 
ATOM     35  C   UNL A   1      43.427  27.078  31.232  1.00  0.00     0.031 C 
ATOM     36  C   UNL A   1      42.869  28.233  33.351  1.00  0.00     0.037 A 
BRANCH  23  37
ATOM     37  C   UNL A   1      39.058  32.420  35.887  1.00  0.00     0.057 A 
ATOM     38  C   UNL A   1      39.529  33.725  36.105  1.00  0.00     0.134 A 
ATOM     39  C   UNL A   1      38.263  31.847  36.885  1.00  0.00     0.134 A 
ATOM     40  F   UNL A   1      40.323  34.321  35.200  1.00  0.00    -0.206 F 
ATOM     41  C   UNL A   1      39.295  34.396  37.306  1.00  0.00     0.040 A 
ATOM     42  C   UNL A   1      37.988  32.525  38.074  1.00  0.00     0.040 A 
ATOM     43  F   UNL A   1      37.777  30.605  36.739  1.00  0.00    -0.206 F 
ATOM     44  C   UNL A   1      38.525  33.792  38.296  1.00  0.00     0.006 A 
ENDBRANCH  23  37
BRANCH  24  45
ATOM     45  C   UNL A   1      41.475  27.442  27.503  1.00  0.00     0.057 A 
ATOM     46  C   UNL A   1      41.086  26.110  27.304  1.00  0.00     0.134 A 
ATOM     47  C   UNL A   1      42.269  28.028  26.509  1.00  0.00     0.134 A 
ATOM     48  F   UNL A   1      40.338  25.483  28.224  1.00  0.00    -0.206 F 
ATOM     49  C   UNL A   1      41.494  25.382  26.184  1.00  0.00     0.040 A 
ATOM     50  C   UNL A   1      42.668  27.317  25.374  1.00  0.00     0.040 A 
ATOM     51  F   UNL A   1      42.673  29.301  26.629  1.00  0.00    -0.206 F 
ATOM     52  C   UNL A   1      42.288  25.986  25.214  1.00  0.00     0.006 A 
ENDBRANCH  24  45
BRANCH  36  53
ATOM     53  C   UNL A   1      43.940  27.436  34.032  1.00  0.00     0.057 A 
ATOM     54  C   UNL A   1      43.674  26.206  34.641  1.00  0.00     0.134 A 
ATOM     55  C   UNL A   1      45.276  27.853  33.958  1.00  0.00     0.134 A 
ATOM     56  F   UNL A   1      42.413  25.759  34.748  1.00  0.00    -0.206 F 
ATOM     57  C   UNL A   1      44.702  25.415  35.155  1.00  0.00     0.040 A 
ATOM     58  C   UNL A   1      46.314  27.058  34.444  1.00  0.00     0.040 A 
ATOM     59  F   UNL A   1      45.596  29.019  33.375  1.00  0.00    -0.206 F 
ATOM     60  C   UNL A   1      46.027  25.834  35.043  1.00  0.00     0.006 A 
ENDBRANCH  36  53
ENDBRANCH  10  11
ENDBRANCH   3   5
ENDBRANCH   2   3
ENDBRANCH   1   2
BRANCH   1  61
ATOM     61  C   UNL A   1      31.463  30.978  25.715  1.00  0.00     0.274 C 
BRANCH  61  62
ATOM     62  O   UNL A   1      31.402  29.599  26.129  1.00  0.00    -0.462 OA
BRANCH  62  63
ATOM     63  C   UNL A   1      32.625  28.990  26.247  1.00  0.00     0.314 C 
ATOM     64  O   UNL A   1      33.681  29.570  26.068  1.00  0.00    -0.252 OA
BRANCH  63  65
ATOM     65  C   UNL A   1      32.481  27.479  26.449  1.00  0.00     0.154 C 
ATOM     66  C   UNL A   1      33.539  26.609  25.782  1.00  0.00     0.027 C 
ATOM     67  C   UNL A   1      31.110  27.013  25.961  1.00  0.00     0.277 C 
ATOM     68  C   UNL A   1      33.400  26.581  24.262  1.00  0.00     0.062 C 
ATOM     69  N   UNL A   1      31.011  27.098  24.502  1.00  0.00    -0.330 N 
ATOM     70  C   UNL A   1      31.988  26.261  23.807  1.00  0.00     0.262 C 
ATOM     71  H   UNL A   1      31.276  28.056  24.274  1.00  0.00     0.348 HD
BRANCH  69  72
ATOM     72  C   UNL A   1      29.640  26.975  23.986  1.00  0.00     0.300 C 
BRANCH  72  73
ATOM     73  C   UNL A   1      29.217  28.134  23.106  1.00  0.00     0.025 A 
ATOM     74  C   UNL A   1      30.213  28.843  22.406  1.00  0.00     0.014 A 
ATOM     75  C   UNL A   1      27.906  28.642  23.112  1.00  0.00     0.052 A 
ATOM     76  C   UNL A   1      29.937  30.085  21.846  1.00  0.00     0.040 A 
ATOM     77  C   UNL A   1      27.627  29.877  22.527  1.00  0.00     0.060 A 
ATOM     78  Cl  UNL A   1      26.592  27.818  23.876  1.00  0.00    -0.084 Cl
ATOM     79  C   UNL A   1      28.651  30.598  21.930  1.00  0.00     0.124 A 
ATOM     80  F   UNL A   1      28.396  31.815  21.435  1.00  0.00    -0.207 F 
ENDBRANCH  72  73
ENDBRANCH  69  72
ENDBRANCH  63  65
ENDBRANCH  62  63
ENDBRANCH  61  62
ENDBRANCH   1  61
TORSDOF 13
ENDMDL
MODEL 2
REMARK VINA RESULT:     -11.3      5.618      9.164
REMARK SMILES O=C(OCCOC(=O)[C@@H]1CCC[N@@H+](Cc2ccc(F)cc2Cl)C1)c1ccc(-c2c3nc(c(-c4c(F)cccc4F)c4ccc([nH]4)c(-c4c(F)cccc4F)c4nc(c(-c5c(F)cccc5F)c5ccc2[nH]5)C=C4)C=C3)cc1
REMARK SMILES IDX 4 1 3 2 2 3 1 4 24 5 25 6 77 7 26 8 76 9 27 10 28 11 29 12
REMARK SMILES IDX 70 13 30 14 75 15 69 16 71 17 31 18 74 19 68 20 67 21 32 23
REMARK SMILES IDX 58 24 41 25 57 26 42 27 45 28 56 29 72 30 43 31 44 32 55 34
REMARK SMILES IDX 73 35 46 36 33 37 34 38 39 39 35 40 36 41 38 42 40 43 37 44
REMARK SMILES IDX 59 45 60 46 65 47 61 48 62 49 64 50 66 51 63 52 47 53 48 54
REMARK SMILES IDX 53 55 49 56 50 57 52 58 54 59 51 60 5 61 6 62 7 63 8 64 9 65
REMARK SMILES IDX 10 66 23 67 11 68 13 69 12 70 14 72 15 73 16 74 21 75 17 76
REMARK SMILES IDX 20 77 22 78 18 79 19 80
REMARK H PARENT 71 22 45 33 13 71
REMARK Flexibility Score: inf
ROOT
ATOM      1  C   UNL A   1      39.125  19.847  25.149  1.00  0.00     0.275 C 
ENDROOT
BRANCH   1   2
ATOM      2  O   UNL A   1      40.152  19.350  26.015  1.00  0.00    -0.458 OA
BRANCH   2   3
ATOM      3  C   UNL A   1      41.462  19.690  25.923  1.00  0.00     0.338 C 
ATOM      4  O   UNL A   1      42.303  18.828  25.683  1.00  0.00    -0.246 OA
BRANCH   3   5
ATOM      5  C   UNL A   1      41.929  21.031  26.399  1.00  0.00     0.060 A 
ATOM      6  C   UNL A   1      42.274  22.128  25.600  1.00  0.00     0.016 A 
ATOM      7  C   UNL A   1      41.968  21.197  27.792  1.00  0.00     0.016 A 
ATOM      8  C   UNL A   1      42.544  23.381  26.160  1.00  0.00     0.010 A 
ATOM      9  C   UNL A   1      42.188  22.454  28.357  1.00  0.00     0.010 A 
ATOM     10  C   UNL A   1      42.480  23.559  27.541  1.00  0.00    -0.014 A 
BRANCH  10  11
ATOM     11  C   UNL A   1      42.939  24.821  28.161  1.00  0.00     0.031 A 
ATOM     12  C   UNL A   1      41.880  25.846  28.437  1.00  0.00     0.074 A 
ATOM     13  C   UNL A   1      44.232  25.068  28.443  1.00  0.00     0.049 A 
ATOM     14  N   UNL A   1      41.995  27.085  28.825  1.00  0.00    -0.248 NA
ATOM     15  C   UNL A   1      40.493  25.425  28.161  1.00  0.00     0.031 C 
ATOM     16  C   UNL A   1      45.355  24.161  28.204  1.00  0.00     0.029 A 
ATOM     17  N   UNL A   1      44.819  26.180  28.995  1.00  0.00    -0.354 N 
ATOM     18  C   UNL A   1      40.704  27.594  28.783  1.00  0.00     0.074 A 
ATOM     19  C   UNL A   1      39.855  26.577  28.214  1.00  0.00     0.031 C 
ATOM     20  C   UNL A   1      46.494  24.749  28.617  1.00  0.00     0.029 A 
ATOM     21  C   UNL A   1      46.184  26.077  29.140  1.00  0.00     0.049 A 
ATOM     22  H   UNL A   1      44.311  26.978  29.263  1.00  0.00     0.167 HD
ATOM     23  C   UNL A   1      40.247  28.778  29.245  1.00  0.00     0.037 A 
ATOM     24  C   UNL A   1      47.064  26.961  29.651  1.00  0.00     0.037 A 
ATOM     25  C   UNL A   1      41.087  29.745  29.884  1.00  0.00     0.049 A 
ATOM     26  C   UNL A   1      46.539  28.276  30.180  1.00  0.00     0.074 A 
ATOM     27  C   UNL A   1      40.745  30.960  30.439  1.00  0.00     0.029 A 
ATOM     28  N   UNL A   1      42.454  29.578  30.067  1.00  0.00    -0.354 N 
ATOM     29  N   UNL A   1      45.308  28.730  30.194  1.00  0.00    -0.248 NA
ATOM     30  C   UNL A   1      47.520  29.191  30.781  1.00  0.00     0.031 C 
ATOM     31  C   UNL A   1      41.913  31.542  30.943  1.00  0.00     0.029 A 
ATOM     32  C   UNL A   1      42.972  30.669  30.735  1.00  0.00     0.049 A 
ATOM     33  H   UNL A   1      42.974  28.799  29.766  1.00  0.00     0.167 HD
ATOM     34  C   UNL A   1      45.358  29.958  30.843  1.00  0.00     0.074 A 
ATOM     35  C   UNL A   1      46.743  30.179  31.207  1.00  0.00     0.031 C 
ATOM     36  C   UNL A   1      44.353  30.825  31.120  1.00  0.00     0.037 A 
BRANCH  23  37
ATOM     37  C   UNL A   1      38.779  29.030  29.071  1.00  0.00     0.057 A 
ATOM     38  C   UNL A   1      38.250  29.490  27.854  1.00  0.00     0.134 A 
ATOM     39  C   UNL A   1      37.908  28.946  30.162  1.00  0.00     0.134 A 
ATOM     40  F   UNL A   1      39.041  29.624  26.777  1.00  0.00    -0.206 F 
ATOM     41  C   UNL A   1      36.932  29.935  27.752  1.00  0.00     0.040 A 
ATOM     42  C   UNL A   1      36.576  29.350  30.061  1.00  0.00     0.040 A 
ATOM     43  F   UNL A   1      38.347  28.511  31.353  1.00  0.00    -0.206 F 
ATOM     44  C   UNL A   1      36.092  29.869  28.861  1.00  0.00     0.006 A 
ENDBRANCH  23  37
BRANCH  24  45
ATOM     45  C   UNL A   1      48.512  26.631  29.746  1.00  0.00     0.057 A 
ATOM     46  C   UNL A   1      49.407  27.006  28.735  1.00  0.00     0.134 A 
ATOM     47  C   UNL A   1      49.035  25.902  30.822  1.00  0.00     0.134 A 
ATOM     48  F   UNL A   1      48.968  27.692  27.669  1.00  0.00    -0.206 F 
ATOM     49  C   UNL A   1      50.755  26.646  28.773  1.00  0.00     0.040 A 
ATOM     50  C   UNL A   1      50.387  25.553  30.883  1.00  0.00     0.040 A 
ATOM     51  F   UNL A   1      48.239  25.516  31.829  1.00  0.00    -0.206 F 
ATOM     52  C   UNL A   1      51.249  25.916  29.851  1.00  0.00     0.006 A 
ENDBRANCH  24  45
BRANCH  36  53
ATOM     53  C   UNL A   1      44.688  32.053  31.911  1.00  0.00     0.057 A 
ATOM     54  C   UNL A   1      44.690  32.054  33.309  1.00  0.00     0.134 A 
ATOM     55  C   UNL A   1      45.137  33.208  31.256  1.00  0.00     0.134 A 
ATOM     56  F   UNL A   1      44.263  30.981  33.991  1.00  0.00    -0.206 F 
ATOM     57  C   UNL A   1      45.131  33.164  34.032  1.00  0.00     0.040 A 
ATOM     58  C   UNL A   1      45.604  34.312  31.967  1.00  0.00     0.040 A 
ATOM     59  F   UNL A   1      45.169  33.263  29.915  1.00  0.00    -0.206 F 
ATOM     60  C   UNL A   1      45.603  34.290  33.360  1.00  0.00     0.006 A 
ENDBRANCH  36  53
ENDBRANCH  10  11
ENDBRANCH   3   5
ENDBRANCH   2   3
ENDBRANCH   1   2
BRANCH   1  61
ATOM     61  C   UNL A   1      38.503  21.154  25.650  1.00  0.00     0.274 C 
BRANCH  61  62
ATOM     62  O   UNL A   1      37.678  21.821  24.674  1.00  0.00    -0.462 OA
BRANCH  62  63
ATOM     63  C   UNL A   1      36.340  21.545  24.781  1.00  0.00     0.314 C 
ATOM     64  O   UNL A   1      35.899  20.419  24.925  1.00  0.00    -0.252 OA
BRANCH  63  65
ATOM     65  C   UNL A   1      35.489  22.790  24.517  1.00  0.00     0.154 C 
ATOM     66  C   UNL A   1      35.406  23.800  25.653  1.00  0.00     0.027 C 
ATOM     67  C   UNL A   1      34.064  22.381  24.144  1.00  0.00     0.277 C 
ATOM     68  C   UNL A   1      34.581  23.291  26.831  1.00  0.00     0.062 C 
ATOM     69  N   UNL A   1      33.358  21.815  25.296  1.00  0.00    -0.330 N 
ATOM     70  C   UNL A   1      33.227  22.752  26.411  1.00  0.00     0.262 C 
ATOM     71  H   UNL A   1      33.969  21.076  25.644  1.00  0.00     0.348 HD
BRANCH  69  72
ATOM     72  C   UNL A   1      32.113  21.113  24.951  1.00  0.00     0.300 C 
BRANCH  72  73
ATOM     73  C   UNL A   1      32.331  19.696  24.463  1.00  0.00     0.025 A 
ATOM     74  C   UNL A   1      32.710  18.714  25.400  1.00  0.00     0.014 A 
ATOM     75  C   UNL A   1      32.354  19.367  23.095  1.00  0.00     0.052 A 
ATOM     76  C   UNL A   1      33.224  17.493  24.978  1.00  0.00     0.040 A 
ATOM     77  C   UNL A   1      32.846  18.131  22.678  1.00  0.00     0.060 A 
ATOM     78  Cl  UNL A   1      31.839  20.467  21.865  1.00  0.00    -0.084 Cl
ATOM     79  C   UNL A   1      33.305  17.223  23.620  1.00  0.00     0.124 A 
ATOM     80  F   UNL A   1      33.845  16.068  23.213  1.00  0.00    -0.207 F 
ENDBRANCH  72  73
ENDBRANCH  69  72
ENDBRANCH  63  65
ENDBRANCH  62  63
ENDBRANCH  61  62
ENDBRANCH   1  61
TORSDOF 13
ENDMDL
MODEL 3
REMARK VINA RESULT:     -11.3      5.685      9.952
REMARK SMILES O=C(OCCOC(=O)[C@@H]1CCC[N@@H+](Cc2ccc(F)cc2Cl)C1)c1ccc(-c2c3nc(c(-c4c(F)cccc4F)c4ccc([nH]4)c(-c4c(F)cccc4F)c4nc(c(-c5c(F)cccc5F)c5ccc2[nH]5)C=C4)C=C3)cc1
REMARK SMILES IDX 4 1 3 2 2 3 1 4 24 5 25 6 77 7 26 8 76 9 27 10 28 11 29 12
REMARK SMILES IDX 70 13 30 14 75 15 69 16 71 17 31 18 74 19 68 20 67 21 32 23
REMARK SMILES IDX 58 24 41 25 57 26 42 27 45 28 56 29 72 30 43 31 44 32 55 34
REMARK SMILES IDX 73 35 46 36 33 37 34 38 39 39 35 40 36 41 38 42 40 43 37 44
REMARK SMILES IDX 59 45 60 46 65 47 61 48 62 49 64 50 66 51 63 52 47 53 48 54
REMARK SMILES IDX 53 55 49 56 50 57 52 58 54 59 51 60 5 61 6 62 7 63 8 64 9 65
REMARK SMILES IDX 10 66 23 67 11 68 13 69 12 70 14 72 15 73 16 74 21 75 17 76
REMARK SMILES IDX 20 77 22 78 18 79 19 80
REMARK H PARENT 71 22 45 33 13 71
REMARK Flexibility Score: inf
ROOT
ATOM      1  C   UNL A   1      39.100  19.626  25.883  1.00  0.00     0.275 C 
ENDROOT
BRANCH   1   2
ATOM      2  O   UNL A   1      40.327  19.005  25.480  1.00  0.00    -0.458 OA
BRANCH   2   3
ATOM      3  C   UNL A   1      41.555  19.384  25.912  1.00  0.00     0.338 C 
ATOM      4  O   UNL A   1      42.455  18.555  26.006  1.00  0.00    -0.246 OA
BRANCH   3   5
ATOM      5  C   UNL A   1      41.749  20.724  26.554  1.00  0.00     0.060 A 
ATOM      6  C   UNL A   1      41.722  21.005  27.926  1.00  0.00     0.016 A 
ATOM      7  C   UNL A   1      42.035  21.779  25.674  1.00  0.00     0.016 A 
ATOM      8  C   UNL A   1      42.075  22.267  28.418  1.00  0.00     0.010 A 
ATOM      9  C   UNL A   1      42.436  23.026  26.157  1.00  0.00     0.010 A 
ATOM     10  C   UNL A   1      42.456  23.279  27.539  1.00  0.00    -0.014 A 
BRANCH  10  11
ATOM     11  C   UNL A   1      42.653  24.663  28.021  1.00  0.00     0.031 A 
ATOM     12  C   UNL A   1      44.068  25.067  28.315  1.00  0.00     0.074 A 
ATOM     13  C   UNL A   1      41.633  25.519  28.222  1.00  0.00     0.049 A 
ATOM     14  N   UNL A   1      44.529  26.144  28.886  1.00  0.00    -0.248 NA
ATOM     15  C   UNL A   1      45.101  24.071  27.976  1.00  0.00     0.031 C 
ATOM     16  C   UNL A   1      40.215  25.238  27.994  1.00  0.00     0.029 A 
ATOM     17  N   UNL A   1      41.643  26.814  28.677  1.00  0.00    -0.354 N 
ATOM     18  C   UNL A   1      45.892  25.921  29.020  1.00  0.00     0.074 A 
ATOM     19  C   UNL A   1      46.155  24.569  28.592  1.00  0.00     0.031 C 
ATOM     20  C   UNL A   1      39.493  26.333  28.299  1.00  0.00     0.029 A 
ATOM     21  C   UNL A   1      40.395  27.388  28.755  1.00  0.00     0.049 A 
ATOM     22  H   UNL A   1      42.467  27.290  28.925  1.00  0.00     0.167 HD
ATOM     23  C   UNL A   1      46.859  26.787  29.395  1.00  0.00     0.037 A 
ATOM     24  C   UNL A   1      40.041  28.630  29.141  1.00  0.00     0.037 A 
ATOM     25  C   UNL A   1      46.594  28.152  29.737  1.00  0.00     0.049 A 
ATOM     26  C   UNL A   1      41.131  29.597  29.544  1.00  0.00     0.074 A 
ATOM     27  C   UNL A   1      47.483  29.146  30.089  1.00  0.00     0.029 A 
ATOM     28  N   UNL A   1      45.323  28.713  29.746  1.00  0.00    -0.354 N 
ATOM     29  N   UNL A   1      42.427  29.401  29.612  1.00  0.00    -0.248 NA
ATOM     30  C   UNL A   1      40.713  30.960  29.905  1.00  0.00     0.031 C 
ATOM     31  C   UNL A   1      46.746  30.310  30.331  1.00  0.00     0.029 A 
ATOM     32  C   UNL A   1      45.404  30.046  30.091  1.00  0.00     0.049 A 
ATOM     33  H   UNL A   1      44.491  28.231  29.536  1.00  0.00     0.167 HD
ATOM     34  C   UNL A   1      42.982  30.622  29.975  1.00  0.00     0.074 A 
ATOM     35  C   UNL A   1      41.881  31.553  30.117  1.00  0.00     0.031 C 
ATOM     36  C   UNL A   1      44.283  30.950  30.173  1.00  0.00     0.037 A 
BRANCH  23  37
ATOM     37  C   UNL A   1      48.256  26.245  29.419  1.00  0.00     0.057 A 
ATOM     38  C   UNL A   1      48.825  25.724  30.593  1.00  0.00     0.134 A 
ATOM     39  C   UNL A   1      49.087  26.369  28.301  1.00  0.00     0.134 A 
ATOM     40  F   UNL A   1      48.089  25.610  31.711  1.00  0.00    -0.206 F 
ATOM     41  C   UNL A   1      50.185  25.427  30.678  1.00  0.00     0.040 A 
ATOM     42  C   UNL A   1      50.441  26.036  28.361  1.00  0.00     0.040 A 
ATOM     43  F   UNL A   1      48.607  26.855  27.146  1.00  0.00    -0.206 F 
ATOM     44  C   UNL A   1      50.998  25.587  29.558  1.00  0.00     0.006 A 
ENDBRANCH  23  37
BRANCH  24  45
ATOM     45  C   UNL A   1      38.618  29.063  29.118  1.00  0.00     0.057 A 
ATOM     46  C   UNL A   1      38.047  29.608  27.960  1.00  0.00     0.134 A 
ATOM     47  C   UNL A   1      37.801  28.983  30.253  1.00  0.00     0.134 A 
ATOM     48  F   UNL A   1      38.779  29.729  26.842  1.00  0.00    -0.206 F 
ATOM     49  C   UNL A   1      36.734  30.084  27.938  1.00  0.00     0.040 A 
ATOM     50  C   UNL A   1      36.479  29.436  30.240  1.00  0.00     0.040 A 
ATOM     51  F   UNL A   1      38.278  28.465  31.395  1.00  0.00    -0.206 F 
ATOM     52  C   UNL A   1      35.945  29.998  29.082  1.00  0.00     0.006 A 
ENDBRANCH  24  45
BRANCH  36  53
ATOM     53  C   UNL A   1      44.603  32.380  30.487  1.00  0.00     0.057 A 
ATOM     54  C   UNL A   1      44.748  32.834  31.802  1.00  0.00     0.134 A 
ATOM     55  C   UNL A   1      44.895  33.276  29.450  1.00  0.00     0.134 A 
ATOM     56  F   UNL A   1      44.475  32.023  32.835  1.00  0.00    -0.206 F 
ATOM     57  C   UNL A   1      45.174  34.134  32.076  1.00  0.00     0.040 A 
ATOM     58  C   UNL A   1      45.346  34.569  29.712  1.00  0.00     0.040 A 
ATOM     59  F   UNL A   1      44.785  32.895  28.168  1.00  0.00    -0.206 F 
ATOM     60  C   UNL A   1      45.488  35.000  31.029  1.00  0.00     0.006 A 
ENDBRANCH  36  53
ENDBRANCH  10  11
ENDBRANCH   3   5
ENDBRANCH   2   3
ENDBRANCH   1   2
BRANCH   1  61
ATOM     61  C   UNL A   1      38.195  19.980  24.698  1.00  0.00     0.274 C 
BRANCH  61  62
ATOM     62  O   UNL A   1      37.762  21.355  24.684  1.00  0.00    -0.462 OA
BRANCH  62  63
ATOM     63  C   UNL A   1      36.430  21.531  24.956  1.00  0.00     0.314 C 
ATOM     64  O   UNL A   1      35.749  20.699  25.529  1.00  0.00    -0.252 OA
BRANCH  63  65
ATOM     65  C   UNL A   1      35.887  22.801  24.297  1.00  0.00     0.154 C 
ATOM     66  C   UNL A   1      35.800  24.035  25.186  1.00  0.00     0.027 C 
ATOM     67  C   UNL A   1      34.497  22.539  23.718  1.00  0.00     0.277 C 
ATOM     68  C   UNL A   1      34.703  23.921  26.240  1.00  0.00     0.062 C 
ATOM     69  N   UNL A   1      33.509  22.346  24.781  1.00  0.00    -0.330 N 
ATOM     70  C   UNL A   1      33.365  23.512  25.653  1.00  0.00     0.262 C 
ATOM     71  H   UNL A   1      33.900  21.618  25.378  1.00  0.00     0.348 HD
BRANCH  69  72
ATOM     72  C   UNL A   1      32.234  21.780  24.319  1.00  0.00     0.300 C 
BRANCH  72  73
ATOM     73  C   UNL A   1      32.274  20.280  24.115  1.00  0.00     0.025 A 
ATOM     74  C   UNL A   1      32.590  19.461  25.218  1.00  0.00     0.014 A 
ATOM     75  C   UNL A   1      32.196  19.692  22.840  1.00  0.00     0.052 A 
ATOM     76  C   UNL A   1      32.950  18.131  25.033  1.00  0.00     0.040 A 
ATOM     77  C   UNL A   1      32.532  18.351  22.662  1.00  0.00     0.060 A 
ATOM     78  Cl  UNL A   1      31.744  20.584  21.430  1.00  0.00    -0.084 Cl
ATOM     79  C   UNL A   1      32.935  17.595  23.753  1.00  0.00     0.124 A 
ATOM     80  F   UNL A   1      33.328  16.329  23.569  1.00  0.00    -0.207 F 
ENDBRANCH  72  73
ENDBRANCH  69  72
ENDBRANCH  63  65
ENDBRANCH  62  63
ENDBRANCH  61  62
ENDBRANCH   1  61
TORSDOF 13
ENDMDL
