MODEL 1
REMARK VINA RESULT:     -11.3      0.000      0.000
REMARK SMILES C[C@@H](C(=O)OCCOC(=O)c1ccc(-c2c3nc(c(-c4c(F)cccc4F)c4ccc([nH]4)c(-c4c(F)cccc4F)c4nc(c(-c5c(F)cccc5F)c5ccc2[nH]5)C=C4)C=C3)cc1)c1ccc(-c2ccccc2)cc1
REMARK SMILES IDX 6 1 5 2 3 3 4 4 2 5 1 6 65 7 66 8 76 9 67 10 75 11 68 12
REMARK SMILES IDX 69 13 70 14 74 15 71 16 73 17 72 18 7 19 8 20 9 21 10 22
REMARK SMILES IDX 11 23 12 24 64 25 13 26 63 27 14 28 15 29 16 30 57 31 17 32
REMARK SMILES IDX 62 33 56 34 58 35 18 36 61 37 55 38 54 39 19 41 45 42 28 43
REMARK SMILES IDX 44 44 29 45 32 46 43 47 59 48 30 49 31 50 42 52 60 53 33 54
REMARK SMILES IDX 20 55 21 56 26 57 22 58 23 59 25 60 27 61 24 62 46 63 47 64
REMARK SMILES IDX 52 65 48 66 49 67 51 68 53 69 50 70 34 71 35 72 40 73 36 74
REMARK SMILES IDX 37 75 39 76 41 77 38 78
REMARK H PARENT 58 40 32 51
REMARK Flexibility Score: inf
ROOT
ATOM      1  C   UNL A   1      43.772  21.889  25.597  1.00  0.00     0.274 C 
ENDROOT
BRANCH   1   2
ATOM      2  O   UNL A   1      42.732  20.921  25.338  1.00  0.00    -0.462 OA
BRANCH   2   3
ATOM      3  C   UNL A   1      41.819  20.713  26.335  1.00  0.00     0.313 C 
ATOM      4  O   UNL A   1      41.449  19.593  26.664  1.00  0.00    -0.252 OA
BRANCH   3   5
ATOM      5  C   UNL A   1      41.250  22.046  26.893  1.00  0.00     0.126 C 
ATOM      6  C   UNL A   1      41.439  22.104  28.421  1.00  0.00     0.025 C 
BRANCH   5   7
ATOM      7  C   UNL A   1      39.800  22.348  26.452  1.00  0.00    -0.034 A 
ATOM      8  C   UNL A   1      39.183  23.564  26.792  1.00  0.00     0.005 A 
ATOM      9  C   UNL A   1      39.026  21.441  25.706  1.00  0.00     0.005 A 
ATOM     10  C   UNL A   1      37.918  23.913  26.294  1.00  0.00     0.009 A 
ATOM     11  C   UNL A   1      37.751  21.782  25.222  1.00  0.00     0.009 A 
ATOM     12  C   UNL A   1      37.195  23.042  25.470  1.00  0.00    -0.018 A 
BRANCH  12  13
ATOM     13  C   UNL A   1      35.948  23.480  24.820  1.00  0.00    -0.018 A 
ATOM     14  C   UNL A   1      35.441  22.784  23.707  1.00  0.00     0.009 A 
ATOM     15  C   UNL A   1      35.270  24.634  25.234  1.00  0.00     0.009 A 
ATOM     16  C   UNL A   1      34.333  23.253  22.998  1.00  0.00     0.001 A 
ATOM     17  C   UNL A   1      34.145  25.094  24.539  1.00  0.00     0.001 A 
ATOM     18  C   UNL A   1      33.688  24.412  23.413  1.00  0.00     0.000 A 
ENDBRANCH  12  13
ENDBRANCH   5   7
ENDBRANCH   3   5
ENDBRANCH   2   3
ENDBRANCH   1   2
BRANCH   1  19
ATOM     19  C   UNL A   1      43.996  22.832  24.411  1.00  0.00     0.275 C 
BRANCH  19  20
ATOM     20  O   UNL A   1      43.388  24.116  24.640  1.00  0.00    -0.458 OA
BRANCH  20  21
ATOM     21  C   UNL A   1      44.221  25.063  25.126  1.00  0.00     0.338 C 
ATOM     22  O   UNL A   1      45.276  25.442  24.635  1.00  0.00    -0.246 OA
BRANCH  21  23
ATOM     23  C   UNL A   1      43.575  25.759  26.251  1.00  0.00     0.060 A 
ATOM     24  C   UNL A   1      44.160  26.956  26.649  1.00  0.00     0.016 A 
ATOM     25  C   UNL A   1      42.453  25.266  26.924  1.00  0.00     0.016 A 
ATOM     26  C   UNL A   1      43.614  27.687  27.693  1.00  0.00     0.010 A 
ATOM     27  C   UNL A   1      41.924  25.991  28.006  1.00  0.00     0.010 A 
ATOM     28  C   UNL A   1      42.504  27.209  28.395  1.00  0.00    -0.014 A 
BRANCH  28  29
ATOM     29  C   UNL A   1      42.044  27.979  29.577  1.00  0.00     0.031 A 
ATOM     30  C   UNL A   1      40.802  28.816  29.475  1.00  0.00     0.074 A 
ATOM     31  C   UNL A   1      42.635  27.813  30.774  1.00  0.00     0.049 A 
ATOM     32  N   UNL A   1      40.192  29.513  30.400  1.00  0.00    -0.248 NA
ATOM     33  C   UNL A   1      40.138  28.844  28.162  1.00  0.00     0.031 C 
ATOM     34  C   UNL A   1      43.748  26.907  31.047  1.00  0.00     0.029 A 
ATOM     35  N   UNL A   1      42.345  28.370  31.996  1.00  0.00    -0.354 N 
ATOM     36  C   UNL A   1      39.075  30.061  29.785  1.00  0.00     0.074 A 
ATOM     37  C   UNL A   1      39.090  29.617  28.408  1.00  0.00     0.031 C 
ATOM     38  C   UNL A   1      44.032  26.950  32.361  1.00  0.00     0.029 A 
ATOM     39  C   UNL A   1      43.148  27.915  33.012  1.00  0.00     0.049 A 
ATOM     40  H   UNL A   1      41.629  29.032  32.129  1.00  0.00     0.167 HD
ATOM     41  C   UNL A   1      38.125  30.864  30.318  1.00  0.00     0.037 A 
ATOM     42  C   UNL A   1      43.172  28.251  34.317  1.00  0.00     0.037 A 
ATOM     43  C   UNL A   1      38.108  31.326  31.680  1.00  0.00     0.049 A 
ATOM     44  C   UNL A   1      42.197  29.273  34.842  1.00  0.00     0.074 A 
ATOM     45  C   UNL A   1      37.209  32.186  32.287  1.00  0.00     0.029 A 
ATOM     46  N   UNL A   1      39.038  30.974  32.645  1.00  0.00    -0.354 N 
ATOM     47  N   UNL A   1      41.169  29.824  34.246  1.00  0.00    -0.248 NA
ATOM     48  C   UNL A   1      42.404  29.735  36.224  1.00  0.00     0.031 C 
ATOM     49  C   UNL A   1      37.618  32.386  33.610  1.00  0.00     0.029 A 
ATOM     50  C   UNL A   1      38.748  31.619  33.837  1.00  0.00     0.049 A 
ATOM     51  H   UNL A   1      39.792  30.356  32.505  1.00  0.00     0.167 HD
ATOM     52  C   UNL A   1      40.598  30.678  35.181  1.00  0.00     0.074 A 
ATOM     53  C   UNL A   1      41.381  30.560  36.392  1.00  0.00     0.031 C 
ATOM     54  C   UNL A   1      39.523  31.492  35.044  1.00  0.00     0.037 A 
BRANCH  41  55
ATOM     55  C   UNL A   1      37.042  31.340  29.400  1.00  0.00     0.057 A 
ATOM     56  C   UNL A   1      37.055  32.626  28.848  1.00  0.00     0.134 A 
ATOM     57  C   UNL A   1      35.990  30.488  29.045  1.00  0.00     0.134 A 
ATOM     58  F   UNL A   1      38.029  33.492  29.164  1.00  0.00    -0.206 F 
ATOM     59  C   UNL A   1      36.048  33.053  27.981  1.00  0.00     0.040 A 
ATOM     60  C   UNL A   1      34.988  30.897  28.165  1.00  0.00     0.040 A 
ATOM     61  F   UNL A   1      35.924  29.244  29.541  1.00  0.00    -0.206 F 
ATOM     62  C   UNL A   1      35.014  32.185  27.633  1.00  0.00     0.006 A 
ENDBRANCH  41  55
BRANCH  42  63
ATOM     63  C   UNL A   1      44.179  27.654  35.231  1.00  0.00     0.057 A 
ATOM     64  C   UNL A   1      45.449  28.221  35.380  1.00  0.00     0.134 A 
ATOM     65  C   UNL A   1      43.919  26.463  35.921  1.00  0.00     0.134 A 
ATOM     66  F   UNL A   1      45.772  29.341  34.716  1.00  0.00    -0.206 F 
ATOM     67  C   UNL A   1      46.431  27.617  36.168  1.00  0.00     0.040 A 
ATOM     68  C   UNL A   1      44.882  25.862  36.733  1.00  0.00     0.040 A 
ATOM     69  F   UNL A   1      42.727  25.859  35.807  1.00  0.00    -0.206 F 
ATOM     70  C   UNL A   1      46.146  26.436  36.850  1.00  0.00     0.006 A 
ENDBRANCH  42  63
BRANCH  54  71
ATOM     71  C   UNL A   1      39.107  32.302  36.237  1.00  0.00     0.057 A 
ATOM     72  C   UNL A   1      39.573  33.607  36.439  1.00  0.00     0.134 A 
ATOM     73  C   UNL A   1      38.194  31.790  37.167  1.00  0.00     0.134 A 
ATOM     74  F   UNL A   1      40.459  34.151  35.592  1.00  0.00    -0.206 F 
ATOM     75  C   UNL A   1      39.156  34.369  37.533  1.00  0.00     0.040 A 
ATOM     76  C   UNL A   1      37.751  32.550  38.251  1.00  0.00     0.040 A 
ATOM     77  F   UNL A   1      37.702  30.549  37.027  1.00  0.00    -0.206 F 
ATOM     78  C   UNL A   1      38.236  33.842  38.438  1.00  0.00     0.006 A 
ENDBRANCH  54  71
ENDBRANCH  28  29
ENDBRANCH  21  23
ENDBRANCH  20  21
ENDBRANCH  19  20
ENDBRANCH   1  19
TORSDOF 13
ENDMDL
MODEL 2
REMARK VINA RESULT:     -11.2      0.448      6.433
REMARK SMILES C[C@@H](C(=O)OCCOC(=O)c1ccc(-c2c3nc(c(-c4c(F)cccc4F)c4ccc([nH]4)c(-c4c(F)cccc4F)c4nc(c(-c5c(F)cccc5F)c5ccc2[nH]5)C=C4)C=C3)cc1)c1ccc(-c2ccccc2)cc1
REMARK SMILES IDX 6 1 5 2 3 3 4 4 2 5 1 6 65 7 66 8 76 9 67 10 75 11 68 12
REMARK SMILES IDX 69 13 70 14 74 15 71 16 73 17 72 18 7 19 8 20 9 21 10 22
REMARK SMILES IDX 11 23 12 24 64 25 13 26 63 27 14 28 15 29 16 30 57 31 17 32
REMARK SMILES IDX 62 33 56 34 58 35 18 36 61 37 55 38 54 39 19 41 45 42 28 43
REMARK SMILES IDX 44 44 29 45 32 46 43 47 59 48 30 49 31 50 42 52 60 53 33 54
REMARK SMILES IDX 20 55 21 56 26 57 22 58 23 59 25 60 27 61 24 62 46 63 47 64
REMARK SMILES IDX 52 65 48 66 49 67 51 68 53 69 50 70 34 71 35 72 40 73 36 74
REMARK SMILES IDX 37 75 39 76 41 77 38 78
REMARK H PARENT 58 40 32 51
REMARK Flexibility Score: inf
ROOT
ATOM      1  C   UNL A   1      43.930  21.483  25.596  1.00  0.00     0.274 C 
ENDROOT
BRANCH   1   2
ATOM      2  O   UNL A   1      42.691  20.869  25.182  1.00  0.00    -0.462 OA
BRANCH   2   3
ATOM      3  C   UNL A   1      41.782  20.588  26.165  1.00  0.00     0.313 C 
ATOM      4  O   UNL A   1      41.390  19.451  26.392  1.00  0.00    -0.252 OA
BRANCH   3   5
ATOM      5  C   UNL A   1      41.247  21.876  26.851  1.00  0.00     0.126 C 
ATOM      6  C   UNL A   1      41.418  21.772  28.378  1.00  0.00     0.025 C 
BRANCH   5   7
ATOM      7  C   UNL A   1      39.812  22.266  26.429  1.00  0.00    -0.034 A 
ATOM      8  C   UNL A   1      39.317  23.559  26.671  1.00  0.00     0.005 A 
ATOM      9  C   UNL A   1      38.932  21.368  25.797  1.00  0.00     0.005 A 
ATOM     10  C   UNL A   1      38.069  23.974  26.183  1.00  0.00     0.009 A 
ATOM     11  C   UNL A   1      37.674  21.778  25.324  1.00  0.00     0.009 A 
ATOM     12  C   UNL A   1      37.240  23.100  25.469  1.00  0.00    -0.018 A 
BRANCH  12  13
ATOM     13  C   UNL A   1      36.011  23.588  24.820  1.00  0.00    -0.018 A 
ATOM     14  C   UNL A   1      35.122  24.427  25.515  1.00  0.00     0.009 A 
ATOM     15  C   UNL A   1      35.650  23.178  23.529  1.00  0.00     0.009 A 
ATOM     16  C   UNL A   1      33.892  24.799  24.967  1.00  0.00     0.001 A 
ATOM     17  C   UNL A   1      34.428  23.568  22.968  1.00  0.00     0.001 A 
ATOM     18  C   UNL A   1      33.544  24.364  23.693  1.00  0.00     0.000 A 
ENDBRANCH  12  13
ENDBRANCH   5   7
ENDBRANCH   3   5
ENDBRANCH   2   3
ENDBRANCH   1   2
BRANCH   1  19
ATOM     19  C   UNL A   1      44.425  22.530  24.593  1.00  0.00     0.275 C 
BRANCH  19  20
ATOM     20  O   UNL A   1      43.697  23.764  24.720  1.00  0.00    -0.458 OA
BRANCH  20  21
ATOM     21  C   UNL A   1      44.423  24.811  25.170  1.00  0.00     0.338 C 
ATOM     22  O   UNL A   1      45.434  25.280  24.665  1.00  0.00    -0.246 OA
BRANCH  21  23
ATOM     23  C   UNL A   1      43.703  25.476  26.268  1.00  0.00     0.060 A 
ATOM     24  C   UNL A   1      44.071  26.791  26.534  1.00  0.00     0.016 A 
ATOM     25  C   UNL A   1      42.718  24.851  27.039  1.00  0.00     0.016 A 
ATOM     26  C   UNL A   1      43.439  27.501  27.544  1.00  0.00     0.010 A 
ATOM     27  C   UNL A   1      42.106  25.562  28.086  1.00  0.00     0.010 A 
ATOM     28  C   UNL A   1      42.465  26.895  28.342  1.00  0.00    -0.014 A 
BRANCH  28  29
ATOM     29  C   UNL A   1      41.916  27.672  29.481  1.00  0.00     0.031 A 
ATOM     30  C   UNL A   1      42.678  27.727  30.773  1.00  0.00     0.074 A 
ATOM     31  C   UNL A   1      40.829  28.448  29.319  1.00  0.00     0.049 A 
ATOM     32  N   UNL A   1      42.412  28.395  31.866  1.00  0.00    -0.248 NA
ATOM     33  C   UNL A   1      43.927  26.951  30.828  1.00  0.00     0.031 C 
ATOM     34  C   UNL A   1      40.088  28.613  28.071  1.00  0.00     0.029 A 
ATOM     35  N   UNL A   1      40.190  29.282  30.204  1.00  0.00    -0.354 N 
ATOM     36  C   UNL A   1      43.457  28.123  32.739  1.00  0.00     0.074 A 
ATOM     37  C   UNL A   1      44.362  27.229  32.049  1.00  0.00     0.031 C 
ATOM     38  C   UNL A   1      39.109  29.515  28.262  1.00  0.00     0.029 A 
ATOM     39  C   UNL A   1      39.129  29.959  29.655  1.00  0.00     0.049 A 
ATOM     40  H   UNL A   1      40.467  29.384  31.143  1.00  0.00     0.167 HD
ATOM     41  C   UNL A   1      43.644  28.575  34.001  1.00  0.00     0.037 A 
ATOM     42  C   UNL A   1      38.268  30.829  30.218  1.00  0.00     0.037 A 
ATOM     43  C   UNL A   1      42.744  29.449  34.703  1.00  0.00     0.049 A 
ATOM     44  C   UNL A   1      38.414  31.185  31.674  1.00  0.00     0.074 A 
ATOM     45  C   UNL A   1      42.833  29.912  36.005  1.00  0.00     0.029 A 
ATOM     46  N   UNL A   1      41.585  29.987  34.166  1.00  0.00    -0.354 N 
ATOM     47  N   UNL A   1      39.379  30.890  32.510  1.00  0.00    -0.248 NA
ATOM     48  C   UNL A   1      37.330  31.982  32.271  1.00  0.00     0.031 C 
ATOM     49  C   UNL A   1      41.706  30.698  36.268  1.00  0.00     0.029 A 
ATOM     50  C   UNL A   1      40.937  30.757  35.118  1.00  0.00     0.049 A 
ATOM     51  H   UNL A   1      41.270  29.843  33.244  1.00  0.00     0.167 HD
ATOM     52  C   UNL A   1      39.031  31.480  33.719  1.00  0.00     0.074 A 
ATOM     53  C   UNL A   1      37.775  32.167  33.506  1.00  0.00     0.031 C 
ATOM     54  C   UNL A   1      39.693  31.448  34.901  1.00  0.00     0.037 A 
BRANCH  41  55
ATOM     55  C   UNL A   1      44.856  28.082  34.727  1.00  0.00     0.057 A 
ATOM     56  C   UNL A   1      46.069  28.778  34.698  1.00  0.00     0.134 A 
ATOM     57  C   UNL A   1      44.797  26.908  35.488  1.00  0.00     0.134 A 
ATOM     58  F   UNL A   1      46.191  29.901  33.974  1.00  0.00    -0.206 F 
ATOM     59  C   UNL A   1      47.188  28.317  35.393  1.00  0.00     0.040 A 
ATOM     60  C   UNL A   1      45.903  26.446  36.201  1.00  0.00     0.040 A 
ATOM     61  F   UNL A   1      43.661  26.197  35.556  1.00  0.00    -0.206 F 
ATOM     62  C   UNL A   1      47.105  27.150  36.151  1.00  0.00     0.006 A 
ENDBRANCH  41  55
BRANCH  42  63
ATOM     63  C   UNL A   1      37.152  31.405  29.425  1.00  0.00     0.057 A 
ATOM     64  C   UNL A   1      36.016  30.647  29.117  1.00  0.00     0.134 A 
ATOM     65  C   UNL A   1      37.227  32.700  28.898  1.00  0.00     0.134 A 
ATOM     66  F   UNL A   1      35.902  29.386  29.561  1.00  0.00    -0.206 F 
ATOM     67  C   UNL A   1      35.003  31.151  28.299  1.00  0.00     0.040 A 
ATOM     68  C   UNL A   1      36.210  33.225  28.100  1.00  0.00     0.040 A 
ATOM     69  F   UNL A   1      38.296  33.471  29.142  1.00  0.00    -0.206 F 
ATOM     70  C   UNL A   1      35.097  32.446  27.791  1.00  0.00     0.006 A 
ENDBRANCH  42  63
BRANCH  54  71
ATOM     71  C   UNL A   1      39.092  32.197  36.054  1.00  0.00     0.057 A 
ATOM     72  C   UNL A   1      38.204  31.584  36.947  1.00  0.00     0.134 A 
ATOM     73  C   UNL A   1      39.442  33.530  36.303  1.00  0.00     0.134 A 
ATOM     74  F   UNL A   1      37.818  30.314  36.758  1.00  0.00    -0.206 F 
ATOM     75  C   UNL A   1      37.674  32.276  38.039  1.00  0.00     0.040 A 
ATOM     76  C   UNL A   1      38.938  34.225  37.404  1.00  0.00     0.040 A 
ATOM     77  F   UNL A   1      40.294  34.173  35.491  1.00  0.00    -0.206 F 
ATOM     78  C   UNL A   1      38.048  33.598  38.273  1.00  0.00     0.006 A 
ENDBRANCH  54  71
ENDBRANCH  28  29
ENDBRANCH  21  23
ENDBRANCH  20  21
ENDBRANCH  19  20
ENDBRANCH   1  19
TORSDOF 13
ENDMDL
MODEL 3
REMARK VINA RESULT:     -11.0      3.712      8.615
REMARK SMILES C[C@@H](C(=O)OCCOC(=O)c1ccc(-c2c3nc(c(-c4c(F)cccc4F)c4ccc([nH]4)c(-c4c(F)cccc4F)c4nc(c(-c5c(F)cccc5F)c5ccc2[nH]5)C=C4)C=C3)cc1)c1ccc(-c2ccccc2)cc1
REMARK SMILES IDX 6 1 5 2 3 3 4 4 2 5 1 6 65 7 66 8 76 9 67 10 75 11 68 12
REMARK SMILES IDX 69 13 70 14 74 15 71 16 73 17 72 18 7 19 8 20 9 21 10 22
REMARK SMILES IDX 11 23 12 24 64 25 13 26 63 27 14 28 15 29 16 30 57 31 17 32
REMARK SMILES IDX 62 33 56 34 58 35 18 36 61 37 55 38 54 39 19 41 45 42 28 43
REMARK SMILES IDX 44 44 29 45 32 46 43 47 59 48 30 49 31 50 42 52 60 53 33 54
REMARK SMILES IDX 20 55 21 56 26 57 22 58 23 59 25 60 27 61 24 62 46 63 47 64
REMARK SMILES IDX 52 65 48 66 49 67 51 68 53 69 50 70 34 71 35 72 40 73 36 74
REMARK SMILES IDX 37 75 39 76 41 77 38 78
REMARK H PARENT 58 40 32 51
REMARK Flexibility Score: inf
ROOT
ATOM      1  C   UNL A   1      31.275  31.372  26.154  1.00  0.00     0.274 C 
ENDROOT
BRANCH   1   2
ATOM      2  O   UNL A   1      32.504  30.614  26.120  1.00  0.00    -0.462 OA
BRANCH   2   3
ATOM      3  C   UNL A   1      32.418  29.317  25.697  1.00  0.00     0.313 C 
ATOM      4  O   UNL A   1      31.844  28.999  24.662  1.00  0.00    -0.252 OA
BRANCH   3   5
ATOM      5  C   UNL A   1      33.024  28.325  26.727  1.00  0.00     0.126 C 
ATOM      6  C   UNL A   1      34.407  28.821  27.190  1.00  0.00     0.025 C 
BRANCH   5   7
ATOM      7  C   UNL A   1      33.037  26.853  26.255  1.00  0.00    -0.034 A 
ATOM      8  C   UNL A   1      31.946  26.005  26.514  1.00  0.00     0.005 A 
ATOM      9  C   UNL A   1      34.119  26.284  25.560  1.00  0.00     0.005 A 
ATOM     10  C   UNL A   1      31.881  24.707  25.984  1.00  0.00     0.009 A 
ATOM     11  C   UNL A   1      34.062  24.979  25.044  1.00  0.00     0.009 A 
ATOM     12  C   UNL A   1      32.923  24.184  25.209  1.00  0.00    -0.018 A 
BRANCH  12  13
ATOM     13  C   UNL A   1      32.775  22.889  24.522  1.00  0.00    -0.018 A 
ATOM     14  C   UNL A   1      32.410  22.839  23.165  1.00  0.00     0.009 A 
ATOM     15  C   UNL A   1      32.918  21.674  25.206  1.00  0.00     0.009 A 
ATOM     16  C   UNL A   1      32.142  21.626  22.527  1.00  0.00     0.001 A 
ATOM     17  C   UNL A   1      32.673  20.455  24.563  1.00  0.00     0.001 A 
ATOM     18  C   UNL A   1      32.269  20.434  23.230  1.00  0.00     0.000 A 
ENDBRANCH  12  13
ENDBRANCH   5   7
ENDBRANCH   3   5
ENDBRANCH   2   3
ENDBRANCH   1   2
BRANCH   1  19
ATOM     19  C   UNL A   1      31.426  32.691  26.918  1.00  0.00     0.275 C 
BRANCH  19  20
ATOM     20  O   UNL A   1      32.777  33.181  26.855  1.00  0.00    -0.458 OA
BRANCH  20  21
ATOM     21  C   UNL A   1      33.190  33.859  27.949  1.00  0.00     0.338 C 
ATOM     22  O   UNL A   1      32.561  34.702  28.576  1.00  0.00    -0.246 OA
BRANCH  21  23
ATOM     23  C   UNL A   1      34.454  33.286  28.438  1.00  0.00     0.060 A 
ATOM     24  C   UNL A   1      34.360  32.059  29.087  1.00  0.00     0.016 A 
ATOM     25  C   UNL A   1      35.694  33.917  28.301  1.00  0.00     0.016 A 
ATOM     26  C   UNL A   1      35.502  31.438  29.572  1.00  0.00     0.010 A 
ATOM     27  C   UNL A   1      36.843  33.302  28.827  1.00  0.00     0.010 A 
ATOM     28  C   UNL A   1      36.751  32.055  29.465  1.00  0.00    -0.014 A 
BRANCH  28  29
ATOM     29  C   UNL A   1      37.911  31.393  30.111  1.00  0.00     0.031 A 
ATOM     30  C   UNL A   1      38.186  31.640  31.567  1.00  0.00     0.074 A 
ATOM     31  C   UNL A   1      38.622  30.461  29.451  1.00  0.00     0.049 A 
ATOM     32  N   UNL A   1      39.103  31.116  32.339  1.00  0.00    -0.248 NA
ATOM     33  C   UNL A   1      37.282  32.577  32.252  1.00  0.00     0.031 C 
ATOM     34  C   UNL A   1      38.360  30.009  28.087  1.00  0.00     0.029 A 
ATOM     35  N   UNL A   1      39.683  29.692  29.864  1.00  0.00    -0.354 N 
ATOM     36  C   UNL A   1      38.890  31.657  33.599  1.00  0.00     0.074 A 
ATOM     37  C   UNL A   1      37.756  32.550  33.490  1.00  0.00     0.031 C 
ATOM     38  C   UNL A   1      39.222  29.022  27.783  1.00  0.00     0.029 A 
ATOM     39  C   UNL A   1      40.120  28.802  28.915  1.00  0.00     0.049 A 
ATOM     40  H   UNL A   1      40.092  29.773  30.756  1.00  0.00     0.167 HD
ATOM     41  C   UNL A   1      39.577  31.432  34.743  1.00  0.00     0.037 A 
ATOM     42  C   UNL A   1      41.137  27.919  28.954  1.00  0.00     0.037 A 
ATOM     43  C   UNL A   1      40.714  30.561  34.861  1.00  0.00     0.049 A 
ATOM     44  C   UNL A   1      41.984  27.812  30.195  1.00  0.00     0.074 A 
ATOM     45  C   UNL A   1      41.502  30.318  35.974  1.00  0.00     0.029 A 
ATOM     46  N   UNL A   1      41.234  29.796  33.829  1.00  0.00    -0.354 N 
ATOM     47  N   UNL A   1      41.806  28.360  31.373  1.00  0.00    -0.248 NA
ATOM     48  C   UNL A   1      43.191  26.975  30.102  1.00  0.00     0.031 C 
ATOM     49  C   UNL A   1      42.523  29.435  35.604  1.00  0.00     0.029 A 
ATOM     50  C   UNL A   1      42.346  29.098  34.273  1.00  0.00     0.049 A 
ATOM     51  H   UNL A   1      40.866  29.753  32.917  1.00  0.00     0.167 HD
ATOM     52  C   UNL A   1      42.862  27.919  32.162  1.00  0.00     0.074 A 
ATOM     53  C   UNL A   1      43.667  27.043  31.338  1.00  0.00     0.031 C 
ATOM     54  C   UNL A   1      43.140  28.220  33.453  1.00  0.00     0.037 A 
BRANCH  41  55
ATOM     55  C   UNL A   1      39.142  32.190  35.959  1.00  0.00     0.057 A 
ATOM     56  C   UNL A   1      39.610  33.480  36.231  1.00  0.00     0.134 A 
ATOM     57  C   UNL A   1      38.221  31.629  36.852  1.00  0.00     0.134 A 
ATOM     58  F   UNL A   1      40.505  34.064  35.420  1.00  0.00    -0.206 F 
ATOM     59  C   UNL A   1      39.185  34.184  37.359  1.00  0.00     0.040 A 
ATOM     60  C   UNL A   1      37.776  32.328  37.973  1.00  0.00     0.040 A 
ATOM     61  F   UNL A   1      37.736  30.396  36.643  1.00  0.00    -0.206 F 
ATOM     62  C   UNL A   1      38.261  33.609  38.230  1.00  0.00     0.006 A 
ENDBRANCH  41  55
BRANCH  42  63
ATOM     63  C   UNL A   1      41.456  27.083  27.769  1.00  0.00     0.057 A 
ATOM     64  C   UNL A   1      42.244  27.579  26.723  1.00  0.00     0.134 A 
ATOM     65  C   UNL A   1      40.923  25.797  27.621  1.00  0.00     0.134 A 
ATOM     66  F   UNL A   1      42.753  28.818  26.788  1.00  0.00    -0.206 F 
ATOM     67  C   UNL A   1      42.476  26.832  25.567  1.00  0.00     0.040 A 
ATOM     68  C   UNL A   1      41.167  25.030  26.482  1.00  0.00     0.040 A 
ATOM     69  F   UNL A   1      40.146  25.271  28.579  1.00  0.00    -0.206 F 
ATOM     70  C   UNL A   1      41.939  25.551  25.446  1.00  0.00     0.006 A 
ENDBRANCH  42  63
BRANCH  54  71
ATOM     71  C   UNL A   1      44.349  27.581  34.071  1.00  0.00     0.057 A 
ATOM     72  C   UNL A   1      44.297  26.302  34.638  1.00  0.00     0.134 A 
ATOM     73  C   UNL A   1      45.590  28.230  34.055  1.00  0.00     0.134 A 
ATOM     74  F   UNL A   1      43.137  25.631  34.697  1.00  0.00    -0.206 F 
ATOM     75  C   UNL A   1      45.433  25.697  35.181  1.00  0.00     0.040 A 
ATOM     76  C   UNL A   1      46.737  27.628  34.573  1.00  0.00     0.040 A 
ATOM     77  F   UNL A   1      45.711  29.455  33.519  1.00  0.00    -0.206 F 
ATOM     78  C   UNL A   1      46.659  26.358  35.142  1.00  0.00     0.006 A 
ENDBRANCH  54  71
ENDBRANCH  28  29
ENDBRANCH  21  23
ENDBRANCH  20  21
ENDBRANCH  19  20
ENDBRANCH   1  19
TORSDOF 13
ENDMDL
