MODEL 1
REMARK VINA RESULT:     -10.6      0.000      0.000
REMARK SMILES CSc1ccc(C[C@H]([NH3+])C(=O)OCCOC(=O)c2ccc(-c3c4nc(c(-c5c(F)cccc5F)c5ccc([nH]5)c(-c5c(F)cccc5F)c5nc(c(-c6c(F)cccc6F)c6ccc3[nH]6)C=C5)C=C4)cc2)cc1
REMARK SMILES IDX 13 1 12 2 10 3 11 4 8 5 7 6 6 7 3 8 4 9 73 10 5 11 72 12
REMARK SMILES IDX 2 13 1 14 9 15 14 19 15 20 16 21 17 22 18 23 19 24 71 25
REMARK SMILES IDX 20 26 70 27 21 28 22 29 23 30 64 31 24 32 69 33 63 34 65 35
REMARK SMILES IDX 25 36 68 37 62 38 61 39 26 41 52 42 35 43 51 44 36 45 39 46
REMARK SMILES IDX 50 47 66 48 37 49 38 50 49 52 67 53 40 54 27 55 28 56 33 57
REMARK SMILES IDX 29 58 30 59 32 60 34 61 31 62 53 63 54 64 59 65 55 66 56 67
REMARK SMILES IDX 58 68 60 69 57 70 41 71 42 72 47 73 43 74 44 75 46 76 48 77
REMARK SMILES IDX 45 78
REMARK H PARENT 9 16 9 17 9 18 65 40 39 51
REMARK Flexibility Score: inf
ROOT
ATOM      1  C   UNL A   1      44.281  21.348  25.051  1.00  0.00     0.274 C 
ENDROOT
BRANCH   1   2
ATOM      2  O   UNL A   1      42.934  21.327  25.552  1.00  0.00    -0.458 OA
BRANCH   2   3
ATOM      3  C   UNL A   1      42.377  20.106  25.796  1.00  0.00     0.365 C 
ATOM      4  O   UNL A   1      42.755  19.049  25.300  1.00  0.00    -0.245 OA
BRANCH   3   5
ATOM      5  C   UNL A   1      41.201  20.191  26.793  1.00  0.00     0.296 C 
BRANCH   5   6
ATOM      6  C   UNL A   1      40.881  21.638  27.226  1.00  0.00     0.113 C 
BRANCH   6   7
ATOM      7  C   UNL A   1      39.676  22.237  26.542  1.00  0.00    -0.041 A 
ATOM      8  C   UNL A   1      37.226  23.229  25.595  1.00  0.00     0.007 A 
ATOM      9  C   UNL A   1      37.635  21.932  25.271  1.00  0.00     0.015 A 
ATOM     10  C   UNL A   1      38.061  24.036  26.370  1.00  0.00     0.015 A 
ATOM     11  C   UNL A   1      38.861  21.444  25.728  1.00  0.00     0.005 A 
ATOM     12  C   UNL A   1      39.282  23.548  26.838  1.00  0.00     0.005 A 
BRANCH   8  13
ATOM     13  S   UNL A   1      35.623  23.853  25.124  1.00  0.00    -0.130 SA
ATOM     14  C   UNL A   1      34.898  22.351  24.422  1.00  0.00     0.091 C 
ENDBRANCH   8  13
ENDBRANCH   6   7
ENDBRANCH   5   6
BRANCH   5  15
ATOM     15  N   UNL A   1      41.395  19.295  27.963  1.00  0.00    -0.346 N 
ATOM     16  H   UNL A   1      42.387  19.257  28.201  1.00  0.00     0.345 HD
ATOM     17  H   UNL A   1      41.064  18.359  27.735  1.00  0.00     0.345 HD
ATOM     18  H   UNL A   1      40.870  19.658  28.760  1.00  0.00     0.345 HD
ENDBRANCH   5  15
ENDBRANCH   3   5
ENDBRANCH   2   3
ENDBRANCH   1   2
BRANCH   1  19
ATOM     19  C   UNL A   1      44.509  22.542  24.121  1.00  0.00     0.275 C 
BRANCH  19  20
ATOM     20  O   UNL A   1      43.750  23.692  24.539  1.00  0.00    -0.458 OA
BRANCH  20  21
ATOM     21  C   UNL A   1      44.487  24.708  25.047  1.00  0.00     0.338 C 
ATOM     22  O   UNL A   1      45.554  25.131  24.630  1.00  0.00    -0.246 OA
BRANCH  21  23
ATOM     23  C   UNL A   1      43.726  25.397  26.104  1.00  0.00     0.060 A 
ATOM     24  C   UNL A   1      44.059  26.732  26.353  1.00  0.00     0.016 A 
ATOM     25  C   UNL A   1      42.749  24.754  26.869  1.00  0.00     0.016 A 
ATOM     26  C   UNL A   1      43.425  27.431  27.371  1.00  0.00     0.010 A 
ATOM     27  C   UNL A   1      42.118  25.456  27.902  1.00  0.00     0.010 A 
ATOM     28  C   UNL A   1      42.468  26.792  28.167  1.00  0.00    -0.014 A 
BRANCH  28  29
ATOM     29  C   UNL A   1      41.919  27.528  29.327  1.00  0.00     0.031 A 
ATOM     30  C   UNL A   1      42.633  27.469  30.644  1.00  0.00     0.074 A 
ATOM     31  C   UNL A   1      40.846  28.323  29.165  1.00  0.00     0.049 A 
ATOM     32  N   UNL A   1      42.359  28.089  31.763  1.00  0.00    -0.248 NA
ATOM     33  C   UNL A   1      43.817  26.598  30.710  1.00  0.00     0.031 C 
ATOM     34  C   UNL A   1      40.101  28.491  27.917  1.00  0.00     0.029 A 
ATOM     35  N   UNL A   1      40.211  29.154  30.051  1.00  0.00    -0.354 N 
ATOM     36  C   UNL A   1      43.331  27.682  32.666  1.00  0.00     0.074 A 
ATOM     37  C   UNL A   1      44.187  26.742  31.974  1.00  0.00     0.031 C 
ATOM     38  C   UNL A   1      39.116  29.383  28.114  1.00  0.00     0.029 A 
ATOM     39  C   UNL A   1      39.148  29.828  29.506  1.00  0.00     0.049 A 
ATOM     40  H   UNL A   1      40.492  29.257  30.989  1.00  0.00     0.167 HD
ATOM     41  C   UNL A   1      43.498  28.065  33.955  1.00  0.00     0.037 A 
ATOM     42  C   UNL A   1      38.293  30.702  30.070  1.00  0.00     0.037 A 
ATOM     43  C   UNL A   1      42.646  29.003  34.637  1.00  0.00     0.049 A 
ATOM     44  C   UNL A   1      38.479  31.080  31.513  1.00  0.00     0.074 A 
ATOM     45  C   UNL A   1      42.729  29.454  35.943  1.00  0.00     0.029 A 
ATOM     46  N   UNL A   1      41.552  29.635  34.065  1.00  0.00    -0.354 N 
ATOM     47  N   UNL A   1      39.404  30.692  32.358  1.00  0.00    -0.248 NA
ATOM     48  C   UNL A   1      37.505  32.023  32.078  1.00  0.00     0.031 C 
ATOM     49  C   UNL A   1      41.662  30.332  36.171  1.00  0.00     0.029 A 
ATOM     50  C   UNL A   1      40.941  30.461  34.995  1.00  0.00     0.049 A 
ATOM     51  H   UNL A   1      41.254  29.514  33.135  1.00  0.00     0.167 HD
ATOM     52  C   UNL A   1      39.133  31.353  33.549  1.00  0.00     0.074 A 
ATOM     53  C   UNL A   1      37.972  32.186  33.308  1.00  0.00     0.031 C 
ATOM     54  C   UNL A   1      39.783  31.277  34.736  1.00  0.00     0.037 A 
BRANCH  41  55
ATOM     55  C   UNL A   1      44.632  27.442  34.713  1.00  0.00     0.057 A 
ATOM     56  C   UNL A   1      44.483  26.238  35.412  1.00  0.00     0.134 A 
ATOM     57  C   UNL A   1      45.894  28.050  34.732  1.00  0.00     0.134 A 
ATOM     58  F   UNL A   1      43.295  25.615  35.450  1.00  0.00    -0.206 F 
ATOM     59  C   UNL A   1      45.544  25.671  36.121  1.00  0.00     0.040 A 
ATOM     60  C   UNL A   1      46.968  27.481  35.418  1.00  0.00     0.040 A 
ATOM     61  F   UNL A   1      46.103  29.205  34.083  1.00  0.00    -0.206 F 
ATOM     62  C   UNL A   1      46.792  26.290  36.120  1.00  0.00     0.006 A 
ENDBRANCH  41  55
BRANCH  42  63
ATOM     63  C   UNL A   1      37.184  31.277  29.269  1.00  0.00     0.057 A 
ATOM     64  C   UNL A   1      37.247  32.584  28.774  1.00  0.00     0.134 A 
ATOM     65  C   UNL A   1      36.030  30.536  28.994  1.00  0.00     0.134 A 
ATOM     66  F   UNL A   1      38.319  33.351  29.024  1.00  0.00    -0.206 F 
ATOM     67  C   UNL A   1      36.194  33.139  28.045  1.00  0.00     0.040 A 
ATOM     68  C   UNL A   1      34.979  31.069  28.246  1.00  0.00     0.040 A 
ATOM     69  F   UNL A   1      35.909  29.278  29.442  1.00  0.00    -0.206 F 
ATOM     70  C   UNL A   1      35.058  32.378  27.775  1.00  0.00     0.006 A 
ENDBRANCH  42  63
BRANCH  54  71
ATOM     71  C   UNL A   1      39.258  32.134  35.850  1.00  0.00     0.057 A 
ATOM     72  C   UNL A   1      39.694  33.452  36.034  1.00  0.00     0.134 A 
ATOM     73  C   UNL A   1      38.301  31.636  36.744  1.00  0.00     0.134 A 
ATOM     74  F   UNL A   1      40.619  33.982  35.219  1.00  0.00    -0.206 F 
ATOM     75  C   UNL A   1      39.221  34.235  37.088  1.00  0.00     0.040 A 
ATOM     76  C   UNL A   1      37.803  32.418  37.787  1.00  0.00     0.040 A 
ATOM     77  F   UNL A   1      37.836  30.385  36.617  1.00  0.00    -0.206 F 
ATOM     78  C   UNL A   1      38.270  33.719  37.966  1.00  0.00     0.006 A 
ENDBRANCH  54  71
ENDBRANCH  28  29
ENDBRANCH  21  23
ENDBRANCH  20  21
ENDBRANCH  19  20
ENDBRANCH   1  19
TORSDOF 15
ENDMDL
MODEL 2
REMARK VINA RESULT:     -10.6      3.961      5.785
REMARK SMILES CSc1ccc(C[C@H]([NH3+])C(=O)OCCOC(=O)c2ccc(-c3c4nc(c(-c5c(F)cccc5F)c5ccc([nH]5)c(-c5c(F)cccc5F)c5nc(c(-c6c(F)cccc6F)c6ccc3[nH]6)C=C5)C=C4)cc2)cc1
REMARK SMILES IDX 13 1 12 2 10 3 11 4 8 5 7 6 6 7 3 8 4 9 73 10 5 11 72 12
REMARK SMILES IDX 2 13 1 14 9 15 14 19 15 20 16 21 17 22 18 23 19 24 71 25
REMARK SMILES IDX 20 26 70 27 21 28 22 29 23 30 64 31 24 32 69 33 63 34 65 35
REMARK SMILES IDX 25 36 68 37 62 38 61 39 26 41 52 42 35 43 51 44 36 45 39 46
REMARK SMILES IDX 50 47 66 48 37 49 38 50 49 52 67 53 40 54 27 55 28 56 33 57
REMARK SMILES IDX 29 58 30 59 32 60 34 61 31 62 53 63 54 64 59 65 55 66 56 67
REMARK SMILES IDX 58 68 60 69 57 70 41 71 42 72 47 73 43 74 44 75 46 76 48 77
REMARK SMILES IDX 45 78
REMARK H PARENT 9 16 9 17 9 18 65 40 39 51
REMARK Flexibility Score: inf
ROOT
ATOM      1  C   UNL A   1      44.618  18.445  25.373  1.00  0.00     0.274 C 
ENDROOT
BRANCH   1   2
ATOM      2  O   UNL A   1      44.785  19.471  24.382  1.00  0.00    -0.458 OA
BRANCH   2   3
ATOM      3  C   UNL A   1      45.869  20.290  24.506  1.00  0.00     0.365 C 
ATOM      4  O   UNL A   1      47.027  19.963  24.267  1.00  0.00    -0.245 OA
BRANCH   3   5
ATOM      5  C   UNL A   1      45.477  21.707  24.978  1.00  0.00     0.296 C 
BRANCH   5   6
ATOM      6  C   UNL A   1      46.312  22.819  24.307  1.00  0.00     0.113 C 
BRANCH   6   7
ATOM      7  C   UNL A   1      46.208  24.164  24.982  1.00  0.00    -0.041 A 
ATOM      8  C   UNL A   1      46.087  26.825  25.871  1.00  0.00     0.007 A 
ATOM      9  C   UNL A   1      47.296  26.125  25.902  1.00  0.00     0.015 A 
ATOM     10  C   UNL A   1      44.933  26.179  25.422  1.00  0.00     0.015 A 
ATOM     11  C   UNL A   1      47.354  24.797  25.475  1.00  0.00     0.005 A 
ATOM     12  C   UNL A   1      44.990  24.855  24.984  1.00  0.00     0.005 A 
BRANCH   8  13
ATOM     13  S   UNL A   1      45.991  28.553  26.304  1.00  0.00    -0.130 SA
ATOM     14  C   UNL A   1      44.215  28.697  26.618  1.00  0.00     0.091 C 
ENDBRANCH   8  13
ENDBRANCH   6   7
ENDBRANCH   5   6
BRANCH   5  15
ATOM     15  N   UNL A   1      45.491  21.825  26.460  1.00  0.00    -0.346 N 
ATOM     16  H   UNL A   1      46.414  21.569  26.813  1.00  0.00     0.345 HD
ATOM     17  H   UNL A   1      44.790  21.201  26.858  1.00  0.00     0.345 HD
ATOM     18  H   UNL A   1      45.281  22.788  26.726  1.00  0.00     0.345 HD
ENDBRANCH   5  15
ENDBRANCH   3   5
ENDBRANCH   2   3
ENDBRANCH   1   2
BRANCH   1  19
ATOM     19  C   UNL A   1      43.229  18.513  26.015  1.00  0.00     0.275 C 
BRANCH  19  20
ATOM     20  O   UNL A   1      42.327  19.323  25.239  1.00  0.00    -0.458 OA
BRANCH  20  21
ATOM     21  C   UNL A   1      41.312  19.879  25.942  1.00  0.00     0.338 C 
ATOM     22  O   UNL A   1      40.246  19.362  26.243  1.00  0.00    -0.246 OA
BRANCH  21  23
ATOM     23  C   UNL A   1      41.736  21.181  26.486  1.00  0.00     0.060 A 
ATOM     24  C   UNL A   1      41.801  21.292  27.878  1.00  0.00     0.016 A 
ATOM     25  C   UNL A   1      42.016  22.281  25.672  1.00  0.00     0.016 A 
ATOM     26  C   UNL A   1      42.139  22.503  28.467  1.00  0.00     0.010 A 
ATOM     27  C   UNL A   1      42.346  23.505  26.265  1.00  0.00     0.010 A 
ATOM     28  C   UNL A   1      42.391  23.623  27.666  1.00  0.00    -0.014 A 
BRANCH  28  29
ATOM     29  C   UNL A   1      42.610  24.925  28.334  1.00  0.00     0.031 A 
ATOM     30  C   UNL A   1      43.990  25.300  28.787  1.00  0.00     0.074 A 
ATOM     31  C   UNL A   1      41.594  25.800  28.438  1.00  0.00     0.049 A 
ATOM     32  N   UNL A   1      44.408  26.413  29.331  1.00  0.00    -0.248 NA
ATOM     33  C   UNL A   1      45.040  24.287  28.598  1.00  0.00     0.031 C 
ATOM     34  C   UNL A   1      40.222  25.557  27.991  1.00  0.00     0.029 A 
ATOM     35  N   UNL A   1      41.567  27.078  28.934  1.00  0.00    -0.354 N 
ATOM     36  C   UNL A   1      45.767  26.235  29.553  1.00  0.00     0.074 A 
ATOM     37  C   UNL A   1      46.099  24.898  29.109  1.00  0.00     0.031 C 
ATOM     38  C   UNL A   1      39.488  26.659  28.221  1.00  0.00     0.029 A 
ATOM     39  C   UNL A   1      40.332  27.671  28.853  1.00  0.00     0.049 A 
ATOM     40  H   UNL A   1      42.357  27.526  29.312  1.00  0.00     0.167 HD
ATOM     41  C   UNL A   1      46.658  27.113  30.074  1.00  0.00     0.037 A 
ATOM     42  C   UNL A   1      39.929  28.892  29.249  1.00  0.00     0.037 A 
ATOM     43  C   UNL A   1      46.324  28.443  30.510  1.00  0.00     0.049 A 
ATOM     44  C   UNL A   1      40.931  29.832  29.858  1.00  0.00     0.074 A 
ATOM     45  C   UNL A   1      47.154  29.408  31.055  1.00  0.00     0.029 A 
ATOM     46  N   UNL A   1      45.053  28.996  30.451  1.00  0.00    -0.354 N 
ATOM     47  N   UNL A   1      42.215  29.656  30.062  1.00  0.00    -0.248 NA
ATOM     48  C   UNL A   1      40.429  31.144  30.289  1.00  0.00     0.031 C 
ATOM     49  C   UNL A   1      46.376  30.532  31.359  1.00  0.00     0.029 A 
ATOM     50  C   UNL A   1      45.072  30.283  30.964  1.00  0.00     0.049 A 
ATOM     51  H   UNL A   1      44.256  28.540  30.098  1.00  0.00     0.167 HD
ATOM     52  C   UNL A   1      42.676  30.836  30.628  1.00  0.00     0.074 A 
ATOM     53  C   UNL A   1      41.539  31.730  30.714  1.00  0.00     0.031 C 
ATOM     54  C   UNL A   1      43.927  31.153  31.045  1.00  0.00     0.037 A 
BRANCH  41  55
ATOM     55  C   UNL A   1      48.075  26.643  30.223  1.00  0.00     0.057 A 
ATOM     56  C   UNL A   1      49.070  26.984  29.298  1.00  0.00     0.134 A 
ATOM     57  C   UNL A   1      48.450  25.848  31.314  1.00  0.00     0.134 A 
ATOM     58  F   UNL A   1      48.772  27.726  28.221  1.00  0.00    -0.206 F 
ATOM     59  C   UNL A   1      50.384  26.534  29.443  1.00  0.00     0.040 A 
ATOM     60  C   UNL A   1      49.764  25.412  31.481  1.00  0.00     0.040 A 
ATOM     61  F   UNL A   1      47.544  25.486  32.235  1.00  0.00    -0.206 F 
ATOM     62  C   UNL A   1      50.735  25.750  30.541  1.00  0.00     0.006 A 
ENDBRANCH  41  55
BRANCH  42  63
ATOM     63  C   UNL A   1      38.511  29.296  29.083  1.00  0.00     0.057 A 
ATOM     64  C   UNL A   1      37.614  29.264  30.157  1.00  0.00     0.134 A 
ATOM     65  C   UNL A   1      38.016  29.709  27.841  1.00  0.00     0.134 A 
ATOM     66  F   UNL A   1      38.026  28.855  31.367  1.00  0.00    -0.206 F 
ATOM     67  C   UNL A   1      36.274  29.615  30.000  1.00  0.00     0.040 A 
ATOM     68  C   UNL A   1      36.683  30.086  27.674  1.00  0.00     0.040 A 
ATOM     69  F   UNL A   1      38.824  29.760  26.773  1.00  0.00    -0.206 F 
ATOM     70  C   UNL A   1      35.806  30.033  28.754  1.00  0.00     0.006 A 
ENDBRANCH  42  63
BRANCH  54  71
ATOM     71  C   UNL A   1      44.124  32.530  31.608  1.00  0.00     0.057 A 
ATOM     72  C   UNL A   1      43.993  32.791  32.978  1.00  0.00     0.134 A 
ATOM     73  C   UNL A   1      44.453  33.604  30.772  1.00  0.00     0.134 A 
ATOM     74  F   UNL A   1      43.667  31.807  33.829  1.00  0.00    -0.206 F 
ATOM     75  C   UNL A   1      44.151  34.078  33.492  1.00  0.00     0.040 A 
ATOM     76  C   UNL A   1      44.637  34.891  31.277  1.00  0.00     0.040 A 
ATOM     77  F   UNL A   1      44.601  33.419  29.451  1.00  0.00    -0.206 F 
ATOM     78  C   UNL A   1      44.478  35.132  32.640  1.00  0.00     0.006 A 
ENDBRANCH  54  71
ENDBRANCH  28  29
ENDBRANCH  21  23
ENDBRANCH  20  21
ENDBRANCH  19  20
ENDBRANCH   1  19
TORSDOF 15
ENDMDL
MODEL 3
REMARK VINA RESULT:     -10.0      3.994      8.275
REMARK SMILES CSc1ccc(C[C@H]([NH3+])C(=O)OCCOC(=O)c2ccc(-c3c4nc(c(-c5c(F)cccc5F)c5ccc([nH]5)c(-c5c(F)cccc5F)c5nc(c(-c6c(F)cccc6F)c6ccc3[nH]6)C=C5)C=C4)cc2)cc1
REMARK SMILES IDX 13 1 12 2 10 3 11 4 8 5 7 6 6 7 3 8 4 9 73 10 5 11 72 12
REMARK SMILES IDX 2 13 1 14 9 15 14 19 15 20 16 21 17 22 18 23 19 24 71 25
REMARK SMILES IDX 20 26 70 27 21 28 22 29 23 30 64 31 24 32 69 33 63 34 65 35
REMARK SMILES IDX 25 36 68 37 62 38 61 39 26 41 52 42 35 43 51 44 36 45 39 46
REMARK SMILES IDX 50 47 66 48 37 49 38 50 49 52 67 53 40 54 27 55 28 56 33 57
REMARK SMILES IDX 29 58 30 59 32 60 34 61 31 62 53 63 54 64 59 65 55 66 56 67
REMARK SMILES IDX 58 68 60 69 57 70 41 71 42 72 47 73 43 74 44 75 46 76 48 77
REMARK SMILES IDX 45 78
REMARK H PARENT 9 16 9 17 9 18 65 40 39 51
REMARK Flexibility Score: inf
ROOT
ATOM      1  C   UNL A   1      43.898  17.968  26.449  1.00  0.00     0.274 C 
ENDROOT
BRANCH   1   2
ATOM      2  O   UNL A   1      44.516  18.447  25.243  1.00  0.00    -0.458 OA
BRANCH   2   3
ATOM      3  C   UNL A   1      45.848  18.735  25.295  1.00  0.00     0.365 C 
ATOM      4  O   UNL A   1      46.739  17.911  25.475  1.00  0.00    -0.245 OA
BRANCH   3   5
ATOM      5  C   UNL A   1      46.126  20.240  25.088  1.00  0.00     0.296 C 
BRANCH   5   6
ATOM      6  C   UNL A   1      44.838  21.084  24.992  1.00  0.00     0.113 C 
BRANCH   6   7
ATOM      7  C   UNL A   1      45.076  22.574  24.939  1.00  0.00    -0.041 A 
ATOM      8  C   UNL A   1      45.423  25.345  25.234  1.00  0.00     0.007 A 
ATOM      9  C   UNL A   1      44.184  24.825  24.848  1.00  0.00     0.015 A 
ATOM     10  C   UNL A   1      46.494  24.474  25.444  1.00  0.00     0.015 A 
ATOM     11  C   UNL A   1      44.015  23.449  24.685  1.00  0.00     0.005 A 
ATOM     12  C   UNL A   1      46.326  23.097  25.293  1.00  0.00     0.005 A 
BRANCH   8  13
ATOM     13  S   UNL A   1      45.652  27.083  25.558  1.00  0.00    -0.130 SA
ATOM     14  C   UNL A   1      43.935  27.576  25.846  1.00  0.00     0.091 C 
ENDBRANCH   8  13
ENDBRANCH   6   7
ENDBRANCH   5   6
BRANCH   5  15
ATOM     15  N   UNL A   1      47.034  20.486  23.936  1.00  0.00    -0.346 N 
ATOM     16  H   UNL A   1      47.389  19.595  23.587  1.00  0.00     0.345 HD
ATOM     17  H   UNL A   1      47.814  21.069  24.235  1.00  0.00     0.345 HD
ATOM     18  H   UNL A   1      46.519  20.960  23.193  1.00  0.00     0.345 HD
ENDBRANCH   5  15
ENDBRANCH   3   5
ENDBRANCH   2   3
ENDBRANCH   1   2
BRANCH   1  19
ATOM     19  C   UNL A   1      42.371  18.035  26.355  1.00  0.00     0.275 C 
BRANCH  19  20
ATOM     20  O   UNL A   1      41.940  19.093  25.479  1.00  0.00    -0.458 OA
BRANCH  20  21
ATOM     21  C   UNL A   1      40.805  19.723  25.862  1.00  0.00     0.338 C 
ATOM     22  O   UNL A   1      39.662  19.296  25.801  1.00  0.00    -0.246 OA
BRANCH  21  23
ATOM     23  C   UNL A   1      41.141  20.975  26.563  1.00  0.00     0.060 A 
ATOM     24  C   UNL A   1      40.818  22.169  25.911  1.00  0.00     0.016 A 
ATOM     25  C   UNL A   1      41.798  20.994  27.796  1.00  0.00     0.016 A 
ATOM     26  C   UNL A   1      41.154  23.389  26.481  1.00  0.00     0.010 A 
ATOM     27  C   UNL A   1      42.147  22.224  28.365  1.00  0.00     0.010 A 
ATOM     28  C   UNL A   1      41.841  23.424  27.701  1.00  0.00    -0.014 A 
BRANCH  28  29
ATOM     29  C   UNL A   1      42.302  24.737  28.205  1.00  0.00     0.031 A 
ATOM     30  C   UNL A   1      41.307  25.840  28.412  1.00  0.00     0.074 A 
ATOM     31  C   UNL A   1      43.587  24.898  28.567  1.00  0.00     0.049 A 
ATOM     32  N   UNL A   1      41.490  27.038  28.904  1.00  0.00    -0.248 NA
ATOM     33  C   UNL A   1      39.919  25.554  28.016  1.00  0.00     0.031 C 
ATOM     34  C   UNL A   1      44.631  23.878  28.451  1.00  0.00     0.029 A 
ATOM     35  N   UNL A   1      44.227  25.973  29.126  1.00  0.00    -0.354 N 
ATOM     36  C   UNL A   1      40.244  27.650  28.874  1.00  0.00     0.074 A 
ATOM     37  C   UNL A   1      39.318  26.702  28.292  1.00  0.00     0.031 C 
ATOM     38  C   UNL A   1      45.780  24.374  28.939  1.00  0.00     0.029 A 
ATOM     39  C   UNL A   1      45.557  25.751  29.376  1.00  0.00     0.049 A 
ATOM     40  H   UNL A   1      43.774  26.824  29.329  1.00  0.00     0.167 HD
ATOM     41  C   UNL A   1      39.904  28.890  29.301  1.00  0.00     0.037 A 
ATOM     42  C   UNL A   1      46.491  26.569  29.896  1.00  0.00     0.037 A 
ATOM     43  C   UNL A   1      40.828  29.828  29.882  1.00  0.00     0.049 A 
ATOM     44  C   UNL A   1      46.094  27.953  30.327  1.00  0.00     0.074 A 
ATOM     45  C   UNL A   1      40.583  31.110  30.343  1.00  0.00     0.029 A 
ATOM     46  N   UNL A   1      42.179  29.583  30.081  1.00  0.00    -0.354 N 
ATOM     47  N   UNL A   1      44.913  28.522  30.297  1.00  0.00    -0.248 NA
ATOM     48  C   UNL A   1      47.159  28.807  30.869  1.00  0.00     0.031 C 
ATOM     49  C   UNL A   1      41.794  31.653  30.789  1.00  0.00     0.029 A 
ATOM     50  C   UNL A   1      42.784  30.695  30.645  1.00  0.00     0.049 A 
ATOM     51  H   UNL A   1      42.639  28.743  29.856  1.00  0.00     0.167 HD
ATOM     52  C   UNL A   1      45.088  29.793  30.829  1.00  0.00     0.074 A 
ATOM     53  C   UNL A   1      46.486  29.901  31.195  1.00  0.00     0.031 C 
ATOM     54  C   UNL A   1      44.178  30.783  30.996  1.00  0.00     0.037 A 
BRANCH  41  55
ATOM     55  C   UNL A   1      38.474  29.306  29.125  1.00  0.00     0.057 A 
ATOM     56  C   UNL A   1      37.968  29.713  27.884  1.00  0.00     0.134 A 
ATOM     57  C   UNL A   1      37.588  29.287  30.211  1.00  0.00     0.134 A 
ATOM     58  F   UNL A   1      38.768  29.772  26.809  1.00  0.00    -0.206 F 
ATOM     59  C   UNL A   1      36.636  30.105  27.734  1.00  0.00     0.040 A 
ATOM     60  C   UNL A   1      36.251  29.655  30.068  1.00  0.00     0.040 A 
ATOM     61  F   UNL A   1      38.011  28.908  31.426  1.00  0.00    -0.206 F 
ATOM     62  C   UNL A   1      35.772  30.072  28.827  1.00  0.00     0.006 A 
ENDBRANCH  41  55
BRANCH  42  63
ATOM     63  C   UNL A   1      47.893  26.102  30.036  1.00  0.00     0.057 A 
ATOM     64  C   UNL A   1      48.767  26.087  28.944  1.00  0.00     0.134 A 
ATOM     65  C   UNL A   1      48.385  25.647  31.264  1.00  0.00     0.134 A 
ATOM     66  F   UNL A   1      48.346  26.490  27.735  1.00  0.00    -0.206 F 
ATOM     67  C   UNL A   1      50.077  25.622  29.064  1.00  0.00     0.040 A 
ATOM     68  C   UNL A   1      49.700  25.201  31.405  1.00  0.00     0.040 A 
ATOM     69  F   UNL A   1      47.596  25.636  32.348  1.00  0.00    -0.206 F 
ATOM     70  C   UNL A   1      50.548  25.182  30.301  1.00  0.00     0.006 A 
ENDBRANCH  42  63
BRANCH  54  71
ATOM     71  C   UNL A   1      44.670  32.056  31.621  1.00  0.00     0.057 A 
ATOM     72  C   UNL A   1      45.144  33.122  30.846  1.00  0.00     0.134 A 
ATOM     73  C   UNL A   1      44.665  32.218  33.012  1.00  0.00     0.134 A 
ATOM     74  F   UNL A   1      45.186  33.023  29.508  1.00  0.00    -0.206 F 
ATOM     75  C   UNL A   1      45.625  34.292  31.433  1.00  0.00     0.040 A 
ATOM     76  C   UNL A   1      45.122  33.393  33.610  1.00  0.00     0.040 A 
ATOM     77  F   UNL A   1      44.217  31.238  33.810  1.00  0.00    -0.206 F 
ATOM     78  C   UNL A   1      45.611  34.431  32.820  1.00  0.00     0.006 A 
ENDBRANCH  54  71
ENDBRANCH  28  29
ENDBRANCH  21  23
ENDBRANCH  20  21
ENDBRANCH  19  20
ENDBRANCH   1  19
TORSDOF 15
ENDMDL
