MODEL 1
REMARK VINA RESULT:     -10.6      0.000      0.000
REMARK SMILES CCC[C@]1(C(=O)OCCOC(=O)c2ccc(-c3c4nc(c(-c5c(F)cccc5F)c5ccc([nH]5)c(-c5c(F)cccc5F)c5nc(c(-c6c(F)cccc6F)c6ccc3[nH]6)C=C5)C=C4)cc2)CCCN(C(=O)N[C@H]2CCOC2)C1
REMARK SMILES IDX 8 1 7 2 5 3 6 4 4 5 67 6 79 7 68 8 70 9 69 10 3 11 2 12 1 13
REMARK SMILES IDX 71 14 72 15 73 16 74 18 75 19 78 20 76 21 77 22 9 23 10 24
REMARK SMILES IDX 11 25 12 26 13 27 14 28 66 29 15 30 65 31 16 32 17 33 18 34
REMARK SMILES IDX 59 35 19 36 64 37 58 38 60 39 20 40 63 41 57 42 56 43 21 45
REMARK SMILES IDX 47 46 30 47 46 48 31 49 34 50 45 51 61 52 32 53 33 54 44 56
REMARK SMILES IDX 62 57 35 58 22 59 23 60 28 61 24 62 25 63 27 64 29 65 26 66
REMARK SMILES IDX 48 67 49 68 54 69 50 70 51 71 53 72 55 73 52 74 36 75 37 76
REMARK SMILES IDX 42 77 38 78 39 79 41 80 43 81 40 82
REMARK H PARENT 73 17 60 44 34 55
REMARK Flexibility Score: inf
ROOT
ATOM      1  C   UNL A   1      38.692  21.707  25.746  1.00  0.00     0.274 C 
ENDROOT
BRANCH   1   2
ATOM      2  O   UNL A   1      37.374  21.986  25.249  1.00  0.00    -0.462 OA
BRANCH   2   3
ATOM      3  C   UNL A   1      36.811  23.175  25.595  1.00  0.00     0.314 C 
ATOM      4  O   UNL A   1      37.414  24.088  26.141  1.00  0.00    -0.252 OA
BRANCH   3   5
ATOM      5  C   UNL A   1      35.319  23.195  25.232  1.00  0.00     0.086 C 
ATOM      6  C   UNL A   1      35.091  24.429  24.265  1.00  0.00     0.022 C 
ATOM      7  C   UNL A   1      34.989  21.853  24.516  1.00  0.00     0.140 C 
ATOM      8  C   UNL A   1      33.917  24.320  23.293  1.00  0.00     0.023 C 
ATOM      9  N   UNL A   1      33.775  21.984  23.700  1.00  0.00    -0.324 N 
ATOM     10  C   UNL A   1      33.976  22.954  22.638  1.00  0.00     0.121 C 
BRANCH   5  11
ATOM     11  C   UNL A   1      34.437  23.375  26.493  1.00  0.00     0.020 C 
BRANCH  11  12
ATOM     12  C   UNL A   1      34.203  22.178  27.427  1.00  0.00    -0.002 C 
ATOM     13  C   UNL A   1      32.812  22.128  28.048  1.00  0.00     0.004 C 
ENDBRANCH  11  12
ENDBRANCH   5  11
BRANCH   9  14
ATOM     14  C   UNL A   1      32.584  21.577  24.258  1.00  0.00     0.317 C 
ATOM     15  O   UNL A   1      31.785  22.378  24.749  1.00  0.00    -0.249 OA
ATOM     16  N   UNL A   1      32.180  20.285  24.255  1.00  0.00    -0.333 N 
ATOM     17  H   UNL A   1      31.216  20.169  24.417  1.00  0.00     0.165 HD
BRANCH  16  18
ATOM     18  C   UNL A   1      32.894  19.045  24.057  1.00  0.00     0.112 C 
ATOM     19  C   UNL A   1      32.591  18.050  25.155  1.00  0.00     0.056 C 
ATOM     20  C   UNL A   1      32.545  18.222  22.823  1.00  0.00     0.185 C 
ATOM     21  C   UNL A   1      33.154  16.785  24.560  1.00  0.00     0.162 C 
ATOM     22  O   UNL A   1      32.899  16.861  23.147  1.00  0.00    -0.379 OA
ENDBRANCH  16  18
ENDBRANCH   9  14
ENDBRANCH   3   5
ENDBRANCH   2   3
ENDBRANCH   1   2
BRANCH   1  23
ATOM     23  C   UNL A   1      39.051  20.266  25.376  1.00  0.00     0.275 C 
BRANCH  23  24
ATOM     24  O   UNL A   1      39.862  19.691  26.419  1.00  0.00    -0.458 OA
BRANCH  24  25
ATOM     25  C   UNL A   1      41.182  19.577  26.127  1.00  0.00     0.338 C 
ATOM     26  O   UNL A   1      41.736  18.648  25.558  1.00  0.00    -0.246 OA
BRANCH  25  27
ATOM     27  C   UNL A   1      41.850  20.862  26.417  1.00  0.00     0.060 A 
ATOM     28  C   UNL A   1      41.975  21.235  27.758  1.00  0.00     0.016 A 
ATOM     29  C   UNL A   1      42.380  21.675  25.413  1.00  0.00     0.016 A 
ATOM     30  C   UNL A   1      42.711  22.363  28.113  1.00  0.00     0.010 A 
ATOM     31  C   UNL A   1      43.039  22.858  25.764  1.00  0.00     0.010 A 
ATOM     32  C   UNL A   1      43.213  23.204  27.115  1.00  0.00    -0.014 A 
BRANCH  32  33
ATOM     33  C   UNL A   1      43.751  24.535  27.478  1.00  0.00     0.031 A 
ATOM     34  C   UNL A   1      42.782  25.602  27.898  1.00  0.00     0.074 A 
ATOM     35  C   UNL A   1      45.070  24.794  27.434  1.00  0.00     0.049 A 
ATOM     36  N   UNL A   1      42.997  26.868  28.142  1.00  0.00    -0.248 NA
ATOM     37  C   UNL A   1      41.383  25.182  28.079  1.00  0.00     0.031 C 
ATOM     38  C   UNL A   1      46.117  23.818  27.145  1.00  0.00     0.029 A 
ATOM     39  N   UNL A   1      45.750  25.971  27.625  1.00  0.00    -0.354 N 
ATOM     40  C   UNL A   1      41.764  27.392  28.506  1.00  0.00     0.074 A 
ATOM     41  C   UNL A   1      40.806  26.310  28.459  1.00  0.00     0.031 C 
ATOM     42  C   UNL A   1      47.309  24.444  27.149  1.00  0.00     0.029 A 
ATOM     43  C   UNL A   1      47.100  25.870  27.395  1.00  0.00     0.049 A 
ATOM     44  H   UNL A   1      45.311  26.809  27.901  1.00  0.00     0.167 HD
ATOM     45  C   UNL A   1      41.450  28.667  28.829  1.00  0.00     0.037 A 
ATOM     46  C   UNL A   1      48.046  26.830  27.346  1.00  0.00     0.037 A 
ATOM     47  C   UNL A   1      42.387  29.754  28.811  1.00  0.00     0.049 A 
ATOM     48  C   UNL A   1      47.648  28.267  27.572  1.00  0.00     0.074 A 
ATOM     49  C   UNL A   1      42.157  31.098  29.048  1.00  0.00     0.029 A 
ATOM     50  N   UNL A   1      43.736  29.621  28.522  1.00  0.00    -0.354 N 
ATOM     51  N   UNL A   1      46.473  28.763  27.883  1.00  0.00    -0.248 NA
ATOM     52  C   UNL A   1      48.703  29.281  27.426  1.00  0.00     0.031 C 
ATOM     53  C   UNL A   1      43.360  31.783  28.860  1.00  0.00     0.029 A 
ATOM     54  C   UNL A   1      44.349  30.861  28.556  1.00  0.00     0.049 A 
ATOM     55  H   UNL A   1      44.190  28.771  28.321  1.00  0.00     0.167 HD
ATOM     56  C   UNL A   1      46.656  30.135  28.003  1.00  0.00     0.074 A 
ATOM     57  C   UNL A   1      48.053  30.396  27.732  1.00  0.00     0.031 C 
ATOM     58  C   UNL A   1      45.749  31.094  28.310  1.00  0.00     0.037 A 
BRANCH  45  59
ATOM     59  C   UNL A   1      40.016  28.950  29.151  1.00  0.00     0.057 A 
ATOM     60  C   UNL A   1      39.083  29.264  28.154  1.00  0.00     0.134 A 
ATOM     61  C   UNL A   1      39.566  28.928  30.477  1.00  0.00     0.134 A 
ATOM     62  F   UNL A   1      39.459  29.330  26.868  1.00  0.00    -0.206 F 
ATOM     63  C   UNL A   1      37.757  29.564  28.468  1.00  0.00     0.040 A 
ATOM     64  C   UNL A   1      38.239  29.206  30.800  1.00  0.00     0.040 A 
ATOM     65  F   UNL A   1      40.414  28.644  31.478  1.00  0.00    -0.206 F 
ATOM     66  C   UNL A   1      37.331  29.532  29.795  1.00  0.00     0.006 A 
ENDBRANCH  45  59
BRANCH  46  67
ATOM     67  C   UNL A   1      49.454  26.486  27.017  1.00  0.00     0.057 A 
ATOM     68  C   UNL A   1      49.878  26.345  25.691  1.00  0.00     0.134 A 
ATOM     69  C   UNL A   1      50.397  26.236  28.022  1.00  0.00     0.134 A 
ATOM     70  F   UNL A   1      49.015  26.538  24.683  1.00  0.00    -0.206 F 
ATOM     71  C   UNL A   1      51.181  25.952  25.375  1.00  0.00     0.040 A 
ATOM     72  C   UNL A   1      51.710  25.868  27.721  1.00  0.00     0.040 A 
ATOM     73  F   UNL A   1      50.055  26.343  29.314  1.00  0.00    -0.206 F 
ATOM     74  C   UNL A   1      52.101  25.716  26.393  1.00  0.00     0.006 A 
ENDBRANCH  46  67
BRANCH  58  75
ATOM     75  C   UNL A   1      46.240  32.505  28.432  1.00  0.00     0.057 A 
ATOM     76  C   UNL A   1      46.219  33.395  27.353  1.00  0.00     0.134 A 
ATOM     77  C   UNL A   1      46.667  32.998  29.672  1.00  0.00     0.134 A 
ATOM     78  F   UNL A   1      45.829  32.981  26.138  1.00  0.00    -0.206 F 
ATOM     79  C   UNL A   1      46.613  34.726  27.501  1.00  0.00     0.040 A 
ATOM     80  C   UNL A   1      47.042  34.332  29.837  1.00  0.00     0.040 A 
ATOM     81  F   UNL A   1      46.701  32.198  30.748  1.00  0.00    -0.206 F 
ATOM     82  C   UNL A   1      47.017  35.200  28.748  1.00  0.00     0.006 A 
ENDBRANCH  58  75
ENDBRANCH  32  33
ENDBRANCH  25  27
ENDBRANCH  24  25
ENDBRANCH  23  24
ENDBRANCH   1  23
TORSDOF 15
ENDMDL
MODEL 2
REMARK VINA RESULT:     -10.6      4.457      9.200
REMARK SMILES CCC[C@]1(C(=O)OCCOC(=O)c2ccc(-c3c4nc(c(-c5c(F)cccc5F)c5ccc([nH]5)c(-c5c(F)cccc5F)c5nc(c(-c6c(F)cccc6F)c6ccc3[nH]6)C=C5)C=C4)cc2)CCCN(C(=O)N[C@H]2CCOC2)C1
REMARK SMILES IDX 8 1 7 2 5 3 6 4 4 5 67 6 79 7 68 8 70 9 69 10 3 11 2 12 1 13
REMARK SMILES IDX 71 14 72 15 73 16 74 18 75 19 78 20 76 21 77 22 9 23 10 24
REMARK SMILES IDX 11 25 12 26 13 27 14 28 66 29 15 30 65 31 16 32 17 33 18 34
REMARK SMILES IDX 59 35 19 36 64 37 58 38 60 39 20 40 63 41 57 42 56 43 21 45
REMARK SMILES IDX 47 46 30 47 46 48 31 49 34 50 45 51 61 52 32 53 33 54 44 56
REMARK SMILES IDX 62 57 35 58 22 59 23 60 28 61 24 62 25 63 27 64 29 65 26 66
REMARK SMILES IDX 48 67 49 68 54 69 50 70 51 71 53 72 55 73 52 74 36 75 37 76
REMARK SMILES IDX 42 77 38 78 39 79 41 80 43 81 40 82
REMARK H PARENT 73 17 60 44 34 55
REMARK Flexibility Score: inf
ROOT
ATOM      1  C   UNL A   1      31.636  28.411  27.154  1.00  0.00     0.274 C 
ENDROOT
BRANCH   1   2
ATOM      2  O   UNL A   1      32.403  27.274  26.730  1.00  0.00    -0.462 OA
BRANCH   2   3
ATOM      3  C   UNL A   1      31.724  26.211  26.224  1.00  0.00     0.314 C 
ATOM      4  O   UNL A   1      30.568  25.934  26.511  1.00  0.00    -0.252 OA
BRANCH   3   5
ATOM      5  C   UNL A   1      32.615  25.400  25.273  1.00  0.00     0.086 C 
ATOM      6  C   UNL A   1      34.117  25.655  25.708  1.00  0.00     0.022 C 
ATOM      7  C   UNL A   1      32.233  23.899  25.431  1.00  0.00     0.140 C 
ATOM      8  C   UNL A   1      35.116  24.547  25.380  1.00  0.00     0.023 C 
ATOM      9  N   UNL A   1      33.329  23.033  24.979  1.00  0.00    -0.324 N 
ATOM     10  C   UNL A   1      34.507  23.226  25.807  1.00  0.00     0.121 C 
BRANCH   5  11
ATOM     11  C   UNL A   1      32.433  25.860  23.804  1.00  0.00     0.020 C 
BRANCH  11  12
ATOM     12  C   UNL A   1      33.337  26.970  23.245  1.00  0.00    -0.002 C 
ATOM     13  C   UNL A   1      32.586  28.191  22.726  1.00  0.00     0.004 C 
ENDBRANCH  11  12
ENDBRANCH   5  11
BRANCH   9  14
ATOM     14  C   UNL A   1      33.272  22.552  23.691  1.00  0.00     0.317 C 
ATOM     15  O   UNL A   1      33.503  23.270  22.714  1.00  0.00    -0.249 OA
ATOM     16  N   UNL A   1      33.020  21.253  23.407  1.00  0.00    -0.333 N 
ATOM     17  H   UNL A   1      33.284  20.985  22.497  1.00  0.00     0.165 HD
BRANCH  16  18
ATOM     18  C   UNL A   1      32.436  20.185  24.185  1.00  0.00     0.112 C 
ATOM     19  C   UNL A   1      32.529  18.859  23.464  1.00  0.00     0.056 C 
ATOM     20  C   UNL A   1      33.104  19.836  25.509  1.00  0.00     0.185 C 
ATOM     21  C   UNL A   1      32.186  17.902  24.576  1.00  0.00     0.162 C 
ATOM     22  O   UNL A   1      32.757  18.459  25.772  1.00  0.00    -0.379 OA
ENDBRANCH  16  18
ENDBRANCH   9  14
ENDBRANCH   3   5
ENDBRANCH   2   3
ENDBRANCH   1   2
BRANCH   1  23
ATOM     23  C   UNL A   1      31.713  29.480  26.061  1.00  0.00     0.275 C 
BRANCH  23  24
ATOM     24  O   UNL A   1      33.037  30.047  26.037  1.00  0.00    -0.458 OA
BRANCH  24  25
ATOM     25  C   UNL A   1      33.224  31.109  26.858  1.00  0.00     0.338 C 
ATOM     26  O   UNL A   1      32.424  31.998  27.111  1.00  0.00    -0.246 OA
BRANCH  25  27
ATOM     27  C   UNL A   1      34.494  30.933  27.590  1.00  0.00     0.060 A 
ATOM     28  C   UNL A   1      34.952  29.625  27.781  1.00  0.00     0.016 A 
ATOM     29  C   UNL A   1      35.251  32.012  28.052  1.00  0.00     0.016 A 
ATOM     30  C   UNL A   1      36.205  29.389  28.341  1.00  0.00     0.010 A 
ATOM     31  C   UNL A   1      36.467  31.771  28.699  1.00  0.00     0.010 A 
ATOM     32  C   UNL A   1      36.953  30.460  28.841  1.00  0.00    -0.014 A 
BRANCH  32  33
ATOM     33  C   UNL A   1      38.146  30.195  29.677  1.00  0.00     0.031 A 
ATOM     34  C   UNL A   1      39.212  29.290  29.127  1.00  0.00     0.074 A 
ATOM     35  C   UNL A   1      38.281  30.739  30.899  1.00  0.00     0.049 A 
ATOM     36  N   UNL A   1      40.278  28.814  29.714  1.00  0.00    -0.248 NA
ATOM     37  C   UNL A   1      39.060  28.876  27.723  1.00  0.00     0.031 C 
ATOM     38  C   UNL A   1      37.372  31.712  31.499  1.00  0.00     0.029 A 
ATOM     39  N   UNL A   1      39.242  30.539  31.859  1.00  0.00    -0.354 N 
ATOM     40  C   UNL A   1      40.922  28.049  28.751  1.00  0.00     0.074 A 
ATOM     41  C   UNL A   1      40.135  28.128  27.541  1.00  0.00     0.031 C 
ATOM     42  C   UNL A   1      37.802  32.002  32.741  1.00  0.00     0.029 A 
ATOM     43  C   UNL A   1      38.989  31.201  33.035  1.00  0.00     0.049 A 
ATOM     44  H   UNL A   1      40.036  29.974  31.718  1.00  0.00     0.167 HD
ATOM     45  C   UNL A   1      42.059  27.325  28.869  1.00  0.00     0.037 A 
ATOM     46  C   UNL A   1      39.623  31.130  34.224  1.00  0.00     0.037 A 
ATOM     47  C   UNL A   1      42.805  27.193  30.088  1.00  0.00     0.049 A 
ATOM     48  C   UNL A   1      40.808  30.207  34.371  1.00  0.00     0.074 A 
ATOM     49  C   UNL A   1      43.928  26.424  30.335  1.00  0.00     0.029 A 
ATOM     50  N   UNL A   1      42.489  27.839  31.273  1.00  0.00    -0.354 N 
ATOM     51  N   UNL A   1      41.393  29.459  33.467  1.00  0.00    -0.248 NA
ATOM     52  C   UNL A   1      41.410  30.106  35.709  1.00  0.00     0.031 C 
ATOM     53  C   UNL A   1      44.265  26.571  31.683  1.00  0.00     0.029 A 
ATOM     54  C   UNL A   1      43.384  27.471  32.262  1.00  0.00     0.049 A 
ATOM     55  H   UNL A   1      41.738  28.464  31.394  1.00  0.00     0.167 HD
ATOM     56  C   UNL A   1      42.448  28.829  34.115  1.00  0.00     0.074 A 
ATOM     57  C   UNL A   1      42.424  29.281  35.490  1.00  0.00     0.031 C 
ATOM     58  C   UNL A   1      43.357  27.955  33.618  1.00  0.00     0.037 A 
BRANCH  45  59
ATOM     59  C   UNL A   1      42.505  26.566  27.658  1.00  0.00     0.057 A 
ATOM     60  C   UNL A   1      43.395  27.118  26.727  1.00  0.00     0.134 A 
ATOM     61  C   UNL A   1      42.024  25.275  27.411  1.00  0.00     0.134 A 
ATOM     62  F   UNL A   1      43.868  28.361  26.894  1.00  0.00    -0.206 F 
ATOM     63  C   UNL A   1      43.775  26.417  25.581  1.00  0.00     0.040 A 
ATOM     64  C   UNL A   1      42.412  24.557  26.280  1.00  0.00     0.040 A 
ATOM     65  F   UNL A   1      41.161  24.696  28.260  1.00  0.00    -0.206 F 
ATOM     66  C   UNL A   1      43.285  25.131  25.358  1.00  0.00     0.006 A 
ENDBRANCH  45  59
BRANCH  46  67
ATOM     67  C   UNL A   1      39.129  31.907  35.390  1.00  0.00     0.057 A 
ATOM     68  C   UNL A   1      39.575  33.211  35.637  1.00  0.00     0.134 A 
ATOM     69  C   UNL A   1      38.241  31.346  36.317  1.00  0.00     0.134 A 
ATOM     70  F   UNL A   1      40.451  33.793  34.805  1.00  0.00    -0.206 F 
ATOM     71  C   UNL A   1      39.170  33.922  36.769  1.00  0.00     0.040 A 
ATOM     72  C   UNL A   1      37.808  32.055  37.439  1.00  0.00     0.040 A 
ATOM     73  F   UNL A   1      37.782  30.098  36.146  1.00  0.00    -0.206 F 
ATOM     74  C   UNL A   1      38.281  33.344  37.672  1.00  0.00     0.006 A 
ENDBRANCH  46  67
BRANCH  58  75
ATOM     75  C   UNL A   1      44.437  27.473  34.539  1.00  0.00     0.057 A 
ATOM     76  C   UNL A   1      45.598  28.218  34.777  1.00  0.00     0.134 A 
ATOM     77  C   UNL A   1      44.273  26.281  35.256  1.00  0.00     0.134 A 
ATOM     78  F   UNL A   1      45.817  29.364  34.115  1.00  0.00    -0.206 F 
ATOM     79  C   UNL A   1      46.562  27.790  35.691  1.00  0.00     0.040 A 
ATOM     80  C   UNL A   1      45.219  25.854  36.188  1.00  0.00     0.040 A 
ATOM     81  F   UNL A   1      43.178  25.526  35.080  1.00  0.00    -0.206 F 
ATOM     82  C   UNL A   1      46.369  26.609  36.406  1.00  0.00     0.006 A 
ENDBRANCH  58  75
ENDBRANCH  32  33
ENDBRANCH  25  27
ENDBRANCH  24  25
ENDBRANCH  23  24
ENDBRANCH   1  23
TORSDOF 15
ENDMDL
MODEL 3
REMARK VINA RESULT:     -10.5      4.525      9.326
REMARK SMILES CCC[C@]1(C(=O)OCCOC(=O)c2ccc(-c3c4nc(c(-c5c(F)cccc5F)c5ccc([nH]5)c(-c5c(F)cccc5F)c5nc(c(-c6c(F)cccc6F)c6ccc3[nH]6)C=C5)C=C4)cc2)CCCN(C(=O)N[C@H]2CCOC2)C1
REMARK SMILES IDX 8 1 7 2 5 3 6 4 4 5 67 6 79 7 68 8 70 9 69 10 3 11 2 12 1 13
REMARK SMILES IDX 71 14 72 15 73 16 74 18 75 19 78 20 76 21 77 22 9 23 10 24
REMARK SMILES IDX 11 25 12 26 13 27 14 28 66 29 15 30 65 31 16 32 17 33 18 34
REMARK SMILES IDX 59 35 19 36 64 37 58 38 60 39 20 40 63 41 57 42 56 43 21 45
REMARK SMILES IDX 47 46 30 47 46 48 31 49 34 50 45 51 61 52 32 53 33 54 44 56
REMARK SMILES IDX 62 57 35 58 22 59 23 60 28 61 24 62 25 63 27 64 29 65 26 66
REMARK SMILES IDX 48 67 49 68 54 69 50 70 51 71 53 72 55 73 52 74 36 75 37 76
REMARK SMILES IDX 42 77 38 78 39 79 41 80 43 81 40 82
REMARK H PARENT 73 17 60 44 34 55
REMARK Flexibility Score: inf
ROOT
ATOM      1  C   UNL A   1      31.473  29.085  24.575  1.00  0.00     0.274 C 
ENDROOT
BRANCH   1   2
ATOM      2  O   UNL A   1      31.027  27.871  25.199  1.00  0.00    -0.462 OA
BRANCH   2   3
ATOM      3  C   UNL A   1      30.608  26.864  24.386  1.00  0.00     0.314 C 
ATOM      4  O   UNL A   1      29.633  26.936  23.651  1.00  0.00    -0.252 OA
BRANCH   3   5
ATOM      5  C   UNL A   1      31.506  25.629  24.542  1.00  0.00     0.086 C 
ATOM      6  C   UNL A   1      31.415  25.174  26.057  1.00  0.00     0.022 C 
ATOM      7  C   UNL A   1      30.960  24.524  23.592  1.00  0.00     0.140 C 
ATOM      8  C   UNL A   1      31.670  23.694  26.338  1.00  0.00     0.023 C 
ATOM      9  N   UNL A   1      31.404  23.195  24.030  1.00  0.00    -0.324 N 
ATOM     10  C   UNL A   1      30.864  22.883  25.342  1.00  0.00     0.121 C 
BRANCH   5  11
ATOM     11  C   UNL A   1      32.981  25.962  24.206  1.00  0.00     0.020 C 
BRANCH  11  12
ATOM     12  C   UNL A   1      34.027  25.971  25.331  1.00  0.00    -0.002 C 
ATOM     13  C   UNL A   1      35.000  24.798  25.295  1.00  0.00     0.004 C 
ENDBRANCH  11  12
ENDBRANCH   5  11
BRANCH   9  14
ATOM     14  C   UNL A   1      32.526  22.667  23.431  1.00  0.00     0.317 C 
ATOM     15  O   UNL A   1      33.200  23.313  22.624  1.00  0.00    -0.249 OA
ATOM     16  N   UNL A   1      33.000  21.435  23.725  1.00  0.00    -0.333 N 
ATOM     17  H   UNL A   1      33.936  21.293  23.456  1.00  0.00     0.165 HD
BRANCH  16  18
ATOM     18  C   UNL A   1      32.392  20.287  24.359  1.00  0.00     0.112 C 
ATOM     19  C   UNL A   1      32.540  19.043  23.513  1.00  0.00     0.056 C 
ATOM     20  C   UNL A   1      32.997  19.810  25.674  1.00  0.00     0.185 C 
ATOM     21  C   UNL A   1      32.154  17.974  24.502  1.00  0.00     0.162 C 
ATOM     22  O   UNL A   1      32.656  18.411  25.777  1.00  0.00    -0.379 OA
ENDBRANCH  16  18
ENDBRANCH   9  14
ENDBRANCH   3   5
ENDBRANCH   2   3
ENDBRANCH   1   2
BRANCH   1  23
ATOM     23  C   UNL A   1      31.522  30.183  25.639  1.00  0.00     0.275 C 
BRANCH  23  24
ATOM     24  O   UNL A   1      32.887  30.401  26.042  1.00  0.00    -0.458 OA
BRANCH  24  25
ATOM     25  C   UNL A   1      33.073  31.412  26.928  1.00  0.00     0.338 C 
ATOM     26  O   UNL A   1      32.265  32.271  27.250  1.00  0.00    -0.246 OA
BRANCH  25  27
ATOM     27  C   UNL A   1      34.357  31.207  27.628  1.00  0.00     0.060 A 
ATOM     28  C   UNL A   1      34.686  29.900  28.003  1.00  0.00     0.016 A 
ATOM     29  C   UNL A   1      35.246  32.252  27.886  1.00  0.00     0.016 A 
ATOM     30  C   UNL A   1      35.937  29.613  28.543  1.00  0.00     0.010 A 
ATOM     31  C   UNL A   1      36.466  31.978  28.514  1.00  0.00     0.010 A 
ATOM     32  C   UNL A   1      36.819  30.657  28.839  1.00  0.00    -0.014 A 
BRANCH  32  33
ATOM     33  C   UNL A   1      38.023  30.389  29.659  1.00  0.00     0.031 A 
ATOM     34  C   UNL A   1      39.067  29.462  29.106  1.00  0.00     0.074 A 
ATOM     35  C   UNL A   1      38.187  30.952  30.869  1.00  0.00     0.049 A 
ATOM     36  N   UNL A   1      40.137  28.980  29.682  1.00  0.00    -0.248 NA
ATOM     37  C   UNL A   1      38.885  29.027  27.712  1.00  0.00     0.031 C 
ATOM     38  C   UNL A   1      37.301  31.947  31.469  1.00  0.00     0.029 A 
ATOM     39  N   UNL A   1      39.161  30.755  31.816  1.00  0.00    -0.354 N 
ATOM     40  C   UNL A   1      40.754  28.191  28.721  1.00  0.00     0.074 A 
ATOM     41  C   UNL A   1      39.947  28.261  27.524  1.00  0.00     0.031 C 
ATOM     42  C   UNL A   1      37.757  32.251  32.698  1.00  0.00     0.029 A 
ATOM     43  C   UNL A   1      38.938  31.440  32.985  1.00  0.00     0.049 A 
ATOM     44  H   UNL A   1      39.946  30.176  31.671  1.00  0.00     0.167 HD
ATOM     45  C   UNL A   1      41.883  27.454  28.832  1.00  0.00     0.037 A 
ATOM     46  C   UNL A   1      39.592  31.379  34.164  1.00  0.00     0.037 A 
ATOM     47  C   UNL A   1      42.648  27.332  30.040  1.00  0.00     0.049 A 
ATOM     48  C   UNL A   1      40.767  30.443  34.306  1.00  0.00     0.074 A 
ATOM     49  C   UNL A   1      43.765  26.552  30.280  1.00  0.00     0.029 A 
ATOM     50  N   UNL A   1      42.362  28.001  31.219  1.00  0.00    -0.354 N 
ATOM     51  N   UNL A   1      41.326  29.672  33.404  1.00  0.00    -0.248 NA
ATOM     52  C   UNL A   1      41.390  30.356  35.635  1.00  0.00     0.031 C 
ATOM     53  C   UNL A   1      44.128  26.717  31.620  1.00  0.00     0.029 A 
ATOM     54  C   UNL A   1      43.269  27.638  32.198  1.00  0.00     0.049 A 
ATOM     55  H   UNL A   1      41.622  28.639  31.342  1.00  0.00     0.167 HD
ATOM     56  C   UNL A   1      42.384  29.039  34.045  1.00  0.00     0.074 A 
ATOM     57  C   UNL A   1      42.390  29.513  35.412  1.00  0.00     0.031 C 
ATOM     58  C   UNL A   1      43.272  28.145  33.547  1.00  0.00     0.037 A 
BRANCH  45  59
ATOM     59  C   UNL A   1      42.298  26.669  27.626  1.00  0.00     0.057 A 
ATOM     60  C   UNL A   1      41.864  25.354  27.417  1.00  0.00     0.134 A 
ATOM     61  C   UNL A   1      43.159  27.228  26.675  1.00  0.00     0.134 A 
ATOM     62  F   UNL A   1      41.062  24.753  28.308  1.00  0.00    -0.206 F 
ATOM     63  C   UNL A   1      42.287  24.616  26.310  1.00  0.00     0.040 A 
ATOM     64  C   UNL A   1      43.572  26.509  25.555  1.00  0.00     0.040 A 
ATOM     65  F   UNL A   1      43.618  28.481  26.825  1.00  0.00    -0.206 F 
ATOM     66  C   UNL A   1      43.142  25.196  25.373  1.00  0.00     0.006 A 
ENDBRANCH  45  59
BRANCH  46  67
ATOM     67  C   UNL A   1      39.129  32.182  35.325  1.00  0.00     0.057 A 
ATOM     68  C   UNL A   1      38.229  31.656  36.260  1.00  0.00     0.134 A 
ATOM     69  C   UNL A   1      39.531  33.512  35.500  1.00  0.00     0.134 A 
ATOM     70  F   UNL A   1      37.780  30.399  36.131  1.00  0.00    -0.206 F 
ATOM     71  C   UNL A   1      37.734  32.427  37.315  1.00  0.00     0.040 A 
ATOM     72  C   UNL A   1      39.064  34.286  36.564  1.00  0.00     0.040 A 
ATOM     73  F   UNL A   1      40.383  34.081  34.635  1.00  0.00    -0.206 F 
ATOM     74  C   UNL A   1      38.155  33.745  37.470  1.00  0.00     0.006 A 
ENDBRANCH  46  67
BRANCH  58  75
ATOM     75  C   UNL A   1      44.362  27.663  34.457  1.00  0.00     0.057 A 
ATOM     76  C   UNL A   1      44.244  26.481  35.196  1.00  0.00     0.134 A 
ATOM     77  C   UNL A   1      45.578  28.356  34.529  1.00  0.00     0.134 A 
ATOM     78  F   UNL A   1      43.103  25.777  35.176  1.00  0.00    -0.206 F 
ATOM     79  C   UNL A   1      45.296  26.009  35.984  1.00  0.00     0.040 A 
ATOM     80  C   UNL A   1      46.643  27.883  35.295  1.00  0.00     0.040 A 
ATOM     81  F   UNL A   1      45.757  29.491  33.836  1.00  0.00    -0.206 F 
ATOM     82  C   UNL A   1      46.503  26.706  36.028  1.00  0.00     0.006 A 
ENDBRANCH  58  75
ENDBRANCH  32  33
ENDBRANCH  25  27
ENDBRANCH  24  25
ENDBRANCH  23  24
ENDBRANCH   1  23
TORSDOF 15
ENDMDL
