MODEL 1
REMARK VINA RESULT:     -11.7      0.000      0.000
REMARK SMILES Cc1ccc(Cl)c(Nc2ccccc2C(=O)OCCOC(=O)c2ccc(-c3c4nc(c(-c5c(F)cccc5F)c5ccc([nH]5)c(-c5c(F)cccc5F)c5nc(c(-c6c(F)cccc6F)c6ccc3[nH]6)C=C5)C=C4)cc2)c1Cl
REMARK SMILES IDX 18 1 17 2 15 3 16 4 14 5 9 6 10 7 11 8 13 9 12 10 8 11 7 13
REMARK SMILES IDX 1 14 2 15 3 16 77 17 4 18 78 19 5 20 6 21 19 22 20 23 21 24
REMARK SMILES IDX 22 25 23 26 24 27 76 28 25 29 75 30 26 31 27 32 28 33 69 34
REMARK SMILES IDX 29 35 74 36 68 37 70 38 30 39 73 40 67 41 66 42 31 44 57 45
REMARK SMILES IDX 40 46 56 47 41 48 44 49 55 50 71 51 42 52 43 53 54 55 72 56
REMARK SMILES IDX 45 57 32 58 33 59 38 60 34 61 35 62 37 63 39 64 36 65 58 66
REMARK SMILES IDX 59 67 64 68 60 69 61 70 63 71 65 72 62 73 46 74 47 75 52 76
REMARK SMILES IDX 48 77 49 78 51 79 53 80 50 81
REMARK H PARENT 8 12 70 43 44 54
REMARK Flexibility Score: inf
ROOT
ATOM      1  C   UNL A   1      31.593  28.482  27.077  1.00  0.00     0.275 C 
ENDROOT
BRANCH   1   2
ATOM      2  O   UNL A   1      32.461  27.399  26.683  1.00  0.00    -0.458 OA
BRANCH   2   3
ATOM      3  C   UNL A   1      31.838  26.281  26.226  1.00  0.00     0.340 C 
ATOM      4  O   UNL A   1      30.704  25.924  26.500  1.00  0.00    -0.246 OA
BRANCH   3   5
ATOM      5  C   UNL A   1      32.698  25.550  25.266  1.00  0.00     0.083 A 
ATOM      6  C   UNL A   1      32.321  25.276  23.937  1.00  0.00     0.053 A 
ATOM      7  C   UNL A   1      33.222  24.537  23.144  1.00  0.00     0.027 A 
ATOM      8  C   UNL A   1      34.464  24.119  23.632  1.00  0.00     0.002 A 
ATOM      9  C   UNL A   1      33.964  25.155  25.737  1.00  0.00     0.018 A 
ATOM     10  C   UNL A   1      34.841  24.440  24.927  1.00  0.00     0.001 A 
BRANCH   6  11
ATOM     11  N   UNL A   1      31.172  25.775  23.286  1.00  0.00    -0.352 N 
ATOM     12  H   UNL A   1      30.637  25.085  22.829  1.00  0.00     0.167 HD
BRANCH  11  13
ATOM     13  C   UNL A   1      30.649  27.087  23.170  1.00  0.00     0.077 A 
ATOM     14  C   UNL A   1      27.306  28.995  23.127  1.00  0.00     0.046 C 
ATOM     15  C   UNL A   1      28.777  28.683  23.041  1.00  0.00    -0.030 A 
ATOM     16  C   UNL A   1      29.645  29.650  22.518  1.00  0.00     0.006 A 
ATOM     17  C   UNL A   1      29.294  27.420  23.408  1.00  0.00     0.069 A 
ATOM     18  C   UNL A   1      31.002  29.374  22.365  1.00  0.00     0.023 A 
ATOM     19  Cl  UNL A   1      28.250  26.311  24.255  1.00  0.00    -0.082 Cl
ATOM     20  C   UNL A   1      31.491  28.105  22.675  1.00  0.00     0.066 A 
ATOM     21  Cl  UNL A   1      33.173  27.800  22.386  1.00  0.00    -0.082 Cl
ENDBRANCH  11  13
ENDBRANCH   6  11
ENDBRANCH   3   5
ENDBRANCH   2   3
ENDBRANCH   1   2
BRANCH   1  22
ATOM     22  C   UNL A   1      31.581  29.598  26.038  1.00  0.00     0.275 C 
BRANCH  22  23
ATOM     23  O   UNL A   1      32.886  30.180  25.955  1.00  0.00    -0.458 OA
BRANCH  23  24
ATOM     24  C   UNL A   1      33.169  31.124  26.877  1.00  0.00     0.338 C 
ATOM     25  O   UNL A   1      32.450  32.045  27.255  1.00  0.00    -0.246 OA
BRANCH  24  26
ATOM     26  C   UNL A   1      34.508  30.885  27.425  1.00  0.00     0.060 A 
ATOM     27  C   UNL A   1      34.932  29.577  27.638  1.00  0.00     0.016 A 
ATOM     28  C   UNL A   1      35.289  31.953  27.851  1.00  0.00     0.016 A 
ATOM     29  C   UNL A   1      36.083  29.322  28.375  1.00  0.00     0.010 A 
ATOM     30  C   UNL A   1      36.504  31.698  28.498  1.00  0.00     0.010 A 
ATOM     31  C   UNL A   1      36.890  30.381  28.807  1.00  0.00    -0.014 A 
BRANCH  31  32
ATOM     32  C   UNL A   1      38.104  30.120  29.627  1.00  0.00     0.031 A 
ATOM     33  C   UNL A   1      39.219  29.276  29.066  1.00  0.00     0.074 A 
ATOM     34  C   UNL A   1      38.223  30.634  30.867  1.00  0.00     0.049 A 
ATOM     35  N   UNL A   1      40.248  28.747  29.678  1.00  0.00    -0.248 NA
ATOM     36  C   UNL A   1      39.156  28.971  27.627  1.00  0.00     0.031 C 
ATOM     37  C   UNL A   1      37.248  31.509  31.521  1.00  0.00     0.029 A 
ATOM     38  N   UNL A   1      39.220  30.494  31.801  1.00  0.00    -0.354 N 
ATOM     39  C   UNL A   1      40.905  27.985  28.720  1.00  0.00     0.074 A 
ATOM     40  C   UNL A   1      40.169  28.129  27.483  1.00  0.00     0.031 C 
ATOM     41  C   UNL A   1      37.707  31.853  32.733  1.00  0.00     0.029 A 
ATOM     42  C   UNL A   1      38.962  31.150  32.979  1.00  0.00     0.049 A 
ATOM     43  H   UNL A   1      40.039  29.973  31.641  1.00  0.00     0.167 HD
ATOM     44  C   UNL A   1      42.020  27.228  28.866  1.00  0.00     0.037 A 
ATOM     45  C   UNL A   1      39.630  31.150  34.148  1.00  0.00     0.037 A 
ATOM     46  C   UNL A   1      42.791  27.150  30.078  1.00  0.00     0.049 A 
ATOM     47  C   UNL A   1      40.866  30.310  34.285  1.00  0.00     0.074 A 
ATOM     48  C   UNL A   1      43.954  26.438  30.318  1.00  0.00     0.029 A 
ATOM     49  N   UNL A   1      42.487  27.825  31.250  1.00  0.00    -0.354 N 
ATOM     50  N   UNL A   1      41.442  29.540  33.395  1.00  0.00    -0.248 NA
ATOM     51  C   UNL A   1      41.528  30.318  35.597  1.00  0.00     0.031 C 
ATOM     52  C   UNL A   1      44.339  26.661  31.645  1.00  0.00     0.029 A 
ATOM     53  C   UNL A   1      43.435  27.540  32.220  1.00  0.00     0.049 A 
ATOM     54  H   UNL A   1      41.712  28.419  31.375  1.00  0.00     0.167 HD
ATOM     55  C   UNL A   1      42.534  28.971  34.035  1.00  0.00     0.074 A 
ATOM     56  C   UNL A   1      42.554  29.505  35.382  1.00  0.00     0.031 C 
ATOM     57  C   UNL A   1      43.433  28.079  33.555  1.00  0.00     0.037 A 
BRANCH  44  58
ATOM     58  C   UNL A   1      42.447  26.392  27.695  1.00  0.00     0.057 A 
ATOM     59  C   UNL A   1      43.320  26.868  26.711  1.00  0.00     0.134 A 
ATOM     60  C   UNL A   1      41.986  25.074  27.568  1.00  0.00     0.134 A 
ATOM     61  F   UNL A   1      43.784  28.125  26.764  1.00  0.00    -0.206 F 
ATOM     62  C   UNL A   1      43.704  26.071  25.630  1.00  0.00     0.040 A 
ATOM     63  C   UNL A   1      42.382  24.259  26.506  1.00  0.00     0.040 A 
ATOM     64  F   UNL A   1      41.150  24.554  28.479  1.00  0.00    -0.206 F 
ATOM     65  C   UNL A   1      43.240  24.760  25.530  1.00  0.00     0.006 A 
ENDBRANCH  44  58
BRANCH  45  66
ATOM     66  C   UNL A   1      39.106  31.935  35.293  1.00  0.00     0.057 A 
ATOM     67  C   UNL A   1      38.267  31.351  36.248  1.00  0.00     0.134 A 
ATOM     68  C   UNL A   1      39.457  33.278  35.476  1.00  0.00     0.134 A 
ATOM     69  F   UNL A   1      37.876  30.074  36.113  1.00  0.00    -0.206 F 
ATOM     70  C   UNL A   1      37.793  32.075  37.343  1.00  0.00     0.040 A 
ATOM     71  C   UNL A   1      39.012  34.006  36.580  1.00  0.00     0.040 A 
ATOM     72  F   UNL A   1      40.261  33.893  34.596  1.00  0.00    -0.206 F 
ATOM     73  C   UNL A   1      38.175  33.404  37.516  1.00  0.00     0.006 A 
ENDBRANCH  45  66
BRANCH  57  74
ATOM     74  C   UNL A   1      44.518  27.639  34.491  1.00  0.00     0.057 A 
ATOM     75  C   UNL A   1      45.714  28.356  34.613  1.00  0.00     0.134 A 
ATOM     76  C   UNL A   1      44.354  26.504  35.292  1.00  0.00     0.134 A 
ATOM     77  F   UNL A   1      45.935  29.444  33.861  1.00  0.00    -0.206 F 
ATOM     78  C   UNL A   1      46.719  27.947  35.491  1.00  0.00     0.040 A 
ATOM     79  C   UNL A   1      45.343  26.096  36.188  1.00  0.00     0.040 A 
ATOM     80  F   UNL A   1      43.227  25.779  35.224  1.00  0.00    -0.206 F 
ATOM     81  C   UNL A   1      46.532  26.816  36.284  1.00  0.00     0.006 A 
ENDBRANCH  57  74
ENDBRANCH  31  32
ENDBRANCH  24  26
ENDBRANCH  23  24
ENDBRANCH  22  23
ENDBRANCH   1  22
TORSDOF 13
ENDMDL
MODEL 2
REMARK VINA RESULT:     -11.4      4.103      7.847
REMARK SMILES Cc1ccc(Cl)c(Nc2ccccc2C(=O)OCCOC(=O)c2ccc(-c3c4nc(c(-c5c(F)cccc5F)c5ccc([nH]5)c(-c5c(F)cccc5F)c5nc(c(-c6c(F)cccc6F)c6ccc3[nH]6)C=C5)C=C4)cc2)c1Cl
REMARK SMILES IDX 18 1 17 2 15 3 16 4 14 5 9 6 10 7 11 8 13 9 12 10 8 11 7 13
REMARK SMILES IDX 1 14 2 15 3 16 77 17 4 18 78 19 5 20 6 21 19 22 20 23 21 24
REMARK SMILES IDX 22 25 23 26 24 27 76 28 25 29 75 30 26 31 27 32 28 33 69 34
REMARK SMILES IDX 29 35 74 36 68 37 70 38 30 39 73 40 67 41 66 42 31 44 57 45
REMARK SMILES IDX 40 46 56 47 41 48 44 49 55 50 71 51 42 52 43 53 54 55 72 56
REMARK SMILES IDX 45 57 32 58 33 59 38 60 34 61 35 62 37 63 39 64 36 65 58 66
REMARK SMILES IDX 59 67 64 68 60 69 61 70 63 71 65 72 62 73 46 74 47 75 52 76
REMARK SMILES IDX 48 77 49 78 51 79 53 80 50 81
REMARK H PARENT 8 12 70 43 44 54
REMARK Flexibility Score: inf
ROOT
ATOM      1  C   UNL A   1      31.967  28.097  27.507  1.00  0.00     0.275 C 
ENDROOT
BRANCH   1   2
ATOM      2  O   UNL A   1      31.181  27.475  26.469  1.00  0.00    -0.458 OA
BRANCH   2   3
ATOM      3  C   UNL A   1      31.458  26.168  26.223  1.00  0.00     0.340 C 
ATOM      4  O   UNL A   1      31.070  25.213  26.876  1.00  0.00    -0.246 OA
BRANCH   3   5
ATOM      5  C   UNL A   1      32.256  26.019  24.983  1.00  0.00     0.083 A 
ATOM      6  C   UNL A   1      33.351  25.141  24.864  1.00  0.00     0.053 A 
ATOM      7  C   UNL A   1      34.045  25.129  23.637  1.00  0.00     0.027 A 
ATOM      8  C   UNL A   1      33.650  25.925  22.557  1.00  0.00     0.002 A 
ATOM      9  C   UNL A   1      31.845  26.790  23.880  1.00  0.00     0.018 A 
ATOM     10  C   UNL A   1      32.540  26.748  22.675  1.00  0.00     0.001 A 
BRANCH   6  11
ATOM     11  N   UNL A   1      33.747  24.182  25.821  1.00  0.00    -0.352 N 
ATOM     12  H   UNL A   1      33.605  24.462  26.754  1.00  0.00     0.167 HD
BRANCH  11  13
ATOM     13  C   UNL A   1      34.312  22.889  25.682  1.00  0.00     0.077 A 
ATOM     14  C   UNL A   1      37.671  21.137  25.003  1.00  0.00     0.046 C 
ATOM     15  C   UNL A   1      36.203  21.375  25.237  1.00  0.00    -0.030 A 
ATOM     16  C   UNL A   1      35.301  20.328  25.000  1.00  0.00     0.006 A 
ATOM     17  C   UNL A   1      35.704  22.639  25.622  1.00  0.00     0.069 A 
ATOM     18  C   UNL A   1      33.931  20.529  25.145  1.00  0.00     0.023 A 
ATOM     19  Cl  UNL A   1      36.841  23.861  26.123  1.00  0.00    -0.082 Cl
ATOM     20  C   UNL A   1      33.446  21.797  25.469  1.00  0.00     0.066 A 
ATOM     21  Cl  UNL A   1      31.726  22.000  25.556  1.00  0.00    -0.082 Cl
ENDBRANCH  11  13
ENDBRANCH   6  11
ENDBRANCH   3   5
ENDBRANCH   2   3
ENDBRANCH   1   2
BRANCH   1  22
ATOM     22  C   UNL A   1      32.975  29.086  26.932  1.00  0.00     0.275 C 
BRANCH  22  23
ATOM     23  O   UNL A   1      34.220  28.950  27.626  1.00  0.00    -0.458 OA
BRANCH  23  24
ATOM     24  C   UNL A   1      34.782  30.099  28.056  1.00  0.00     0.338 C 
ATOM     25  O   UNL A   1      34.229  31.177  28.258  1.00  0.00    -0.246 OA
BRANCH  24  26
ATOM     26  C   UNL A   1      36.213  29.884  28.290  1.00  0.00     0.060 A 
ATOM     27  C   UNL A   1      37.113  30.117  27.254  1.00  0.00     0.016 A 
ATOM     28  C   UNL A   1      36.650  29.329  29.487  1.00  0.00     0.016 A 
ATOM     29  C   UNL A   1      38.433  29.694  27.363  1.00  0.00     0.010 A 
ATOM     30  C   UNL A   1      38.003  29.004  29.638  1.00  0.00     0.010 A 
ATOM     31  C   UNL A   1      38.899  29.140  28.561  1.00  0.00    -0.014 A 
BRANCH  31  32
ATOM     32  C   UNL A   1      40.300  28.652  28.675  1.00  0.00     0.031 A 
ATOM     33  C   UNL A   1      41.383  29.589  29.142  1.00  0.00     0.074 A 
ATOM     34  C   UNL A   1      40.614  27.378  28.369  1.00  0.00     0.049 A 
ATOM     35  N   UNL A   1      42.683  29.441  29.102  1.00  0.00    -0.248 NA
ATOM     36  C   UNL A   1      40.944  30.873  29.714  1.00  0.00     0.031 C 
ATOM     37  C   UNL A   1      39.663  26.345  27.951  1.00  0.00     0.029 A 
ATOM     38  N   UNL A   1      41.826  26.732  28.364  1.00  0.00    -0.354 N 
ATOM     39  C   UNL A   1      43.213  30.639  29.565  1.00  0.00     0.074 A 
ATOM     40  C   UNL A   1      42.098  31.499  29.894  1.00  0.00     0.031 C 
ATOM     41  C   UNL A   1      40.320  25.192  27.761  1.00  0.00     0.029 A 
ATOM     42  C   UNL A   1      41.748  25.425  27.952  1.00  0.00     0.049 A 
ATOM     43  H   UNL A   1      42.669  27.166  28.627  1.00  0.00     0.167 HD
ATOM     44  C   UNL A   1      44.516  30.988  29.697  1.00  0.00     0.037 A 
ATOM     45  C   UNL A   1      42.716  24.523  27.706  1.00  0.00     0.037 A 
ATOM     46  C   UNL A   1      45.620  30.101  29.442  1.00  0.00     0.049 A 
ATOM     47  C   UNL A   1      44.152  24.929  27.864  1.00  0.00     0.074 A 
ATOM     48  C   UNL A   1      46.975  30.348  29.577  1.00  0.00     0.029 A 
ATOM     49  N   UNL A   1      45.494  28.787  29.019  1.00  0.00    -0.354 N 
ATOM     50  N   UNL A   1      44.646  26.084  28.238  1.00  0.00    -0.248 NA
ATOM     51  C   UNL A   1      45.165  23.914  27.542  1.00  0.00     0.031 C 
ATOM     52  C   UNL A   1      47.671  29.191  29.208  1.00  0.00     0.029 A 
ATOM     53  C   UNL A   1      46.746  28.212  28.878  1.00  0.00     0.049 A 
ATOM     54  H   UNL A   1      44.640  28.329  28.843  1.00  0.00     0.167 HD
ATOM     55  C   UNL A   1      46.025  25.939  28.196  1.00  0.00     0.074 A 
ATOM     56  C   UNL A   1      46.290  24.574  27.785  1.00  0.00     0.031 C 
ATOM     57  C   UNL A   1      46.987  26.855  28.463  1.00  0.00     0.037 A 
BRANCH  44  58
ATOM     58  C   UNL A   1      44.817  32.402  30.097  1.00  0.00     0.057 A 
ATOM     59  C   UNL A   1      44.959  33.433  29.163  1.00  0.00     0.134 A 
ATOM     60  C   UNL A   1      44.943  32.736  31.453  1.00  0.00     0.134 A 
ATOM     61  F   UNL A   1      44.867  33.179  27.849  1.00  0.00    -0.206 F 
ATOM     62  C   UNL A   1      45.238  34.743  29.559  1.00  0.00     0.040 A 
ATOM     63  C   UNL A   1      45.198  34.046  31.864  1.00  0.00     0.040 A 
ATOM     64  F   UNL A   1      44.814  31.796  32.402  1.00  0.00    -0.206 F 
ATOM     65  C   UNL A   1      45.352  35.053  30.914  1.00  0.00     0.006 A 
ENDBRANCH  44  58
BRANCH  45  66
ATOM     66  C   UNL A   1      42.352  23.165  27.232  1.00  0.00     0.057 A 
ATOM     67  C   UNL A   1      42.391  22.837  25.873  1.00  0.00     0.134 A 
ATOM     68  C   UNL A   1      41.985  22.155  28.130  1.00  0.00     0.134 A 
ATOM     69  F   UNL A   1      42.711  23.769  24.963  1.00  0.00    -0.206 F 
ATOM     70  C   UNL A   1      42.077  21.554  25.423  1.00  0.00     0.040 A 
ATOM     71  C   UNL A   1      41.695  20.860  27.697  1.00  0.00     0.040 A 
ATOM     72  F   UNL A   1      41.932  22.406  29.447  1.00  0.00    -0.206 F 
ATOM     73  C   UNL A   1      41.738  20.559  26.338  1.00  0.00     0.006 A 
ENDBRANCH  45  66
BRANCH  57  74
ATOM     74  C   UNL A   1      48.409  26.402  28.332  1.00  0.00     0.057 A 
ATOM     75  C   UNL A   1      49.125  26.574  27.140  1.00  0.00     0.134 A 
ATOM     76  C   UNL A   1      49.075  25.813  29.412  1.00  0.00     0.134 A 
ATOM     77  F   UNL A   1      48.536  27.120  26.066  1.00  0.00    -0.206 F 
ATOM     78  C   UNL A   1      50.452  26.157  27.024  1.00  0.00     0.040 A 
ATOM     79  C   UNL A   1      50.407  25.410  29.314  1.00  0.00     0.040 A 
ATOM     80  F   UNL A   1      48.444  25.627  30.581  1.00  0.00    -0.206 F 
ATOM     81  C   UNL A   1      51.097  25.578  28.116  1.00  0.00     0.006 A 
ENDBRANCH  57  74
ENDBRANCH  31  32
ENDBRANCH  24  26
ENDBRANCH  23  24
ENDBRANCH  22  23
ENDBRANCH   1  22
TORSDOF 13
ENDMDL
MODEL 3
REMARK VINA RESULT:     -11.4      4.266      8.826
REMARK SMILES Cc1ccc(Cl)c(Nc2ccccc2C(=O)OCCOC(=O)c2ccc(-c3c4nc(c(-c5c(F)cccc5F)c5ccc([nH]5)c(-c5c(F)cccc5F)c5nc(c(-c6c(F)cccc6F)c6ccc3[nH]6)C=C5)C=C4)cc2)c1Cl
REMARK SMILES IDX 18 1 17 2 15 3 16 4 14 5 9 6 10 7 11 8 13 9 12 10 8 11 7 13
REMARK SMILES IDX 1 14 2 15 3 16 77 17 4 18 78 19 5 20 6 21 19 22 20 23 21 24
REMARK SMILES IDX 22 25 23 26 24 27 76 28 25 29 75 30 26 31 27 32 28 33 69 34
REMARK SMILES IDX 29 35 74 36 68 37 70 38 30 39 73 40 67 41 66 42 31 44 57 45
REMARK SMILES IDX 40 46 56 47 41 48 44 49 55 50 71 51 42 52 43 53 54 55 72 56
REMARK SMILES IDX 45 57 32 58 33 59 38 60 34 61 35 62 37 63 39 64 36 65 58 66
REMARK SMILES IDX 59 67 64 68 60 69 61 70 63 71 65 72 62 73 46 74 47 75 52 76
REMARK SMILES IDX 48 77 49 78 51 79 53 80 50 81
REMARK H PARENT 8 12 70 43 44 54
REMARK Flexibility Score: inf
ROOT
ATOM      1  C   UNL A   1      35.990  22.582  23.576  1.00  0.00     0.275 C 
ENDROOT
BRANCH   1   2
ATOM      2  O   UNL A   1      35.277  23.525  24.404  1.00  0.00    -0.458 OA
BRANCH   2   3
ATOM      3  C   UNL A   1      34.410  24.344  23.753  1.00  0.00     0.340 C 
ATOM      4  O   UNL A   1      34.307  24.470  22.544  1.00  0.00    -0.246 OA
BRANCH   3   5
ATOM      5  C   UNL A   1      33.521  25.044  24.710  1.00  0.00     0.083 A 
ATOM      6  C   UNL A   1      32.275  24.537  25.127  1.00  0.00     0.053 A 
ATOM      7  C   UNL A   1      31.515  25.327  26.013  1.00  0.00     0.027 A 
ATOM      8  C   UNL A   1      31.984  26.551  26.499  1.00  0.00     0.002 A 
ATOM      9  C   UNL A   1      34.000  26.260  25.232  1.00  0.00     0.018 A 
ATOM     10  C   UNL A   1      33.235  27.013  26.118  1.00  0.00     0.001 A 
BRANCH   6  11
ATOM     11  N   UNL A   1      31.766  23.253  24.833  1.00  0.00    -0.352 N 
ATOM     12  H   UNL A   1      30.831  23.252  24.526  1.00  0.00     0.167 HD
BRANCH  11  13
ATOM     13  C   UNL A   1      32.358  21.967  24.898  1.00  0.00     0.077 A 
ATOM     14  C   UNL A   1      32.528  18.638  22.973  1.00  0.00     0.046 C 
ATOM     15  C   UNL A   1      32.712  19.686  24.039  1.00  0.00    -0.030 A 
ATOM     16  C   UNL A   1      33.215  19.299  25.289  1.00  0.00     0.006 A 
ATOM     17  C   UNL A   1      32.330  21.031  23.837  1.00  0.00     0.069 A 
ATOM     18  C   UNL A   1      33.339  20.229  26.318  1.00  0.00     0.023 A 
ATOM     19  Cl  UNL A   1      31.915  21.541  22.223  1.00  0.00    -0.082 Cl
ATOM     20  C   UNL A   1      32.904  21.540  26.127  1.00  0.00     0.066 A 
ATOM     21  Cl  UNL A   1      33.012  22.627  27.473  1.00  0.00    -0.082 Cl
ENDBRANCH  11  13
ENDBRANCH   6  11
ENDBRANCH   3   5
ENDBRANCH   2   3
ENDBRANCH   1   2
BRANCH   1  22
ATOM     22  C   UNL A   1      36.361  21.323  24.352  1.00  0.00     0.275 C 
BRANCH  22  23
ATOM     23  O   UNL A   1      36.943  21.696  25.606  1.00  0.00    -0.458 OA
BRANCH  23  24
ATOM     24  C   UNL A   1      38.260  21.436  25.743  1.00  0.00     0.338 C 
ATOM     25  O   UNL A   1      38.871  20.434  25.381  1.00  0.00    -0.246 OA
BRANCH  24  26
ATOM     26  C   UNL A   1      38.917  22.575  26.392  1.00  0.00     0.060 A 
ATOM     27  C   UNL A   1      38.439  23.860  26.155  1.00  0.00     0.016 A 
ATOM     28  C   UNL A   1      40.084  22.384  27.125  1.00  0.00     0.016 A 
ATOM     29  C   UNL A   1      39.179  24.969  26.552  1.00  0.00     0.010 A 
ATOM     30  C   UNL A   1      40.771  23.498  27.620  1.00  0.00     0.010 A 
ATOM     31  C   UNL A   1      40.351  24.802  27.298  1.00  0.00    -0.014 A 
BRANCH  31  32
ATOM     32  C   UNL A   1      41.168  25.981  27.696  1.00  0.00     0.031 A 
ATOM     33  C   UNL A   1      40.565  27.048  28.570  1.00  0.00     0.074 A 
ATOM     34  C   UNL A   1      42.446  26.104  27.287  1.00  0.00     0.049 A 
ATOM     35  N   UNL A   1      41.014  28.246  28.848  1.00  0.00    -0.248 NA
ATOM     36  C   UNL A   1      39.272  26.733  29.201  1.00  0.00     0.031 C 
ATOM     37  C   UNL A   1      43.178  25.126  26.479  1.00  0.00     0.029 A 
ATOM     38  N   UNL A   1      43.359  27.108  27.498  1.00  0.00    -0.354 N 
ATOM     39  C   UNL A   1      40.027  28.851  29.616  1.00  0.00     0.074 A 
ATOM     40  C   UNL A   1      38.959  27.887  29.772  1.00  0.00     0.031 C 
ATOM     41  C   UNL A   1      44.432  25.562  26.290  1.00  0.00     0.029 A 
ATOM     42  C   UNL A   1      44.566  26.888  26.881  1.00  0.00     0.049 A 
ATOM     43  H   UNL A   1      43.166  27.908  28.037  1.00  0.00     0.167 HD
ATOM     44  C   UNL A   1      40.013  30.103  30.135  1.00  0.00     0.037 A 
ATOM     45  C   UNL A   1      45.646  27.683  26.758  1.00  0.00     0.037 A 
ATOM     46  C   UNL A   1      41.110  31.029  30.042  1.00  0.00     0.049 A 
ATOM     47  C   UNL A   1      45.611  29.062  27.347  1.00  0.00     0.074 A 
ATOM     48  C   UNL A   1      41.207  32.308  30.563  1.00  0.00     0.029 A 
ATOM     49  N   UNL A   1      42.310  30.767  29.400  1.00  0.00    -0.354 N 
ATOM     50  N   UNL A   1      44.648  29.651  28.013  1.00  0.00    -0.248 NA
ATOM     51  C   UNL A   1      46.804  29.897  27.146  1.00  0.00     0.031 C 
ATOM     52  C   UNL A   1      42.457  32.830  30.212  1.00  0.00     0.029 A 
ATOM     53  C   UNL A   1      43.152  31.862  29.503  1.00  0.00     0.049 A 
ATOM     54  H   UNL A   1      42.532  29.926  28.939  1.00  0.00     0.167 HD
ATOM     55  C   UNL A   1      45.113  30.923  28.310  1.00  0.00     0.074 A 
ATOM     56  C   UNL A   1      46.457  31.013  27.774  1.00  0.00     0.031 C 
ATOM     57  C   UNL A   1      44.482  31.931  28.959  1.00  0.00     0.037 A 
BRANCH  44  58
ATOM     58  C   UNL A   1      38.755  30.555  30.816  1.00  0.00     0.057 A 
ATOM     59  C   UNL A   1      37.725  31.213  30.134  1.00  0.00     0.134 A 
ATOM     60  C   UNL A   1      38.567  30.304  32.183  1.00  0.00     0.134 A 
ATOM     61  F   UNL A   1      37.849  31.499  28.829  1.00  0.00    -0.206 F 
ATOM     62  C   UNL A   1      36.563  31.624  30.789  1.00  0.00     0.040 A 
ATOM     63  C   UNL A   1      37.399  30.688  32.844  1.00  0.00     0.040 A 
ATOM     64  F   UNL A   1      39.513  29.674  32.896  1.00  0.00    -0.206 F 
ATOM     65  C   UNL A   1      36.395  31.356  32.147  1.00  0.00     0.006 A 
ENDBRANCH  44  58
BRANCH  45  66
ATOM     66  C   UNL A   1      46.827  27.203  25.999  1.00  0.00     0.057 A 
ATOM     67  C   UNL A   1      47.833  26.456  26.621  1.00  0.00     0.134 A 
ATOM     68  C   UNL A   1      46.961  27.454  24.628  1.00  0.00     0.134 A 
ATOM     69  F   UNL A   1      47.772  26.204  27.937  1.00  0.00    -0.206 F 
ATOM     70  C   UNL A   1      48.933  25.977  25.906  1.00  0.00     0.040 A 
ATOM     71  C   UNL A   1      48.042  26.958  23.896  1.00  0.00     0.040 A 
ATOM     72  F   UNL A   1      46.028  28.161  23.975  1.00  0.00    -0.206 F 
ATOM     73  C   UNL A   1      49.033  26.219  24.538  1.00  0.00     0.006 A 
ENDBRANCH  45  66
BRANCH  57  74
ATOM     74  C   UNL A   1      45.247  33.208  29.134  1.00  0.00     0.057 A 
ATOM     75  C   UNL A   1      46.092  33.411  30.232  1.00  0.00     0.134 A 
ATOM     76  C   UNL A   1      45.156  34.232  28.184  1.00  0.00     0.134 A 
ATOM     77  F   UNL A   1      46.209  32.473  31.183  1.00  0.00    -0.206 F 
ATOM     78  C   UNL A   1      46.807  34.600  30.388  1.00  0.00     0.040 A 
ATOM     79  C   UNL A   1      45.881  35.416  28.318  1.00  0.00     0.040 A 
ATOM     80  F   UNL A   1      44.368  34.093  27.107  1.00  0.00    -0.206 F 
ATOM     81  C   UNL A   1      46.706  35.604  29.426  1.00  0.00     0.006 A 
ENDBRANCH  57  74
ENDBRANCH  31  32
ENDBRANCH  24  26
ENDBRANCH  23  24
ENDBRANCH  22  23
ENDBRANCH   1  22
TORSDOF 13
ENDMDL
