MODEL 1
REMARK VINA RESULT:     -11.3      0.000      0.000
REMARK SMILES Cc1ccc(/C=C/C(=O)N[C@](C)(C(=O)OCCOC(=O)c2ccc(-c3c4nc(c(-c5c(F)cccc5F)c5ccc([nH]5)c(-c5c(F)cccc5F)c5nc(c(-c6c(F)cccc6F)c6ccc3[nH]6)C=C5)C=C4)cc2)C(F)(F)F)o1
REMARK SMILES IDX 16 1 15 2 13 3 14 4 11 5 12 6 10 7 8 8 9 9 7 11 6 12 5 13
REMARK SMILES IDX 1 14 2 15 3 16 79 17 4 18 75 19 76 20 77 21 78 22 17 23
REMARK SMILES IDX 18 24 19 25 20 26 21 27 22 28 74 29 23 30 73 31 24 32 25 33
REMARK SMILES IDX 26 34 67 35 27 36 72 37 66 38 68 39 28 40 71 41 65 42 64 43
REMARK SMILES IDX 29 45 55 46 38 47 54 48 39 49 42 50 53 51 69 52 40 53 41 54
REMARK SMILES IDX 52 56 70 57 43 58 30 59 31 60 36 61 32 62 33 63 35 64 37 65
REMARK SMILES IDX 34 66 56 67 57 68 62 69 58 70 59 71 61 72 63 73 60 74 44 75
REMARK SMILES IDX 45 76 50 77 46 78 47 79 49 80 51 81 48 82
REMARK H PARENT 10 10 68 44 42 55
REMARK Flexibility Score: inf
ROOT
ATOM      1  C   UNL A   1      35.003  21.736  26.092  1.00  0.00     0.274 C 
ENDROOT
BRANCH   1   2
ATOM      2  O   UNL A   1      34.781  22.974  25.375  1.00  0.00    -0.460 OA
BRANCH   2   3
ATOM      3  C   UNL A   1      33.796  22.970  24.428  1.00  0.00     0.341 C 
ATOM      4  O   UNL A   1      33.526  21.991  23.744  1.00  0.00    -0.249 OA
BRANCH   3   5
ATOM      5  C   UNL A   1      33.226  24.369  24.174  1.00  0.00     0.231 C 
ATOM      6  C   UNL A   1      33.964  25.487  24.924  1.00  0.00     0.058 C 
BRANCH   5   7
ATOM      7  N   UNL A   1      33.174  24.475  22.680  1.00  0.00    -0.329 N 
ATOM      8  C   UNL A   1      32.963  25.468  21.788  1.00  0.00     0.245 C 
ATOM      9  O   UNL A   1      33.192  25.269  20.599  1.00  0.00    -0.270 OA
ATOM     10  H   UNL A   1      33.335  23.609  22.241  1.00  0.00     0.165 HD
BRANCH   8  11
ATOM     11  C   UNL A   1      32.348  26.728  22.211  1.00  0.00     0.075 C 
ATOM     12  C   UNL A   1      31.023  26.908  22.183  1.00  0.00     0.053 C 
BRANCH  12  13
ATOM     13  C   UNL A   1      30.494  28.172  22.546  1.00  0.00     0.127 A 
ATOM     14  C   UNL A   1      28.685  31.108  21.555  1.00  0.00     0.087 C 
ATOM     15  C   UNL A   1      29.416  30.100  22.346  1.00  0.00     0.101 A 
ATOM     16  C   UNL A   1      29.824  30.030  23.656  1.00  0.00     0.046 A 
ATOM     17  O   UNL A   1      29.795  28.979  21.680  1.00  0.00    -0.462 OA
ATOM     18  C   UNL A   1      30.530  28.809  23.780  1.00  0.00     0.050 A 
ENDBRANCH  12  13
ENDBRANCH   8  11
ENDBRANCH   5   7
BRANCH   5  19
ATOM     19  C   UNL A   1      31.788  24.340  24.743  1.00  0.00     0.422 C 
ATOM     20  F   UNL A   1      31.373  25.555  25.163  1.00  0.00    -0.168 F 
ATOM     21  F   UNL A   1      30.911  23.940  23.786  1.00  0.00    -0.168 F 
ATOM     22  F   UNL A   1      31.651  23.475  25.771  1.00  0.00    -0.168 F 
ENDBRANCH   5  19
ENDBRANCH   3   5
ENDBRANCH   2   3
ENDBRANCH   1   2
BRANCH   1  23
ATOM     23  C   UNL A   1      36.014  20.872  25.345  1.00  0.00     0.275 C 
BRANCH  23  24
ATOM     24  O   UNL A   1      37.188  21.665  25.108  1.00  0.00    -0.458 OA
BRANCH  24  25
ATOM     25  C   UNL A   1      38.333  21.199  25.649  1.00  0.00     0.338 C 
ATOM     26  O   UNL A   1      38.811  20.078  25.557  1.00  0.00    -0.246 OA
BRANCH  25  27
ATOM     27  C   UNL A   1      39.026  22.325  26.282  1.00  0.00     0.060 A 
ATOM     28  C   UNL A   1      38.523  23.608  26.066  1.00  0.00     0.016 A 
ATOM     29  C   UNL A   1      40.210  22.137  26.990  1.00  0.00     0.016 A 
ATOM     30  C   UNL A   1      39.235  24.719  26.501  1.00  0.00     0.010 A 
ATOM     31  C   UNL A   1      40.888  23.253  27.488  1.00  0.00     0.010 A 
ATOM     32  C   UNL A   1      40.425  24.556  27.220  1.00  0.00    -0.014 A 
BRANCH  32  33
ATOM     33  C   UNL A   1      41.222  25.744  27.625  1.00  0.00     0.031 A 
ATOM     34  C   UNL A   1      40.604  26.783  28.519  1.00  0.00     0.074 A 
ATOM     35  C   UNL A   1      42.498  25.889  27.222  1.00  0.00     0.049 A 
ATOM     36  N   UNL A   1      41.042  27.977  28.827  1.00  0.00    -0.248 NA
ATOM     37  C   UNL A   1      39.313  26.438  29.137  1.00  0.00     0.031 C 
ATOM     38  C   UNL A   1      43.247  24.931  26.406  1.00  0.00     0.029 A 
ATOM     39  N   UNL A   1      43.396  26.902  27.452  1.00  0.00    -0.354 N 
ATOM     40  C   UNL A   1      40.052  28.550  29.615  1.00  0.00     0.074 A 
ATOM     41  C   UNL A   1      38.998  27.567  29.754  1.00  0.00     0.031 C 
ATOM     42  C   UNL A   1      44.495  25.390  26.225  1.00  0.00     0.029 A 
ATOM     43  C   UNL A   1      44.613  26.704  26.848  1.00  0.00     0.049 A 
ATOM     44  H   UNL A   1      43.187  27.694  27.997  1.00  0.00     0.167 HD
ATOM     45  C   UNL A   1      40.023  29.787  30.163  1.00  0.00     0.037 A 
ATOM     46  C   UNL A   1      45.691  27.508  26.769  1.00  0.00     0.037 A 
ATOM     47  C   UNL A   1      41.102  30.735  30.086  1.00  0.00     0.049 A 
ATOM     48  C   UNL A   1      45.641  28.872  27.395  1.00  0.00     0.074 A 
ATOM     49  C   UNL A   1      41.170  32.012  30.616  1.00  0.00     0.029 A 
ATOM     50  N   UNL A   1      42.314  30.497  29.457  1.00  0.00    -0.354 N 
ATOM     51  N   UNL A   1      44.666  29.437  28.064  1.00  0.00    -0.248 NA
ATOM     52  C   UNL A   1      46.830  29.721  27.232  1.00  0.00     0.031 C 
ATOM     53  C   UNL A   1      42.420  32.553  30.294  1.00  0.00     0.029 A 
ATOM     54  C   UNL A   1      43.137  31.602  29.586  1.00  0.00     0.049 A 
ATOM     55  H   UNL A   1      42.554  29.664  28.990  1.00  0.00     0.167 HD
ATOM     56  C   UNL A   1      45.120  30.706  28.399  1.00  0.00     0.074 A 
ATOM     57  C   UNL A   1      46.468  30.819  27.881  1.00  0.00     0.031 C 
ATOM     58  C   UNL A   1      44.474  31.693  29.062  1.00  0.00     0.037 A 
BRANCH  45  59
ATOM     59  C   UNL A   1      38.764  30.201  30.862  1.00  0.00     0.057 A 
ATOM     60  C   UNL A   1      38.563  29.980  32.229  1.00  0.00     0.134 A 
ATOM     61  C   UNL A   1      37.751  30.860  30.153  1.00  0.00     0.134 A 
ATOM     62  F   UNL A   1      39.487  29.338  32.958  1.00  0.00    -0.206 F 
ATOM     63  C   UNL A   1      37.389  30.389  32.866  1.00  0.00     0.040 A 
ATOM     64  C   UNL A   1      36.582  31.289  30.782  1.00  0.00     0.040 A 
ATOM     65  F   UNL A   1      37.885  31.100  28.840  1.00  0.00    -0.206 F 
ATOM     66  C   UNL A   1      36.397  31.051  32.142  1.00  0.00     0.006 A 
ENDBRANCH  45  59
BRANCH  46  67
ATOM     67  C   UNL A   1      46.892  27.061  26.024  1.00  0.00     0.057 A 
ATOM     68  C   UNL A   1      47.050  27.349  24.664  1.00  0.00     0.134 A 
ATOM     69  C   UNL A   1      47.914  26.339  26.655  1.00  0.00     0.134 A 
ATOM     70  F   UNL A   1      46.093  28.015  24.000  1.00  0.00    -0.206 F 
ATOM     71  C   UNL A   1      48.179  26.933  23.957  1.00  0.00     0.040 A 
ATOM     72  C   UNL A   1      49.057  25.937  25.967  1.00  0.00     0.040 A 
ATOM     73  F   UNL A   1      47.819  26.032  27.958  1.00  0.00    -0.206 F 
ATOM     74  C   UNL A   1      49.190  26.230  24.611  1.00  0.00     0.006 A 
ENDBRANCH  46  67
BRANCH  58  75
ATOM     75  C   UNL A   1      45.222  32.973  29.271  1.00  0.00     0.057 A 
ATOM     76  C   UNL A   1      45.120  34.033  28.362  1.00  0.00     0.134 A 
ATOM     77  C   UNL A   1      46.022  33.159  30.403  1.00  0.00     0.134 A 
ATOM     78  F   UNL A   1      44.377  33.908  27.251  1.00  0.00    -0.206 F 
ATOM     79  C   UNL A   1      45.804  35.232  28.566  1.00  0.00     0.040 A 
ATOM     80  C   UNL A   1      46.698  34.359  30.626  1.00  0.00     0.040 A 
ATOM     81  F   UNL A   1      46.154  32.181  31.312  1.00  0.00    -0.206 F 
ATOM     82  C   UNL A   1      46.592  35.399  29.703  1.00  0.00     0.006 A 
ENDBRANCH  58  75
ENDBRANCH  32  33
ENDBRANCH  25  27
ENDBRANCH  24  25
ENDBRANCH  23  24
ENDBRANCH   1  23
TORSDOF 15
ENDMDL
MODEL 2
REMARK VINA RESULT:     -11.2      3.846      8.932
REMARK SMILES Cc1ccc(/C=C/C(=O)N[C@](C)(C(=O)OCCOC(=O)c2ccc(-c3c4nc(c(-c5c(F)cccc5F)c5ccc([nH]5)c(-c5c(F)cccc5F)c5nc(c(-c6c(F)cccc6F)c6ccc3[nH]6)C=C5)C=C4)cc2)C(F)(F)F)o1
REMARK SMILES IDX 16 1 15 2 13 3 14 4 11 5 12 6 10 7 8 8 9 9 7 11 6 12 5 13
REMARK SMILES IDX 1 14 2 15 3 16 79 17 4 18 75 19 76 20 77 21 78 22 17 23
REMARK SMILES IDX 18 24 19 25 20 26 21 27 22 28 74 29 23 30 73 31 24 32 25 33
REMARK SMILES IDX 26 34 67 35 27 36 72 37 66 38 68 39 28 40 71 41 65 42 64 43
REMARK SMILES IDX 29 45 55 46 38 47 54 48 39 49 42 50 53 51 69 52 40 53 41 54
REMARK SMILES IDX 52 56 70 57 43 58 30 59 31 60 36 61 32 62 33 63 35 64 37 65
REMARK SMILES IDX 34 66 56 67 57 68 62 69 58 70 59 71 61 72 63 73 60 74 44 75
REMARK SMILES IDX 45 76 50 77 46 78 47 79 49 80 51 81 48 82
REMARK H PARENT 10 10 68 44 42 55
REMARK Flexibility Score: inf
ROOT
ATOM      1  C   UNL A   1      31.380  29.320  24.386  1.00  0.00     0.274 C 
ENDROOT
BRANCH   1   2
ATOM      2  O   UNL A   1      31.935  27.983  24.382  1.00  0.00    -0.460 OA
BRANCH   2   3
ATOM      3  C   UNL A   1      31.048  26.948  24.299  1.00  0.00     0.341 C 
ATOM      4  O   UNL A   1      29.839  27.107  24.186  1.00  0.00    -0.249 OA
BRANCH   3   5
ATOM      5  C   UNL A   1      31.706  25.592  24.577  1.00  0.00     0.231 C 
ATOM      6  C   UNL A   1      33.193  25.687  24.944  1.00  0.00     0.058 C 
BRANCH   5   7
ATOM      7  N   UNL A   1      30.800  24.947  25.582  1.00  0.00    -0.329 N 
ATOM      8  C   UNL A   1      30.851  23.846  26.364  1.00  0.00     0.245 C 
ATOM      9  O   UNL A   1      30.016  23.698  27.250  1.00  0.00    -0.270 OA
ATOM     10  H   UNL A   1      29.962  25.449  25.702  1.00  0.00     0.165 HD
BRANCH   8  11
ATOM     11  C   UNL A   1      31.812  22.779  26.081  1.00  0.00     0.075 C 
ATOM     12  C   UNL A   1      31.511  21.757  25.271  1.00  0.00     0.053 C 
BRANCH  12  13
ATOM     13  C   UNL A   1      32.462  20.723  25.086  1.00  0.00     0.127 A 
ATOM     14  C   UNL A   1      33.161  17.204  25.069  1.00  0.00     0.087 C 
ATOM     15  C   UNL A   1      33.286  18.669  24.948  1.00  0.00     0.101 A 
ATOM     16  C   UNL A   1      34.321  19.513  24.626  1.00  0.00     0.046 A 
ATOM     17  O   UNL A   1      32.162  19.387  25.203  1.00  0.00    -0.462 OA
ATOM     18  C   UNL A   1      33.802  20.825  24.733  1.00  0.00     0.050 A 
ENDBRANCH  12  13
ENDBRANCH   8  11
ENDBRANCH   5   7
BRANCH   5  19
ATOM     19  C   UNL A   1      31.637  24.817  23.241  1.00  0.00     0.422 C 
ATOM     20  F   UNL A   1      32.622  23.900  23.123  1.00  0.00    -0.168 F 
ATOM     21  F   UNL A   1      30.463  24.138  23.151  1.00  0.00    -0.168 F 
ATOM     22  F   UNL A   1      31.691  25.628  22.162  1.00  0.00    -0.168 F 
ENDBRANCH   5  19
ENDBRANCH   3   5
ENDBRANCH   2   3
ENDBRANCH   1   2
BRANCH   1  23
ATOM     23  C   UNL A   1      31.503  29.934  25.777  1.00  0.00     0.275 C 
BRANCH  23  24
ATOM     24  O   UNL A   1      32.897  30.155  26.045  1.00  0.00    -0.458 OA
BRANCH  24  25
ATOM     25  C   UNL A   1      33.181  31.159  26.900  1.00  0.00     0.338 C 
ATOM     26  O   UNL A   1      32.456  32.077  27.255  1.00  0.00    -0.246 OA
BRANCH  25  27
ATOM     27  C   UNL A   1      34.503  30.903  27.478  1.00  0.00     0.060 A 
ATOM     28  C   UNL A   1      34.816  29.592  27.838  1.00  0.00     0.016 A 
ATOM     29  C   UNL A   1      35.381  31.945  27.759  1.00  0.00     0.016 A 
ATOM     30  C   UNL A   1      35.983  29.321  28.542  1.00  0.00     0.010 A 
ATOM     31  C   UNL A   1      36.589  31.661  28.404  1.00  0.00     0.010 A 
ATOM     32  C   UNL A   1      36.887  30.351  28.831  1.00  0.00    -0.014 A 
BRANCH  32  33
ATOM     33  C   UNL A   1      38.102  30.075  29.642  1.00  0.00     0.031 A 
ATOM     34  C   UNL A   1      39.206  29.235  29.063  1.00  0.00     0.074 A 
ATOM     35  C   UNL A   1      38.235  30.587  30.880  1.00  0.00     0.049 A 
ATOM     36  N   UNL A   1      40.247  28.711  29.657  1.00  0.00    -0.248 NA
ATOM     37  C   UNL A   1      39.120  28.933  27.624  1.00  0.00     0.031 C 
ATOM     38  C   UNL A   1      37.274  31.468  31.546  1.00  0.00     0.029 A 
ATOM     39  N   UNL A   1      39.245  30.441  31.800  1.00  0.00    -0.354 N 
ATOM     40  C   UNL A   1      40.899  27.962  28.685  1.00  0.00     0.074 A 
ATOM     41  C   UNL A   1      40.147  28.114  27.457  1.00  0.00     0.031 C 
ATOM     42  C   UNL A   1      37.751  31.804  32.755  1.00  0.00     0.029 A 
ATOM     43  C   UNL A   1      39.012  31.105  32.979  1.00  0.00     0.049 A 
ATOM     44  H   UNL A   1      40.056  29.911  31.631  1.00  0.00     0.167 HD
ATOM     45  C   UNL A   1      42.017  27.210  28.812  1.00  0.00     0.037 A 
ATOM     46  C   UNL A   1      39.715  31.119  34.128  1.00  0.00     0.037 A 
ATOM     47  C   UNL A   1      42.803  27.119  30.013  1.00  0.00     0.049 A 
ATOM     48  C   UNL A   1      40.959  30.286  34.241  1.00  0.00     0.074 A 
ATOM     49  C   UNL A   1      43.957  26.388  30.236  1.00  0.00     0.029 A 
ATOM     50  N   UNL A   1      42.527  27.802  31.186  1.00  0.00    -0.354 N 
ATOM     51  N   UNL A   1      41.519  29.514  33.343  1.00  0.00    -0.248 NA
ATOM     52  C   UNL A   1      41.654  30.305  35.537  1.00  0.00     0.031 C 
ATOM     53  C   UNL A   1      44.372  26.618  31.553  1.00  0.00     0.029 A 
ATOM     54  C   UNL A   1      43.489  27.511  32.138  1.00  0.00     0.049 A 
ATOM     55  H   UNL A   1      41.762  28.406  31.322  1.00  0.00     0.167 HD
ATOM     56  C   UNL A   1      42.628  28.952  33.963  1.00  0.00     0.074 A 
ATOM     57  C   UNL A   1      42.676  29.492  35.306  1.00  0.00     0.031 C 
ATOM     58  C   UNL A   1      43.517  28.059  33.469  1.00  0.00     0.037 A 
BRANCH  45  59
ATOM     59  C   UNL A   1      42.433  26.392  27.628  1.00  0.00     0.057 A 
ATOM     60  C   UNL A   1      43.329  26.873  26.667  1.00  0.00     0.134 A 
ATOM     61  C   UNL A   1      41.948  25.088  27.469  1.00  0.00     0.134 A 
ATOM     62  F   UNL A   1      43.814  28.121  26.753  1.00  0.00    -0.206 F 
ATOM     63  C   UNL A   1      43.718  26.088  25.579  1.00  0.00     0.040 A 
ATOM     64  C   UNL A   1      42.343  24.288  26.397  1.00  0.00     0.040 A 
ATOM     65  F   UNL A   1      41.085  24.570  28.357  1.00  0.00    -0.206 F 
ATOM     66  C   UNL A   1      43.229  24.790  25.446  1.00  0.00     0.006 A 
ENDBRANCH  45  59
BRANCH  46  67
ATOM     67  C   UNL A   1      39.227  31.913  35.281  1.00  0.00     0.057 A 
ATOM     68  C   UNL A   1      38.371  31.353  36.236  1.00  0.00     0.134 A 
ATOM     69  C   UNL A   1      39.610  33.249  35.460  1.00  0.00     0.134 A 
ATOM     70  F   UNL A   1      37.951  30.086  36.104  1.00  0.00    -0.206 F 
ATOM     71  C   UNL A   1      37.911  32.093  37.325  1.00  0.00     0.040 A 
ATOM     72  C   UNL A   1      39.175  33.993  36.555  1.00  0.00     0.040 A 
ATOM     73  F   UNL A   1      40.429  33.841  34.578  1.00  0.00    -0.206 F 
ATOM     74  C   UNL A   1      38.318  33.416  37.491  1.00  0.00     0.006 A 
ENDBRANCH  46  67
BRANCH  58  75
ATOM     75  C   UNL A   1      44.618  27.621  34.383  1.00  0.00     0.057 A 
ATOM     76  C   UNL A   1      45.820  28.334  34.471  1.00  0.00     0.134 A 
ATOM     77  C   UNL A   1      44.463  26.500  35.205  1.00  0.00     0.134 A 
ATOM     78  F   UNL A   1      46.031  29.411  33.698  1.00  0.00    -0.206 F 
ATOM     79  C   UNL A   1      46.839  27.935  35.336  1.00  0.00     0.040 A 
ATOM     80  C   UNL A   1      45.468  26.100  36.086  1.00  0.00     0.040 A 
ATOM     81  F   UNL A   1      43.331  25.780  35.169  1.00  0.00    -0.206 F 
ATOM     82  C   UNL A   1      46.662  26.817  36.150  1.00  0.00     0.006 A 
ENDBRANCH  58  75
ENDBRANCH  32  33
ENDBRANCH  25  27
ENDBRANCH  24  25
ENDBRANCH  23  24
ENDBRANCH   1  23
TORSDOF 15
ENDMDL
MODEL 3
REMARK VINA RESULT:     -11.2      1.174      2.033
REMARK SMILES Cc1ccc(/C=C/C(=O)N[C@](C)(C(=O)OCCOC(=O)c2ccc(-c3c4nc(c(-c5c(F)cccc5F)c5ccc([nH]5)c(-c5c(F)cccc5F)c5nc(c(-c6c(F)cccc6F)c6ccc3[nH]6)C=C5)C=C4)cc2)C(F)(F)F)o1
REMARK SMILES IDX 16 1 15 2 13 3 14 4 11 5 12 6 10 7 8 8 9 9 7 11 6 12 5 13
REMARK SMILES IDX 1 14 2 15 3 16 79 17 4 18 75 19 76 20 77 21 78 22 17 23
REMARK SMILES IDX 18 24 19 25 20 26 21 27 22 28 74 29 23 30 73 31 24 32 25 33
REMARK SMILES IDX 26 34 67 35 27 36 72 37 66 38 68 39 28 40 71 41 65 42 64 43
REMARK SMILES IDX 29 45 55 46 38 47 54 48 39 49 42 50 53 51 69 52 40 53 41 54
REMARK SMILES IDX 52 56 70 57 43 58 30 59 31 60 36 61 32 62 33 63 35 64 37 65
REMARK SMILES IDX 34 66 56 67 57 68 62 69 58 70 59 71 61 72 63 73 60 74 44 75
REMARK SMILES IDX 45 76 50 77 46 78 47 79 49 80 51 81 48 82
REMARK H PARENT 10 10 68 44 42 55
REMARK Flexibility Score: inf
ROOT
ATOM      1  C   UNL A   1      34.967  20.689  25.071  1.00  0.00     0.274 C 
ENDROOT
BRANCH   1   2
ATOM      2  O   UNL A   1      34.415  21.956  24.641  1.00  0.00    -0.460 OA
BRANCH   2   3
ATOM      3  C   UNL A   1      33.908  22.769  25.614  1.00  0.00     0.341 C 
ATOM      4  O   UNL A   1      33.945  22.494  26.807  1.00  0.00    -0.249 OA
BRANCH   3   5
ATOM      5  C   UNL A   1      33.108  23.942  25.036  1.00  0.00     0.231 C 
ATOM      6  C   UNL A   1      32.800  23.806  23.539  1.00  0.00     0.058 C 
BRANCH   5   7
ATOM      7  N   UNL A   1      31.935  24.073  25.960  1.00  0.00    -0.329 N 
ATOM      8  C   UNL A   1      30.827  24.845  26.013  1.00  0.00     0.245 C 
ATOM      9  O   UNL A   1      29.934  24.563  26.805  1.00  0.00    -0.270 OA
ATOM     10  H   UNL A   1      31.983  23.440  26.712  1.00  0.00     0.165 HD
BRANCH   8  11
ATOM     11  C   UNL A   1      30.742  26.077  25.226  1.00  0.00     0.075 C 
ATOM     12  C   UNL A   1      29.832  26.232  24.258  1.00  0.00     0.053 C 
BRANCH  12  13
ATOM     13  C   UNL A   1      29.842  27.423  23.490  1.00  0.00     0.127 A 
ATOM     14  C   UNL A   1      27.958  30.033  21.904  1.00  0.00     0.087 C 
ATOM     15  C   UNL A   1      29.064  29.201  22.417  1.00  0.00     0.101 A 
ATOM     16  C   UNL A   1      30.433  29.282  22.338  1.00  0.00     0.046 A 
ATOM     17  O   UNL A   1      28.702  28.101  23.126  1.00  0.00    -0.462 OA
ATOM     18  C   UNL A   1      30.930  28.138  23.004  1.00  0.00     0.050 A 
ENDBRANCH  12  13
ENDBRANCH   8  11
ENDBRANCH   5   7
BRANCH   5  19
ATOM     19  C   UNL A   1      34.024  25.179  25.181  1.00  0.00     0.422 C 
ATOM     20  F   UNL A   1      33.815  25.845  26.338  1.00  0.00    -0.168 F 
ATOM     21  F   UNL A   1      35.329  24.801  25.183  1.00  0.00    -0.168 F 
ATOM     22  F   UNL A   1      33.883  26.056  24.164  1.00  0.00    -0.168 F 
ENDBRANCH   5  19
ENDBRANCH   3   5
ENDBRANCH   2   3
ENDBRANCH   1   2
BRANCH   1  23
ATOM     23  C   UNL A   1      36.448  20.614  24.711  1.00  0.00     0.275 C 
BRANCH  23  24
ATOM     24  O   UNL A   1      37.166  21.487  25.597  1.00  0.00    -0.458 OA
BRANCH  24  25
ATOM     25  C   UNL A   1      38.447  21.147  25.850  1.00  0.00     0.338 C 
ATOM     26  O   UNL A   1      39.028  20.115  25.549  1.00  0.00    -0.246 OA
BRANCH  25  27
ATOM     27  C   UNL A   1      39.115  22.307  26.446  1.00  0.00     0.060 A 
ATOM     28  C   UNL A   1      38.618  23.575  26.144  1.00  0.00     0.016 A 
ATOM     29  C   UNL A   1      40.273  22.161  27.205  1.00  0.00     0.016 A 
ATOM     30  C   UNL A   1      39.312  24.711  26.543  1.00  0.00     0.010 A 
ATOM     31  C   UNL A   1      40.931  23.305  27.666  1.00  0.00     0.010 A 
ATOM     32  C   UNL A   1      40.476  24.591  27.312  1.00  0.00    -0.014 A 
BRANCH  32  33
ATOM     33  C   UNL A   1      41.256  25.801  27.682  1.00  0.00     0.031 A 
ATOM     34  C   UNL A   1      40.625  26.856  28.548  1.00  0.00     0.074 A 
ATOM     35  C   UNL A   1      42.529  25.953  27.271  1.00  0.00     0.049 A 
ATOM     36  N   UNL A   1      41.045  28.064  28.821  1.00  0.00    -0.248 NA
ATOM     37  C   UNL A   1      39.341  26.509  29.179  1.00  0.00     0.031 C 
ATOM     38  C   UNL A   1      43.290  24.985  26.480  1.00  0.00     0.029 A 
ATOM     39  N   UNL A   1      43.412  26.986  27.470  1.00  0.00    -0.354 N 
ATOM     40  C   UNL A   1      40.049  28.644  29.595  1.00  0.00     0.074 A 
ATOM     41  C   UNL A   1      39.010  27.650  29.765  1.00  0.00     0.031 C 
ATOM     42  C   UNL A   1      44.531  25.457  26.283  1.00  0.00     0.029 A 
ATOM     43  C   UNL A   1      44.631  26.789  26.868  1.00  0.00     0.049 A 
ATOM     44  H   UNL A   1      43.193  27.790  27.993  1.00  0.00     0.167 HD
ATOM     45  C   UNL A   1      40.003  29.896  30.109  1.00  0.00     0.037 A 
ATOM     46  C   UNL A   1      45.696  27.607  26.764  1.00  0.00     0.037 A 
ATOM     47  C   UNL A   1      41.067  30.857  30.001  1.00  0.00     0.049 A 
ATOM     48  C   UNL A   1      45.627  28.987  27.351  1.00  0.00     0.074 A 
ATOM     49  C   UNL A   1      41.117  32.149  30.496  1.00  0.00     0.029 A 
ATOM     50  N   UNL A   1      42.281  30.619  29.377  1.00  0.00    -0.354 N 
ATOM     51  N   UNL A   1      44.645  29.556  28.007  1.00  0.00    -0.248 NA
ATOM     52  C   UNL A   1      46.803  29.848  27.162  1.00  0.00     0.031 C 
ATOM     53  C   UNL A   1      42.358  32.699  30.155  1.00  0.00     0.029 A 
ATOM     54  C   UNL A   1      43.088  31.740  29.472  1.00  0.00     0.049 A 
ATOM     55  H   UNL A   1      42.533  29.777  28.932  1.00  0.00     0.167 HD
ATOM     56  C   UNL A   1      45.082  30.840  28.304  1.00  0.00     0.074 A 
ATOM     57  C   UNL A   1      46.427  30.959  27.780  1.00  0.00     0.031 C 
ATOM     58  C   UNL A   1      44.422  31.836  28.942  1.00  0.00     0.037 A 
BRANCH  45  59
ATOM     59  C   UNL A   1      38.740  30.310  30.799  1.00  0.00     0.057 A 
ATOM     60  C   UNL A   1      37.683  30.921  30.117  1.00  0.00     0.134 A 
ATOM     61  C   UNL A   1      38.573  30.063  32.169  1.00  0.00     0.134 A 
ATOM     62  F   UNL A   1      37.789  31.202  28.809  1.00  0.00    -0.206 F 
ATOM     63  C   UNL A   1      36.506  31.285  30.775  1.00  0.00     0.040 A 
ATOM     64  C   UNL A   1      37.396  30.405  32.833  1.00  0.00     0.040 A 
ATOM     65  F   UNL A   1      39.552  29.480  32.879  1.00  0.00    -0.206 F 
ATOM     66  C   UNL A   1      36.359  31.021  32.137  1.00  0.00     0.006 A 
ENDBRANCH  45  59
BRANCH  46  67
ATOM     67  C   UNL A   1      46.902  27.156  26.028  1.00  0.00     0.057 A 
ATOM     68  C   UNL A   1      47.939  26.480  26.681  1.00  0.00     0.134 A 
ATOM     69  C   UNL A   1      47.045  27.386  24.654  1.00  0.00     0.134 A 
ATOM     70  F   UNL A   1      47.869  26.254  28.001  1.00  0.00    -0.206 F 
ATOM     71  C   UNL A   1      49.075  26.051  25.995  1.00  0.00     0.040 A 
ATOM     72  C   UNL A   1      48.164  26.943  23.951  1.00  0.00     0.040 A 
ATOM     73  F   UNL A   1      46.084  28.029  23.972  1.00  0.00    -0.206 F 
ATOM     74  C   UNL A   1      49.187  26.277  24.624  1.00  0.00     0.006 A 
ENDBRANCH  46  67
BRANCH  58  75
ATOM     75  C   UNL A   1      45.151  33.132  29.112  1.00  0.00     0.057 A 
ATOM     76  C   UNL A   1      45.033  34.164  28.173  1.00  0.00     0.134 A 
ATOM     77  C   UNL A   1      45.950  33.363  30.238  1.00  0.00     0.134 A 
ATOM     78  F   UNL A   1      44.291  33.996  27.068  1.00  0.00    -0.206 F 
ATOM     79  C   UNL A   1      45.699  35.378  28.341  1.00  0.00     0.040 A 
ATOM     80  C   UNL A   1      46.608  34.578  30.425  1.00  0.00     0.040 A 
ATOM     81  F   UNL A   1      46.097  32.413  31.175  1.00  0.00    -0.206 F 
ATOM     82  C   UNL A   1      46.486  35.589  29.472  1.00  0.00     0.006 A 
ENDBRANCH  58  75
ENDBRANCH  32  33
ENDBRANCH  25  27
ENDBRANCH  24  25
ENDBRANCH  23  24
ENDBRANCH   1  23
TORSDOF 15
ENDMDL
