MODEL 1
REMARK VINA RESULT:     -11.3      0.000      0.000
REMARK SMILES CO[C@@H]1C[C@H](C(=O)OCCOC(=O)c2ccc(-c3c4nc(c(-c5c(F)cccc5F)c5ccc([nH]5)c(-c5c(F)cccc5F)c5nc(c(-c6c(F)cccc6F)c6ccc3[nH]6)C=C5)C=C4)cc2)N(C(=O)c2ccn(C)c(=O)c2)C1
REMARK SMILES IDX 9 1 8 2 6 3 7 4 5 5 3 6 4 7 79 8 68 9 2 10 1 11 69 12 70 13
REMARK SMILES IDX 71 14 72 15 78 16 73 17 76 18 74 19 77 20 75 21 10 22 11 23
REMARK SMILES IDX 12 24 13 25 14 26 15 27 67 28 16 29 66 30 17 31 18 32 19 33
REMARK SMILES IDX 60 34 20 35 65 36 59 37 61 38 21 39 64 40 58 41 57 42 22 44
REMARK SMILES IDX 48 45 31 46 47 47 32 48 35 49 46 50 62 51 33 52 34 53 45 55
REMARK SMILES IDX 63 56 36 57 23 58 24 59 29 60 25 61 26 62 28 63 30 64 27 65
REMARK SMILES IDX 49 66 50 67 55 68 51 69 52 70 54 71 56 72 53 73 37 74 38 75
REMARK SMILES IDX 43 76 39 77 40 78 42 79 44 80 41 81
REMARK H PARENT 61 43 35 54
REMARK Flexibility Score: inf
ROOT
ATOM      1  C   UNL A   1      36.320  22.689  23.771  1.00  0.00     0.274 C 
ENDROOT
BRANCH   1   2
ATOM      2  O   UNL A   1      34.888  22.718  23.907  1.00  0.00    -0.461 OA
BRANCH   2   3
ATOM      3  C   UNL A   1      34.389  23.145  25.092  1.00  0.00     0.329 C 
ATOM      4  O   UNL A   1      34.477  24.298  25.504  1.00  0.00    -0.250 OA
BRANCH   3   5
ATOM      5  C   UNL A   1      33.670  22.036  25.885  1.00  0.00     0.198 C 
ATOM      6  C   UNL A   1      31.710  22.954  26.936  1.00  0.00     0.140 C 
ATOM      7  C   UNL A   1      33.100  22.393  27.249  1.00  0.00     0.071 C 
ATOM      8  C   UNL A   1      31.303  22.237  25.633  1.00  0.00     0.152 C 
ATOM      9  N   UNL A   1      32.506  21.577  25.141  1.00  0.00    -0.322 N 
BRANCH   6  10
ATOM     10  O   UNL A   1      31.748  24.367  26.733  1.00  0.00    -0.380 OA
ATOM     11  C   UNL A   1      30.913  24.796  25.661  1.00  0.00     0.195 C 
ENDBRANCH   6  10
BRANCH   9  12
ATOM     12  C   UNL A   1      32.461  20.687  24.092  1.00  0.00     0.254 C 
ATOM     13  O   UNL A   1      32.178  21.026  22.945  1.00  0.00    -0.269 OA
BRANCH  12  14
ATOM     14  C   UNL A   1      32.742  19.252  24.386  1.00  0.00     0.046 A 
ATOM     15  C   UNL A   1      32.528  18.708  25.705  1.00  0.00     0.032 A 
ATOM     16  C   UNL A   1      33.289  18.501  23.419  1.00  0.00     0.085 A 
ATOM     17  C   UNL A   1      32.854  17.436  25.962  1.00  0.00     0.089 A 
ATOM     18  C   UNL A   1      33.606  17.074  23.679  1.00  0.00     0.251 A 
ATOM     19  N   UNL A   1      33.381  16.619  24.975  1.00  0.00    -0.319 N 
ATOM     20  O   UNL A   1      34.027  16.389  22.751  1.00  0.00    -0.269 OA
ATOM     21  C   UNL A   1      33.745  15.253  25.318  1.00  0.00     0.153 C 
ENDBRANCH  12  14
ENDBRANCH   9  12
ENDBRANCH   3   5
ENDBRANCH   2   3
ENDBRANCH   1   2
BRANCH   1  22
ATOM     22  C   UNL A   1      36.868  21.375  24.326  1.00  0.00     0.275 C 
BRANCH  22  23
ATOM     23  O   UNL A   1      37.260  21.521  25.705  1.00  0.00    -0.458 OA
BRANCH  23  24
ATOM     24  C   UNL A   1      38.559  21.238  25.958  1.00  0.00     0.338 C 
ATOM     25  O   UNL A   1      39.170  20.217  25.694  1.00  0.00    -0.246 OA
BRANCH  24  26
ATOM     26  C   UNL A   1      39.220  22.431  26.498  1.00  0.00     0.060 A 
ATOM     27  C   UNL A   1      38.716  23.680  26.132  1.00  0.00     0.016 A 
ATOM     28  C   UNL A   1      40.381  22.326  27.261  1.00  0.00     0.016 A 
ATOM     29  C   UNL A   1      39.382  24.840  26.501  1.00  0.00     0.010 A 
ATOM     30  C   UNL A   1      41.042  23.493  27.651  1.00  0.00     0.010 A 
ATOM     31  C   UNL A   1      40.555  24.753  27.259  1.00  0.00    -0.014 A 
BRANCH  31  32
ATOM     32  C   UNL A   1      41.290  25.990  27.603  1.00  0.00     0.031 A 
ATOM     33  C   UNL A   1      40.634  27.036  28.452  1.00  0.00     0.074 A 
ATOM     34  C   UNL A   1      42.553  26.151  27.171  1.00  0.00     0.049 A 
ATOM     35  N   UNL A   1      41.063  28.230  28.770  1.00  0.00    -0.248 NA
ATOM     36  C   UNL A   1      39.314  26.700  29.008  1.00  0.00     0.031 C 
ATOM     37  C   UNL A   1      43.306  25.176  26.381  1.00  0.00     0.029 A 
ATOM     38  N   UNL A   1      43.429  27.191  27.344  1.00  0.00    -0.354 N 
ATOM     39  C   UNL A   1      40.053  28.802  29.530  1.00  0.00     0.074 A 
ATOM     40  C   UNL A   1      38.989  27.827  29.628  1.00  0.00     0.031 C 
ATOM     41  C   UNL A   1      44.540  25.655  26.157  1.00  0.00     0.029 A 
ATOM     42  C   UNL A   1      44.647  26.986  26.747  1.00  0.00     0.049 A 
ATOM     43  H   UNL A   1      43.206  28.006  27.848  1.00  0.00     0.167 HD
ATOM     44  C   UNL A   1      40.017  30.037  30.085  1.00  0.00     0.037 A 
ATOM     45  C   UNL A   1      45.723  27.791  26.670  1.00  0.00     0.037 A 
ATOM     46  C   UNL A   1      41.094  30.989  30.006  1.00  0.00     0.049 A 
ATOM     47  C   UNL A   1      45.652  29.159  27.284  1.00  0.00     0.074 A 
ATOM     48  C   UNL A   1      41.154  32.271  30.523  1.00  0.00     0.029 A 
ATOM     49  N   UNL A   1      42.307  30.753  29.377  1.00  0.00    -0.354 N 
ATOM     50  N   UNL A   1      44.672  29.715  27.955  1.00  0.00    -0.248 NA
ATOM     51  C   UNL A   1      46.828  30.024  27.109  1.00  0.00     0.031 C 
ATOM     52  C   UNL A   1      42.395  32.822  30.180  1.00  0.00     0.029 A 
ATOM     53  C   UNL A   1      43.120  31.869  29.481  1.00  0.00     0.049 A 
ATOM     54  H   UNL A   1      42.555  29.914  28.924  1.00  0.00     0.167 HD
ATOM     55  C   UNL A   1      45.109  30.989  28.284  1.00  0.00     0.074 A 
ATOM     56  C   UNL A   1      46.455  31.117  27.762  1.00  0.00     0.031 C 
ATOM     57  C   UNL A   1      44.453  31.972  28.948  1.00  0.00     0.037 A 
BRANCH  44  58
ATOM     58  C   UNL A   1      38.755  30.441  30.785  1.00  0.00     0.057 A 
ATOM     59  C   UNL A   1      37.699  31.069  30.113  1.00  0.00     0.134 A 
ATOM     60  C   UNL A   1      38.590  30.179  32.151  1.00  0.00     0.134 A 
ATOM     61  F   UNL A   1      37.803  31.364  28.809  1.00  0.00    -0.206 F 
ATOM     62  C   UNL A   1      36.529  31.438  30.781  1.00  0.00     0.040 A 
ATOM     63  C   UNL A   1      37.417  30.526  32.824  1.00  0.00     0.040 A 
ATOM     64  F   UNL A   1      39.565  29.581  32.852  1.00  0.00    -0.206 F 
ATOM     65  C   UNL A   1      36.385  31.162  32.140  1.00  0.00     0.006 A 
ENDBRANCH  44  58
BRANCH  45  66
ATOM     66  C   UNL A   1      46.946  27.329  25.971  1.00  0.00     0.057 A 
ATOM     67  C   UNL A   1      47.099  27.512  24.593  1.00  0.00     0.134 A 
ATOM     68  C   UNL A   1      47.993  26.706  26.660  1.00  0.00     0.134 A 
ATOM     69  F   UNL A   1      46.122  28.087  23.876  1.00  0.00    -0.206 F 
ATOM     70  C   UNL A   1      48.245  27.084  23.921  1.00  0.00     0.040 A 
ATOM     71  C   UNL A   1      49.155  26.294  26.007  1.00  0.00     0.040 A 
ATOM     72  F   UNL A   1      47.910  26.506  27.983  1.00  0.00    -0.206 F 
ATOM     73  C   UNL A   1      49.281  26.479  24.631  1.00  0.00     0.006 A 
ENDBRANCH  45  66
BRANCH  57  74
ATOM     74  C   UNL A   1      45.187  33.263  29.143  1.00  0.00     0.057 A 
ATOM     75  C   UNL A   1      46.001  33.480  30.263  1.00  0.00     0.134 A 
ATOM     76  C   UNL A   1      45.107  34.284  28.189  1.00  0.00     0.134 A 
ATOM     77  F   UNL A   1      46.105  32.544  31.218  1.00  0.00    -0.206 F 
ATOM     78  C   UNL A   1      46.697  34.676  30.433  1.00  0.00     0.040 A 
ATOM     79  C   UNL A   1      45.815  35.476  28.340  1.00  0.00     0.040 A 
ATOM     80  F   UNL A   1      44.350  34.133  27.092  1.00  0.00    -0.206 F 
ATOM     81  C   UNL A   1      46.609  35.677  29.467  1.00  0.00     0.006 A 
ENDBRANCH  57  74
ENDBRANCH  31  32
ENDBRANCH  24  26
ENDBRANCH  23  24
ENDBRANCH  22  23
ENDBRANCH   1  22
TORSDOF 14
ENDMDL
MODEL 2
REMARK VINA RESULT:     -11.3      1.987      2.815
REMARK SMILES CO[C@@H]1C[C@H](C(=O)OCCOC(=O)c2ccc(-c3c4nc(c(-c5c(F)cccc5F)c5ccc([nH]5)c(-c5c(F)cccc5F)c5nc(c(-c6c(F)cccc6F)c6ccc3[nH]6)C=C5)C=C4)cc2)N(C(=O)c2ccn(C)c(=O)c2)C1
REMARK SMILES IDX 9 1 8 2 6 3 7 4 5 5 3 6 4 7 79 8 68 9 2 10 1 11 69 12 70 13
REMARK SMILES IDX 71 14 72 15 78 16 73 17 76 18 74 19 77 20 75 21 10 22 11 23
REMARK SMILES IDX 12 24 13 25 14 26 15 27 67 28 16 29 66 30 17 31 18 32 19 33
REMARK SMILES IDX 60 34 20 35 65 36 59 37 61 38 21 39 64 40 58 41 57 42 22 44
REMARK SMILES IDX 48 45 31 46 47 47 32 48 35 49 46 50 62 51 33 52 34 53 45 55
REMARK SMILES IDX 63 56 36 57 23 58 24 59 29 60 25 61 26 62 28 63 30 64 27 65
REMARK SMILES IDX 49 66 50 67 55 68 51 69 52 70 54 71 56 72 53 73 37 74 38 75
REMARK SMILES IDX 43 76 39 77 40 78 42 79 44 80 41 81
REMARK H PARENT 61 43 35 54
REMARK Flexibility Score: inf
ROOT
ATOM      1  C   UNL A   1      37.641  20.480  24.981  1.00  0.00     0.274 C 
ENDROOT
BRANCH   1   2
ATOM      2  O   UNL A   1      37.324  21.706  24.298  1.00  0.00    -0.461 OA
BRANCH   2   3
ATOM      3  C   UNL A   1      36.012  22.013  24.157  1.00  0.00     0.329 C 
ATOM      4  O   UNL A   1      35.554  22.684  23.236  1.00  0.00    -0.250 OA
BRANCH   3   5
ATOM      5  C   UNL A   1      35.125  21.418  25.267  1.00  0.00     0.198 C 
ATOM      6  C   UNL A   1      34.094  23.205  26.505  1.00  0.00     0.140 C 
ATOM      7  C   UNL A   1      35.141  22.094  26.630  1.00  0.00     0.071 C 
ATOM      8  C   UNL A   1      33.095  22.661  25.463  1.00  0.00     0.152 C 
ATOM      9  N   UNL A   1      33.726  21.491  24.869  1.00  0.00    -0.322 N 
BRANCH   6  10
ATOM     10  O   UNL A   1      34.676  24.425  26.044  1.00  0.00    -0.380 OA
ATOM     11  C   UNL A   1      33.792  25.189  25.228  1.00  0.00     0.195 C 
ENDBRANCH   6  10
BRANCH   9  12
ATOM     12  C   UNL A   1      33.034  20.646  24.032  1.00  0.00     0.254 C 
ATOM     13  O   UNL A   1      32.391  21.050  23.065  1.00  0.00    -0.269 OA
BRANCH  12  14
ATOM     14  C   UNL A   1      33.053  19.188  24.344  1.00  0.00     0.046 A 
ATOM     15  C   UNL A   1      32.584  18.695  25.616  1.00  0.00     0.032 A 
ATOM     16  C   UNL A   1      33.605  18.354  23.450  1.00  0.00     0.085 A 
ATOM     17  C   UNL A   1      32.677  17.390  25.901  1.00  0.00     0.089 A 
ATOM     18  C   UNL A   1      33.664  16.898  23.734  1.00  0.00     0.251 A 
ATOM     19  N   UNL A   1      33.201  16.494  24.984  1.00  0.00    -0.319 N 
ATOM     20  O   UNL A   1      34.098  16.148  22.863  1.00  0.00    -0.269 OA
ATOM     21  C   UNL A   1      33.305  15.092  25.357  1.00  0.00     0.153 C 
ENDBRANCH  12  14
ENDBRANCH   9  12
ENDBRANCH   3   5
ENDBRANCH   2   3
ENDBRANCH   1   2
BRANCH   1  22
ATOM     22  C   UNL A   1      38.964  20.630  25.730  1.00  0.00     0.275 C 
BRANCH  22  23
ATOM     23  O   UNL A   1      39.718  19.403  25.696  1.00  0.00    -0.458 OA
BRANCH  23  24
ATOM     24  C   UNL A   1      41.031  19.537  25.995  1.00  0.00     0.338 C 
ATOM     25  O   UNL A   1      41.940  18.763  25.749  1.00  0.00    -0.246 OA
BRANCH  24  26
ATOM     26  C   UNL A   1      41.267  20.869  26.563  1.00  0.00     0.060 A 
ATOM     27  C   UNL A   1      41.717  21.875  25.707  1.00  0.00     0.016 A 
ATOM     28  C   UNL A   1      41.153  21.096  27.933  1.00  0.00     0.016 A 
ATOM     29  C   UNL A   1      42.085  23.113  26.213  1.00  0.00     0.010 A 
ATOM     30  C   UNL A   1      41.504  22.349  28.443  1.00  0.00     0.010 A 
ATOM     31  C   UNL A   1      41.987  23.356  27.588  1.00  0.00    -0.014 A 
BRANCH  31  32
ATOM     32  C   UNL A   1      42.433  24.659  28.128  1.00  0.00     0.031 A 
ATOM     33  C   UNL A   1      41.426  25.731  28.418  1.00  0.00     0.074 A 
ATOM     34  C   UNL A   1      43.738  24.859  28.381  1.00  0.00     0.049 A 
ATOM     35  N   UNL A   1      41.622  26.970  28.787  1.00  0.00    -0.248 NA
ATOM     36  C   UNL A   1      40.010  25.363  28.262  1.00  0.00     0.031 C 
ATOM     37  C   UNL A   1      44.798  23.870  28.183  1.00  0.00     0.029 A 
ATOM     38  N   UNL A   1      44.394  25.960  28.865  1.00  0.00    -0.354 N 
ATOM     39  C   UNL A   1      40.360  27.542  28.869  1.00  0.00     0.074 A 
ATOM     40  C   UNL A   1      39.404  26.515  28.514  1.00  0.00     0.031 C 
ATOM     41  C   UNL A   1      45.969  24.401  28.566  1.00  0.00     0.029 A 
ATOM     42  C   UNL A   1      45.749  25.781  28.991  1.00  0.00     0.049 A 
ATOM     43  H   UNL A   1      43.938  26.800  29.102  1.00  0.00     0.167 HD
ATOM     44  C   UNL A   1      40.035  28.814  29.201  1.00  0.00     0.037 A 
ATOM     45  C   UNL A   1      46.706  26.639  29.386  1.00  0.00     0.037 A 
ATOM     46  C   UNL A   1      40.993  29.818  29.581  1.00  0.00     0.049 A 
ATOM     47  C   UNL A   1      46.320  28.047  29.738  1.00  0.00     0.074 A 
ATOM     48  C   UNL A   1      40.769  31.140  29.924  1.00  0.00     0.029 A 
ATOM     49  N   UNL A   1      42.360  29.604  29.679  1.00  0.00    -0.354 N 
ATOM     50  N   UNL A   1      45.129  28.596  29.762  1.00  0.00    -0.248 NA
ATOM     51  C   UNL A   1      47.412  28.964  30.095  1.00  0.00     0.031 C 
ATOM     52  C   UNL A   1      42.006  31.734  30.202  1.00  0.00     0.029 A 
ATOM     53  C   UNL A   1      42.995  30.772  30.065  1.00  0.00     0.049 A 
ATOM     54  H   UNL A   1      42.812  28.748  29.502  1.00  0.00     0.167 HD
ATOM     55  C   UNL A   1      45.325  29.917  30.135  1.00  0.00     0.074 A 
ATOM     56  C   UNL A   1      46.748  30.082  30.355  1.00  0.00     0.031 C 
ATOM     57  C   UNL A   1      44.413  30.910  30.272  1.00  0.00     0.037 A 
BRANCH  44  58
ATOM     58  C   UNL A   1      38.589  29.197  29.122  1.00  0.00     0.057 A 
ATOM     59  C   UNL A   1      37.739  29.132  30.233  1.00  0.00     0.134 A 
ATOM     60  C   UNL A   1      38.044  29.657  27.916  1.00  0.00     0.134 A 
ATOM     61  F   UNL A   1      38.195  28.683  31.412  1.00  0.00    -0.206 F 
ATOM     62  C   UNL A   1      36.393  29.494  30.143  1.00  0.00     0.040 A 
ATOM     63  C   UNL A   1      36.706  30.041  27.819  1.00  0.00     0.040 A 
ATOM     64  F   UNL A   1      38.806  29.743  26.815  1.00  0.00    -0.206 F 
ATOM     65  C   UNL A   1      35.875  29.956  28.933  1.00  0.00     0.006 A 
ENDBRANCH  44  58
BRANCH  45  66
ATOM     66  C   UNL A   1      48.119  26.195  29.453  1.00  0.00     0.057 A 
ATOM     67  C   UNL A   1      48.961  26.308  28.341  1.00  0.00     0.134 A 
ATOM     68  C   UNL A   1      48.666  25.660  30.625  1.00  0.00     0.134 A 
ATOM     69  F   UNL A   1      48.489  26.797  27.185  1.00  0.00    -0.206 F 
ATOM     70  C   UNL A   1      50.293  25.896  28.389  1.00  0.00     0.040 A 
ATOM     71  C   UNL A   1      50.002  25.266  30.695  1.00  0.00     0.040 A 
ATOM     72  F   UNL A   1      47.912  25.530  31.727  1.00  0.00    -0.206 F 
ATOM     73  C   UNL A   1      50.820  25.380  29.572  1.00  0.00     0.006 A 
ENDBRANCH  45  66
BRANCH  57  74
ATOM     74  C   UNL A   1      44.933  32.255  30.679  1.00  0.00     0.057 A 
ATOM     75  C   UNL A   1      45.306  33.213  29.728  1.00  0.00     0.134 A 
ATOM     76  C   UNL A   1      45.028  32.607  32.030  1.00  0.00     0.134 A 
ATOM     77  F   UNL A   1      45.250  32.928  28.419  1.00  0.00    -0.206 F 
ATOM     78  C   UNL A   1      45.773  34.471  30.110  1.00  0.00     0.040 A 
ATOM     79  C   UNL A   1      45.475  33.869  32.423  1.00  0.00     0.040 A 
ATOM     80  F   UNL A   1      44.679  31.734  32.988  1.00  0.00    -0.206 F 
ATOM     81  C   UNL A   1      45.853  34.804  31.461  1.00  0.00     0.006 A 
ENDBRANCH  57  74
ENDBRANCH  31  32
ENDBRANCH  24  26
ENDBRANCH  23  24
ENDBRANCH  22  23
ENDBRANCH   1  22
TORSDOF 14
ENDMDL
MODEL 3
REMARK VINA RESULT:     -11.2      0.866      6.280
REMARK SMILES CO[C@@H]1C[C@H](C(=O)OCCOC(=O)c2ccc(-c3c4nc(c(-c5c(F)cccc5F)c5ccc([nH]5)c(-c5c(F)cccc5F)c5nc(c(-c6c(F)cccc6F)c6ccc3[nH]6)C=C5)C=C4)cc2)N(C(=O)c2ccn(C)c(=O)c2)C1
REMARK SMILES IDX 9 1 8 2 6 3 7 4 5 5 3 6 4 7 79 8 68 9 2 10 1 11 69 12 70 13
REMARK SMILES IDX 71 14 72 15 78 16 73 17 76 18 74 19 77 20 75 21 10 22 11 23
REMARK SMILES IDX 12 24 13 25 14 26 15 27 67 28 16 29 66 30 17 31 18 32 19 33
REMARK SMILES IDX 60 34 20 35 65 36 59 37 61 38 21 39 64 40 58 41 57 42 22 44
REMARK SMILES IDX 48 45 31 46 47 47 32 48 35 49 46 50 62 51 33 52 34 53 45 55
REMARK SMILES IDX 63 56 36 57 23 58 24 59 29 60 25 61 26 62 28 63 30 64 27 65
REMARK SMILES IDX 49 66 50 67 55 68 51 69 52 70 54 71 56 72 53 73 37 74 38 75
REMARK SMILES IDX 43 76 39 77 40 78 42 79 44 80 41 81
REMARK H PARENT 61 43 35 54
REMARK Flexibility Score: inf
ROOT
ATOM      1  C   UNL A   1      37.318  19.928  24.634  1.00  0.00     0.274 C 
ENDROOT
BRANCH   1   2
ATOM      2  O   UNL A   1      37.158  21.358  24.663  1.00  0.00    -0.461 OA
BRANCH   2   3
ATOM      3  C   UNL A   1      35.910  21.844  24.457  1.00  0.00     0.329 C 
ATOM      4  O   UNL A   1      35.608  22.608  23.545  1.00  0.00    -0.250 OA
BRANCH   3   5
ATOM      5  C   UNL A   1      34.879  21.327  25.480  1.00  0.00     0.198 C 
ATOM      6  C   UNL A   1      33.792  23.201  26.528  1.00  0.00     0.140 C 
ATOM      7  C   UNL A   1      34.770  22.057  26.810  1.00  0.00     0.071 C 
ATOM      8  C   UNL A   1      32.895  22.654  25.399  1.00  0.00     0.152 C 
ATOM      9  N   UNL A   1      33.539  21.437  24.923  1.00  0.00    -0.322 N 
BRANCH   6  10
ATOM     10  O   UNL A   1      34.473  24.379  26.092  1.00  0.00    -0.380 OA
ATOM     11  C   UNL A   1      33.707  25.156  25.176  1.00  0.00     0.195 C 
ENDBRANCH   6  10
BRANCH   9  12
ATOM     12  C   UNL A   1      32.910  20.586  24.043  1.00  0.00     0.254 C 
ATOM     13  O   UNL A   1      32.304  20.986  23.051  1.00  0.00    -0.269 OA
BRANCH  12  14
ATOM     14  C   UNL A   1      32.951  19.125  24.339  1.00  0.00     0.046 A 
ATOM     15  C   UNL A   1      32.490  18.611  25.605  1.00  0.00     0.032 A 
ATOM     16  C   UNL A   1      33.515  18.310  23.436  1.00  0.00     0.085 A 
ATOM     17  C   UNL A   1      32.603  17.304  25.876  1.00  0.00     0.089 A 
ATOM     18  C   UNL A   1      33.597  16.851  23.703  1.00  0.00     0.251 A 
ATOM     19  N   UNL A   1      33.140  16.427  24.948  1.00  0.00    -0.319 N 
ATOM     20  O   UNL A   1      34.041  16.118  22.824  1.00  0.00    -0.269 OA
ATOM     21  C   UNL A   1      33.266  15.022  25.306  1.00  0.00     0.153 C 
ENDBRANCH  12  14
ENDBRANCH   9  12
ENDBRANCH   3   5
ENDBRANCH   2   3
ENDBRANCH   1   2
BRANCH   1  22
ATOM     22  C   UNL A   1      38.658  19.543  25.259  1.00  0.00     0.275 C 
BRANCH  22  23
ATOM     23  O   UNL A   1      38.961  20.385  26.388  1.00  0.00    -0.458 OA
BRANCH  23  24
ATOM     24  C   UNL A   1      40.272  20.437  26.719  1.00  0.00     0.338 C 
ATOM     25  O   UNL A   1      41.109  19.557  26.617  1.00  0.00    -0.246 OA
BRANCH  24  26
ATOM     26  C   UNL A   1      40.619  21.808  27.112  1.00  0.00     0.060 A 
ATOM     27  C   UNL A   1      40.042  22.858  26.397  1.00  0.00     0.016 A 
ATOM     28  C   UNL A   1      41.578  22.053  28.093  1.00  0.00     0.016 A 
ATOM     29  C   UNL A   1      40.437  24.167  26.635  1.00  0.00     0.010 A 
ATOM     30  C   UNL A   1      41.963  23.372  28.347  1.00  0.00     0.010 A 
ATOM     31  C   UNL A   1      41.406  24.432  27.609  1.00  0.00    -0.014 A 
BRANCH  31  32
ATOM     32  C   UNL A   1      41.863  25.823  27.819  1.00  0.00     0.031 A 
ATOM     33  C   UNL A   1      43.188  26.265  27.273  1.00  0.00     0.074 A 
ATOM     34  C   UNL A   1      41.070  26.688  28.476  1.00  0.00     0.049 A 
ATOM     35  N   UNL A   1      43.814  27.400  27.444  1.00  0.00    -0.248 NA
ATOM     36  C   UNL A   1      43.910  25.296  26.434  1.00  0.00     0.031 C 
ATOM     37  C   UNL A   1      39.742  26.380  29.005  1.00  0.00     0.029 A 
ATOM     38  N   UNL A   1      41.264  28.005  28.802  1.00  0.00    -0.354 N 
ATOM     39  C   UNL A   1      45.019  27.270  26.767  1.00  0.00     0.074 A 
ATOM     40  C   UNL A   1      45.037  25.947  26.181  1.00  0.00     0.031 C 
ATOM     41  C   UNL A   1      39.229  27.486  29.570  1.00  0.00     0.029 A 
ATOM     42  C   UNL A   1      40.212  28.562  29.483  1.00  0.00     0.049 A 
ATOM     43  H   UNL A   1      42.080  28.504  28.569  1.00  0.00     0.167 HD
ATOM     44  C   UNL A   1      46.022  28.173  26.658  1.00  0.00     0.037 A 
ATOM     45  C   UNL A   1      40.064  29.797  29.995  1.00  0.00     0.037 A 
ATOM     46  C   UNL A   1      45.980  29.497  27.220  1.00  0.00     0.049 A 
ATOM     47  C   UNL A   1      41.196  30.776  29.869  1.00  0.00     0.074 A 
ATOM     48  C   UNL A   1      46.947  30.486  27.177  1.00  0.00     0.029 A 
ATOM     49  N   UNL A   1      44.903  30.021  27.920  1.00  0.00    -0.354 N 
ATOM     50  N   UNL A   1      42.355  30.628  29.274  1.00  0.00    -0.248 NA
ATOM     51  C   UNL A   1      41.012  32.087  30.508  1.00  0.00     0.031 C 
ATOM     52  C   UNL A   1      46.466  31.599  27.878  1.00  0.00     0.029 A 
ATOM     53  C   UNL A   1      45.185  31.314  28.326  1.00  0.00     0.049 A 
ATOM     54  H   UNL A   1      44.061  29.543  28.101  1.00  0.00     0.167 HD
ATOM     55  C   UNL A   1      43.037  31.820  29.463  1.00  0.00     0.074 A 
ATOM     56  C   UNL A   1      42.151  32.694  30.206  1.00  0.00     0.031 C 
ATOM     57  C   UNL A   1      44.288  32.160  29.069  1.00  0.00     0.037 A 
BRANCH  44  58
ATOM     58  C   UNL A   1      47.263  27.740  25.940  1.00  0.00     0.057 A 
ATOM     59  C   UNL A   1      47.372  27.788  24.545  1.00  0.00     0.134 A 
ATOM     60  C   UNL A   1      48.374  27.283  26.662  1.00  0.00     0.134 A 
ATOM     61  F   UNL A   1      46.338  28.198  23.796  1.00  0.00    -0.206 F 
ATOM     62  C   UNL A   1      48.538  27.381  23.891  1.00  0.00     0.040 A 
ATOM     63  C   UNL A   1      49.551  26.892  26.021  1.00  0.00     0.040 A 
ATOM     64  F   UNL A   1      48.333  27.213  28.001  1.00  0.00    -0.206 F 
ATOM     65  C   UNL A   1      49.633  26.936  24.631  1.00  0.00     0.006 A 
ENDBRANCH  44  58
BRANCH  45  66
ATOM     66  C   UNL A   1      38.806  30.169  30.686  1.00  0.00     0.057 A 
ATOM     67  C   UNL A   1      37.764  30.795  29.994  1.00  0.00     0.134 A 
ATOM     68  C   UNL A   1      38.608  29.899  32.045  1.00  0.00     0.134 A 
ATOM     69  F   UNL A   1      37.903  31.095  28.694  1.00  0.00    -0.206 F 
ATOM     70  C   UNL A   1      36.574  31.149  30.630  1.00  0.00     0.040 A 
ATOM     71  C   UNL A   1      37.414  30.225  32.689  1.00  0.00     0.040 A 
ATOM     72  F   UNL A   1      39.566  29.295  32.764  1.00  0.00    -0.206 F 
ATOM     73  C   UNL A   1      36.393  30.857  31.981  1.00  0.00     0.006 A 
ENDBRANCH  45  66
BRANCH  57  74
ATOM     74  C   UNL A   1      44.763  33.533  29.435  1.00  0.00     0.057 A 
ATOM     75  C   UNL A   1      45.470  33.770  30.621  1.00  0.00     0.134 A 
ATOM     76  C   UNL A   1      44.544  34.619  28.579  1.00  0.00     0.134 A 
ATOM     77  F   UNL A   1      45.698  32.771  31.487  1.00  0.00    -0.206 F 
ATOM     78  C   UNL A   1      45.928  35.046  30.951  1.00  0.00     0.040 A 
ATOM     79  C   UNL A   1      45.015  35.895  28.890  1.00  0.00     0.040 A 
ATOM     80  F   UNL A   1      43.880  34.454  27.425  1.00  0.00    -0.206 F 
ATOM     81  C   UNL A   1      45.704  36.112  30.081  1.00  0.00     0.006 A 
ENDBRANCH  57  74
ENDBRANCH  31  32
ENDBRANCH  24  26
ENDBRANCH  23  24
ENDBRANCH  22  23
ENDBRANCH   1  22
TORSDOF 14
ENDMDL
