MODEL 1
REMARK VINA RESULT:     -12.4      0.000      0.000
REMARK SMILES O=C(C[C@@H]1C(=O)NCCN1C(=O)OCC1c2ccccc2-c2ccccc21)OCCOC(=O)c1ccc(-c2c3nc(c(-c4c(F)cccc4F)c4ccc([nH]4)c(-c4c(F)cccc4F)c4nc(c(-c5c(F)cccc5F)c5ccc2[nH]5)C=C4)C=C3)cc1
REMARK SMILES IDX 28 1 2 2 1 3 3 4 4 5 5 6 10 7 6 8 7 9 9 10 8 11 11 13 12 14
REMARK SMILES IDX 13 15 14 16 15 17 16 18 27 19 17 20 21 21 22 22 26 23 18 24
REMARK SMILES IDX 20 25 23 26 25 27 19 28 24 29 29 30 30 31 31 32 32 33 33 34
REMARK SMILES IDX 34 35 35 36 87 37 36 38 86 39 37 40 38 41 39 42 80 43 40 44
REMARK SMILES IDX 85 45 79 46 81 47 41 48 84 49 78 50 77 51 42 53 68 54 51 55
REMARK SMILES IDX 67 56 52 57 55 58 66 59 82 60 53 61 54 62 65 64 83 65 56 66
REMARK SMILES IDX 43 67 44 68 49 69 45 70 46 71 48 72 50 73 47 74 69 75 70 76
REMARK SMILES IDX 75 77 71 78 72 79 74 80 76 81 73 82 57 83 58 84 63 85 59 86
REMARK SMILES IDX 60 87 62 88 64 89 61 90
REMARK H PARENT 7 12 81 52 55 63
REMARK Flexibility Score: inf
ROOT
ATOM      1  O   UNL A   1      33.970  28.418  25.967  1.00  0.00    -0.462 OA
ENDROOT
BRANCH   1   2
ATOM      2  C   UNL A   1      33.367  27.252  25.659  1.00  0.00     0.308 C 
ATOM      3  O   UNL A   1      32.421  26.831  26.325  1.00  0.00    -0.252 OA
BRANCH   2   4
ATOM      4  C   UNL A   1      33.962  26.396  24.580  1.00  0.00     0.158 C 
BRANCH   4   5
ATOM      5  C   UNL A   1      33.449  26.495  23.139  1.00  0.00     0.189 C 
ATOM      6  C   UNL A   1      33.292  27.970  22.705  1.00  0.00     0.243 C 
ATOM      7  N   UNL A   1      32.228  25.674  22.984  1.00  0.00    -0.294 N 
ATOM      8  O   UNL A   1      34.249  28.744  22.681  1.00  0.00    -0.273 OA
ATOM      9  N   UNL A   1      32.052  28.407  22.325  1.00  0.00    -0.353 N 
ATOM     10  C   UNL A   1      31.232  26.112  22.025  1.00  0.00     0.145 C 
ATOM     11  C   UNL A   1      30.872  27.564  22.300  1.00  0.00     0.137 C 
ATOM     12  H   UNL A   1      31.955  29.348  22.054  1.00  0.00     0.163 HD
BRANCH   7  13
ATOM     13  C   UNL A   1      32.172  24.442  23.590  1.00  0.00     0.410 C 
ATOM     14  O   UNL A   1      31.524  24.248  24.616  1.00  0.00    -0.224 OA
BRANCH  13  15
ATOM     15  O   UNL A   1      32.569  23.450  22.736  1.00  0.00    -0.448 OA
BRANCH  15  16
ATOM     16  C   UNL A   1      33.910  22.992  23.051  1.00  0.00     0.248 C 
BRANCH  16  17
ATOM     17  C   UNL A   1      34.259  22.691  24.527  1.00  0.00     0.088 C 
ATOM     18  C   UNL A   1      33.956  21.232  24.727  1.00  0.00    -0.029 A 
ATOM     19  C   UNL A   1      35.716  22.754  24.949  1.00  0.00    -0.029 A 
ATOM     20  C   UNL A   1      32.711  20.637  24.677  1.00  0.00     0.005 A 
ATOM     21  C   UNL A   1      35.167  20.511  24.792  1.00  0.00    -0.014 A 
ATOM     22  C   UNL A   1      36.252  21.453  25.001  1.00  0.00    -0.014 A 
ATOM     23  C   UNL A   1      36.425  23.833  25.459  1.00  0.00     0.005 A 
ATOM     24  C   UNL A   1      32.683  19.256  24.594  1.00  0.00     0.000 A 
ATOM     25  C   UNL A   1      35.135  19.140  24.700  1.00  0.00     0.009 A 
ATOM     26  C   UNL A   1      37.557  21.249  25.416  1.00  0.00     0.009 A 
ATOM     27  C   UNL A   1      37.726  23.625  25.918  1.00  0.00     0.000 A 
ATOM     28  C   UNL A   1      33.882  18.519  24.578  1.00  0.00     0.001 A 
ATOM     29  C   UNL A   1      38.296  22.350  25.870  1.00  0.00     0.001 A 
ENDBRANCH  16  17
ENDBRANCH  15  16
ENDBRANCH  13  15
ENDBRANCH   7  13
ENDBRANCH   4   5
ENDBRANCH   2   4
ENDBRANCH   1   2
BRANCH   1  30
ATOM     30  C   UNL A   1      33.295  29.690  26.005  1.00  0.00     0.274 C 
BRANCH  30  31
ATOM     31  C   UNL A   1      33.665  30.485  27.260  1.00  0.00     0.275 C 
BRANCH  31  32
ATOM     32  O   UNL A   1      34.663  29.805  28.056  1.00  0.00    -0.458 OA
BRANCH  32  33
ATOM     33  C   UNL A   1      35.520  30.579  28.772  1.00  0.00     0.338 C 
ATOM     34  O   UNL A   1      35.228  31.591  29.386  1.00  0.00    -0.246 OA
BRANCH  33  35
ATOM     35  C   UNL A   1      36.872  29.940  28.837  1.00  0.00     0.060 A 
ATOM     36  C   UNL A   1      37.600  29.805  27.654  1.00  0.00     0.016 A 
ATOM     37  C   UNL A   1      37.462  29.518  30.037  1.00  0.00     0.016 A 
ATOM     38  C   UNL A   1      38.926  29.338  27.693  1.00  0.00     0.010 A 
ATOM     39  C   UNL A   1      38.796  29.044  30.070  1.00  0.00     0.010 A 
ATOM     40  C   UNL A   1      39.573  28.989  28.908  1.00  0.00    -0.014 A 
BRANCH  40  41
ATOM     41  C   UNL A   1      41.041  28.581  28.888  1.00  0.00     0.031 A 
ATOM     42  C   UNL A   1      41.355  27.178  28.420  1.00  0.00     0.074 A 
ATOM     43  C   UNL A   1      42.083  29.445  29.062  1.00  0.00     0.049 A 
ATOM     44  N   UNL A   1      42.491  26.667  28.020  1.00  0.00    -0.248 NA
ATOM     45  C   UNL A   1      40.217  26.244  28.343  1.00  0.00     0.031 C 
ATOM     46  C   UNL A   1      41.969  30.860  29.415  1.00  0.00     0.029 A 
ATOM     47  N   UNL A   1      43.445  29.314  28.801  1.00  0.00    -0.354 N 
ATOM     48  C   UNL A   1      42.209  25.354  27.666  1.00  0.00     0.074 A 
ATOM     49  C   UNL A   1      40.784  25.168  27.822  1.00  0.00     0.031 C 
ATOM     50  C   UNL A   1      43.111  31.499  29.105  1.00  0.00     0.029 A 
ATOM     51  C   UNL A   1      44.118  30.531  28.686  1.00  0.00     0.049 A 
ATOM     52  H   UNL A   1      43.892  28.442  28.706  1.00  0.00     0.167 HD
ATOM     53  C   UNL A   1      43.061  24.369  27.302  1.00  0.00     0.037 A 
ATOM     54  C   UNL A   1      45.377  30.832  28.263  1.00  0.00     0.037 A 
ATOM     55  C   UNL A   1      44.485  24.514  27.189  1.00  0.00     0.049 A 
ATOM     56  C   UNL A   1      46.321  29.684  27.960  1.00  0.00     0.074 A 
ATOM     57  C   UNL A   1      45.427  23.532  26.931  1.00  0.00     0.029 A 
ATOM     58  N   UNL A   1      45.177  25.702  27.344  1.00  0.00    -0.354 N 
ATOM     59  N   UNL A   1      46.057  28.419  27.742  1.00  0.00    -0.248 NA
ATOM     60  C   UNL A   1      47.758  30.008  27.878  1.00  0.00     0.031 C 
ATOM     61  C   UNL A   1      46.694  24.119  26.980  1.00  0.00     0.029 A 
ATOM     62  C   UNL A   1      46.535  25.477  27.191  1.00  0.00     0.049 A 
ATOM     63  H   UNL A   1      44.765  26.577  27.535  1.00  0.00     0.167 HD
ATOM     64  C   UNL A   1      47.279  27.812  27.475  1.00  0.00     0.074 A 
ATOM     65  C   UNL A   1      48.284  28.850  27.505  1.00  0.00     0.031 C 
ATOM     66  C   UNL A   1      47.544  26.503  27.245  1.00  0.00     0.037 A 
BRANCH  53  67
ATOM     67  C   UNL A   1      42.477  23.000  27.154  1.00  0.00     0.057 A 
ATOM     68  C   UNL A   1      42.097  22.215  28.247  1.00  0.00     0.134 A 
ATOM     69  C   UNL A   1      42.305  22.462  25.872  1.00  0.00     0.134 A 
ATOM     70  F   UNL A   1      42.267  22.665  29.499  1.00  0.00    -0.206 F 
ATOM     71  C   UNL A   1      41.575  20.932  28.068  1.00  0.00     0.040 A 
ATOM     72  C   UNL A   1      41.766  21.192  25.680  1.00  0.00     0.040 A 
ATOM     73  F   UNL A   1      42.662  23.166  24.786  1.00  0.00    -0.206 F 
ATOM     74  C   UNL A   1      41.404  20.421  26.782  1.00  0.00     0.006 A 
ENDBRANCH  53  67
BRANCH  54  75
ATOM     75  C   UNL A   1      45.894  32.242  28.072  1.00  0.00     0.057 A 
ATOM     76  C   UNL A   1      46.493  32.952  29.136  1.00  0.00     0.134 A 
ATOM     77  C   UNL A   1      45.706  32.977  26.895  1.00  0.00     0.134 A 
ATOM     78  F   UNL A   1      46.636  32.385  30.342  1.00  0.00    -0.206 F 
ATOM     79  C   UNL A   1      46.867  34.298  29.043  1.00  0.00     0.040 A 
ATOM     80  C   UNL A   1      46.106  34.318  26.776  1.00  0.00     0.040 A 
ATOM     81  F   UNL A   1      45.090  32.427  25.839  1.00  0.00    -0.206 F 
ATOM     82  C   UNL A   1      46.679  34.987  27.853  1.00  0.00     0.006 A 
ENDBRANCH  54  75
BRANCH  66  83
ATOM     83  C   UNL A   1      48.978  26.097  27.043  1.00  0.00     0.057 A 
ATOM     84  C   UNL A   1      49.571  26.100  25.773  1.00  0.00     0.134 A 
ATOM     85  C   UNL A   1      49.799  25.778  28.133  1.00  0.00     0.134 A 
ATOM     86  F   UNL A   1      48.843  26.389  24.683  1.00  0.00    -0.206 F 
ATOM     87  C   UNL A   1      50.919  25.784  25.592  1.00  0.00     0.040 A 
ATOM     88  C   UNL A   1      51.156  25.493  27.968  1.00  0.00     0.040 A 
ATOM     89  F   UNL A   1      49.304  25.764  29.380  1.00  0.00    -0.206 F 
ATOM     90  C   UNL A   1      51.719  25.491  26.694  1.00  0.00     0.006 A 
ENDBRANCH  66  83
ENDBRANCH  40  41
ENDBRANCH  33  35
ENDBRANCH  32  33
ENDBRANCH  31  32
ENDBRANCH  30  31
ENDBRANCH   1  30
TORSDOF 16
ENDMDL
MODEL 2
REMARK VINA RESULT:     -12.3      0.981      2.262
REMARK SMILES O=C(C[C@@H]1C(=O)NCCN1C(=O)OCC1c2ccccc2-c2ccccc21)OCCOC(=O)c1ccc(-c2c3nc(c(-c4c(F)cccc4F)c4ccc([nH]4)c(-c4c(F)cccc4F)c4nc(c(-c5c(F)cccc5F)c5ccc2[nH]5)C=C4)C=C3)cc1
REMARK SMILES IDX 28 1 2 2 1 3 3 4 4 5 5 6 10 7 6 8 7 9 9 10 8 11 11 13 12 14
REMARK SMILES IDX 13 15 14 16 15 17 16 18 27 19 17 20 21 21 22 22 26 23 18 24
REMARK SMILES IDX 20 25 23 26 25 27 19 28 24 29 29 30 30 31 31 32 32 33 33 34
REMARK SMILES IDX 34 35 35 36 87 37 36 38 86 39 37 40 38 41 39 42 80 43 40 44
REMARK SMILES IDX 85 45 79 46 81 47 41 48 84 49 78 50 77 51 42 53 68 54 51 55
REMARK SMILES IDX 67 56 52 57 55 58 66 59 82 60 53 61 54 62 65 64 83 65 56 66
REMARK SMILES IDX 43 67 44 68 49 69 45 70 46 71 48 72 50 73 47 74 69 75 70 76
REMARK SMILES IDX 75 77 71 78 72 79 74 80 76 81 73 82 57 83 58 84 63 85 59 86
REMARK SMILES IDX 60 87 62 88 64 89 61 90
REMARK H PARENT 7 12 81 52 55 63
REMARK Flexibility Score: inf
ROOT
ATOM      1  O   UNL A   1      31.837  28.792  26.206  1.00  0.00    -0.462 OA
ENDROOT
BRANCH   1   2
ATOM      2  C   UNL A   1      31.705  27.482  26.493  1.00  0.00     0.308 C 
ATOM      3  O   UNL A   1      30.741  27.066  27.136  1.00  0.00    -0.252 OA
BRANCH   2   4
ATOM      4  C   UNL A   1      32.830  26.553  26.145  1.00  0.00     0.158 C 
BRANCH   4   5
ATOM      5  C   UNL A   1      32.717  25.614  24.937  1.00  0.00     0.189 C 
ATOM      6  C   UNL A   1      32.293  26.389  23.670  1.00  0.00     0.243 C 
ATOM      7  N   UNL A   1      31.851  24.464  25.275  1.00  0.00    -0.294 N 
ATOM      8  O   UNL A   1      32.976  27.304  23.210  1.00  0.00    -0.273 OA
ATOM      9  N   UNL A   1      31.131  26.026  23.044  1.00  0.00    -0.353 N 
ATOM     10  C   UNL A   1      31.071  23.865  24.209  1.00  0.00     0.145 C 
ATOM     11  C   UNL A   1      30.273  24.948  23.499  1.00  0.00     0.137 C 
ATOM     12  H   UNL A   1      30.861  26.525  22.240  1.00  0.00     0.163 HD
BRANCH   7  13
ATOM     13  C   UNL A   1      31.967  23.883  26.515  1.00  0.00     0.410 C 
ATOM     14  O   UNL A   1      30.986  23.616  27.205  1.00  0.00    -0.224 OA
BRANCH  13  15
ATOM     15  O   UNL A   1      33.200  23.316  26.684  1.00  0.00    -0.448 OA
BRANCH  15  16
ATOM     16  C   UNL A   1      33.165  21.892  26.404  1.00  0.00     0.248 C 
BRANCH  16  17
ATOM     17  C   UNL A   1      33.550  21.409  24.986  1.00  0.00     0.088 C 
ATOM     18  C   UNL A   1      35.004  21.753  24.820  1.00  0.00    -0.029 A 
ATOM     19  C   UNL A   1      33.565  19.915  24.715  1.00  0.00    -0.029 A 
ATOM     20  C   UNL A   1      35.547  23.023  24.767  1.00  0.00     0.005 A 
ATOM     21  C   UNL A   1      35.774  20.575  24.913  1.00  0.00    -0.014 A 
ATOM     22  C   UNL A   1      34.887  19.435  24.776  1.00  0.00    -0.014 A 
ATOM     23  C   UNL A   1      32.540  19.111  24.235  1.00  0.00     0.005 A 
ATOM     24  C   UNL A   1      36.919  23.120  24.907  1.00  0.00     0.000 A 
ATOM     25  C   UNL A   1      37.137  20.678  25.061  1.00  0.00     0.009 A 
ATOM     26  C   UNL A   1      35.162  18.104  24.508  1.00  0.00     0.009 A 
ATOM     27  C   UNL A   1      32.821  17.781  23.922  1.00  0.00     0.000 A 
ATOM     28  C   UNL A   1      37.702  21.962  25.080  1.00  0.00     0.001 A 
ATOM     29  C   UNL A   1      34.114  17.275  24.084  1.00  0.00     0.001 A 
ENDBRANCH  16  17
ENDBRANCH  15  16
ENDBRANCH  13  15
ENDBRANCH   7  13
ENDBRANCH   4   5
ENDBRANCH   2   4
ENDBRANCH   1   2
BRANCH   1  30
ATOM     30  C   UNL A   1      32.231  29.792  27.166  1.00  0.00     0.274 C 
BRANCH  30  31
ATOM     31  C   UNL A   1      33.683  30.230  26.958  1.00  0.00     0.275 C 
BRANCH  31  32
ATOM     32  O   UNL A   1      34.576  29.613  27.914  1.00  0.00    -0.458 OA
BRANCH  32  33
ATOM     33  C   UNL A   1      35.443  30.427  28.570  1.00  0.00     0.338 C 
ATOM     34  O   UNL A   1      35.157  31.466  29.141  1.00  0.00    -0.246 OA
BRANCH  33  35
ATOM     35  C   UNL A   1      36.802  29.802  28.635  1.00  0.00     0.060 A 
ATOM     36  C   UNL A   1      37.572  29.768  27.473  1.00  0.00     0.016 A 
ATOM     37  C   UNL A   1      37.356  29.297  29.820  1.00  0.00     0.016 A 
ATOM     38  C   UNL A   1      38.904  29.317  27.524  1.00  0.00     0.010 A 
ATOM     39  C   UNL A   1      38.696  28.839  29.865  1.00  0.00     0.010 A 
ATOM     40  C   UNL A   1      39.513  28.883  28.731  1.00  0.00    -0.014 A 
BRANCH  40  41
ATOM     41  C   UNL A   1      40.987  28.496  28.733  1.00  0.00     0.031 A 
ATOM     42  C   UNL A   1      41.328  27.100  28.266  1.00  0.00     0.074 A 
ATOM     43  C   UNL A   1      42.013  29.376  28.923  1.00  0.00     0.049 A 
ATOM     44  N   UNL A   1      42.478  26.605  27.883  1.00  0.00    -0.248 NA
ATOM     45  C   UNL A   1      40.206  26.149  28.170  1.00  0.00     0.031 C 
ATOM     46  C   UNL A   1      41.873  30.787  29.278  1.00  0.00     0.029 A 
ATOM     47  N   UNL A   1      43.382  29.265  28.684  1.00  0.00    -0.354 N 
ATOM     48  C   UNL A   1      42.221  25.290  27.522  1.00  0.00     0.074 A 
ATOM     49  C   UNL A   1      40.796  25.082  27.656  1.00  0.00     0.031 C 
ATOM     50  C   UNL A   1      43.011  31.444  28.986  1.00  0.00     0.029 A 
ATOM     51  C   UNL A   1      44.038  30.492  28.581  1.00  0.00     0.049 A 
ATOM     52  H   UNL A   1      43.843  28.399  28.594  1.00  0.00     0.167 HD
ATOM     53  C   UNL A   1      43.093  24.318  27.169  1.00  0.00     0.037 A 
ATOM     54  C   UNL A   1      45.298  30.812  28.179  1.00  0.00     0.037 A 
ATOM     55  C   UNL A   1      44.516  24.484  27.079  1.00  0.00     0.049 A 
ATOM     56  C   UNL A   1      46.264  29.678  27.887  1.00  0.00     0.074 A 
ATOM     57  C   UNL A   1      45.476  23.516  26.833  1.00  0.00     0.029 A 
ATOM     58  N   UNL A   1      45.188  25.682  27.246  1.00  0.00    -0.354 N 
ATOM     59  N   UNL A   1      46.022  28.410  27.663  1.00  0.00    -0.248 NA
ATOM     60  C   UNL A   1      47.698  30.024  27.828  1.00  0.00     0.031 C 
ATOM     61  C   UNL A   1      46.733  24.121  26.903  1.00  0.00     0.029 A 
ATOM     62  C   UNL A   1      46.551  25.477  27.114  1.00  0.00     0.049 A 
ATOM     63  H   UNL A   1      44.760  26.550  27.432  1.00  0.00     0.167 HD
ATOM     64  C   UNL A   1      47.257  27.821  27.414  1.00  0.00     0.074 A 
ATOM     65  C   UNL A   1      48.245  28.874  27.461  1.00  0.00     0.031 C 
ATOM     66  C   UNL A   1      47.544  26.517  27.185  1.00  0.00     0.037 A 
BRANCH  53  67
ATOM     67  C   UNL A   1      42.531  22.941  27.009  1.00  0.00     0.057 A 
ATOM     68  C   UNL A   1      42.341  22.339  25.761  1.00  0.00     0.134 A 
ATOM     69  C   UNL A   1      42.166  22.212  28.149  1.00  0.00     0.134 A 
ATOM     70  F   UNL A   1      42.642  23.000  24.633  1.00  0.00    -0.206 F 
ATOM     71  C   UNL A   1      41.793  21.059  25.653  1.00  0.00     0.040 A 
ATOM     72  C   UNL A   1      41.639  20.926  28.054  1.00  0.00     0.040 A 
ATOM     73  F   UNL A   1      42.317  22.743  29.372  1.00  0.00    -0.206 F 
ATOM     74  C   UNL A   1      41.446  20.348  26.802  1.00  0.00     0.006 A 
ENDBRANCH  53  67
BRANCH  54  75
ATOM     75  C   UNL A   1      45.798  32.229  27.998  1.00  0.00     0.057 A 
ATOM     76  C   UNL A   1      46.357  32.951  29.076  1.00  0.00     0.134 A 
ATOM     77  C   UNL A   1      45.630  32.959  26.815  1.00  0.00     0.134 A 
ATOM     78  F   UNL A   1      46.477  32.388  30.287  1.00  0.00    -0.206 F 
ATOM     79  C   UNL A   1      46.712  34.302  28.990  1.00  0.00     0.040 A 
ATOM     80  C   UNL A   1      46.012  34.306  26.703  1.00  0.00     0.040 A 
ATOM     81  F   UNL A   1      45.051  32.398  25.744  1.00  0.00    -0.206 F 
ATOM     82  C   UNL A   1      46.545  34.986  27.794  1.00  0.00     0.006 A 
ENDBRANCH  54  75
BRANCH  66  83
ATOM     83  C   UNL A   1      48.987  26.132  27.005  1.00  0.00     0.057 A 
ATOM     84  C   UNL A   1      49.589  26.114  25.739  1.00  0.00     0.134 A 
ATOM     85  C   UNL A   1      49.805  25.856  28.108  1.00  0.00     0.134 A 
ATOM     86  F   UNL A   1      48.865  26.362  24.637  1.00  0.00    -0.206 F 
ATOM     87  C   UNL A   1      50.945  25.818  25.576  1.00  0.00     0.040 A 
ATOM     88  C   UNL A   1      51.168  25.593  27.961  1.00  0.00     0.040 A 
ATOM     89  F   UNL A   1      49.301  25.865  29.352  1.00  0.00    -0.206 F 
ATOM     90  C   UNL A   1      51.741  25.568  26.692  1.00  0.00     0.006 A 
ENDBRANCH  66  83
ENDBRANCH  40  41
ENDBRANCH  33  35
ENDBRANCH  32  33
ENDBRANCH  31  32
ENDBRANCH  30  31
ENDBRANCH   1  30
TORSDOF 16
ENDMDL
MODEL 3
REMARK VINA RESULT:     -11.5      3.861      7.094
REMARK SMILES O=C(C[C@@H]1C(=O)NCCN1C(=O)OCC1c2ccccc2-c2ccccc21)OCCOC(=O)c1ccc(-c2c3nc(c(-c4c(F)cccc4F)c4ccc([nH]4)c(-c4c(F)cccc4F)c4nc(c(-c5c(F)cccc5F)c5ccc2[nH]5)C=C4)C=C3)cc1
REMARK SMILES IDX 28 1 2 2 1 3 3 4 4 5 5 6 10 7 6 8 7 9 9 10 8 11 11 13 12 14
REMARK SMILES IDX 13 15 14 16 15 17 16 18 27 19 17 20 21 21 22 22 26 23 18 24
REMARK SMILES IDX 20 25 23 26 25 27 19 28 24 29 29 30 30 31 31 32 32 33 33 34
REMARK SMILES IDX 34 35 35 36 87 37 36 38 86 39 37 40 38 41 39 42 80 43 40 44
REMARK SMILES IDX 85 45 79 46 81 47 41 48 84 49 78 50 77 51 42 53 68 54 51 55
REMARK SMILES IDX 67 56 52 57 55 58 66 59 82 60 53 61 54 62 65 64 83 65 56 66
REMARK SMILES IDX 43 67 44 68 49 69 45 70 46 71 48 72 50 73 47 74 69 75 70 76
REMARK SMILES IDX 75 77 71 78 72 79 74 80 76 81 73 82 57 83 58 84 63 85 59 86
REMARK SMILES IDX 60 87 62 88 64 89 61 90
REMARK H PARENT 7 12 81 52 55 63
REMARK Flexibility Score: inf
ROOT
ATOM      1  O   UNL A   1      31.519  28.839  23.800  1.00  0.00    -0.462 OA
ENDROOT
BRANCH   1   2
ATOM      2  C   UNL A   1      32.421  27.975  23.293  1.00  0.00     0.308 C 
ATOM      3  O   UNL A   1      33.069  28.253  22.284  1.00  0.00    -0.252 OA
BRANCH   2   4
ATOM      4  C   UNL A   1      32.516  26.602  23.890  1.00  0.00     0.158 C 
BRANCH   4   5
ATOM      5  C   UNL A   1      31.484  25.526  23.533  1.00  0.00     0.189 C 
ATOM      6  C   UNL A   1      30.478  25.317  24.687  1.00  0.00     0.243 C 
ATOM      7  N   UNL A   1      32.175  24.296  23.088  1.00  0.00    -0.294 N 
ATOM      8  O   UNL A   1      29.756  26.229  25.091  1.00  0.00    -0.273 OA
ATOM      9  N   UNL A   1      30.388  24.075  25.255  1.00  0.00    -0.353 N 
ATOM     10  C   UNL A   1      31.533  23.023  23.354  1.00  0.00     0.145 C 
ATOM     11  C   UNL A   1      31.180  22.936  24.831  1.00  0.00     0.137 C 
ATOM     12  H   UNL A   1      29.750  23.947  25.992  1.00  0.00     0.163 HD
BRANCH   7  13
ATOM     13  C   UNL A   1      33.275  24.408  22.273  1.00  0.00     0.410 C 
ATOM     14  O   UNL A   1      33.200  24.863  21.134  1.00  0.00    -0.224 OA
BRANCH  13  15
ATOM     15  O   UNL A   1      34.437  24.333  22.993  1.00  0.00    -0.448 OA
BRANCH  15  16
ATOM     16  C   UNL A   1      34.766  22.956  23.315  1.00  0.00     0.248 C 
BRANCH  16  17
ATOM     17  C   UNL A   1      35.092  22.600  24.784  1.00  0.00     0.088 C 
ATOM     18  C   UNL A   1      34.961  21.106  24.880  1.00  0.00    -0.029 A 
ATOM     19  C   UNL A   1      36.513  22.808  25.276  1.00  0.00    -0.029 A 
ATOM     20  C   UNL A   1      33.800  20.372  24.736  1.00  0.00     0.005 A 
ATOM     21  C   UNL A   1      36.247  20.531  24.955  1.00  0.00    -0.014 A 
ATOM     22  C   UNL A   1      37.200  21.579  25.271  1.00  0.00    -0.014 A 
ATOM     23  C   UNL A   1      37.066  23.927  25.883  1.00  0.00     0.005 A 
ATOM     24  C   UNL A   1      33.942  19.006  24.567  1.00  0.00     0.000 A 
ATOM     25  C   UNL A   1      36.384  19.175  24.777  1.00  0.00     0.009 A 
ATOM     26  C   UNL A   1      38.504  21.503  25.732  1.00  0.00     0.009 A 
ATOM     27  C   UNL A   1      38.365  23.844  26.387  1.00  0.00     0.000 A 
ATOM     28  C   UNL A   1      35.222  18.419  24.560  1.00  0.00     0.001 A 
ATOM     29  C   UNL A   1      39.086  22.651  26.287  1.00  0.00     0.001 A 
ENDBRANCH  16  17
ENDBRANCH  15  16
ENDBRANCH  13  15
ENDBRANCH   7  13
ENDBRANCH   4   5
ENDBRANCH   2   4
ENDBRANCH   1   2
BRANCH   1  30
ATOM     30  C   UNL A   1      31.433  29.189  25.195  1.00  0.00     0.274 C 
BRANCH  30  31
ATOM     31  C   UNL A   1      32.313  30.396  25.528  1.00  0.00     0.275 C 
BRANCH  31  32
ATOM     32  O   UNL A   1      32.367  30.650  26.951  1.00  0.00    -0.458 OA
BRANCH  32  33
ATOM     33  C   UNL A   1      33.069  31.738  27.362  1.00  0.00     0.338 C 
ATOM     34  O   UNL A   1      32.622  32.862  27.518  1.00  0.00    -0.246 OA
BRANCH  33  35
ATOM     35  C   UNL A   1      34.460  31.347  27.751  1.00  0.00     0.060 A 
ATOM     36  C   UNL A   1      35.410  32.355  27.922  1.00  0.00     0.016 A 
ATOM     37  C   UNL A   1      34.841  30.021  28.003  1.00  0.00     0.016 A 
ATOM     38  C   UNL A   1      36.687  32.041  28.421  1.00  0.00     0.010 A 
ATOM     39  C   UNL A   1      36.130  29.710  28.500  1.00  0.00     0.010 A 
ATOM     40  C   UNL A   1      37.065  30.716  28.765  1.00  0.00    -0.014 A 
BRANCH  40  41
ATOM     41  C   UNL A   1      38.431  30.461  29.389  1.00  0.00     0.031 A 
ATOM     42  C   UNL A   1      38.591  30.810  30.851  1.00  0.00     0.074 A 
ATOM     43  C   UNL A   1      39.435  29.761  28.785  1.00  0.00     0.049 A 
ATOM     44  N   UNL A   1      39.512  30.435  31.703  1.00  0.00    -0.248 NA
ATOM     45  C   UNL A   1      37.536  31.653  31.442  1.00  0.00     0.031 C 
ATOM     46  C   UNL A   1      39.417  29.255  27.413  1.00  0.00     0.029 A 
ATOM     47  N   UNL A   1      40.605  29.201  29.292  1.00  0.00    -0.354 N 
ATOM     48  C   UNL A   1      39.159  31.010  32.916  1.00  0.00     0.074 A 
ATOM     49  C   UNL A   1      37.901  31.694  32.714  1.00  0.00     0.031 C 
ATOM     50  C   UNL A   1      40.341  28.287  27.274  1.00  0.00     0.029 A 
ATOM     51  C   UNL A   1      41.149  28.200  28.485  1.00  0.00     0.049 A 
ATOM     52  H   UNL A   1      41.011  29.484  30.143  1.00  0.00     0.167 HD
ATOM     53  C   UNL A   1      39.844  31.024  34.082  1.00  0.00     0.037 A 
ATOM     54  C   UNL A   1      42.149  27.304  28.707  1.00  0.00     0.037 A 
ATOM     55  C   UNL A   1      41.118  30.398  34.295  1.00  0.00     0.049 A 
ATOM     56  C   UNL A   1      42.947  27.428  29.991  1.00  0.00     0.074 A 
ATOM     57  C   UNL A   1      41.925  30.462  35.418  1.00  0.00     0.029 A 
ATOM     58  N   UNL A   1      41.780  29.612  33.369  1.00  0.00    -0.354 N 
ATOM     59  N   UNL A   1      42.660  28.073  31.095  1.00  0.00    -0.248 NA
ATOM     60  C   UNL A   1      44.239  26.717  30.042  1.00  0.00     0.031 C 
ATOM     61  C   UNL A   1      43.100  29.755  35.151  1.00  0.00     0.029 A 
ATOM     62  C   UNL A   1      42.990  29.188  33.894  1.00  0.00     0.049 A 
ATOM     63  H   UNL A   1      41.442  29.388  32.471  1.00  0.00     0.167 HD
ATOM     64  C   UNL A   1      43.713  27.826  31.969  1.00  0.00     0.074 A 
ATOM     65  C   UNL A   1      44.623  26.930  31.293  1.00  0.00     0.031 C 
ATOM     66  C   UNL A   1      43.914  28.316  33.216  1.00  0.00     0.037 A 
BRANCH  53  67
ATOM     67  C   UNL A   1      39.289  31.885  35.173  1.00  0.00     0.057 A 
ATOM     68  C   UNL A   1      38.469  31.386  36.190  1.00  0.00     0.134 A 
ATOM     69  C   UNL A   1      39.588  33.254  35.187  1.00  0.00     0.134 A 
ATOM     70  F   UNL A   1      38.122  30.090  36.211  1.00  0.00    -0.206 F 
ATOM     71  C   UNL A   1      37.953  32.226  37.179  1.00  0.00     0.040 A 
ATOM     72  C   UNL A   1      39.097  34.097  36.180  1.00  0.00     0.040 A 
ATOM     73  F   UNL A   1      40.363  33.789  34.230  1.00  0.00    -0.206 F 
ATOM     74  C   UNL A   1      38.272  33.584  37.178  1.00  0.00     0.006 A 
ENDBRANCH  53  67
BRANCH  54  75
ATOM     75  C   UNL A   1      42.514  26.186  27.753  1.00  0.00     0.057 A 
ATOM     76  C   UNL A   1      43.402  26.404  26.677  1.00  0.00     0.134 A 
ATOM     77  C   UNL A   1      41.915  24.921  27.786  1.00  0.00     0.134 A 
ATOM     78  F   UNL A   1      43.962  27.606  26.483  1.00  0.00    -0.206 F 
ATOM     79  C   UNL A   1      43.667  25.439  25.697  1.00  0.00     0.040 A 
ATOM     80  C   UNL A   1      42.195  23.932  26.829  1.00  0.00     0.040 A 
ATOM     81  F   UNL A   1      41.006  24.622  28.724  1.00  0.00    -0.206 F 
ATOM     82  C   UNL A   1      43.065  24.191  25.775  1.00  0.00     0.006 A 
ENDBRANCH  54  75
BRANCH  66  83
ATOM     83  C   UNL A   1      45.181  27.934  33.930  1.00  0.00     0.057 A 
ATOM     84  C   UNL A   1      46.341  28.715  33.837  1.00  0.00     0.134 A 
ATOM     85  C   UNL A   1      45.223  26.823  34.783  1.00  0.00     0.134 A 
ATOM     86  F   UNL A   1      46.375  29.790  33.034  1.00  0.00    -0.206 F 
ATOM     87  C   UNL A   1      47.499  28.397  34.550  1.00  0.00     0.040 A 
ATOM     88  C   UNL A   1      46.364  26.514  35.527  1.00  0.00     0.040 A 
ATOM     89  F   UNL A   1      44.148  26.034  34.931  1.00  0.00    -0.206 F 
ATOM     90  C   UNL A   1      47.508  27.299  35.408  1.00  0.00     0.006 A 
ENDBRANCH  66  83
ENDBRANCH  40  41
ENDBRANCH  33  35
ENDBRANCH  32  33
ENDBRANCH  31  32
ENDBRANCH  30  31
ENDBRANCH   1  30
TORSDOF 16
ENDMDL
