MODEL 1
REMARK VINA RESULT:     -11.4      0.000      0.000
REMARK SMILES CCn1cc(Br)cc1C(=O)N[C@@H]1C=C[C@@H](C(=O)OCCOC(=O)c2ccc(-c3c4nc(c(-c5c(F)cccc5F)c5ccc([nH]5)c(-c5c(F)cccc5F)c5nc(c(-c6c(F)cccc6F)c6ccc3[nH]6)C=C5)C=C4)cc2)C1
REMARK SMILES IDX 19 1 18 2 16 3 17 4 15 5 12 6 13 7 78 8 14 9 11 10 9 11
REMARK SMILES IDX 10 12 8 14 3 15 4 16 5 17 7 18 6 19 2 20 1 21 20 22 21 23
REMARK SMILES IDX 22 24 23 25 24 26 25 27 77 28 26 29 76 30 27 31 28 32 29 33
REMARK SMILES IDX 70 34 30 35 75 36 69 37 71 38 31 39 74 40 68 41 67 42 32 44
REMARK SMILES IDX 58 45 41 46 57 47 42 48 45 49 56 50 72 51 43 52 44 53 55 55
REMARK SMILES IDX 73 56 46 57 33 58 34 59 39 60 35 61 36 62 38 63 40 64 37 65
REMARK SMILES IDX 59 66 60 67 65 68 61 69 62 70 64 71 66 72 63 73 47 74 48 75
REMARK SMILES IDX 53 76 49 77 50 78 52 79 54 80 51 81
REMARK H PARENT 11 13 71 43 45 54
REMARK Flexibility Score: inf
ROOT
ATOM      1  C   UNL A   1      41.939  19.451  27.036  1.00  0.00     0.274 C 
ENDROOT
BRANCH   1   2
ATOM      2  O   UNL A   1      40.715  19.887  26.410  1.00  0.00    -0.462 OA
BRANCH   2   3
ATOM      3  C   UNL A   1      40.189  21.068  26.845  1.00  0.00     0.312 C 
ATOM      4  O   UNL A   1      40.357  21.525  27.969  1.00  0.00    -0.252 OA
BRANCH   3   5
ATOM      5  C   UNL A   1      39.361  21.792  25.775  1.00  0.00     0.124 C 
ATOM      6  C   UNL A   1      36.905  21.967  25.470  1.00  0.00     0.106 C 
ATOM      7  C   UNL A   1      37.510  23.209  26.051  1.00  0.00    -0.006 C 
ATOM      8  C   UNL A   1      38.106  21.051  25.309  1.00  0.00     0.048 C 
ATOM      9  C   UNL A   1      38.831  23.108  26.239  1.00  0.00    -0.014 C 
BRANCH   6  10
ATOM     10  N   UNL A   1      36.212  22.306  24.254  1.00  0.00    -0.345 N 
ATOM     11  C   UNL A   1      35.220  23.177  23.899  1.00  0.00     0.268 C 
ATOM     12  O   UNL A   1      35.066  23.260  22.675  1.00  0.00    -0.268 OA
ATOM     13  H   UNL A   1      36.533  21.779  23.487  1.00  0.00     0.164 HD
BRANCH  11  14
ATOM     14  C   UNL A   1      34.303  23.870  24.798  1.00  0.00     0.108 A 
ATOM     15  N   UNL A   1      33.318  23.477  25.699  1.00  0.00    -0.343 N 
ATOM     16  C   UNL A   1      32.690  24.599  26.219  1.00  0.00     0.102 A 
ATOM     17  C   UNL A   1      33.396  25.698  25.828  1.00  0.00     0.036 A 
ATOM     18  C   UNL A   1      34.405  25.261  24.967  1.00  0.00     0.049 A 
ATOM     19  Br  UNL A   1      33.106  27.475  26.330  1.00  0.00    -0.049 Br
BRANCH  15  20
ATOM     20  C   UNL A   1      32.935  22.166  26.186  1.00  0.00     0.119 C 
ATOM     21  C   UNL A   1      33.778  21.564  27.292  1.00  0.00     0.027 C 
ENDBRANCH  15  20
ENDBRANCH  11  14
ENDBRANCH   6  10
ENDBRANCH   3   5
ENDBRANCH   2   3
ENDBRANCH   1   2
BRANCH   1  22
ATOM     22  C   UNL A   1      42.783  18.637  26.059  1.00  0.00     0.275 C 
BRANCH  22  23
ATOM     23  O   UNL A   1      43.031  19.393  24.869  1.00  0.00    -0.458 OA
BRANCH  23  24
ATOM     24  C   UNL A   1      44.325  19.615  24.606  1.00  0.00     0.338 C 
ATOM     25  O   UNL A   1      45.198  18.751  24.425  1.00  0.00    -0.246 OA
BRANCH  24  26
ATOM     26  C   UNL A   1      44.663  21.029  24.711  1.00  0.00     0.060 A 
ATOM     27  C   UNL A   1      45.834  21.364  25.405  1.00  0.00     0.016 A 
ATOM     28  C   UNL A   1      43.667  21.975  24.436  1.00  0.00     0.016 A 
ATOM     29  C   UNL A   1      45.910  22.596  26.017  1.00  0.00     0.010 A 
ATOM     30  C   UNL A   1      43.737  23.197  25.063  1.00  0.00     0.010 A 
ATOM     31  C   UNL A   1      44.811  23.452  25.920  1.00  0.00    -0.014 A 
BRANCH  31  32
ATOM     32  C   UNL A   1      44.742  24.570  26.837  1.00  0.00     0.031 A 
ATOM     33  C   UNL A   1      45.890  25.505  26.833  1.00  0.00     0.074 A 
ATOM     34  C   UNL A   1      43.605  24.809  27.519  1.00  0.00     0.049 A 
ATOM     35  N   UNL A   1      46.589  25.928  27.835  1.00  0.00    -0.248 NA
ATOM     36  C   UNL A   1      46.350  25.995  25.524  1.00  0.00     0.031 C 
ATOM     37  C   UNL A   1      42.302  24.150  27.363  1.00  0.00     0.029 A 
ATOM     38  N   UNL A   1      43.344  25.801  28.408  1.00  0.00    -0.354 N 
ATOM     39  C   UNL A   1      47.494  26.844  27.306  1.00  0.00     0.074 A 
ATOM     40  C   UNL A   1      47.373  26.769  25.872  1.00  0.00     0.031 C 
ATOM     41  C   UNL A   1      41.353  24.911  27.951  1.00  0.00     0.029 A 
ATOM     42  C   UNL A   1      41.995  26.037  28.609  1.00  0.00     0.049 A 
ATOM     43  H   UNL A   1      44.051  26.309  28.868  1.00  0.00     0.167 HD
ATOM     44  C   UNL A   1      48.178  27.730  28.077  1.00  0.00     0.037 A 
ATOM     45  C   UNL A   1      41.457  27.144  29.172  1.00  0.00     0.037 A 
ATOM     46  C   UNL A   1      48.203  27.344  29.459  1.00  0.00     0.049 A 
ATOM     47  C   UNL A   1      42.532  27.827  29.939  1.00  0.00     0.074 A 
ATOM     48  C   UNL A   1      48.714  26.260  30.147  1.00  0.00     0.029 A 
ATOM     49  N   UNL A   1      47.352  27.969  30.336  1.00  0.00    -0.354 N 
ATOM     50  N   UNL A   1      43.083  27.353  31.022  1.00  0.00    -0.248 NA
ATOM     51  C   UNL A   1      43.299  28.860  29.255  1.00  0.00     0.031 C 
ATOM     52  C   UNL A   1      47.789  26.020  31.204  1.00  0.00     0.029 A 
ATOM     53  C   UNL A   1      46.784  26.983  31.102  1.00  0.00     0.049 A 
ATOM     54  H   UNL A   1      47.182  28.936  30.400  1.00  0.00     0.167 HD
ATOM     55  C   UNL A   1      44.420  27.722  30.939  1.00  0.00     0.074 A 
ATOM     56  C   UNL A   1      44.470  28.729  29.883  1.00  0.00     0.031 C 
ATOM     57  C   UNL A   1      45.404  26.982  31.529  1.00  0.00     0.037 A 
BRANCH  44  58
ATOM     58  C   UNL A   1      48.614  29.083  27.596  1.00  0.00     0.057 A 
ATOM     59  C   UNL A   1      49.977  29.416  27.561  1.00  0.00     0.134 A 
ATOM     60  C   UNL A   1      47.723  30.156  27.394  1.00  0.00     0.134 A 
ATOM     61  F   UNL A   1      50.918  28.486  27.783  1.00  0.00    -0.206 F 
ATOM     62  C   UNL A   1      50.420  30.728  27.359  1.00  0.00     0.040 A 
ATOM     63  C   UNL A   1      48.154  31.460  27.137  1.00  0.00     0.040 A 
ATOM     64  F   UNL A   1      46.396  30.011  27.524  1.00  0.00    -0.206 F 
ATOM     65  C   UNL A   1      49.508  31.754  27.142  1.00  0.00     0.006 A 
ENDBRANCH  44  58
BRANCH  45  66
ATOM     66  C   UNL A   1      40.181  27.804  28.806  1.00  0.00     0.057 A 
ATOM     67  C   UNL A   1      39.122  27.889  29.717  1.00  0.00     0.134 A 
ATOM     68  C   UNL A   1      40.050  28.577  27.636  1.00  0.00     0.134 A 
ATOM     69  F   UNL A   1      39.175  27.234  30.886  1.00  0.00    -0.206 F 
ATOM     70  C   UNL A   1      38.000  28.695  29.481  1.00  0.00     0.040 A 
ATOM     71  C   UNL A   1      38.928  29.372  27.380  1.00  0.00     0.040 A 
ATOM     72  F   UNL A   1      41.040  28.657  26.736  1.00  0.00    -0.206 F 
ATOM     73  C   UNL A   1      37.902  29.443  28.310  1.00  0.00     0.006 A 
ENDBRANCH  45  66
BRANCH  57  74
ATOM     74  C   UNL A   1      44.990  25.877  32.463  1.00  0.00     0.057 A 
ATOM     75  C   UNL A   1      44.699  26.087  33.819  1.00  0.00     0.134 A 
ATOM     76  C   UNL A   1      44.708  24.608  31.948  1.00  0.00     0.134 A 
ATOM     77  F   UNL A   1      44.825  27.299  34.373  1.00  0.00    -0.206 F 
ATOM     78  C   UNL A   1      44.198  25.070  34.636  1.00  0.00     0.040 A 
ATOM     79  C   UNL A   1      44.177  23.590  32.746  1.00  0.00     0.040 A 
ATOM     80  F   UNL A   1      44.895  24.350  30.643  1.00  0.00    -0.206 F 
ATOM     81  C   UNL A   1      43.931  23.817  34.098  1.00  0.00     0.006 A 
ENDBRANCH  57  74
ENDBRANCH  31  32
ENDBRANCH  24  26
ENDBRANCH  23  24
ENDBRANCH  22  23
ENDBRANCH   1  22
TORSDOF 14
ENDMDL
MODEL 2
REMARK VINA RESULT:     -11.2      5.314     10.638
REMARK SMILES CCn1cc(Br)cc1C(=O)N[C@@H]1C=C[C@@H](C(=O)OCCOC(=O)c2ccc(-c3c4nc(c(-c5c(F)cccc5F)c5ccc([nH]5)c(-c5c(F)cccc5F)c5nc(c(-c6c(F)cccc6F)c6ccc3[nH]6)C=C5)C=C4)cc2)C1
REMARK SMILES IDX 19 1 18 2 16 3 17 4 15 5 12 6 13 7 78 8 14 9 11 10 9 11
REMARK SMILES IDX 10 12 8 14 3 15 4 16 5 17 7 18 6 19 2 20 1 21 20 22 21 23
REMARK SMILES IDX 22 24 23 25 24 26 25 27 77 28 26 29 76 30 27 31 28 32 29 33
REMARK SMILES IDX 70 34 30 35 75 36 69 37 71 38 31 39 74 40 68 41 67 42 32 44
REMARK SMILES IDX 58 45 41 46 57 47 42 48 45 49 56 50 72 51 43 52 44 53 55 55
REMARK SMILES IDX 73 56 46 57 33 58 34 59 39 60 35 61 36 62 38 63 40 64 37 65
REMARK SMILES IDX 59 66 60 67 65 68 61 69 62 70 64 71 66 72 63 73 47 74 48 75
REMARK SMILES IDX 53 76 49 77 50 78 52 79 54 80 51 81
REMARK H PARENT 11 13 71 43 45 54
REMARK Flexibility Score: inf
ROOT
ATOM      1  C   UNL A   1      33.555  34.265  28.024  1.00  0.00     0.274 C 
ENDROOT
BRANCH   1   2
ATOM      2  O   UNL A   1      34.133  35.259  28.894  1.00  0.00    -0.462 OA
BRANCH   2   3
ATOM      3  C   UNL A   1      33.282  35.898  29.747  1.00  0.00     0.312 C 
ATOM      4  O   UNL A   1      32.528  36.806  29.418  1.00  0.00    -0.252 OA
BRANCH   3   5
ATOM      5  C   UNL A   1      33.347  35.359  31.183  1.00  0.00     0.124 C 
ATOM      6  C   UNL A   1      35.153  35.486  32.880  1.00  0.00     0.106 C 
ATOM      7  C   UNL A   1      34.040  36.455  33.140  1.00  0.00    -0.006 C 
ATOM      8  C   UNL A   1      34.704  34.792  31.605  1.00  0.00     0.048 C 
ATOM      9  C   UNL A   1      33.076  36.406  32.212  1.00  0.00    -0.014 C 
BRANCH   6  10
ATOM     10  N   UNL A   1      35.311  34.634  34.030  1.00  0.00    -0.345 N 
ATOM     11  C   UNL A   1      36.322  33.886  34.566  1.00  0.00     0.268 C 
ATOM     12  O   UNL A   1      36.056  33.453  35.695  1.00  0.00    -0.268 OA
ATOM     13  H   UNL A   1      34.486  34.577  34.564  1.00  0.00     0.164 HD
BRANCH  11  14
ATOM     14  C   UNL A   1      37.554  33.477  33.900  1.00  0.00     0.108 A 
ATOM     15  N   UNL A   1      37.980  32.338  33.224  1.00  0.00    -0.343 N 
ATOM     16  C   UNL A   1      39.315  32.477  32.874  1.00  0.00     0.102 A 
ATOM     17  C   UNL A   1      39.687  33.764  33.128  1.00  0.00     0.036 A 
ATOM     18  C   UNL A   1      38.604  34.397  33.742  1.00  0.00     0.049 A 
ATOM     19  Br  UNL A   1      41.325  34.573  32.737  1.00  0.00    -0.049 Br
BRANCH  15  20
ATOM     20  C   UNL A   1      37.261  31.150  32.804  1.00  0.00     0.119 C 
ATOM     21  C   UNL A   1      35.891  31.351  32.190  1.00  0.00     0.027 C 
ENDBRANCH  15  20
ENDBRANCH  11  14
ENDBRANCH   6  10
ENDBRANCH   3   5
ENDBRANCH   2   3
ENDBRANCH   1   2
BRANCH   1  22
ATOM     22  C   UNL A   1      34.012  32.866  28.427  1.00  0.00     0.275 C 
BRANCH  22  23
ATOM     23  O   UNL A   1      35.123  32.456  27.624  1.00  0.00    -0.458 OA
BRANCH  23  24
ATOM     24  C   UNL A   1      35.361  31.138  27.627  1.00  0.00     0.338 C 
ATOM     25  O   UNL A   1      34.750  30.278  26.971  1.00  0.00    -0.246 OA
BRANCH  24  26
ATOM     26  C   UNL A   1      36.345  30.768  28.637  1.00  0.00     0.060 A 
ATOM     27  C   UNL A   1      37.469  31.594  28.777  1.00  0.00     0.016 A 
ATOM     28  C   UNL A   1      36.310  29.469  29.159  1.00  0.00     0.016 A 
ATOM     29  C   UNL A   1      38.640  31.044  29.247  1.00  0.00     0.010 A 
ATOM     30  C   UNL A   1      37.486  28.916  29.611  1.00  0.00     0.010 A 
ATOM     31  C   UNL A   1      38.652  29.682  29.558  1.00  0.00    -0.014 A 
BRANCH  31  32
ATOM     32  C   UNL A   1      39.939  29.034  29.706  1.00  0.00     0.031 A 
ATOM     33  C   UNL A   1      40.426  28.828  31.088  1.00  0.00     0.074 A 
ATOM     34  C   UNL A   1      40.553  28.509  28.628  1.00  0.00     0.049 A 
ATOM     35  N   UNL A   1      41.571  29.145  31.596  1.00  0.00    -0.248 NA
ATOM     36  C   UNL A   1      39.483  28.231  32.047  1.00  0.00     0.031 C 
ATOM     37  C   UNL A   1      40.021  28.364  27.266  1.00  0.00     0.029 A 
ATOM     38  N   UNL A   1      41.744  27.861  28.564  1.00  0.00    -0.354 N 
ATOM     39  C   UNL A   1      41.552  28.667  32.903  1.00  0.00     0.074 A 
ATOM     40  C   UNL A   1      40.211  28.209  33.160  1.00  0.00     0.031 C 
ATOM     41  C   UNL A   1      40.782  27.475  26.591  1.00  0.00     0.029 A 
ATOM     42  C   UNL A   1      41.901  27.081  27.431  1.00  0.00     0.049 A 
ATOM     43  H   UNL A   1      42.435  27.939  29.261  1.00  0.00     0.167 HD
ATOM     44  C   UNL A   1      42.679  28.526  33.650  1.00  0.00     0.037 A 
ATOM     45  C   UNL A   1      42.820  26.101  27.262  1.00  0.00     0.037 A 
ATOM     46  C   UNL A   1      43.775  29.297  33.136  1.00  0.00     0.049 A 
ATOM     47  C   UNL A   1      43.894  26.312  28.268  1.00  0.00     0.074 A 
ATOM     48  C   UNL A   1      43.997  30.648  32.949  1.00  0.00     0.029 A 
ATOM     49  N   UNL A   1      44.750  28.658  32.412  1.00  0.00    -0.354 N 
ATOM     50  N   UNL A   1      44.730  27.314  28.256  1.00  0.00    -0.248 NA
ATOM     51  C   UNL A   1      43.770  25.624  29.545  1.00  0.00     0.031 C 
ATOM     52  C   UNL A   1      44.772  30.736  31.755  1.00  0.00     0.029 A 
ATOM     53  C   UNL A   1      44.986  29.433  31.304  1.00  0.00     0.049 A 
ATOM     54  H   UNL A   1      45.192  27.810  32.642  1.00  0.00     0.167 HD
ATOM     55  C   UNL A   1      44.928  27.634  29.593  1.00  0.00     0.074 A 
ATOM     56  C   UNL A   1      44.391  26.500  30.339  1.00  0.00     0.031 C 
ATOM     57  C   UNL A   1      45.246  28.903  29.985  1.00  0.00     0.037 A 
BRANCH  44  58
ATOM     58  C   UNL A   1      42.841  27.482  34.716  1.00  0.00     0.057 A 
ATOM     59  C   UNL A   1      43.138  26.155  34.368  1.00  0.00     0.134 A 
ATOM     60  C   UNL A   1      42.477  27.689  36.063  1.00  0.00     0.134 A 
ATOM     61  F   UNL A   1      43.455  25.830  33.106  1.00  0.00    -0.206 F 
ATOM     62  C   UNL A   1      43.057  25.106  35.290  1.00  0.00     0.040 A 
ATOM     63  C   UNL A   1      42.445  26.657  37.004  1.00  0.00     0.040 A 
ATOM     64  F   UNL A   1      42.048  28.878  36.507  1.00  0.00    -0.206 F 
ATOM     65  C   UNL A   1      42.714  25.356  36.614  1.00  0.00     0.006 A 
ENDBRANCH  44  58
BRANCH  45  66
ATOM     66  C   UNL A   1      42.644  24.828  26.523  1.00  0.00     0.057 A 
ATOM     67  C   UNL A   1      43.496  24.480  25.468  1.00  0.00     0.134 A 
ATOM     68  C   UNL A   1      41.785  23.811  26.981  1.00  0.00     0.134 A 
ATOM     69  F   UNL A   1      44.389  25.361  24.995  1.00  0.00    -0.206 F 
ATOM     70  C   UNL A   1      43.496  23.196  24.904  1.00  0.00     0.040 A 
ATOM     71  C   UNL A   1      41.763  22.532  26.417  1.00  0.00     0.040 A 
ATOM     72  F   UNL A   1      40.994  23.991  28.049  1.00  0.00    -0.206 F 
ATOM     73  C   UNL A   1      42.629  22.216  25.381  1.00  0.00     0.006 A 
ENDBRANCH  45  66
BRANCH  57  74
ATOM     74  C   UNL A   1      45.600  29.902  28.917  1.00  0.00     0.057 A 
ATOM     75  C   UNL A   1      44.644  30.680  28.247  1.00  0.00     0.134 A 
ATOM     76  C   UNL A   1      46.942  30.215  28.682  1.00  0.00     0.134 A 
ATOM     77  F   UNL A   1      43.336  30.533  28.494  1.00  0.00    -0.206 F 
ATOM     78  C   UNL A   1      45.005  31.687  27.349  1.00  0.00     0.040 A 
ATOM     79  C   UNL A   1      47.318  31.242  27.811  1.00  0.00     0.040 A 
ATOM     80  F   UNL A   1      47.914  29.561  29.339  1.00  0.00    -0.206 F 
ATOM     81  C   UNL A   1      46.348  31.974  27.132  1.00  0.00     0.006 A 
ENDBRANCH  57  74
ENDBRANCH  31  32
ENDBRANCH  24  26
ENDBRANCH  23  24
ENDBRANCH  22  23
ENDBRANCH   1  22
TORSDOF 14
ENDMDL
MODEL 3
REMARK VINA RESULT:     -11.2      6.157     11.028
REMARK SMILES CCn1cc(Br)cc1C(=O)N[C@@H]1C=C[C@@H](C(=O)OCCOC(=O)c2ccc(-c3c4nc(c(-c5c(F)cccc5F)c5ccc([nH]5)c(-c5c(F)cccc5F)c5nc(c(-c6c(F)cccc6F)c6ccc3[nH]6)C=C5)C=C4)cc2)C1
REMARK SMILES IDX 19 1 18 2 16 3 17 4 15 5 12 6 13 7 78 8 14 9 11 10 9 11
REMARK SMILES IDX 10 12 8 14 3 15 4 16 5 17 7 18 6 19 2 20 1 21 20 22 21 23
REMARK SMILES IDX 22 24 23 25 24 26 25 27 77 28 26 29 76 30 27 31 28 32 29 33
REMARK SMILES IDX 70 34 30 35 75 36 69 37 71 38 31 39 74 40 68 41 67 42 32 44
REMARK SMILES IDX 58 45 41 46 57 47 42 48 45 49 56 50 72 51 43 52 44 53 55 55
REMARK SMILES IDX 73 56 46 57 33 58 34 59 39 60 35 61 36 62 38 63 40 64 37 65
REMARK SMILES IDX 59 66 60 67 65 68 61 69 62 70 64 71 66 72 63 73 47 74 48 75
REMARK SMILES IDX 53 76 49 77 50 78 52 79 54 80 51 81
REMARK H PARENT 11 13 71 43 45 54
REMARK Flexibility Score: inf
ROOT
ATOM      1  C   UNL A   1      34.039  34.982  28.645  1.00  0.00     0.274 C 
ENDROOT
BRANCH   1   2
ATOM      2  O   UNL A   1      33.458  33.702  28.320  1.00  0.00    -0.462 OA
BRANCH   2   3
ATOM      3  C   UNL A   1      34.313  32.734  27.880  1.00  0.00     0.312 C 
ATOM      4  O   UNL A   1      35.429  32.954  27.426  1.00  0.00    -0.252 OA
BRANCH   3   5
ATOM      5  C   UNL A   1      33.743  31.316  28.020  1.00  0.00     0.124 C 
ATOM      6  C   UNL A   1      32.787  29.780  26.322  1.00  0.00     0.106 C 
ATOM      7  C   UNL A   1      34.186  29.414  26.716  1.00  0.00    -0.006 C 
ATOM      8  C   UNL A   1      32.514  31.019  27.157  1.00  0.00     0.048 C 
ATOM      9  C   UNL A   1      34.713  30.255  27.614  1.00  0.00    -0.014 C 
BRANCH   6  10
ATOM     10  N   UNL A   1      31.920  28.657  26.570  1.00  0.00    -0.345 N 
ATOM     11  C   UNL A   1      31.881  27.344  26.193  1.00  0.00     0.268 C 
ATOM     12  O   UNL A   1      31.034  26.689  26.811  1.00  0.00    -0.268 OA
ATOM     13  H   UNL A   1      31.167  28.895  27.158  1.00  0.00     0.164 HD
BRANCH  11  14
ATOM     14  C   UNL A   1      32.623  26.727  25.097  1.00  0.00     0.108 A 
ATOM     15  N   UNL A   1      32.822  27.019  23.752  1.00  0.00    -0.343 N 
ATOM     16  C   UNL A   1      33.563  26.007  23.161  1.00  0.00     0.102 A 
ATOM     17  C   UNL A   1      34.018  25.184  24.149  1.00  0.00     0.036 A 
ATOM     18  C   UNL A   1      33.461  25.629  25.350  1.00  0.00     0.049 A 
ATOM     19  Br  UNL A   1      35.175  23.728  23.974  1.00  0.00    -0.049 Br
BRANCH  15  20
ATOM     20  C   UNL A   1      32.453  28.177  22.959  1.00  0.00     0.119 C 
ATOM     21  C   UNL A   1      30.999  28.602  22.989  1.00  0.00     0.027 C 
ENDBRANCH  15  20
ENDBRANCH  11  14
ENDBRANCH   6  10
ENDBRANCH   3   5
ENDBRANCH   2   3
ENDBRANCH   1   2
BRANCH   1  22
ATOM     22  C   UNL A   1      33.109  35.778  29.556  1.00  0.00     0.275 C 
BRANCH  22  23
ATOM     23  O   UNL A   1      32.676  34.969  30.654  1.00  0.00    -0.458 OA
BRANCH  23  24
ATOM     24  C   UNL A   1      32.919  35.489  31.864  1.00  0.00     0.338 C 
ATOM     25  O   UNL A   1      32.394  36.506  32.346  1.00  0.00    -0.246 OA
BRANCH  24  26
ATOM     26  C   UNL A   1      34.023  34.811  32.532  1.00  0.00     0.060 A 
ATOM     27  C   UNL A   1      35.110  35.595  32.942  1.00  0.00     0.016 A 
ATOM     28  C   UNL A   1      34.112  33.417  32.426  1.00  0.00     0.016 A 
ATOM     29  C   UNL A   1      36.352  35.007  33.034  1.00  0.00     0.010 A 
ATOM     30  C   UNL A   1      35.356  32.835  32.500  1.00  0.00     0.010 A 
ATOM     31  C   UNL A   1      36.468  33.654  32.709  1.00  0.00    -0.014 A 
BRANCH  31  32
ATOM     32  C   UNL A   1      37.796  33.130  32.461  1.00  0.00     0.031 A 
ATOM     33  C   UNL A   1      38.745  33.159  33.597  1.00  0.00     0.074 A 
ATOM     34  C   UNL A   1      38.063  32.502  31.300  1.00  0.00     0.049 A 
ATOM     35  N   UNL A   1      39.948  33.629  33.630  1.00  0.00    -0.248 NA
ATOM     36  C   UNL A   1      38.263  32.637  34.885  1.00  0.00     0.031 C 
ATOM     37  C   UNL A   1      37.121  32.126  30.238  1.00  0.00     0.029 A 
ATOM     38  N   UNL A   1      39.230  31.942  30.889  1.00  0.00    -0.354 N 
ATOM     39  C   UNL A   1      40.433  33.343  34.903  1.00  0.00     0.074 A 
ATOM     40  C   UNL A   1      39.324  32.828  35.665  1.00  0.00     0.031 C 
ATOM     41  C   UNL A   1      37.706  31.208  29.438  1.00  0.00     0.029 A 
ATOM     42  C   UNL A   1      39.082  31.022  29.866  1.00  0.00     0.049 A 
ATOM     43  H   UNL A   1      40.102  32.169  31.285  1.00  0.00     0.167 HD
ATOM     44  C   UNL A   1      41.755  33.393  35.214  1.00  0.00     0.037 A 
ATOM     45  C   UNL A   1      39.998  30.098  29.490  1.00  0.00     0.037 A 
ATOM     46  C   UNL A   1      42.510  34.162  34.266  1.00  0.00     0.049 A 
ATOM     47  C   UNL A   1      41.318  30.530  30.023  1.00  0.00     0.074 A 
ATOM     48  C   UNL A   1      42.493  35.484  33.868  1.00  0.00     0.029 A 
ATOM     49  N   UNL A   1      43.248  33.499  33.317  1.00  0.00    -0.354 N 
ATOM     50  N   UNL A   1      41.974  31.578  29.608  1.00  0.00    -0.248 NA
ATOM     51  C   UNL A   1      41.719  30.023  31.328  1.00  0.00     0.031 C 
ATOM     52  C   UNL A   1      42.799  35.458  32.476  1.00  0.00     0.029 A 
ATOM     53  C   UNL A   1      43.000  34.123  32.121  1.00  0.00     0.049 A 
ATOM     54  H   UNL A   1      43.841  32.728  33.467  1.00  0.00     0.167 HD
ATOM     55  C   UNL A   1      42.576  32.099  30.746  1.00  0.00     0.074 A 
ATOM     56  C   UNL A   1      42.465  31.046  31.751  1.00  0.00     0.031 C 
ATOM     57  C   UNL A   1      42.856  33.431  30.861  1.00  0.00     0.037 A 
BRANCH  44  58
ATOM     58  C   UNL A   1      42.393  32.527  36.260  1.00  0.00     0.057 A 
ATOM     59  C   UNL A   1      43.008  33.106  37.381  1.00  0.00     0.134 A 
ATOM     60  C   UNL A   1      42.635  31.149  36.081  1.00  0.00     0.134 A 
ATOM     61  F   UNL A   1      42.886  34.419  37.630  1.00  0.00    -0.206 F 
ATOM     62  C   UNL A   1      43.823  32.370  38.249  1.00  0.00     0.040 A 
ATOM     63  C   UNL A   1      43.401  30.393  36.972  1.00  0.00     0.040 A 
ATOM     64  F   UNL A   1      42.216  30.491  34.991  1.00  0.00    -0.206 F 
ATOM     65  C   UNL A   1      44.017  31.009  38.048  1.00  0.00     0.006 A 
ENDBRANCH  44  58
BRANCH  45  66
ATOM     66  C   UNL A   1      39.734  28.724  29.002  1.00  0.00     0.057 A 
ATOM     67  C   UNL A   1      40.169  28.307  27.739  1.00  0.00     0.134 A 
ATOM     68  C   UNL A   1      39.255  27.709  29.853  1.00  0.00     0.134 A 
ATOM     69  F   UNL A   1      40.693  29.188  26.874  1.00  0.00    -0.206 F 
ATOM     70  C   UNL A   1      40.133  26.962  27.345  1.00  0.00     0.040 A 
ATOM     71  C   UNL A   1      39.198  26.366  29.467  1.00  0.00     0.040 A 
ATOM     72  F   UNL A   1      38.903  27.967  31.121  1.00  0.00    -0.206 F 
ATOM     73  C   UNL A   1      39.649  25.986  28.212  1.00  0.00     0.006 A 
ENDBRANCH  45  66
BRANCH  57  74
ATOM     74  C   UNL A   1      42.703  34.290  29.636  1.00  0.00     0.057 A 
ATOM     75  C   UNL A   1      41.502  34.930  29.291  1.00  0.00     0.134 A 
ATOM     76  C   UNL A   1      43.833  34.626  28.883  1.00  0.00     0.134 A 
ATOM     77  F   UNL A   1      40.395  34.762  30.024  1.00  0.00    -0.206 F 
ATOM     78  C   UNL A   1      41.418  35.821  28.218  1.00  0.00     0.040 A 
ATOM     79  C   UNL A   1      43.770  35.541  27.827  1.00  0.00     0.040 A 
ATOM     80  F   UNL A   1      45.032  34.109  29.195  1.00  0.00    -0.206 F 
ATOM     81  C   UNL A   1      42.557  36.133  27.485  1.00  0.00     0.006 A 
ENDBRANCH  57  74
ENDBRANCH  31  32
ENDBRANCH  24  26
ENDBRANCH  23  24
ENDBRANCH  22  23
ENDBRANCH   1  22
TORSDOF 14
ENDMDL
