MODEL 1
REMARK VINA RESULT:     -10.5      0.000      0.000
REMARK SMILES COc1cc(Br)ccc1[C@H]([NH3+])C(=O)OCCOC(=O)c1ccc(-c2c3nc(c(-c4c(F)cccc4F)c4ccc([nH]4)c(-c4c(F)cccc4F)c4nc(c(-c5c(F)cccc5F)c5ccc2[nH]5)C=C4)C=C3)cc1
REMARK SMILES IDX 15 1 14 2 12 3 13 4 10 5 9 6 3 7 4 8 5 9 8 10 6 11 7 12 2 13
REMARK SMILES IDX 1 14 11 15 16 19 17 20 18 21 19 22 20 23 21 24 73 25 22 26
REMARK SMILES IDX 72 27 23 28 24 29 25 30 66 31 26 32 71 33 65 34 67 35 27 36
REMARK SMILES IDX 70 37 64 38 63 39 28 41 54 42 37 43 53 44 38 45 41 46 52 47
REMARK SMILES IDX 68 48 39 49 40 50 51 52 69 53 42 54 29 55 30 56 35 57 31 58
REMARK SMILES IDX 32 59 34 60 36 61 33 62 55 63 56 64 61 65 57 66 58 67 60 68
REMARK SMILES IDX 62 69 59 70 43 71 44 72 49 73 45 74 46 75 48 76 50 77 47 78
REMARK H PARENT 11 16 11 17 11 18 67 40 41 51
REMARK Flexibility Score: inf
ROOT
ATOM      1  C   UNL A   1      34.117  34.817  32.053  1.00  0.00     0.274 C 
ENDROOT
BRANCH   1   2
ATOM      2  O   UNL A   1      33.192  34.773  30.957  1.00  0.00    -0.457 OA
BRANCH   2   3
ATOM      3  C   UNL A   1      33.040  35.919  30.232  1.00  0.00     0.370 C 
ATOM      4  O   UNL A   1      32.731  37.008  30.711  1.00  0.00    -0.245 OA
BRANCH   3   5
ATOM      5  C   UNL A   1      33.372  35.729  28.737  1.00  0.00     0.326 C 
BRANCH   5   6
ATOM      6  C   UNL A   1      34.000  34.382  28.447  1.00  0.00     0.063 A 
ATOM      7  C   UNL A   1      33.263  33.312  27.916  1.00  0.00     0.129 A 
ATOM      8  C   UNL A   1      33.869  32.088  27.627  1.00  0.00     0.062 A 
ATOM      9  C   UNL A   1      35.223  31.916  27.894  1.00  0.00     0.021 A 
ATOM     10  C   UNL A   1      35.366  34.180  28.716  1.00  0.00     0.015 A 
ATOM     11  Br  UNL A   1      36.053  30.263  27.500  1.00  0.00    -0.051 Br
ATOM     12  C   UNL A   1      35.975  32.955  28.437  1.00  0.00     0.016 A 
BRANCH   7  13
ATOM     13  O   UNL A   1      31.949  33.491  27.574  1.00  0.00    -0.496 OA
ATOM     14  C   UNL A   1      31.509  32.460  26.689  1.00  0.00     0.278 C 
ENDBRANCH   7  13
ENDBRANCH   5   6
BRANCH   5  15
ATOM     15  N   UNL A   1      34.160  36.840  28.156  1.00  0.00    -0.342 N 
ATOM     16  H   UNL A   1      34.928  36.460  27.602  1.00  0.00     0.345 HD
ATOM     17  H   UNL A   1      34.538  37.419  28.908  1.00  0.00     0.345 HD
ATOM     18  H   UNL A   1      33.559  37.409  27.560  1.00  0.00     0.345 HD
ENDBRANCH   5  15
ENDBRANCH   3   5
ENDBRANCH   2   3
ENDBRANCH   1   2
BRANCH   1  19
ATOM     19  C   UNL A   1      34.253  33.437  32.700  1.00  0.00     0.275 C 
BRANCH  19  20
ATOM     20  O   UNL A   1      35.329  32.674  32.122  1.00  0.00    -0.458 OA
BRANCH  20  21
ATOM     21  C   UNL A   1      36.319  32.324  32.975  1.00  0.00     0.338 C 
ATOM     22  O   UNL A   1      36.337  32.436  34.190  1.00  0.00    -0.246 OA
BRANCH  21  23
ATOM     23  C   UNL A   1      37.381  31.629  32.233  1.00  0.00     0.060 A 
ATOM     24  C   UNL A   1      38.304  30.876  32.965  1.00  0.00     0.016 A 
ATOM     25  C   UNL A   1      37.516  31.773  30.851  1.00  0.00     0.016 A 
ATOM     26  C   UNL A   1      39.383  30.278  32.325  1.00  0.00     0.010 A 
ATOM     27  C   UNL A   1      38.599  31.172  30.208  1.00  0.00     0.010 A 
ATOM     28  C   UNL A   1      39.545  30.438  30.945  1.00  0.00    -0.014 A 
BRANCH  28  29
ATOM     29  C   UNL A   1      40.751  29.905  30.276  1.00  0.00     0.031 A 
ATOM     30  C   UNL A   1      41.944  30.796  30.099  1.00  0.00     0.074 A 
ATOM     31  C   UNL A   1      40.769  28.638  29.828  1.00  0.00     0.049 A 
ATOM     32  N   UNL A   1      43.036  30.591  29.410  1.00  0.00    -0.248 NA
ATOM     33  C   UNL A   1      41.897  32.095  30.788  1.00  0.00     0.031 C 
ATOM     34  C   UNL A   1      39.691  27.665  29.999  1.00  0.00     0.029 A 
ATOM     35  N   UNL A   1      41.729  27.959  29.121  1.00  0.00    -0.354 N 
ATOM     36  C   UNL A   1      43.795  31.745  29.558  1.00  0.00     0.074 A 
ATOM     37  C   UNL A   1      43.036  32.649  30.396  1.00  0.00     0.031 C 
ATOM     38  C   UNL A   1      40.041  26.517  29.396  1.00  0.00     0.029 A 
ATOM     39  C   UNL A   1      41.343  26.693  28.757  1.00  0.00     0.049 A 
ATOM     40  H   UNL A   1      42.608  28.342  28.897  1.00  0.00     0.167 HD
ATOM     41  C   UNL A   1      45.012  32.022  29.036  1.00  0.00     0.037 A 
ATOM     42  C   UNL A   1      41.954  25.795  27.962  1.00  0.00     0.037 A 
ATOM     43  C   UNL A   1      45.761  31.111  28.212  1.00  0.00     0.049 A 
ATOM     44  C   UNL A   1      43.278  26.149  27.344  1.00  0.00     0.074 A 
ATOM     45  C   UNL A   1      47.003  31.291  27.631  1.00  0.00     0.029 A 
ATOM     46  N   UNL A   1      45.333  29.840  27.858  1.00  0.00    -0.354 N 
ATOM     47  N   UNL A   1      43.979  27.251  27.466  1.00  0.00    -0.248 NA
ATOM     48  C   UNL A   1      43.892  25.140  26.469  1.00  0.00     0.031 C 
ATOM     49  C   UNL A   1      47.312  30.142  26.897  1.00  0.00     0.029 A 
ATOM     50  C   UNL A   1      46.281  29.230  27.054  1.00  0.00     0.049 A 
ATOM     51  H   UNL A   1      44.481  29.432  28.136  1.00  0.00     0.167 HD
ATOM     52  C   UNL A   1      45.127  27.058  26.709  1.00  0.00     0.074 A 
ATOM     53  C   UNL A   1      45.030  25.732  26.133  1.00  0.00     0.031 C 
ATOM     54  C   UNL A   1      46.168  27.902  26.508  1.00  0.00     0.037 A 
BRANCH  41  55
ATOM     55  C   UNL A   1      45.588  33.378  29.310  1.00  0.00     0.057 A 
ATOM     56  C   UNL A   1      46.423  33.621  30.408  1.00  0.00     0.134 A 
ATOM     57  C   UNL A   1      45.318  34.452  28.452  1.00  0.00     0.134 A 
ATOM     58  F   UNL A   1      46.705  32.640  31.277  1.00  0.00    -0.206 F 
ATOM     59  C   UNL A   1      46.956  34.889  30.652  1.00  0.00     0.040 A 
ATOM     60  C   UNL A   1      45.862  35.718  28.673  1.00  0.00     0.040 A 
ATOM     61  F   UNL A   1      44.526  34.286  27.383  1.00  0.00    -0.206 F 
ATOM     62  C   UNL A   1      46.679  35.941  29.779  1.00  0.00     0.006 A 
ENDBRANCH  41  55
BRANCH  42  63
ATOM     63  C   UNL A   1      41.306  24.491  27.683  1.00  0.00     0.057 A 
ATOM     64  C   UNL A   1      40.286  24.379  26.734  1.00  0.00     0.134 A 
ATOM     65  C   UNL A   1      41.691  23.327  28.360  1.00  0.00     0.134 A 
ATOM     66  F   UNL A   1      39.858  25.463  26.071  1.00  0.00    -0.206 F 
ATOM     67  C   UNL A   1      39.662  23.157  26.472  1.00  0.00     0.040 A 
ATOM     68  C   UNL A   1      41.095  22.095  28.092  1.00  0.00     0.040 A 
ATOM     69  F   UNL A   1      42.665  23.370  29.282  1.00  0.00    -0.206 F 
ATOM     70  C   UNL A   1      40.072  22.009  27.149  1.00  0.00     0.006 A 
ENDBRANCH  42  63
BRANCH  54  71
ATOM     71  C   UNL A   1      47.306  27.397  25.673  1.00  0.00     0.057 A 
ATOM     72  C   UNL A   1      47.344  27.582  24.287  1.00  0.00     0.134 A 
ATOM     73  C   UNL A   1      48.400  26.762  26.275  1.00  0.00     0.134 A 
ATOM     74  F   UNL A   1      46.319  28.172  23.651  1.00  0.00    -0.206 F 
ATOM     75  C   UNL A   1      48.425  27.139  23.524  1.00  0.00     0.040 A 
ATOM     76  C   UNL A   1      49.496  26.335  25.526  1.00  0.00     0.040 A 
ATOM     77  F   UNL A   1      48.426  26.563  27.601  1.00  0.00    -0.206 F 
ATOM     78  C   UNL A   1      49.508  26.521  24.145  1.00  0.00     0.006 A 
ENDBRANCH  54  71
ENDBRANCH  28  29
ENDBRANCH  21  23
ENDBRANCH  20  21
ENDBRANCH  19  20
ENDBRANCH   1  19
TORSDOF 14
ENDMDL
MODEL 2
REMARK VINA RESULT:     -10.4      4.921     10.690
REMARK SMILES COc1cc(Br)ccc1[C@H]([NH3+])C(=O)OCCOC(=O)c1ccc(-c2c3nc(c(-c4c(F)cccc4F)c4ccc([nH]4)c(-c4c(F)cccc4F)c4nc(c(-c5c(F)cccc5F)c5ccc2[nH]5)C=C4)C=C3)cc1
REMARK SMILES IDX 15 1 14 2 12 3 13 4 10 5 9 6 3 7 4 8 5 9 8 10 6 11 7 12 2 13
REMARK SMILES IDX 1 14 11 15 16 19 17 20 18 21 19 22 20 23 21 24 73 25 22 26
REMARK SMILES IDX 72 27 23 28 24 29 25 30 66 31 26 32 71 33 65 34 67 35 27 36
REMARK SMILES IDX 70 37 64 38 63 39 28 41 54 42 37 43 53 44 38 45 41 46 52 47
REMARK SMILES IDX 68 48 39 49 40 50 51 52 69 53 42 54 29 55 30 56 35 57 31 58
REMARK SMILES IDX 32 59 34 60 36 61 33 62 55 63 56 64 61 65 57 66 58 67 60 68
REMARK SMILES IDX 62 69 59 70 43 71 44 72 49 73 45 74 46 75 48 76 50 77 47 78
REMARK H PARENT 11 16 11 17 11 18 67 40 41 51
REMARK Flexibility Score: inf
ROOT
ATOM      1  C   UNL A   1      42.347  19.680  26.296  1.00  0.00     0.274 C 
ENDROOT
BRANCH   1   2
ATOM      2  O   UNL A   1      42.988  20.230  25.137  1.00  0.00    -0.457 OA
BRANCH   2   3
ATOM      3  C   UNL A   1      44.238  20.748  25.311  1.00  0.00     0.370 C 
ATOM      4  O   UNL A   1      45.253  20.075  25.475  1.00  0.00    -0.245 OA
BRANCH   3   5
ATOM      5  C   UNL A   1      44.266  22.288  25.209  1.00  0.00     0.326 C 
BRANCH   5   6
ATOM      6  C   UNL A   1      44.552  22.954  26.538  1.00  0.00     0.063 A 
ATOM      7  C   UNL A   1      45.804  23.509  26.842  1.00  0.00     0.129 A 
ATOM      8  C   UNL A   1      46.036  24.147  28.062  1.00  0.00     0.062 A 
ATOM      9  C   UNL A   1      45.015  24.212  29.005  1.00  0.00     0.021 A 
ATOM     10  C   UNL A   1      43.538  23.026  27.511  1.00  0.00     0.015 A 
ATOM     11  Br  UNL A   1      45.319  25.080  30.657  1.00  0.00    -0.051 Br
ATOM     12  C   UNL A   1      43.767  23.655  28.736  1.00  0.00     0.016 A 
BRANCH   7  13
ATOM     13  O   UNL A   1      46.794  23.523  25.896  1.00  0.00    -0.496 OA
ATOM     14  C   UNL A   1      46.859  24.794  25.248  1.00  0.00     0.278 C 
ENDBRANCH   7  13
ENDBRANCH   5   6
BRANCH   5  15
ATOM     15  N   UNL A   1      43.070  22.862  24.550  1.00  0.00    -0.342 N 
ATOM     16  H   UNL A   1      42.409  22.116  24.336  1.00  0.00     0.345 HD
ATOM     17  H   UNL A   1      43.349  23.328  23.685  1.00  0.00     0.345 HD
ATOM     18  H   UNL A   1      42.630  23.539  25.173  1.00  0.00     0.345 HD
ENDBRANCH   5  15
ENDBRANCH   3   5
ENDBRANCH   2   3
ENDBRANCH   1   2
BRANCH   1  19
ATOM     19  C   UNL A   1      40.961  20.298  26.492  1.00  0.00     0.275 C 
BRANCH  19  20
ATOM     20  O   UNL A   1      40.955  21.709  26.204  1.00  0.00    -0.458 OA
BRANCH  20  21
ATOM     21  C   UNL A   1      39.754  22.321  26.312  1.00  0.00     0.338 C 
ATOM     22  O   UNL A   1      38.646  21.832  26.158  1.00  0.00    -0.246 OA
BRANCH  21  23
ATOM     23  C   UNL A   1      39.947  23.696  26.795  1.00  0.00     0.060 A 
ATOM     24  C   UNL A   1      40.116  24.705  25.842  1.00  0.00     0.016 A 
ATOM     25  C   UNL A   1      40.037  23.982  28.158  1.00  0.00     0.016 A 
ATOM     26  C   UNL A   1      40.399  26.006  26.244  1.00  0.00     0.010 A 
ATOM     27  C   UNL A   1      40.320  25.288  28.561  1.00  0.00     0.010 A 
ATOM     28  C   UNL A   1      40.520  26.300  27.606  1.00  0.00    -0.014 A 
BRANCH  28  29
ATOM     29  C   UNL A   1      40.935  27.652  28.036  1.00  0.00     0.031 A 
ATOM     30  C   UNL A   1      42.393  28.001  28.046  1.00  0.00     0.074 A 
ATOM     31  C   UNL A   1      40.012  28.551  28.419  1.00  0.00     0.049 A 
ATOM     32  N   UNL A   1      42.988  29.060  28.529  1.00  0.00    -0.248 NA
ATOM     33  C   UNL A   1      43.303  27.022  27.431  1.00  0.00     0.031 C 
ATOM     34  C   UNL A   1      38.565  28.341  28.392  1.00  0.00     0.029 A 
ATOM     35  N   UNL A   1      40.160  29.818  28.922  1.00  0.00    -0.354 N 
ATOM     36  C   UNL A   1      44.344  28.864  28.304  1.00  0.00     0.074 A 
ATOM     37  C   UNL A   1      44.486  27.582  27.647  1.00  0.00     0.031 C 
ATOM     38  C   UNL A   1      37.957  29.436  28.876  1.00  0.00     0.029 A 
ATOM     39  C   UNL A   1      38.973  30.400  29.292  1.00  0.00     0.049 A 
ATOM     40  H   UNL A   1      41.033  30.266  29.010  1.00  0.00     0.167 HD
ATOM     41  C   UNL A   1      45.374  29.680  28.624  1.00  0.00     0.037 A 
ATOM     42  C   UNL A   1      38.739  31.560  29.931  1.00  0.00     0.037 A 
ATOM     43  C   UNL A   1      45.220  30.957  29.267  1.00  0.00     0.049 A 
ATOM     44  C   UNL A   1      39.904  32.423  30.330  1.00  0.00     0.074 A 
ATOM     45  C   UNL A   1      46.198  31.865  29.636  1.00  0.00     0.029 A 
ATOM     46  N   UNL A   1      44.002  31.510  29.634  1.00  0.00    -0.354 N 
ATOM     47  N   UNL A   1      41.186  32.221  30.138  1.00  0.00    -0.248 NA
ATOM     48  C   UNL A   1      39.593  33.670  31.043  1.00  0.00     0.031 C 
ATOM     49  C   UNL A   1      45.573  32.951  30.256  1.00  0.00     0.029 A 
ATOM     50  C   UNL A   1      44.203  32.739  30.238  1.00  0.00     0.049 A 
ATOM     51  H   UNL A   1      43.123  31.090  29.488  1.00  0.00     0.167 HD
ATOM     52  C   UNL A   1      41.831  33.325  30.680  1.00  0.00     0.074 A 
ATOM     53  C   UNL A   1      40.799  34.195  31.205  1.00  0.00     0.031 C 
ATOM     54  C   UNL A   1      43.158  33.595  30.737  1.00  0.00     0.037 A 
BRANCH  41  55
ATOM     55  C   UNL A   1      46.760  29.197  28.314  1.00  0.00     0.057 A 
ATOM     56  C   UNL A   1      47.500  28.433  29.223  1.00  0.00     0.134 A 
ATOM     57  C   UNL A   1      47.352  29.487  27.078  1.00  0.00     0.134 A 
ATOM     58  F   UNL A   1      46.996  28.138  30.431  1.00  0.00    -0.206 F 
ATOM     59  C   UNL A   1      48.789  27.988  28.922  1.00  0.00     0.040 A 
ATOM     60  C   UNL A   1      48.631  29.029  26.756  1.00  0.00     0.040 A 
ATOM     61  F   UNL A   1      46.696  30.215  26.162  1.00  0.00    -0.206 F 
ATOM     62  C   UNL A   1      49.355  28.282  27.683  1.00  0.00     0.006 A 
ENDBRANCH  41  55
BRANCH  42  63
ATOM     63  C   UNL A   1      37.348  31.957  30.260  1.00  0.00     0.057 A 
ATOM     64  C   UNL A   1      36.596  32.748  29.386  1.00  0.00     0.134 A 
ATOM     65  C   UNL A   1      36.739  31.553  31.454  1.00  0.00     0.134 A 
ATOM     66  F   UNL A   1      37.134  33.184  28.238  1.00  0.00    -0.206 F 
ATOM     67  C   UNL A   1      35.290  33.135  29.692  1.00  0.00     0.040 A 
ATOM     68  C   UNL A   1      35.426  31.911  31.762  1.00  0.00     0.040 A 
ATOM     69  F   UNL A   1      37.408  30.791  32.332  1.00  0.00    -0.206 F 
ATOM     70  C   UNL A   1      34.700  32.710  30.882  1.00  0.00     0.006 A 
ENDBRANCH  42  63
BRANCH  54  71
ATOM     71  C   UNL A   1      43.564  34.904  31.344  1.00  0.00     0.057 A 
ATOM     72  C   UNL A   1      43.895  35.019  32.698  1.00  0.00     0.134 A 
ATOM     73  C   UNL A   1      43.672  36.051  30.547  1.00  0.00     0.134 A 
ATOM     74  F   UNL A   1      43.798  33.958  33.515  1.00  0.00    -0.206 F 
ATOM     75  C   UNL A   1      44.305  36.236  33.245  1.00  0.00     0.040 A 
ATOM     76  C   UNL A   1      44.103  37.267  31.077  1.00  0.00     0.040 A 
ATOM     77  F   UNL A   1      43.376  36.002  29.240  1.00  0.00    -0.206 F 
ATOM     78  C   UNL A   1      44.417  37.362  32.431  1.00  0.00     0.006 A 
ENDBRANCH  54  71
ENDBRANCH  28  29
ENDBRANCH  21  23
ENDBRANCH  20  21
ENDBRANCH  19  20
ENDBRANCH   1  19
TORSDOF 14
ENDMDL
MODEL 3
REMARK VINA RESULT:     -10.2      3.182      4.487
REMARK SMILES COc1cc(Br)ccc1[C@H]([NH3+])C(=O)OCCOC(=O)c1ccc(-c2c3nc(c(-c4c(F)cccc4F)c4ccc([nH]4)c(-c4c(F)cccc4F)c4nc(c(-c5c(F)cccc5F)c5ccc2[nH]5)C=C4)C=C3)cc1
REMARK SMILES IDX 15 1 14 2 12 3 13 4 10 5 9 6 3 7 4 8 5 9 8 10 6 11 7 12 2 13
REMARK SMILES IDX 1 14 11 15 16 19 17 20 18 21 19 22 20 23 21 24 73 25 22 26
REMARK SMILES IDX 72 27 23 28 24 29 25 30 66 31 26 32 71 33 65 34 67 35 27 36
REMARK SMILES IDX 70 37 64 38 63 39 28 41 54 42 37 43 53 44 38 45 41 46 52 47
REMARK SMILES IDX 68 48 39 49 40 50 51 52 69 53 42 54 29 55 30 56 35 57 31 58
REMARK SMILES IDX 32 59 34 60 36 61 33 62 55 63 56 64 61 65 57 66 58 67 60 68
REMARK SMILES IDX 62 69 59 70 43 71 44 72 49 73 45 74 46 75 48 76 50 77 47 78
REMARK H PARENT 11 16 11 17 11 18 67 40 41 51
REMARK Flexibility Score: inf
ROOT
ATOM      1  C   UNL A   1      33.668  33.897  28.181  1.00  0.00     0.274 C 
ENDROOT
BRANCH   1   2
ATOM      2  O   UNL A   1      33.296  33.841  29.565  1.00  0.00    -0.457 OA
BRANCH   2   3
ATOM      3  C   UNL A   1      34.043  34.581  30.435  1.00  0.00     0.370 C 
ATOM      4  O   UNL A   1      33.964  35.801  30.555  1.00  0.00    -0.245 OA
BRANCH   3   5
ATOM      5  C   UNL A   1      34.963  33.713  31.320  1.00  0.00     0.326 C 
BRANCH   5   6
ATOM      6  C   UNL A   1      36.430  33.909  31.002  1.00  0.00     0.063 A 
ATOM      7  C   UNL A   1      37.320  34.502  31.911  1.00  0.00     0.129 A 
ATOM      8  C   UNL A   1      38.676  34.644  31.610  1.00  0.00     0.062 A 
ATOM      9  C   UNL A   1      39.150  34.213  30.375  1.00  0.00     0.021 A 
ATOM     10  C   UNL A   1      36.933  33.488  29.757  1.00  0.00     0.015 A 
ATOM     11  Br  UNL A   1      40.986  34.396  29.961  1.00  0.00    -0.051 Br
ATOM     12  C   UNL A   1      38.287  33.636  29.447  1.00  0.00     0.016 A 
BRANCH   7  13
ATOM     13  O   UNL A   1      36.884  34.858  33.159  1.00  0.00    -0.496 OA
ATOM     14  C   UNL A   1      37.440  34.000  34.156  1.00  0.00     0.278 C 
ENDBRANCH   7  13
ENDBRANCH   5   6
BRANCH   5  15
ATOM     15  N   UNL A   1      34.590  32.280  31.340  1.00  0.00    -0.342 N 
ATOM     16  H   UNL A   1      35.127  31.798  32.062  1.00  0.00     0.345 HD
ATOM     17  H   UNL A   1      34.792  31.863  30.430  1.00  0.00     0.345 HD
ATOM     18  H   UNL A   1      33.593  32.190  31.541  1.00  0.00     0.345 HD
ENDBRANCH   5  15
ENDBRANCH   3   5
ENDBRANCH   2   3
ENDBRANCH   1   2
BRANCH   1  19
ATOM     19  C   UNL A   1      33.759  32.489  27.588  1.00  0.00     0.275 C 
BRANCH  19  20
ATOM     20  O   UNL A   1      34.345  31.553  28.511  1.00  0.00    -0.458 OA
BRANCH  20  21
ATOM     21  C   UNL A   1      34.758  30.383  27.972  1.00  0.00     0.338 C 
ATOM     22  O   UNL A   1      34.199  29.711  27.121  1.00  0.00    -0.246 OA
BRANCH  21  23
ATOM     23  C   UNL A   1      36.106  30.065  28.466  1.00  0.00     0.060 A 
ATOM     24  C   UNL A   1      37.181  30.242  27.589  1.00  0.00     0.016 A 
ATOM     25  C   UNL A   1      36.307  29.531  29.739  1.00  0.00     0.016 A 
ATOM     26  C   UNL A   1      38.464  29.867  27.971  1.00  0.00     0.010 A 
ATOM     27  C   UNL A   1      37.595  29.155  30.123  1.00  0.00     0.010 A 
ATOM     28  C   UNL A   1      38.674  29.304  29.234  1.00  0.00    -0.014 A 
BRANCH  28  29
ATOM     29  C   UNL A   1      40.012  28.795  29.603  1.00  0.00     0.031 A 
ATOM     30  C   UNL A   1      40.881  29.612  30.512  1.00  0.00     0.074 A 
ATOM     31  C   UNL A   1      40.442  27.617  29.121  1.00  0.00     0.049 A 
ATOM     32  N   UNL A   1      42.135  29.438  30.836  1.00  0.00    -0.248 NA
ATOM     33  C   UNL A   1      40.251  30.787  31.136  1.00  0.00     0.031 C 
ATOM     34  C   UNL A   1      39.659  26.712  28.279  1.00  0.00     0.029 A 
ATOM     35  N   UNL A   1      41.653  26.988  29.259  1.00  0.00    -0.354 N 
ATOM     36  C   UNL A   1      42.455  30.494  31.678  1.00  0.00     0.074 A 
ATOM     37  C   UNL A   1      41.266  31.309  31.811  1.00  0.00     0.031 C 
ATOM     38  C   UNL A   1      40.417  25.650  27.960  1.00  0.00     0.029 A 
ATOM     39  C   UNL A   1      41.749  25.827  28.533  1.00  0.00     0.049 A 
ATOM     40  H   UNL A   1      42.381  27.335  29.823  1.00  0.00     0.167 HD
ATOM     41  C   UNL A   1      43.637  30.759  32.281  1.00  0.00     0.037 A 
ATOM     42  C   UNL A   1      42.807  25.023  28.321  1.00  0.00     0.037 A 
ATOM     43  C   UNL A   1      44.810  29.935  32.150  1.00  0.00     0.049 A 
ATOM     44  C   UNL A   1      44.127  25.370  28.952  1.00  0.00     0.074 A 
ATOM     45  C   UNL A   1      46.059  30.112  32.718  1.00  0.00     0.029 A 
ATOM     46  N   UNL A   1      44.872  28.771  31.399  1.00  0.00    -0.354 N 
ATOM     47  N   UNL A   1      44.431  26.384  29.727  1.00  0.00    -0.248 NA
ATOM     48  C   UNL A   1      45.253  24.469  28.673  1.00  0.00     0.031 C 
ATOM     49  C   UNL A   1      46.887  29.073  32.282  1.00  0.00     0.029 A 
ATOM     50  C   UNL A   1      46.142  28.227  31.476  1.00  0.00     0.049 A 
ATOM     51  H   UNL A   1      44.124  28.389  30.885  1.00  0.00     0.167 HD
ATOM     52  C   UNL A   1      45.773  26.228  30.050  1.00  0.00     0.074 A 
ATOM     53  C   UNL A   1      46.223  25.020  29.389  1.00  0.00     0.031 C 
ATOM     54  C   UNL A   1      46.561  27.013  30.823  1.00  0.00     0.037 A 
BRANCH  41  55
ATOM     55  C   UNL A   1      43.728  32.009  33.104  1.00  0.00     0.057 A 
ATOM     56  C   UNL A   1      43.494  32.006  34.484  1.00  0.00     0.134 A 
ATOM     57  C   UNL A   1      44.074  33.228  32.508  1.00  0.00     0.134 A 
ATOM     58  F   UNL A   1      43.142  30.875  35.112  1.00  0.00    -0.206 F 
ATOM     59  C   UNL A   1      43.584  33.177  35.241  1.00  0.00     0.040 A 
ATOM     60  C   UNL A   1      44.188  34.401  33.257  1.00  0.00     0.040 A 
ATOM     61  F   UNL A   1      44.310  33.298  31.189  1.00  0.00    -0.206 F 
ATOM     62  C   UNL A   1      43.937  34.378  34.627  1.00  0.00     0.006 A 
ENDBRANCH  41  55
BRANCH  42  63
ATOM     63  C   UNL A   1      42.668  23.831  27.450  1.00  0.00     0.057 A 
ATOM     64  C   UNL A   1      42.948  23.897  26.082  1.00  0.00     0.134 A 
ATOM     65  C   UNL A   1      42.252  22.597  27.966  1.00  0.00     0.134 A 
ATOM     66  F   UNL A   1      43.328  25.057  25.527  1.00  0.00    -0.206 F 
ATOM     67  C   UNL A   1      42.809  22.782  25.253  1.00  0.00     0.040 A 
ATOM     68  C   UNL A   1      42.133  21.468  27.155  1.00  0.00     0.040 A 
ATOM     69  F   UNL A   1      41.971  22.469  29.272  1.00  0.00    -0.206 F 
ATOM     70  C   UNL A   1      42.407  21.561  25.792  1.00  0.00     0.006 A 
ENDBRANCH  42  63
BRANCH  54  71
ATOM     71  C   UNL A   1      47.975  26.563  31.037  1.00  0.00     0.057 A 
ATOM     72  C   UNL A   1      48.338  25.760  32.122  1.00  0.00     0.134 A 
ATOM     73  C   UNL A   1      48.973  26.901  30.114  1.00  0.00     0.134 A 
ATOM     74  F   UNL A   1      47.429  25.414  33.047  1.00  0.00    -0.206 F 
ATOM     75  C   UNL A   1      49.651  25.318  32.293  1.00  0.00     0.040 A 
ATOM     76  C   UNL A   1      50.284  26.447  30.261  1.00  0.00     0.040 A 
ATOM     77  F   UNL A   1      48.686  27.663  29.048  1.00  0.00    -0.206 F 
ATOM     78  C   UNL A   1      50.626  25.656  31.355  1.00  0.00     0.006 A 
ENDBRANCH  54  71
ENDBRANCH  28  29
ENDBRANCH  21  23
ENDBRANCH  20  21
ENDBRANCH  19  20
ENDBRANCH   1  19
TORSDOF 14
ENDMDL
