MODEL 1
REMARK VINA RESULT:     -10.2      0.000      0.000
REMARK SMILES COc1ccc(S(=O)(=O)N2CCCC[C@@H]2C(=O)OCCOC(=O)c2ccc(-c3c4nc(c(-c5c(F)cccc5F)c5ccc([nH]5)c(-c5c(F)cccc5F)c5nc(c(-c6c(F)cccc6F)c6ccc3[nH]6)C=C5)C=C4)cc2)cc1C
REMARK SMILES IDX 19 1 18 2 16 3 17 4 15 5 10 6 11 7 12 8 14 9 13 10 7 11 8 12
REMARK SMILES IDX 9 13 6 14 3 15 4 16 79 17 5 18 78 19 80 20 2 21 1 22 20 23
REMARK SMILES IDX 21 24 22 25 23 26 24 27 25 28 77 29 26 30 76 31 27 32 28 33
REMARK SMILES IDX 29 34 70 35 30 36 75 37 69 38 71 39 31 40 74 41 68 42 67 43
REMARK SMILES IDX 32 45 58 46 41 47 57 48 42 49 45 50 56 51 72 52 43 53 44 54
REMARK SMILES IDX 55 56 73 57 46 58 33 59 34 60 39 61 35 62 36 63 38 64 40 65
REMARK SMILES IDX 37 66 59 67 60 68 65 69 61 70 62 71 64 72 66 73 63 74 47 75
REMARK SMILES IDX 48 76 53 77 49 78 50 79 52 80 54 81 51 82
REMARK H PARENT 71 44 45 55
REMARK Flexibility Score: inf
ROOT
ATOM      1  C   UNL A   1      38.801  30.981  34.090  1.00  0.00     0.274 C 
ENDROOT
BRANCH   1   2
ATOM      2  O   UNL A   1      37.656  30.465  33.397  1.00  0.00    -0.461 OA
BRANCH   2   3
ATOM      3  C   UNL A   1      37.766  29.240  32.787  1.00  0.00     0.324 C 
ATOM      4  O   UNL A   1      37.385  28.217  33.350  1.00  0.00    -0.250 OA
BRANCH   3   5
ATOM      5  C   UNL A   1      38.136  29.300  31.192  1.00  0.00     0.183 C 
ATOM      6  N   UNL A   1      37.387  30.714  29.963  1.00  0.00    -0.184 NA
ATOM      7  C   UNL A   1      37.642  30.574  28.144  1.00  0.00     0.103 C 
ATOM      8  C   UNL A   1      38.538  29.378  27.387  1.00  0.00     0.017 C 
ATOM      9  C   UNL A   1      39.235  27.825  29.924  1.00  0.00     0.032 C 
ATOM     10  C   UNL A   1      39.465  28.221  28.103  1.00  0.00     0.004 C 
BRANCH   6  11
ATOM     11  S   UNL A   1      36.352  32.075  30.132  1.00  0.00     0.243 S 
ATOM     12  O   UNL A   1      35.089  31.748  30.698  1.00  0.00    -0.207 OA
ATOM     13  O   UNL A   1      36.417  32.835  28.894  1.00  0.00    -0.207 OA
BRANCH  11  14
ATOM     14  C   UNL A   1      37.104  33.174  31.291  1.00  0.00     0.083 A 
ATOM     15  C   UNL A   1      38.231  34.645  33.340  1.00  0.00     0.121 A 
ATOM     16  C   UNL A   1      36.852  34.434  33.329  1.00  0.00     0.048 A 
ATOM     17  C   UNL A   1      39.050  34.163  32.308  1.00  0.00    -0.008 A 
ATOM     18  C   UNL A   1      36.281  33.725  32.281  1.00  0.00     0.025 A 
ATOM     19  C   UNL A   1      38.463  33.435  31.271  1.00  0.00     0.029 A 
ATOM     20  C   UNL A   1      40.529  34.382  32.267  1.00  0.00     0.048 C 
BRANCH  15  21
ATOM     21  O   UNL A   1      38.749  35.245  34.455  1.00  0.00    -0.496 OA
ATOM     22  C   UNL A   1      38.571  34.431  35.608  1.00  0.00     0.278 C 
ENDBRANCH  15  21
ENDBRANCH  11  14
ENDBRANCH   6  11
ENDBRANCH   3   5
ENDBRANCH   2   3
ENDBRANCH   1   2
BRANCH   1  23
ATOM     23  C   UNL A   1      38.869  30.566  35.573  1.00  0.00     0.275 C 
BRANCH  23  24
ATOM     24  O   UNL A   1      40.175  30.176  36.108  1.00  0.00    -0.458 OA
BRANCH  24  25
ATOM     25  C   UNL A   1      41.447  30.313  35.633  1.00  0.00     0.338 C 
ATOM     26  O   UNL A   1      41.950  31.415  35.452  1.00  0.00    -0.246 OA
BRANCH  25  27
ATOM     27  C   UNL A   1      42.179  29.129  35.118  1.00  0.00     0.060 A 
ATOM     28  C   UNL A   1      43.880  28.956  35.454  1.00  0.00     0.016 A 
ATOM     29  C   UNL A   1      41.365  28.175  33.974  1.00  0.00     0.016 A 
ATOM     30  C   UNL A   1      44.821  27.817  34.415  1.00  0.00     0.010 A 
ATOM     31  C   UNL A   1      42.118  27.178  32.859  1.00  0.00     0.010 A 
ATOM     32  C   UNL A   1      43.845  26.915  32.940  1.00  0.00    -0.014 A 
BRANCH  32  33
ATOM     33  C   UNL A   1      43.843  26.970  31.214  1.00  0.00     0.031 A 
ATOM     34  C   UNL A   1      44.144  25.711  30.493  1.00  0.00     0.074 A 
ATOM     35  C   UNL A   1      43.443  27.975  30.317  1.00  0.00     0.049 A 
ATOM     36  N   UNL A   1      44.620  25.670  29.286  1.00  0.00    -0.248 NA
ATOM     37  C   UNL A   1      44.006  24.404  31.110  1.00  0.00     0.031 C 
ATOM     38  C   UNL A   1      42.958  27.751  28.943  1.00  0.00     0.029 A 
ATOM     39  N   UNL A   1      43.371  29.399  30.357  1.00  0.00    -0.354 N 
ATOM     40  C   UNL A   1      44.485  24.376  28.867  1.00  0.00     0.074 A 
ATOM     41  C   UNL A   1      44.436  23.637  30.104  1.00  0.00     0.031 C 
ATOM     42  C   UNL A   1      42.989  28.887  28.234  1.00  0.00     0.029 A 
ATOM     43  C   UNL A   1      43.513  29.953  29.057  1.00  0.00     0.049 A 
ATOM     44  H   UNL A   1      43.239  29.928  31.177  1.00  0.00     0.167 HD
ATOM     45  C   UNL A   1      44.180  24.094  27.564  1.00  0.00     0.037 A 
ATOM     46  C   UNL A   1      44.237  31.049  28.649  1.00  0.00     0.037 A 
ATOM     47  C   UNL A   1      44.205  25.284  26.683  1.00  0.00     0.049 A 
ATOM     48  C   UNL A   1      45.161  30.667  27.499  1.00  0.00     0.074 A 
ATOM     49  C   UNL A   1      43.270  25.922  25.878  1.00  0.00     0.029 A 
ATOM     50  N   UNL A   1      45.325  26.109  26.650  1.00  0.00    -0.354 N 
ATOM     51  N   UNL A   1      44.944  29.659  26.699  1.00  0.00    -0.248 NA
ATOM     52  C   UNL A   1      46.474  31.272  27.252  1.00  0.00     0.031 C 
ATOM     53  C   UNL A   1      43.877  27.070  25.289  1.00  0.00     0.029 A 
ATOM     54  C   UNL A   1      45.184  27.142  25.732  1.00  0.00     0.049 A 
ATOM     55  H   UNL A   1      46.123  25.978  27.212  1.00  0.00     0.167 HD
ATOM     56  C   UNL A   1      46.130  29.296  26.107  1.00  0.00     0.074 A 
ATOM     57  C   UNL A   1      47.038  30.383  26.418  1.00  0.00     0.031 C 
ATOM     58  C   UNL A   1      46.298  28.069  25.522  1.00  0.00     0.037 A 
BRANCH  45  59
ATOM     59  C   UNL A   1      43.657  22.738  27.075  1.00  0.00     0.057 A 
ATOM     60  C   UNL A   1      44.340  22.035  26.059  1.00  0.00     0.134 A 
ATOM     61  C   UNL A   1      42.477  22.086  27.497  1.00  0.00     0.134 A 
ATOM     62  F   UNL A   1      45.488  22.486  25.536  1.00  0.00    -0.206 F 
ATOM     63  C   UNL A   1      43.879  20.825  25.510  1.00  0.00     0.040 A 
ATOM     64  C   UNL A   1      42.039  20.850  26.999  1.00  0.00     0.040 A 
ATOM     65  F   UNL A   1      41.622  22.605  28.377  1.00  0.00    -0.206 F 
ATOM     66  C   UNL A   1      42.731  20.219  25.988  1.00  0.00     0.006 A 
ENDBRANCH  45  59
BRANCH  46  67
ATOM     67  C   UNL A   1      44.480  32.153  29.637  1.00  0.00     0.057 A 
ATOM     68  C   UNL A   1      43.936  33.417  29.376  1.00  0.00     0.134 A 
ATOM     69  C   UNL A   1      45.025  31.997  30.915  1.00  0.00     0.134 A 
ATOM     70  F   UNL A   1      43.532  33.734  28.135  1.00  0.00    -0.206 F 
ATOM     71  C   UNL A   1      43.764  34.380  30.380  1.00  0.00     0.040 A 
ATOM     72  C   UNL A   1      44.764  32.891  31.959  1.00  0.00     0.040 A 
ATOM     73  F   UNL A   1      45.836  30.972  31.194  1.00  0.00    -0.206 F 
ATOM     74  C   UNL A   1      44.103  34.082  31.696  1.00  0.00     0.006 A 
ENDBRANCH  46  67
BRANCH  58  75
ATOM     75  C   UNL A   1      47.542  27.610  24.781  1.00  0.00     0.057 A 
ATOM     76  C   UNL A   1      48.674  27.064  25.410  1.00  0.00     0.134 A 
ATOM     77  C   UNL A   1      47.700  27.819  23.391  1.00  0.00     0.134 A 
ATOM     78  F   UNL A   1      48.752  26.959  26.744  1.00  0.00    -0.206 F 
ATOM     79  C   UNL A   1      49.817  26.658  24.702  1.00  0.00     0.040 A 
ATOM     80  C   UNL A   1      48.850  27.458  22.681  1.00  0.00     0.040 A 
ATOM     81  F   UNL A   1      46.755  28.400  22.642  1.00  0.00    -0.206 F 
ATOM     82  C   UNL A   1      49.908  26.852  23.332  1.00  0.00     0.006 A 
ENDBRANCH  58  75
ENDBRANCH  32  33
ENDBRANCH  25  27
ENDBRANCH  24  25
ENDBRANCH  23  24
ENDBRANCH   1  23
TORSDOF 14
ENDMDL
MODEL 2
REMARK VINA RESULT:     -10.1      4.311      9.570
REMARK SMILES COc1ccc(S(=O)(=O)N2CCCC[C@@H]2C(=O)OCCOC(=O)c2ccc(-c3c4nc(c(-c5c(F)cccc5F)c5ccc([nH]5)c(-c5c(F)cccc5F)c5nc(c(-c6c(F)cccc6F)c6ccc3[nH]6)C=C5)C=C4)cc2)cc1C
REMARK SMILES IDX 19 1 18 2 16 3 17 4 15 5 10 6 11 7 12 8 14 9 13 10 7 11 8 12
REMARK SMILES IDX 9 13 6 14 3 15 4 16 79 17 5 18 78 19 80 20 2 21 1 22 20 23
REMARK SMILES IDX 21 24 22 25 23 26 24 27 25 28 77 29 26 30 76 31 27 32 28 33
REMARK SMILES IDX 29 34 70 35 30 36 75 37 69 38 71 39 31 40 74 41 68 42 67 43
REMARK SMILES IDX 32 45 58 46 41 47 57 48 42 49 45 50 56 51 72 52 43 53 44 54
REMARK SMILES IDX 55 56 73 57 46 58 33 59 34 60 39 61 35 62 36 63 38 64 40 65
REMARK SMILES IDX 37 66 59 67 60 68 65 69 61 70 62 71 64 72 66 73 63 74 47 75
REMARK SMILES IDX 48 76 53 77 49 78 50 79 52 80 54 81 51 82
REMARK H PARENT 71 44 45 55
REMARK Flexibility Score: inf
ROOT
ATOM      1  C   UNL A   1      46.538  25.550  31.289  1.00  0.00     0.274 C 
ENDROOT
BRANCH   1   2
ATOM      2  O   UNL A   1      45.226  25.267  30.781  1.00  0.00    -0.461 OA
BRANCH   2   3
ATOM      3  C   UNL A   1      45.122  24.664  29.553  1.00  0.00     0.324 C 
ATOM      4  O   UNL A   1      44.777  23.489  29.453  1.00  0.00    -0.250 OA
BRANCH   3   5
ATOM      5  C   UNL A   1      45.187  25.690  28.278  1.00  0.00     0.183 C 
ATOM      6  N   UNL A   1      45.298  25.036  26.372  1.00  0.00    -0.184 NA
ATOM      7  C   UNL A   1      45.620  26.234  25.010  1.00  0.00     0.103 C 
ATOM      8  C   UNL A   1      45.763  27.892  25.201  1.00  0.00     0.017 C 
ATOM      9  C   UNL A   1      45.449  27.908  28.240  1.00  0.00     0.032 C 
ATOM     10  C   UNL A   1      45.494  28.766  26.570  1.00  0.00     0.004 C 
BRANCH   6  11
ATOM     11  S   UNL A   1      45.319  23.506  25.590  1.00  0.00     0.243 S 
ATOM     12  O   UNL A   1      46.372  22.664  26.043  1.00  0.00    -0.207 OA
ATOM     13  O   UNL A   1      45.136  23.735  24.166  1.00  0.00    -0.207 OA
BRANCH  11  14
ATOM     14  C   UNL A   1      43.833  22.661  26.033  1.00  0.00     0.083 A 
ATOM     15  C   UNL A   1      41.369  21.480  26.439  1.00  0.00     0.121 A 
ATOM     16  C   UNL A   1      41.509  22.854  26.635  1.00  0.00     0.048 A 
ATOM     17  C   UNL A   1      42.466  20.681  26.084  1.00  0.00    -0.008 A 
ATOM     18  C   UNL A   1      42.754  23.443  26.464  1.00  0.00     0.025 A 
ATOM     19  C   UNL A   1      43.707  21.290  25.897  1.00  0.00     0.029 A 
ATOM     20  C   UNL A   1      42.368  19.201  25.884  1.00  0.00     0.048 C 
BRANCH  15  21
ATOM     21  O   UNL A   1      40.098  20.979  26.506  1.00  0.00    -0.496 OA
ATOM     22  C   UNL A   1      39.139  21.952  26.104  1.00  0.00     0.278 C 
ENDBRANCH  15  21
ENDBRANCH  11  14
ENDBRANCH   6  11
ENDBRANCH   3   5
ENDBRANCH   2   3
ENDBRANCH   1   2
BRANCH   1  23
ATOM     23  C   UNL A   1      46.538  26.441  32.547  1.00  0.00     0.275 C 
BRANCH  23  24
ATOM     24  O   UNL A   1      47.264  25.953  33.721  1.00  0.00    -0.458 OA
BRANCH  24  25
ATOM     25  C   UNL A   1      47.056  26.092  35.063  1.00  0.00     0.338 C 
ATOM     26  O   UNL A   1      47.911  25.776  35.881  1.00  0.00    -0.246 OA
BRANCH  25  27
ATOM     27  C   UNL A   1      45.703  26.425  35.574  1.00  0.00     0.060 A 
ATOM     28  C   UNL A   1      44.541  25.150  35.825  1.00  0.00     0.016 A 
ATOM     29  C   UNL A   1      45.283  28.069  35.592  1.00  0.00     0.016 A 
ATOM     30  C   UNL A   1      42.802  25.624  35.948  1.00  0.00     0.010 A 
ATOM     31  C   UNL A   1      43.713  28.650  35.568  1.00  0.00     0.010 A 
ATOM     32  C   UNL A   1      42.365  27.546  35.718  1.00  0.00    -0.014 A 
BRANCH  32  33
ATOM     33  C   UNL A   1      41.554  28.521  34.546  1.00  0.00     0.031 A 
ATOM     34  C   UNL A   1      41.964  28.366  33.131  1.00  0.00     0.074 A 
ATOM     35  C   UNL A   1      40.428  29.355  34.650  1.00  0.00     0.049 A 
ATOM     36  N   UNL A   1      41.810  29.289  32.231  1.00  0.00    -0.248 NA
ATOM     37  C   UNL A   1      42.654  27.185  32.641  1.00  0.00     0.031 C 
ATOM     38  C   UNL A   1      39.504  29.685  33.549  1.00  0.00     0.029 A 
ATOM     39  N   UNL A   1      39.825  30.117  35.693  1.00  0.00    -0.354 N 
ATOM     40  C   UNL A   1      42.024  28.684  31.024  1.00  0.00     0.074 A 
ATOM     41  C   UNL A   1      42.842  27.549  31.369  1.00  0.00     0.031 C 
ATOM     42  C   UNL A   1      38.754  30.751  33.858  1.00  0.00     0.029 A 
ATOM     43  C   UNL A   1      39.125  31.236  35.168  1.00  0.00     0.049 A 
ATOM     44  H   UNL A   1      39.884  29.897  36.650  1.00  0.00     0.167 HD
ATOM     45  C   UNL A   1      41.298  29.050  29.924  1.00  0.00     0.037 A 
ATOM     46  C   UNL A   1      39.081  32.532  35.625  1.00  0.00     0.037 A 
ATOM     47  C   UNL A   1      40.445  30.239  30.150  1.00  0.00     0.049 A 
ATOM     48  C   UNL A   1      39.444  33.496  34.502  1.00  0.00     0.074 A 
ATOM     49  C   UNL A   1      39.080  30.486  30.083  1.00  0.00     0.029 A 
ATOM     50  N   UNL A   1      40.995  31.411  30.660  1.00  0.00    -0.354 N 
ATOM     51  N   UNL A   1      39.306  33.218  33.235  1.00  0.00    -0.248 NA
ATOM     52  C   UNL A   1      40.138  34.774  34.696  1.00  0.00     0.031 C 
ATOM     53  C   UNL A   1      38.840  31.842  30.456  1.00  0.00     0.029 A 
ATOM     54  C   UNL A   1      40.055  32.428  30.755  1.00  0.00     0.049 A 
ATOM     55  H   UNL A   1      41.939  31.508  30.922  1.00  0.00     0.167 HD
ATOM     56  C   UNL A   1      40.126  34.045  32.504  1.00  0.00     0.074 A 
ATOM     57  C   UNL A   1      40.559  35.053  33.451  1.00  0.00     0.031 C 
ATOM     58  C   UNL A   1      40.479  33.753  31.214  1.00  0.00     0.037 A 
BRANCH  45  59
ATOM     59  C   UNL A   1      41.196  28.215  28.642  1.00  0.00     0.057 A 
ATOM     60  C   UNL A   1      41.824  28.650  27.455  1.00  0.00     0.134 A 
ATOM     61  C   UNL A   1      40.465  27.018  28.470  1.00  0.00     0.134 A 
ATOM     62  F   UNL A   1      42.574  29.760  27.418  1.00  0.00    -0.206 F 
ATOM     63  C   UNL A   1      41.712  27.976  26.226  1.00  0.00     0.040 A 
ATOM     64  C   UNL A   1      40.394  26.305  27.264  1.00  0.00     0.040 A 
ATOM     65  F   UNL A   1      39.716  26.468  29.424  1.00  0.00    -0.206 F 
ATOM     66  C   UNL A   1      41.005  26.790  26.128  1.00  0.00     0.006 A 
ENDBRANCH  45  59
BRANCH  46  67
ATOM     67  C   UNL A   1      39.287  32.780  37.091  1.00  0.00     0.057 A 
ATOM     68  C   UNL A   1      40.596  32.909  37.572  1.00  0.00     0.134 A 
ATOM     69  C   UNL A   1      38.286  33.111  38.009  1.00  0.00     0.134 A 
ATOM     70  F   UNL A   1      41.630  32.468  36.837  1.00  0.00    -0.206 F 
ATOM     71  C   UNL A   1      40.887  33.518  38.801  1.00  0.00     0.040 A 
ATOM     72  C   UNL A   1      38.549  33.822  39.186  1.00  0.00     0.040 A 
ATOM     73  F   UNL A   1      37.017  32.749  37.800  1.00  0.00    -0.206 F 
ATOM     74  C   UNL A   1      39.860  34.053  39.573  1.00  0.00     0.006 A 
ENDBRANCH  46  67
BRANCH  58  75
ATOM     75  C   UNL A   1      41.314  34.641  30.307  1.00  0.00     0.057 A 
ATOM     76  C   UNL A   1      40.833  35.234  29.128  1.00  0.00     0.134 A 
ATOM     77  C   UNL A   1      42.698  34.837  30.528  1.00  0.00     0.134 A 
ATOM     78  F   UNL A   1      39.588  35.005  28.687  1.00  0.00    -0.206 F 
ATOM     79  C   UNL A   1      41.630  36.043  28.301  1.00  0.00     0.040 A 
ATOM     80  C   UNL A   1      43.513  35.605  29.689  1.00  0.00     0.040 A 
ATOM     81  F   UNL A   1      43.345  34.281  31.560  1.00  0.00    -0.206 F 
ATOM     82  C   UNL A   1      42.976  36.233  28.581  1.00  0.00     0.006 A 
ENDBRANCH  58  75
ENDBRANCH  32  33
ENDBRANCH  25  27
ENDBRANCH  24  25
ENDBRANCH  23  24
ENDBRANCH   1  23
TORSDOF 14
ENDMDL
MODEL 3
REMARK VINA RESULT:     -10.1      7.146     11.612
REMARK SMILES COc1ccc(S(=O)(=O)N2CCCC[C@@H]2C(=O)OCCOC(=O)c2ccc(-c3c4nc(c(-c5c(F)cccc5F)c5ccc([nH]5)c(-c5c(F)cccc5F)c5nc(c(-c6c(F)cccc6F)c6ccc3[nH]6)C=C5)C=C4)cc2)cc1C
REMARK SMILES IDX 19 1 18 2 16 3 17 4 15 5 10 6 11 7 12 8 14 9 13 10 7 11 8 12
REMARK SMILES IDX 9 13 6 14 3 15 4 16 79 17 5 18 78 19 80 20 2 21 1 22 20 23
REMARK SMILES IDX 21 24 22 25 23 26 24 27 25 28 77 29 26 30 76 31 27 32 28 33
REMARK SMILES IDX 29 34 70 35 30 36 75 37 69 38 71 39 31 40 74 41 68 42 67 43
REMARK SMILES IDX 32 45 58 46 41 47 57 48 42 49 45 50 56 51 72 52 43 53 44 54
REMARK SMILES IDX 55 56 73 57 46 58 33 59 34 60 39 61 35 62 36 63 38 64 40 65
REMARK SMILES IDX 37 66 59 67 60 68 65 69 61 70 62 71 64 72 66 73 63 74 47 75
REMARK SMILES IDX 48 76 53 77 49 78 50 79 52 80 54 81 51 82
REMARK H PARENT 71 44 45 55
REMARK Flexibility Score: inf
ROOT
ATOM      1  C   UNL A   1      47.849  20.819  34.798  1.00  0.00     0.274 C 
ENDROOT
BRANCH   1   2
ATOM      2  O   UNL A   1      46.825  19.817  34.718  1.00  0.00    -0.461 OA
BRANCH   2   3
ATOM      3  C   UNL A   1      45.979  19.669  35.788  1.00  0.00     0.324 C 
ATOM      4  O   UNL A   1      45.501  18.572  36.068  1.00  0.00    -0.250 OA
BRANCH   3   5
ATOM      5  C   UNL A   1      45.917  20.958  36.797  1.00  0.00     0.183 C 
ATOM      6  N   UNL A   1      46.611  20.878  38.690  1.00  0.00    -0.184 NA
ATOM      7  C   UNL A   1      46.284  22.277  39.844  1.00  0.00     0.103 C 
ATOM      8  C   UNL A   1      45.499  23.699  39.434  1.00  0.00     0.017 C 
ATOM      9  C   UNL A   1      44.889  22.925  36.543  1.00  0.00     0.032 C 
ATOM     10  C   UNL A   1      45.021  24.179  37.934  1.00  0.00     0.004 C 
BRANCH   6  11
ATOM     11  S   UNL A   1      47.376  19.699  39.678  1.00  0.00     0.243 S 
ATOM     12  O   UNL A   1      47.844  20.226  40.913  1.00  0.00    -0.207 OA
ATOM     13  O   UNL A   1      48.273  18.929  38.832  1.00  0.00    -0.207 OA
BRANCH  11  14
ATOM     14  C   UNL A   1      46.154  18.503  40.122  1.00  0.00     0.083 A 
ATOM     15  C   UNL A   1      44.023  16.900  40.844  1.00  0.00     0.121 A 
ATOM     16  C   UNL A   1      44.611  17.728  41.800  1.00  0.00     0.048 A 
ATOM     17  C   UNL A   1      44.522  16.834  39.534  1.00  0.00    -0.008 A 
ATOM     18  C   UNL A   1      45.703  18.508  41.447  1.00  0.00     0.025 A 
ATOM     19  C   UNL A   1      45.609  17.638  39.189  1.00  0.00     0.029 A 
ATOM     20  C   UNL A   1      43.938  15.947  38.480  1.00  0.00     0.048 C 
BRANCH  15  21
ATOM     21  O   UNL A   1      42.881  16.248  41.217  1.00  0.00    -0.496 OA
ATOM     22  C   UNL A   1      43.102  15.443  42.370  1.00  0.00     0.278 C 
ENDBRANCH  15  21
ENDBRANCH  11  14
ENDBRANCH   6  11
ENDBRANCH   3   5
ENDBRANCH   2   3
ENDBRANCH   1   2
BRANCH   1  23
ATOM     23  C   UNL A   1      49.183  20.398  34.149  1.00  0.00     0.275 C 
BRANCH  23  24
ATOM     24  O   UNL A   1      50.416  20.712  34.872  1.00  0.00    -0.458 OA
BRANCH  24  25
ATOM     25  C   UNL A   1      51.581  21.318  34.497  1.00  0.00     0.338 C 
ATOM     26  O   UNL A   1      52.668  20.782  34.673  1.00  0.00    -0.246 OA
BRANCH  25  27
ATOM     27  C   UNL A   1      51.574  22.738  34.066  1.00  0.00     0.060 A 
ATOM     28  C   UNL A   1      51.789  23.997  35.252  1.00  0.00     0.016 A 
ATOM     29  C   UNL A   1      51.054  23.046  32.481  1.00  0.00     0.016 A 
ATOM     30  C   UNL A   1      51.277  25.667  34.793  1.00  0.00     0.010 A 
ATOM     31  C   UNL A   1      50.428  24.507  31.953  1.00  0.00     0.010 A 
ATOM     32  C   UNL A   1      50.452  25.905  33.002  1.00  0.00    -0.014 A 
BRANCH  32  33
ATOM     33  C   UNL A   1      48.889  26.288  32.377  1.00  0.00     0.031 A 
ATOM     34  C   UNL A   1      47.715  25.755  33.108  1.00  0.00     0.074 A 
ATOM     35  C   UNL A   1      48.485  27.169  31.361  1.00  0.00     0.049 A 
ATOM     36  N   UNL A   1      46.556  25.555  32.560  1.00  0.00    -0.248 NA
ATOM     37  C   UNL A   1      47.784  25.331  34.495  1.00  0.00     0.031 C 
ATOM     38  C   UNL A   1      47.171  27.833  31.277  1.00  0.00     0.029 A 
ATOM     39  N   UNL A   1      49.080  27.687  30.173  1.00  0.00    -0.354 N 
ATOM     40  C   UNL A   1      45.678  25.351  33.587  1.00  0.00     0.074 A 
ATOM     41  C   UNL A   1      46.529  24.898  34.658  1.00  0.00     0.031 C 
ATOM     42  C   UNL A   1      46.960  28.321  30.047  1.00  0.00     0.029 A 
ATOM     43  C   UNL A   1      48.091  28.008  29.205  1.00  0.00     0.049 A 
ATOM     44  H   UNL A   1      50.048  27.807  30.041  1.00  0.00     0.167 HD
ATOM     45  C   UNL A   1      44.394  25.815  33.509  1.00  0.00     0.037 A 
ATOM     46  C   UNL A   1      48.090  27.780  27.849  1.00  0.00     0.037 A 
ATOM     47  C   UNL A   1      44.045  26.361  32.177  1.00  0.00     0.049 A 
ATOM     48  C   UNL A   1      46.817  27.045  27.444  1.00  0.00     0.074 A 
ATOM     49  C   UNL A   1      43.622  27.599  31.711  1.00  0.00     0.029 A 
ATOM     50  N   UNL A   1      44.254  25.600  31.030  1.00  0.00    -0.354 N 
ATOM     51  N   UNL A   1      45.706  27.088  28.127  1.00  0.00    -0.248 NA
ATOM     52  C   UNL A   1      46.730  26.081  26.342  1.00  0.00     0.031 C 
ATOM     53  C   UNL A   1      43.483  27.532  30.293  1.00  0.00     0.029 A 
ATOM     54  C   UNL A   1      43.822  26.257  29.885  1.00  0.00     0.049 A 
ATOM     55  H   UNL A   1      44.660  24.703  31.031  1.00  0.00     0.167 HD
ATOM     56  C   UNL A   1      44.935  26.000  27.794  1.00  0.00     0.074 A 
ATOM     57  C   UNL A   1      45.576  25.448  26.617  1.00  0.00     0.031 C 
ATOM     58  C   UNL A   1      43.909  25.573  28.593  1.00  0.00     0.037 A 
BRANCH  45  59
ATOM     59  C   UNL A   1      43.455  25.963  34.713  1.00  0.00     0.057 A 
ATOM     60  C   UNL A   1      43.522  27.110  35.533  1.00  0.00     0.134 A 
ATOM     61  C   UNL A   1      42.511  25.016  35.167  1.00  0.00     0.134 A 
ATOM     62  F   UNL A   1      44.350  28.128  35.259  1.00  0.00    -0.206 F 
ATOM     63  C   UNL A   1      42.745  27.280  36.693  1.00  0.00     0.040 A 
ATOM     64  C   UNL A   1      41.689  25.200  36.289  1.00  0.00     0.040 A 
ATOM     65  F   UNL A   1      42.339  23.819  34.609  1.00  0.00    -0.206 F 
ATOM     66  C   UNL A   1      41.814  26.329  37.070  1.00  0.00     0.006 A 
ENDBRANCH  45  59
BRANCH  46  67
ATOM     67  C   UNL A   1      49.408  27.704  27.135  1.00  0.00     0.057 A 
ATOM     68  C   UNL A   1      50.048  26.462  27.039  1.00  0.00     0.134 A 
ATOM     69  C   UNL A   1      49.973  28.722  26.361  1.00  0.00     0.134 A 
ATOM     70  F   UNL A   1      49.695  25.457  27.856  1.00  0.00    -0.206 F 
ATOM     71  C   UNL A   1      51.045  26.205  26.086  1.00  0.00     0.040 A 
ATOM     72  C   UNL A   1      50.883  28.465  25.328  1.00  0.00     0.040 A 
ATOM     73  F   UNL A   1      49.668  30.003  26.584  1.00  0.00    -0.206 F 
ATOM     74  C   UNL A   1      51.403  27.189  25.171  1.00  0.00     0.006 A 
ENDBRANCH  46  67
BRANCH  58  75
ATOM     75  C   UNL A   1      42.959  24.431  28.271  1.00  0.00     0.057 A 
ATOM     76  C   UNL A   1      41.592  24.602  27.996  1.00  0.00     0.134 A 
ATOM     77  C   UNL A   1      43.367  23.079  28.348  1.00  0.00     0.134 A 
ATOM     78  F   UNL A   1      41.010  25.808  28.054  1.00  0.00    -0.206 F 
ATOM     79  C   UNL A   1      40.732  23.528  27.711  1.00  0.00     0.040 A 
ATOM     80  C   UNL A   1      42.511  21.998  28.109  1.00  0.00     0.040 A 
ATOM     81  F   UNL A   1      44.616  22.725  28.675  1.00  0.00    -0.206 F 
ATOM     82  C   UNL A   1      41.190  22.220  27.764  1.00  0.00     0.006 A 
ENDBRANCH  58  75
ENDBRANCH  32  33
ENDBRANCH  25  27
ENDBRANCH  24  25
ENDBRANCH  23  24
ENDBRANCH   1  23
TORSDOF 14
ENDMDL
