MODEL 1
REMARK VINA RESULT:      -9.6      0.000      0.000
REMARK SMILES Cc1ccc(C)n1-c1ccccc1S[C@H](C)C(=O)OCCOC(=O)c1ccc(-c2c3nc(c(-c4c(F)cccc4F)c4ccc([nH]4)c(-c4c(F)cccc4F)c4nc(c(-c5c(F)cccc5F)c5ccc2[nH]5)C=C4)C=C3)cc1
REMARK SMILES IDX 20 1 19 2 17 3 18 4 15 5 16 6 14 7 13 8 8 9 9 10 10 11 12 12
REMARK SMILES IDX 11 13 7 14 1 15 2 16 3 17 4 18 5 19 6 20 21 21 22 22 23 23
REMARK SMILES IDX 24 24 25 25 26 26 78 27 27 28 77 29 28 30 29 31 30 32 71 33
REMARK SMILES IDX 31 34 76 35 70 36 72 37 32 38 75 39 69 40 68 41 33 43 59 44
REMARK SMILES IDX 42 45 58 46 43 47 46 48 57 49 73 50 44 51 45 52 56 54 74 55
REMARK SMILES IDX 47 56 34 57 35 58 40 59 36 60 37 61 39 62 41 63 38 64 60 65
REMARK SMILES IDX 61 66 66 67 62 68 63 69 65 70 67 71 64 72 48 73 49 74 54 75
REMARK SMILES IDX 50 76 51 77 53 78 55 79 52 80
REMARK H PARENT 72 42 46 53
REMARK Flexibility Score: inf
ROOT
ATOM      1  C   UNL A   1      33.973  34.952  29.325  1.00  0.00     0.274 C 
ENDROOT
BRANCH   1   2
ATOM      2  O   UNL A   1      33.311  34.645  30.591  1.00  0.00    -0.461 OA
BRANCH   2   3
ATOM      3  C   UNL A   1      34.111  34.138  31.580  1.00  0.00     0.319 C 
ATOM      4  O   UNL A   1      34.132  32.968  31.891  1.00  0.00    -0.251 OA
BRANCH   3   5
ATOM      5  C   UNL A   1      34.949  35.210  32.311  1.00  0.00     0.158 C 
ATOM      6  C   UNL A   1      34.196  36.222  33.163  1.00  0.00     0.032 C 
BRANCH   5   7
ATOM      7  S   UNL A   1      36.478  34.393  32.995  1.00  0.00    -0.109 SA
BRANCH   7   8
ATOM      8  C   UNL A   1      37.483  33.735  31.660  1.00  0.00     0.032 A 
ATOM      9  C   UNL A   1      38.643  32.959  31.923  1.00  0.00     0.059 A 
ATOM     10  C   UNL A   1      39.534  32.595  30.895  1.00  0.00     0.028 A 
ATOM     11  C   UNL A   1      39.282  32.991  29.586  1.00  0.00     0.002 A 
ATOM     12  C   UNL A   1      37.284  34.143  30.335  1.00  0.00     0.017 A 
ATOM     13  C   UNL A   1      38.157  33.760  29.307  1.00  0.00     0.001 A 
BRANCH   9  14
ATOM     14  N   UNL A   1      39.029  32.613  33.247  1.00  0.00    -0.317 N 
ATOM     15  C   UNL A   1      40.431  34.682  33.747  1.00  0.00     0.065 C 
ATOM     16  C   UNL A   1      39.862  33.349  34.082  1.00  0.00     0.020 A 
ATOM     17  C   UNL A   1      40.005  32.647  35.265  1.00  0.00     0.023 A 
ATOM     18  C   UNL A   1      39.186  31.505  35.191  1.00  0.00     0.023 A 
ATOM     19  C   UNL A   1      38.559  31.512  33.960  1.00  0.00     0.020 A 
ATOM     20  C   UNL A   1      37.612  30.492  33.426  1.00  0.00     0.065 C 
ENDBRANCH   9  14
ENDBRANCH   7   8
ENDBRANCH   5   7
ENDBRANCH   3   5
ENDBRANCH   2   3
ENDBRANCH   1   2
BRANCH   1  21
ATOM     21  C   UNL A   1      33.657  33.909  28.216  1.00  0.00     0.275 C 
BRANCH  21  22
ATOM     22  O   UNL A   1      34.757  33.062  27.700  1.00  0.00    -0.458 OA
BRANCH  22  23
ATOM     23  C   UNL A   1      34.714  31.719  27.993  1.00  0.00     0.338 C 
ATOM     24  O   UNL A   1      33.702  31.040  27.841  1.00  0.00    -0.246 OA
BRANCH  23  25
ATOM     25  C   UNL A   1      36.015  31.075  28.511  1.00  0.00     0.060 A 
ATOM     26  C   UNL A   1      36.993  30.711  27.601  1.00  0.00     0.016 A 
ATOM     27  C   UNL A   1      36.222  30.549  29.811  1.00  0.00     0.016 A 
ATOM     28  C   UNL A   1      38.134  29.918  27.995  1.00  0.00     0.010 A 
ATOM     29  C   UNL A   1      37.366  29.668  30.188  1.00  0.00     0.010 A 
ATOM     30  C   UNL A   1      38.380  29.297  29.287  1.00  0.00    -0.014 A 
BRANCH  30  31
ATOM     31  C   UNL A   1      39.510  28.053  29.340  1.00  0.00     0.031 A 
ATOM     32  C   UNL A   1      40.186  28.326  30.638  1.00  0.00     0.074 A 
ATOM     33  C   UNL A   1      40.160  26.994  28.658  1.00  0.00     0.049 A 
ATOM     34  N   UNL A   1      40.732  29.494  30.831  1.00  0.00    -0.248 NA
ATOM     35  C   UNL A   1      39.950  27.551  31.856  1.00  0.00     0.031 C 
ATOM     36  C   UNL A   1      40.008  26.564  27.255  1.00  0.00     0.029 A 
ATOM     37  N   UNL A   1      41.163  26.014  29.068  1.00  0.00    -0.354 N 
ATOM     38  C   UNL A   1      41.204  29.484  32.114  1.00  0.00     0.074 A 
ATOM     39  C   UNL A   1      40.489  28.386  32.753  1.00  0.00     0.031 C 
ATOM     40  C   UNL A   1      40.705  25.417  26.974  1.00  0.00     0.029 A 
ATOM     41  C   UNL A   1      41.477  24.943  28.127  1.00  0.00     0.049 A 
ATOM     42  H   UNL A   1      41.610  26.074  29.943  1.00  0.00     0.167 HD
ATOM     43  C   UNL A   1      42.506  29.861  32.252  1.00  0.00     0.037 A 
ATOM     44  C   UNL A   1      42.336  23.829  28.199  1.00  0.00     0.037 A 
ATOM     45  C   UNL A   1      43.370  28.737  32.476  1.00  0.00     0.049 A 
ATOM     46  C   UNL A   1      43.402  24.177  29.143  1.00  0.00     0.074 A 
ATOM     47  C   UNL A   1      43.249  27.587  33.232  1.00  0.00     0.029 A 
ATOM     48  N   UNL A   1      44.323  28.481  31.516  1.00  0.00    -0.354 N 
ATOM     49  N   UNL A   1      44.387  24.931  28.766  1.00  0.00    -0.248 NA
ATOM     50  C   UNL A   1      43.556  23.562  30.457  1.00  0.00     0.031 C 
ATOM     51  C   UNL A   1      43.713  26.558  32.388  1.00  0.00     0.029 A 
ATOM     52  C   UNL A   1      44.430  27.122  31.341  1.00  0.00     0.049 A 
ATOM     53  H   UNL A   1      44.844  29.162  31.033  1.00  0.00     0.167 HD
ATOM     54  C   UNL A   1      44.969  25.294  29.931  1.00  0.00     0.074 A 
ATOM     55  C   UNL A   1      44.632  24.238  30.869  1.00  0.00     0.031 C 
ATOM     56  C   UNL A   1      45.020  26.632  30.122  1.00  0.00     0.037 A 
BRANCH  43  57
ATOM     57  C   UNL A   1      42.862  31.056  31.408  1.00  0.00     0.057 A 
ATOM     58  C   UNL A   1      42.952  32.311  32.008  1.00  0.00     0.134 A 
ATOM     59  C   UNL A   1      42.929  31.013  30.000  1.00  0.00     0.134 A 
ATOM     60  F   UNL A   1      42.948  32.424  33.344  1.00  0.00    -0.206 F 
ATOM     61  C   UNL A   1      43.029  33.478  31.243  1.00  0.00     0.040 A 
ATOM     62  C   UNL A   1      42.944  32.172  29.226  1.00  0.00     0.040 A 
ATOM     63  F   UNL A   1      42.949  29.838  29.347  1.00  0.00    -0.206 F 
ATOM     64  C   UNL A   1      42.983  33.412  29.850  1.00  0.00     0.006 A 
ENDBRANCH  43  57
BRANCH  44  65
ATOM     65  C   UNL A   1      42.791  22.463  27.532  1.00  0.00     0.057 A 
ATOM     66  C   UNL A   1      41.958  21.281  27.566  1.00  0.00     0.134 A 
ATOM     67  C   UNL A   1      43.744  22.397  26.508  1.00  0.00     0.134 A 
ATOM     68  F   UNL A   1      41.023  21.100  28.509  1.00  0.00    -0.206 F 
ATOM     69  C   UNL A   1      41.977  20.239  26.613  1.00  0.00     0.040 A 
ATOM     70  C   UNL A   1      43.805  21.320  25.568  1.00  0.00     0.040 A 
ATOM     71  F   UNL A   1      44.601  23.408  26.321  1.00  0.00    -0.206 F 
ATOM     72  C   UNL A   1      42.897  20.262  25.589  1.00  0.00     0.006 A 
ENDBRANCH  44  65
BRANCH  56  73
ATOM     73  C   UNL A   1      45.472  27.479  28.940  1.00  0.00     0.057 A 
ATOM     74  C   UNL A   1      44.719  27.839  27.796  1.00  0.00     0.134 A 
ATOM     75  C   UNL A   1      46.809  27.891  28.927  1.00  0.00     0.134 A 
ATOM     76  F   UNL A   1      43.398  27.633  27.699  1.00  0.00    -0.206 F 
ATOM     77  C   UNL A   1      45.296  28.471  26.685  1.00  0.00     0.040 A 
ATOM     78  C   UNL A   1      47.379  28.578  27.850  1.00  0.00     0.040 A 
ATOM     79  F   UNL A   1      47.597  27.643  29.985  1.00  0.00    -0.206 F 
ATOM     80  C   UNL A   1      46.631  28.843  26.710  1.00  0.00     0.006 A 
ENDBRANCH  56  73
ENDBRANCH  30  31
ENDBRANCH  23  25
ENDBRANCH  22  23
ENDBRANCH  21  22
ENDBRANCH   1  21
TORSDOF 14
ENDMDL
MODEL 2
REMARK VINA RESULT:      -9.0      5.183     10.673
REMARK SMILES Cc1ccc(C)n1-c1ccccc1S[C@H](C)C(=O)OCCOC(=O)c1ccc(-c2c3nc(c(-c4c(F)cccc4F)c4ccc([nH]4)c(-c4c(F)cccc4F)c4nc(c(-c5c(F)cccc5F)c5ccc2[nH]5)C=C4)C=C3)cc1
REMARK SMILES IDX 20 1 19 2 17 3 18 4 15 5 16 6 14 7 13 8 8 9 9 10 10 11 12 12
REMARK SMILES IDX 11 13 7 14 1 15 2 16 3 17 4 18 5 19 6 20 21 21 22 22 23 23
REMARK SMILES IDX 24 24 25 25 26 26 78 27 27 28 77 29 28 30 29 31 30 32 71 33
REMARK SMILES IDX 31 34 76 35 70 36 72 37 32 38 75 39 69 40 68 41 33 43 59 44
REMARK SMILES IDX 42 45 58 46 43 47 46 48 57 49 73 50 44 51 45 52 56 54 74 55
REMARK SMILES IDX 47 56 34 57 35 58 40 59 36 60 37 61 39 62 41 63 38 64 60 65
REMARK SMILES IDX 61 66 66 67 62 68 63 69 65 70 67 71 64 72 48 73 49 74 54 75
REMARK SMILES IDX 50 76 51 77 53 78 55 79 52 80
REMARK H PARENT 72 42 46 53
REMARK Flexibility Score: inf
ROOT
ATOM      1  C   UNL A   1      38.022  22.162  25.401  1.00  0.00     0.274 C 
ENDROOT
BRANCH   1   2
ATOM      2  O   UNL A   1      36.708  21.548  25.583  1.00  0.00    -0.461 OA
BRANCH   2   3
ATOM      3  C   UNL A   1      35.653  22.413  25.709  1.00  0.00     0.319 C 
ATOM      4  O   UNL A   1      34.799  22.307  26.560  1.00  0.00    -0.251 OA
BRANCH   3   5
ATOM      5  C   UNL A   1      35.617  23.510  24.622  1.00  0.00     0.158 C 
ATOM      6  C   UNL A   1      35.542  23.054  23.173  1.00  0.00     0.032 C 
BRANCH   5   7
ATOM      7  S   UNL A   1      34.502  24.882  25.212  1.00  0.00    -0.109 SA
BRANCH   7   8
ATOM      8  C   UNL A   1      33.415  25.415  23.886  1.00  0.00     0.032 A 
ATOM      9  C   UNL A   1      32.067  24.973  23.813  1.00  0.00     0.059 A 
ATOM     10  C   UNL A   1      31.266  25.237  22.686  1.00  0.00     0.028 A 
ATOM     11  C   UNL A   1      31.788  25.952  21.614  1.00  0.00     0.002 A 
ATOM     12  C   UNL A   1      33.914  26.102  22.773  1.00  0.00     0.017 A 
ATOM     13  C   UNL A   1      33.109  26.387  21.660  1.00  0.00     0.001 A 
BRANCH   9  14
ATOM     14  N   UNL A   1      31.497  24.141  24.816  1.00  0.00    -0.317 N 
ATOM     15  C   UNL A   1      30.333  25.970  26.157  1.00  0.00     0.065 C 
ATOM     16  C   UNL A   1      30.741  24.561  25.905  1.00  0.00     0.020 A 
ATOM     17  C   UNL A   1      30.410  23.444  26.648  1.00  0.00     0.023 A 
ATOM     18  C   UNL A   1      30.897  22.313  25.967  1.00  0.00     0.023 A 
ATOM     19  C   UNL A   1      31.531  22.749  24.820  1.00  0.00     0.020 A 
ATOM     20  C   UNL A   1      32.217  21.910  23.796  1.00  0.00     0.065 C 
ENDBRANCH   9  14
ENDBRANCH   7   8
ENDBRANCH   5   7
ENDBRANCH   3   5
ENDBRANCH   2   3
ENDBRANCH   1   2
BRANCH   1  21
ATOM     21  C   UNL A   1      39.184  21.234  25.851  1.00  0.00     0.275 C 
BRANCH  21  22
ATOM     22  O   UNL A   1      40.010  21.639  27.012  1.00  0.00    -0.458 OA
BRANCH  22  23
ATOM     23  C   UNL A   1      40.978  22.593  26.800  1.00  0.00     0.338 C 
ATOM     24  O   UNL A   1      41.894  22.441  25.997  1.00  0.00    -0.246 OA
BRANCH  23  25
ATOM     25  C   UNL A   1      40.859  23.901  27.609  1.00  0.00     0.060 A 
ATOM     26  C   UNL A   1      39.606  24.327  28.015  1.00  0.00     0.016 A 
ATOM     27  C   UNL A   1      41.871  24.882  27.756  1.00  0.00     0.016 A 
ATOM     28  C   UNL A   1      39.403  25.638  28.587  1.00  0.00     0.010 A 
ATOM     29  C   UNL A   1      41.635  26.260  28.279  1.00  0.00     0.010 A 
ATOM     30  C   UNL A   1      40.375  26.712  28.713  1.00  0.00    -0.014 A 
BRANCH  30  31
ATOM     31  C   UNL A   1      39.779  28.265  28.958  1.00  0.00     0.031 A 
ATOM     32  C   UNL A   1      41.040  29.048  29.071  1.00  0.00     0.074 A 
ATOM     33  C   UNL A   1      38.660  29.090  29.230  1.00  0.00     0.049 A 
ATOM     34  N   UNL A   1      41.915  28.709  29.977  1.00  0.00    -0.248 NA
ATOM     35  C   UNL A   1      41.561  29.907  28.006  1.00  0.00     0.031 C 
ATOM     36  C   UNL A   1      37.260  28.698  29.489  1.00  0.00     0.029 A 
ATOM     37  N   UNL A   1      38.497  30.536  29.357  1.00  0.00    -0.354 N 
ATOM     38  C   UNL A   1      42.984  29.543  29.800  1.00  0.00     0.074 A 
ATOM     39  C   UNL A   1      42.812  30.071  28.453  1.00  0.00     0.031 C 
ATOM     40  C   UNL A   1      36.418  29.775  29.587  1.00  0.00     0.029 A 
ATOM     41  C   UNL A   1      37.135  31.050  29.471  1.00  0.00     0.049 A 
ATOM     42  H   UNL A   1      39.274  31.140  29.365  1.00  0.00     0.167 HD
ATOM     43  C   UNL A   1      43.410  30.179  30.928  1.00  0.00     0.037 A 
ATOM     44  C   UNL A   1      36.609  32.353  29.563  1.00  0.00     0.037 A 
ATOM     45  C   UNL A   1      43.003  31.555  30.955  1.00  0.00     0.049 A 
ATOM     46  C   UNL A   1      37.656  33.189  30.160  1.00  0.00     0.074 A 
ATOM     47  C   UNL A   1      42.940  32.542  29.991  1.00  0.00     0.029 A 
ATOM     48  N   UNL A   1      42.146  31.931  31.965  1.00  0.00    -0.354 N 
ATOM     49  N   UNL A   1      37.860  33.166  31.439  1.00  0.00    -0.248 NA
ATOM     50  C   UNL A   1      38.375  34.230  29.433  1.00  0.00     0.031 C 
ATOM     51  C   UNL A   1      41.692  33.162  30.201  1.00  0.00     0.029 A 
ATOM     52  C   UNL A   1      41.223  32.817  31.462  1.00  0.00     0.049 A 
ATOM     53  H   UNL A   1      42.188  31.618  32.896  1.00  0.00     0.167 HD
ATOM     54  C   UNL A   1      39.058  33.776  31.579  1.00  0.00     0.074 A 
ATOM     55  C   UNL A   1      39.181  34.640  30.417  1.00  0.00     0.031 C 
ATOM     56  C   UNL A   1      39.993  33.011  32.186  1.00  0.00     0.037 A 
BRANCH  43  57
ATOM     57  C   UNL A   1      43.446  29.275  32.131  1.00  0.00     0.057 A 
ATOM     58  C   UNL A   1      44.665  28.745  32.550  1.00  0.00     0.134 A 
ATOM     59  C   UNL A   1      42.283  28.777  32.756  1.00  0.00     0.134 A 
ATOM     60  F   UNL A   1      45.815  29.207  32.037  1.00  0.00    -0.206 F 
ATOM     61  C   UNL A   1      44.725  27.714  33.492  1.00  0.00     0.040 A 
ATOM     62  C   UNL A   1      42.326  27.710  33.652  1.00  0.00     0.040 A 
ATOM     63  F   UNL A   1      41.076  29.302  32.484  1.00  0.00    -0.206 F 
ATOM     64  C   UNL A   1      43.552  27.167  34.013  1.00  0.00     0.006 A 
ENDBRANCH  43  57
BRANCH  44  65
ATOM     65  C   UNL A   1      35.309  33.262  29.531  1.00  0.00     0.057 A 
ATOM     66  C   UNL A   1      34.611  33.640  30.740  1.00  0.00     0.134 A 
ATOM     67  C   UNL A   1      35.009  34.123  28.468  1.00  0.00     0.134 A 
ATOM     68  F   UNL A   1      34.697  32.915  31.865  1.00  0.00    -0.206 F 
ATOM     69  C   UNL A   1      33.832  34.807  30.905  1.00  0.00     0.040 A 
ATOM     70  C   UNL A   1      34.179  35.279  28.612  1.00  0.00     0.040 A 
ATOM     71  F   UNL A   1      35.570  33.930  27.268  1.00  0.00    -0.206 F 
ATOM     72  C   UNL A   1      33.625  35.650  29.837  1.00  0.00     0.006 A 
ENDBRANCH  44  65
BRANCH  56  73
ATOM     73  C   UNL A   1      39.559  32.257  33.436  1.00  0.00     0.057 A 
ATOM     74  C   UNL A   1      38.783  31.075  33.507  1.00  0.00     0.134 A 
ATOM     75  C   UNL A   1      39.889  32.828  34.670  1.00  0.00     0.134 A 
ATOM     76  F   UNL A   1      38.485  30.333  32.431  1.00  0.00    -0.206 F 
ATOM     77  C   UNL A   1      38.292  30.570  34.719  1.00  0.00     0.040 A 
ATOM     78  C   UNL A   1      39.456  32.297  35.890  1.00  0.00     0.040 A 
ATOM     79  F   UNL A   1      40.663  33.924  34.716  1.00  0.00    -0.206 F 
ATOM     80  C   UNL A   1      38.628  31.182  35.917  1.00  0.00     0.006 A 
ENDBRANCH  56  73
ENDBRANCH  30  31
ENDBRANCH  23  25
ENDBRANCH  22  23
ENDBRANCH  21  22
ENDBRANCH   1  21
TORSDOF 14
ENDMDL
MODEL 3
REMARK VINA RESULT:      -8.8      3.933      6.216
REMARK SMILES Cc1ccc(C)n1-c1ccccc1S[C@H](C)C(=O)OCCOC(=O)c1ccc(-c2c3nc(c(-c4c(F)cccc4F)c4ccc([nH]4)c(-c4c(F)cccc4F)c4nc(c(-c5c(F)cccc5F)c5ccc2[nH]5)C=C4)C=C3)cc1
REMARK SMILES IDX 20 1 19 2 17 3 18 4 15 5 16 6 14 7 13 8 8 9 9 10 10 11 12 12
REMARK SMILES IDX 11 13 7 14 1 15 2 16 3 17 4 18 5 19 6 20 21 21 22 22 23 23
REMARK SMILES IDX 24 24 25 25 26 26 78 27 27 28 77 29 28 30 29 31 30 32 71 33
REMARK SMILES IDX 31 34 76 35 70 36 72 37 32 38 75 39 69 40 68 41 33 43 59 44
REMARK SMILES IDX 42 45 58 46 43 47 46 48 57 49 73 50 44 51 45 52 56 54 74 55
REMARK SMILES IDX 47 56 34 57 35 58 40 59 36 60 37 61 39 62 41 63 38 64 60 65
REMARK SMILES IDX 61 66 66 67 62 68 63 69 65 70 67 71 64 72 48 73 49 74 54 75
REMARK SMILES IDX 50 76 51 77 53 78 55 79 52 80
REMARK H PARENT 72 42 46 53
REMARK Flexibility Score: inf
ROOT
ATOM      1  C   UNL A   1      32.530  30.730  26.867  1.00  0.00     0.274 C 
ENDROOT
BRANCH   1   2
ATOM      2  O   UNL A   1      32.931  29.351  27.135  1.00  0.00    -0.461 OA
BRANCH   2   3
ATOM      3  C   UNL A   1      31.924  28.421  27.133  1.00  0.00     0.319 C 
ATOM      4  O   UNL A   1      31.228  28.186  28.096  1.00  0.00    -0.251 OA
BRANCH   3   5
ATOM      5  C   UNL A   1      31.792  27.652  25.800  1.00  0.00     0.158 C 
ATOM      6  C   UNL A   1      31.204  28.406  24.616  1.00  0.00     0.032 C 
BRANCH   5   7
ATOM      7  S   UNL A   1      33.327  26.623  25.562  1.00  0.00    -0.109 SA
BRANCH   7   8
ATOM      8  C   UNL A   1      33.101  25.469  24.205  1.00  0.00     0.032 A 
ATOM      9  C   UNL A   1      33.149  24.065  24.413  1.00  0.00     0.059 A 
ATOM     10  C   UNL A   1      33.156  23.161  23.334  1.00  0.00     0.028 A 
ATOM     11  C   UNL A   1      33.106  23.636  22.029  1.00  0.00     0.002 A 
ATOM     12  C   UNL A   1      33.087  25.910  22.875  1.00  0.00     0.017 A 
ATOM     13  C   UNL A   1      33.068  25.008  21.801  1.00  0.00     0.001 A 
BRANCH   9  14
ATOM     14  N   UNL A   1      33.316  23.506  25.710  1.00  0.00    -0.317 N 
ATOM     15  C   UNL A   1      35.861  23.609  25.803  1.00  0.00     0.065 C 
ATOM     16  C   UNL A   1      34.524  23.254  26.351  1.00  0.00     0.020 A 
ATOM     17  C   UNL A   1      34.243  22.680  27.576  1.00  0.00     0.023 A 
ATOM     18  C   UNL A   1      32.844  22.652  27.729  1.00  0.00     0.023 A 
ATOM     19  C   UNL A   1      32.282  23.199  26.592  1.00  0.00     0.020 A 
ATOM     20  C   UNL A   1      30.831  23.362  26.294  1.00  0.00     0.065 C 
ENDBRANCH   9  14
ENDBRANCH   7   8
ENDBRANCH   5   7
ENDBRANCH   3   5
ENDBRANCH   2   3
ENDBRANCH   1   2
BRANCH   1  21
ATOM     21  C   UNL A   1      33.244  31.752  27.796  1.00  0.00     0.275 C 
BRANCH  21  22
ATOM     22  O   UNL A   1      34.684  32.024  27.583  1.00  0.00    -0.458 OA
BRANCH  22  23
ATOM     23  C   UNL A   1      35.502  32.010  28.688  1.00  0.00     0.338 C 
ATOM     24  O   UNL A   1      35.195  32.549  29.748  1.00  0.00    -0.246 OA
BRANCH  23  25
ATOM     25  C   UNL A   1      36.843  31.259  28.555  1.00  0.00     0.060 A 
ATOM     26  C   UNL A   1      36.972  30.284  27.581  1.00  0.00     0.016 A 
ATOM     27  C   UNL A   1      37.892  31.257  29.508  1.00  0.00     0.016 A 
ATOM     28  C   UNL A   1      38.117  29.405  27.541  1.00  0.00     0.010 A 
ATOM     29  C   UNL A   1      39.032  30.294  29.499  1.00  0.00     0.010 A 
ATOM     30  C   UNL A   1      39.195  29.305  28.512  1.00  0.00    -0.014 A 
BRANCH  30  31
ATOM     31  C   UNL A   1      40.123  27.903  28.490  1.00  0.00     0.031 A 
ATOM     32  C   UNL A   1      41.040  28.141  29.639  1.00  0.00     0.074 A 
ATOM     33  C   UNL A   1      40.489  26.718  27.805  1.00  0.00     0.049 A 
ATOM     34  N   UNL A   1      41.776  29.218  29.646  1.00  0.00    -0.248 NA
ATOM     35  C   UNL A   1      40.901  27.485  30.940  1.00  0.00     0.031 C 
ATOM     36  C   UNL A   1      40.042  26.236  26.483  1.00  0.00     0.029 A 
ATOM     37  N   UNL A   1      41.392  25.617  28.132  1.00  0.00    -0.354 N 
ATOM     38  C   UNL A   1      42.449  29.207  30.837  1.00  0.00     0.074 A 
ATOM     39  C   UNL A   1      41.699  28.275  31.668  1.00  0.00     0.031 C 
ATOM     40  C   UNL A   1      40.506  24.980  26.193  1.00  0.00     0.029 A 
ATOM     41  C   UNL A   1      41.383  24.457  27.246  1.00  0.00     0.049 A 
ATOM     42  H   UNL A   1      41.983  25.656  28.919  1.00  0.00     0.167 HD
ATOM     43  C   UNL A   1      43.797  29.381  30.737  1.00  0.00     0.037 A 
ATOM     44  C   UNL A   1      42.070  23.228  27.274  1.00  0.00     0.037 A 
ATOM     45  C   UNL A   1      44.513  28.150  30.915  1.00  0.00     0.049 A 
ATOM     46  C   UNL A   1      43.318  23.458  28.008  1.00  0.00     0.074 A 
ATOM     47  C   UNL A   1      44.354  27.079  31.773  1.00  0.00     0.029 A 
ATOM     48  N   UNL A   1      45.243  27.692  29.842  1.00  0.00    -0.354 N 
ATOM     49  N   UNL A   1      44.326  24.023  27.420  1.00  0.00    -0.248 NA
ATOM     50  C   UNL A   1      43.598  22.902  29.327  1.00  0.00     0.031 C 
ATOM     51  C   UNL A   1      44.513  25.943  30.955  1.00  0.00     0.029 A 
ATOM     52  C   UNL A   1      45.119  26.326  29.765  1.00  0.00     0.049 A 
ATOM     53  H   UNL A   1      45.770  28.253  29.229  1.00  0.00     0.167 HD
ATOM     54  C   UNL A   1      45.142  24.357  28.445  1.00  0.00     0.074 A 
ATOM     55  C   UNL A   1      44.816  23.423  29.508  1.00  0.00     0.031 C 
ATOM     56  C   UNL A   1      45.419  25.679  28.514  1.00  0.00     0.037 A 
BRANCH  43  57
ATOM     57  C   UNL A   1      44.177  30.455  29.751  1.00  0.00     0.057 A 
ATOM     58  C   UNL A   1      44.512  31.724  30.221  1.00  0.00     0.134 A 
ATOM     59  C   UNL A   1      44.035  30.306  28.356  1.00  0.00     0.134 A 
ATOM     60  F   UNL A   1      44.714  31.928  31.531  1.00  0.00    -0.206 F 
ATOM     61  C   UNL A   1      44.626  32.813  29.354  1.00  0.00     0.040 A 
ATOM     62  C   UNL A   1      44.086  31.395  27.489  1.00  0.00     0.040 A 
ATOM     63  F   UNL A   1      43.811  29.097  27.812  1.00  0.00    -0.206 F 
ATOM     64  C   UNL A   1      44.372  32.658  27.990  1.00  0.00     0.006 A 
ENDBRANCH  43  57
BRANCH  44  65
ATOM     65  C   UNL A   1      42.203  21.771  26.660  1.00  0.00     0.057 A 
ATOM     66  C   UNL A   1      43.201  21.451  25.662  1.00  0.00     0.134 A 
ATOM     67  C   UNL A   1      41.736  20.624  27.312  1.00  0.00     0.134 A 
ATOM     68  F   UNL A   1      43.736  22.389  24.868  1.00  0.00    -0.206 F 
ATOM     69  C   UNL A   1      43.764  20.173  25.448  1.00  0.00     0.040 A 
ATOM     70  C   UNL A   1      42.263  19.317  27.066  1.00  0.00     0.040 A 
ATOM     71  F   UNL A   1      40.810  20.727  28.274  1.00  0.00    -0.206 F 
ATOM     72  C   UNL A   1      43.306  19.093  26.168  1.00  0.00     0.006 A 
ENDBRANCH  44  65
BRANCH  56  73
ATOM     73  C   UNL A   1      45.785  26.374  27.209  1.00  0.00     0.057 A 
ATOM     74  C   UNL A   1      44.910  26.797  26.180  1.00  0.00     0.134 A 
ATOM     75  C   UNL A   1      47.147  26.551  26.944  1.00  0.00     0.134 A 
ATOM     76  F   UNL A   1      43.577  26.814  26.318  1.00  0.00    -0.206 F 
ATOM     77  C   UNL A   1      45.376  27.263  24.942  1.00  0.00     0.040 A 
ATOM     78  C   UNL A   1      47.621  27.074  25.736  1.00  0.00     0.040 A 
ATOM     79  F   UNL A   1      48.059  26.228  27.874  1.00  0.00    -0.206 F 
ATOM     80  C   UNL A   1      46.737  27.403  24.717  1.00  0.00     0.006 A 
ENDBRANCH  56  73
ENDBRANCH  30  31
ENDBRANCH  23  25
ENDBRANCH  22  23
ENDBRANCH  21  22
ENDBRANCH   1  21
TORSDOF 14
ENDMDL
