MODEL 1
REMARK VINA RESULT:     -11.3      0.000      0.000
REMARK SMILES O=C(C[C@@H](NS(=O)(=O)c1ccc2c(c1)OCCO2)c1ccccc1)OCCOC(=O)c1ccc(-c2c3nc(c(-c4c(F)cccc4F)c4ccc([nH]4)c(-c4c(F)cccc4F)c4nc(c(-c5c(F)cccc5F)c5ccc2[nH]5)C=C4)C=C3)cc1
REMARK SMILES IDX 26 1 25 2 2 3 1 4 3 5 4 6 5 7 6 9 7 10 8 11 9 12 10 13 14 14
REMARK SMILES IDX 11 15 13 16 12 17 15 18 18 19 16 20 17 21 19 22 20 23 24 24
REMARK SMILES IDX 21 25 23 26 22 27 27 28 28 29 29 30 30 31 31 32 32 33 84 34
REMARK SMILES IDX 33 35 83 36 34 37 35 38 36 39 77 40 37 41 82 42 76 43 78 44
REMARK SMILES IDX 38 45 81 46 75 47 74 48 39 50 65 51 48 52 64 53 49 54 52 55
REMARK SMILES IDX 63 56 79 57 50 58 51 59 62 61 80 62 53 63 40 64 41 65 46 66
REMARK SMILES IDX 42 67 43 68 45 69 47 70 44 71 66 72 67 73 72 74 68 75 69 76
REMARK SMILES IDX 71 77 73 78 70 79 54 80 55 81 60 82 56 83 57 84 59 85 61 86
REMARK SMILES IDX 58 87
REMARK H PARENT 5 8 78 49 52 60
REMARK Flexibility Score: inf
ROOT
ATOM      1  C   UNL A   1      32.089  28.088  26.250  1.00  0.00     0.274 C 
ENDROOT
BRANCH   1   2
ATOM      2  O   UNL A   1      32.638  26.866  25.701  1.00  0.00    -0.462 OA
BRANCH   2   3
ATOM      3  C   UNL A   1      32.457  25.642  26.259  1.00  0.00     0.307 C 
ATOM      4  O   UNL A   1      31.450  25.378  26.906  1.00  0.00    -0.252 OA
BRANCH   3   5
ATOM      5  C   UNL A   1      33.575  24.657  26.129  1.00  0.00     0.147 C 
BRANCH   5   6
ATOM      6  C   UNL A   1      33.865  24.033  24.768  1.00  0.00     0.111 C 
BRANCH   6   7
ATOM      7  N   UNL A   1      33.756  24.989  23.637  1.00  0.00    -0.203 NA
ATOM      8  H   UNL A   1      34.659  25.004  23.164  1.00  0.00     0.142 HD
BRANCH   7   9
ATOM      9  S   UNL A   1      32.570  24.695  22.452  1.00  0.00     0.241 S 
ATOM     10  O   UNL A   1      33.158  25.020  21.174  1.00  0.00    -0.207 OA
ATOM     11  O   UNL A   1      32.087  23.358  22.735  1.00  0.00    -0.207 OA
BRANCH   9  12
ATOM     12  C   UNL A   1      31.264  25.842  22.779  1.00  0.00     0.086 A 
ATOM     13  C   UNL A   1      30.237  25.458  23.652  1.00  0.00     0.026 A 
ATOM     14  C   UNL A   1      31.266  27.114  22.201  1.00  0.00     0.072 A 
ATOM     15  C   UNL A   1      29.131  26.286  23.830  1.00  0.00     0.052 A 
ATOM     16  C   UNL A   1      30.192  27.967  22.451  1.00  0.00     0.162 A 
ATOM     17  C   UNL A   1      29.097  27.530  23.210  1.00  0.00     0.161 A 
ATOM     18  O   UNL A   1      30.264  29.234  21.922  1.00  0.00    -0.486 OA
ATOM     19  O   UNL A   1      27.963  28.278  23.405  1.00  0.00    -0.486 OA
ATOM     20  C   UNL A   1      29.322  30.100  22.572  1.00  0.00     0.271 C 
ATOM     21  C   UNL A   1      27.950  29.446  22.576  1.00  0.00     0.271 C 
ENDBRANCH   9  12
ENDBRANCH   7   9
ENDBRANCH   6   7
BRANCH   6  22
ATOM     22  C   UNL A   1      35.286  23.466  24.915  1.00  0.00    -0.029 A 
ATOM     23  C   UNL A   1      35.664  22.330  24.184  1.00  0.00     0.005 A 
ATOM     24  C   UNL A   1      36.218  24.021  25.812  1.00  0.00     0.005 A 
ATOM     25  C   UNL A   1      36.952  21.802  24.302  1.00  0.00     0.000 A 
ATOM     26  C   UNL A   1      37.510  23.503  25.913  1.00  0.00     0.000 A 
ATOM     27  C   UNL A   1      37.878  22.397  25.154  1.00  0.00     0.000 A 
ENDBRANCH   6  22
ENDBRANCH   5   6
ENDBRANCH   3   5
ENDBRANCH   2   3
ENDBRANCH   1   2
BRANCH   1  28
ATOM     28  C   UNL A   1      33.109  29.226  26.384  1.00  0.00     0.275 C 
BRANCH  28  29
ATOM     29  O   UNL A   1      33.968  29.052  27.528  1.00  0.00    -0.458 OA
BRANCH  29  30
ATOM     30  C   UNL A   1      34.567  30.179  27.993  1.00  0.00     0.338 C 
ATOM     31  O   UNL A   1      34.012  31.228  28.267  1.00  0.00    -0.246 OA
BRANCH  30  32
ATOM     32  C   UNL A   1      35.986  29.896  28.336  1.00  0.00     0.060 A 
ATOM     33  C   UNL A   1      36.949  30.079  27.332  1.00  0.00     0.016 A 
ATOM     34  C   UNL A   1      36.388  29.502  29.615  1.00  0.00     0.016 A 
ATOM     35  C   UNL A   1      38.303  29.835  27.591  1.00  0.00     0.010 A 
ATOM     36  C   UNL A   1      37.743  29.249  29.870  1.00  0.00     0.010 A 
ATOM     37  C   UNL A   1      38.707  29.385  28.853  1.00  0.00    -0.014 A 
BRANCH  37  38
ATOM     38  C   UNL A   1      40.091  28.882  29.068  1.00  0.00     0.031 A 
ATOM     39  C   UNL A   1      41.102  29.813  29.681  1.00  0.00     0.074 A 
ATOM     40  C   UNL A   1      40.463  27.632  28.737  1.00  0.00     0.049 A 
ATOM     41  N   UNL A   1      42.373  29.616  29.928  1.00  0.00    -0.248 NA
ATOM     42  C   UNL A   1      40.610  31.143  30.073  1.00  0.00     0.031 C 
ATOM     43  C   UNL A   1      39.583  26.601  28.197  1.00  0.00     0.029 A 
ATOM     44  N   UNL A   1      41.695  27.021  28.793  1.00  0.00    -0.354 N 
ATOM     45  C   UNL A   1      42.827  30.791  30.513  1.00  0.00     0.074 A 
ATOM     46  C   UNL A   1      41.712  31.713  30.533  1.00  0.00     0.031 C 
ATOM     47  C   UNL A   1      40.308  25.503  27.920  1.00  0.00     0.029 A 
ATOM     48  C   UNL A   1      41.706  25.751  28.269  1.00  0.00     0.049 A 
ATOM     49  H   UNL A   1      42.493  27.454  29.173  1.00  0.00     0.167 HD
ATOM     50  C   UNL A   1      44.055  31.073  31.009  1.00  0.00     0.037 A 
ATOM     51  C   UNL A   1      42.725  24.887  28.086  1.00  0.00     0.037 A 
ATOM     52  C   UNL A   1      45.172  30.167  30.982  1.00  0.00     0.049 A 
ATOM     53  C   UNL A   1      44.110  25.262  28.549  1.00  0.00     0.074 A 
ATOM     54  C   UNL A   1      46.449  30.360  31.479  1.00  0.00     0.029 A 
ATOM     55  N   UNL A   1      45.151  28.904  30.412  1.00  0.00    -0.354 N 
ATOM     56  N   UNL A   1      44.517  26.357  29.145  1.00  0.00    -0.248 NA
ATOM     57  C   UNL A   1      45.176  24.270  28.332  1.00  0.00     0.031 C 
ATOM     58  C   UNL A   1      47.219  29.239  31.152  1.00  0.00     0.029 A 
ATOM     59  C   UNL A   1      46.403  28.320  30.513  1.00  0.00     0.049 A 
ATOM     60  H   UNL A   1      44.363  28.484  29.996  1.00  0.00     0.167 HD
ATOM     61  C   UNL A   1      45.868  26.167  29.415  1.00  0.00     0.074 A 
ATOM     62  C   UNL A   1      46.212  24.850  28.920  1.00  0.00     0.031 C 
ATOM     63  C   UNL A   1      46.740  27.005  30.026  1.00  0.00     0.037 A 
BRANCH  50  64
ATOM     64  C   UNL A   1      44.255  32.436  31.606  1.00  0.00     0.057 A 
ATOM     65  C   UNL A   1      44.043  32.687  32.969  1.00  0.00     0.134 A 
ATOM     66  C   UNL A   1      44.681  33.507  30.811  1.00  0.00     0.134 A 
ATOM     67  F   UNL A   1      43.620  31.709  33.783  1.00  0.00    -0.206 F 
ATOM     68  C   UNL A   1      44.218  33.960  33.511  1.00  0.00     0.040 A 
ATOM     69  C   UNL A   1      44.890  34.777  31.348  1.00  0.00     0.040 A 
ATOM     70  F   UNL A   1      44.906  33.334  29.499  1.00  0.00    -0.206 F 
ATOM     71  C   UNL A   1      44.649  35.009  32.701  1.00  0.00     0.006 A 
ENDBRANCH  50  64
BRANCH  51  72
ATOM     72  C   UNL A   1      42.484  23.571  27.437  1.00  0.00     0.057 A 
ATOM     73  C   UNL A   1      42.169  22.435  28.192  1.00  0.00     0.134 A 
ATOM     74  C   UNL A   1      42.604  23.410  26.052  1.00  0.00     0.134 A 
ATOM     75  F   UNL A   1      42.065  22.520  29.526  1.00  0.00    -0.206 F 
ATOM     76  C   UNL A   1      42.005  21.182  27.598  1.00  0.00     0.040 A 
ATOM     77  C   UNL A   1      42.418  22.168  25.440  1.00  0.00     0.040 A 
ATOM     78  F   UNL A   1      42.904  24.458  25.271  1.00  0.00    -0.206 F 
ATOM     79  C   UNL A   1      42.127  21.048  26.216  1.00  0.00     0.006 A 
ENDBRANCH  51  72
BRANCH  63  80
ATOM     80  C   UNL A   1      48.145  26.515  30.243  1.00  0.00     0.057 A 
ATOM     81  C   UNL A   1      48.515  25.790  31.384  1.00  0.00     0.134 A 
ATOM     82  C   UNL A   1      49.130  26.729  29.270  1.00  0.00     0.134 A 
ATOM     83  F   UNL A   1      47.625  25.558  32.360  1.00  0.00    -0.206 F 
ATOM     84  C   UNL A   1      49.818  25.319  31.559  1.00  0.00     0.040 A 
ATOM     85  C   UNL A   1      50.428  26.236  29.418  1.00  0.00     0.040 A 
ATOM     86  F   UNL A   1      48.844  27.406  28.147  1.00  0.00    -0.206 F 
ATOM     87  C   UNL A   1      50.776  25.535  30.570  1.00  0.00     0.006 A 
ENDBRANCH  63  80
ENDBRANCH  37  38
ENDBRANCH  30  32
ENDBRANCH  29  30
ENDBRANCH  28  29
ENDBRANCH   1  28
TORSDOF 16
ENDMDL
MODEL 2
REMARK VINA RESULT:     -11.3      3.204      7.633
REMARK SMILES O=C(C[C@@H](NS(=O)(=O)c1ccc2c(c1)OCCO2)c1ccccc1)OCCOC(=O)c1ccc(-c2c3nc(c(-c4c(F)cccc4F)c4ccc([nH]4)c(-c4c(F)cccc4F)c4nc(c(-c5c(F)cccc5F)c5ccc2[nH]5)C=C4)C=C3)cc1
REMARK SMILES IDX 26 1 25 2 2 3 1 4 3 5 4 6 5 7 6 9 7 10 8 11 9 12 10 13 14 14
REMARK SMILES IDX 11 15 13 16 12 17 15 18 18 19 16 20 17 21 19 22 20 23 24 24
REMARK SMILES IDX 21 25 23 26 22 27 27 28 28 29 29 30 30 31 31 32 32 33 84 34
REMARK SMILES IDX 33 35 83 36 34 37 35 38 36 39 77 40 37 41 82 42 76 43 78 44
REMARK SMILES IDX 38 45 81 46 75 47 74 48 39 50 65 51 48 52 64 53 49 54 52 55
REMARK SMILES IDX 63 56 79 57 50 58 51 59 62 61 80 62 53 63 40 64 41 65 46 66
REMARK SMILES IDX 42 67 43 68 45 69 47 70 44 71 66 72 67 73 72 74 68 75 69 76
REMARK SMILES IDX 71 77 73 78 70 79 54 80 55 81 60 82 56 83 57 84 59 85 61 86
REMARK SMILES IDX 58 87
REMARK H PARENT 5 8 78 49 52 60
REMARK Flexibility Score: inf
ROOT
ATOM      1  C   UNL A   1      31.849  28.181  26.835  1.00  0.00     0.274 C 
ENDROOT
BRANCH   1   2
ATOM      2  O   UNL A   1      31.820  27.131  25.838  1.00  0.00    -0.462 OA
BRANCH   2   3
ATOM      3  C   UNL A   1      30.729  26.365  25.582  1.00  0.00     0.307 C 
ATOM      4  O   UNL A   1      30.255  25.624  26.436  1.00  0.00    -0.252 OA
BRANCH   3   5
ATOM      5  C   UNL A   1      30.182  26.393  24.191  1.00  0.00     0.147 C 
BRANCH   5   6
ATOM      6  C   UNL A   1      30.901  27.210  23.123  1.00  0.00     0.111 C 
BRANCH   6   7
ATOM      7  N   UNL A   1      31.316  26.413  21.940  1.00  0.00    -0.203 NA
ATOM      8  H   UNL A   1      31.037  26.936  21.110  1.00  0.00     0.142 HD
BRANCH   7   9
ATOM      9  S   UNL A   1      32.967  26.036  21.769  1.00  0.00     0.241 S 
ATOM     10  O   UNL A   1      33.154  25.557  20.420  1.00  0.00    -0.207 OA
ATOM     11  O   UNL A   1      33.667  27.210  22.250  1.00  0.00    -0.207 OA
BRANCH   9  12
ATOM     12  C   UNL A   1      33.277  24.703  22.889  1.00  0.00     0.086 A 
ATOM     13  C   UNL A   1      34.003  24.964  24.059  1.00  0.00     0.026 A 
ATOM     14  C   UNL A   1      32.788  23.419  22.628  1.00  0.00     0.072 A 
ATOM     15  C   UNL A   1      34.373  23.913  24.896  1.00  0.00     0.052 A 
ATOM     16  C   UNL A   1      33.097  22.390  23.515  1.00  0.00     0.162 A 
ATOM     17  C   UNL A   1      33.941  22.623  24.611  1.00  0.00     0.161 A 
ATOM     18  O   UNL A   1      32.540  21.159  23.262  1.00  0.00    -0.486 OA
ATOM     19  O   UNL A   1      34.370  21.635  25.460  1.00  0.00    -0.486 OA
ATOM     20  C   UNL A   1      32.609  20.330  24.433  1.00  0.00     0.271 C 
ATOM     21  C   UNL A   1      34.029  20.331  24.972  1.00  0.00     0.271 C 
ENDBRANCH   9  12
ENDBRANCH   7   9
ENDBRANCH   6   7
BRANCH   6  22
ATOM     22  C   UNL A   1      29.894  28.312  22.757  1.00  0.00    -0.029 A 
ATOM     23  C   UNL A   1      28.548  28.183  23.133  1.00  0.00     0.005 A 
ATOM     24  C   UNL A   1      30.268  29.437  21.999  1.00  0.00     0.005 A 
ATOM     25  C   UNL A   1      27.619  29.175  22.812  1.00  0.00     0.000 A 
ATOM     26  C   UNL A   1      29.341  30.437  21.697  1.00  0.00     0.000 A 
ATOM     27  C   UNL A   1      28.019  30.308  22.108  1.00  0.00     0.000 A 
ENDBRANCH   6  22
ENDBRANCH   5   6
ENDBRANCH   3   5
ENDBRANCH   2   3
ENDBRANCH   1   2
BRANCH   1  28
ATOM     28  C   UNL A   1      31.748  29.597  26.254  1.00  0.00     0.275 C 
BRANCH  28  29
ATOM     29  O   UNL A   1      33.044  30.208  26.090  1.00  0.00    -0.458 OA
BRANCH  29  30
ATOM     30  C   UNL A   1      33.331  31.220  26.950  1.00  0.00     0.338 C 
ATOM     31  O   UNL A   1      32.582  32.125  27.272  1.00  0.00    -0.246 OA
BRANCH  30  32
ATOM     32  C   UNL A   1      34.630  30.960  27.626  1.00  0.00     0.060 A 
ATOM     33  C   UNL A   1      34.988  29.624  27.860  1.00  0.00     0.016 A 
ATOM     34  C   UNL A   1      35.509  31.984  27.989  1.00  0.00     0.016 A 
ATOM     35  C   UNL A   1      36.198  29.310  28.487  1.00  0.00     0.010 A 
ATOM     36  C   UNL A   1      36.717  31.669  28.626  1.00  0.00     0.010 A 
ATOM     37  C   UNL A   1      37.058  30.332  28.906  1.00  0.00    -0.014 A 
BRANCH  37  38
ATOM     38  C   UNL A   1      38.215  30.030  29.791  1.00  0.00     0.031 A 
ATOM     39  C   UNL A   1      39.258  29.063  29.299  1.00  0.00     0.074 A 
ATOM     40  C   UNL A   1      38.359  30.592  31.006  1.00  0.00     0.049 A 
ATOM     41  N   UNL A   1      40.329  28.614  29.905  1.00  0.00    -0.248 NA
ATOM     42  C   UNL A   1      39.068  28.535  27.940  1.00  0.00     0.031 C 
ATOM     43  C   UNL A   1      37.469  31.590  31.588  1.00  0.00     0.029 A 
ATOM     44  N   UNL A   1      39.308  30.384  31.981  1.00  0.00    -0.354 N 
ATOM     45  C   UNL A   1      40.944  27.763  28.996  1.00  0.00     0.074 A 
ATOM     46  C   UNL A   1      40.099  27.714  27.822  1.00  0.00     0.031 C 
ATOM     47  C   UNL A   1      37.879  31.872  32.837  1.00  0.00     0.029 A 
ATOM     48  C   UNL A   1      39.067  31.076  33.143  1.00  0.00     0.049 A 
ATOM     49  H   UNL A   1      40.087  29.795  31.856  1.00  0.00     0.167 HD
ATOM     50  C   UNL A   1      42.117  27.097  29.116  1.00  0.00     0.037 A 
ATOM     51  C   UNL A   1      39.723  31.066  34.321  1.00  0.00     0.037 A 
ATOM     52  C   UNL A   1      42.957  27.131  30.283  1.00  0.00     0.049 A 
ATOM     53  C   UNL A   1      40.971  30.233  34.471  1.00  0.00     0.074 A 
ATOM     54  C   UNL A   1      44.173  26.503  30.487  1.00  0.00     0.029 A 
ATOM     55  N   UNL A   1      42.660  27.816  31.451  1.00  0.00    -0.354 N 
ATOM     56  N   UNL A   1      41.569  29.471  33.588  1.00  0.00    -0.248 NA
ATOM     57  C   UNL A   1      41.648  30.278  35.777  1.00  0.00     0.031 C 
ATOM     58  C   UNL A   1      44.581  26.755  31.800  1.00  0.00     0.029 A 
ATOM     59  C   UNL A   1      43.652  27.597  32.392  1.00  0.00     0.049 A 
ATOM     60  H   UNL A   1      41.862  28.375  31.591  1.00  0.00     0.167 HD
ATOM     61  C   UNL A   1      42.712  28.984  34.214  1.00  0.00     0.074 A 
ATOM     62  C   UNL A   1      42.725  29.539  35.551  1.00  0.00     0.031 C 
ATOM     63  C   UNL A   1      43.667  28.158  33.720  1.00  0.00     0.037 A 
BRANCH  50  64
ATOM     64  C   UNL A   1      42.547  26.254  27.950  1.00  0.00     0.057 A 
ATOM     65  C   UNL A   1      42.161  24.912  27.823  1.00  0.00     0.134 A 
ATOM     66  C   UNL A   1      43.344  26.795  26.934  1.00  0.00     0.134 A 
ATOM     67  F   UNL A   1      41.411  24.328  28.769  1.00  0.00    -0.206 F 
ATOM     68  C   UNL A   1      42.577  24.133  26.744  1.00  0.00     0.040 A 
ATOM     69  C   UNL A   1      43.740  26.035  25.834  1.00  0.00     0.040 A 
ATOM     70  F   UNL A   1      43.745  28.075  26.992  1.00  0.00    -0.206 F 
ATOM     71  C   UNL A   1      43.365  24.696  25.741  1.00  0.00     0.006 A 
ENDBRANCH  50  64
BRANCH  51  72
ATOM     72  C   UNL A   1      39.224  31.877  35.463  1.00  0.00     0.057 A 
ATOM     73  C   UNL A   1      38.294  31.359  36.372  1.00  0.00     0.134 A 
ATOM     74  C   UNL A   1      39.635  33.202  35.649  1.00  0.00     0.134 A 
ATOM     75  F   UNL A   1      37.842  30.104  36.232  1.00  0.00    -0.206 F 
ATOM     76  C   UNL A   1      37.772  32.134  37.409  1.00  0.00     0.040 A 
ATOM     77  C   UNL A   1      39.141  33.981  36.697  1.00  0.00     0.040 A 
ATOM     78  F   UNL A   1      40.525  33.759  34.815  1.00  0.00    -0.206 F 
ATOM     79  C   UNL A   1      38.199  33.449  37.575  1.00  0.00     0.006 A 
ENDBRANCH  51  72
BRANCH  63  80
ATOM     80  C   UNL A   1      44.838  27.837  34.605  1.00  0.00     0.057 A 
ATOM     81  C   UNL A   1      45.983  28.643  34.651  1.00  0.00     0.134 A 
ATOM     82  C   UNL A   1      44.798  26.729  35.463  1.00  0.00     0.134 A 
ATOM     83  F   UNL A   1      46.094  29.714  33.850  1.00  0.00    -0.206 F 
ATOM     84  C   UNL A   1      47.053  28.345  35.499  1.00  0.00     0.040 A 
ATOM     85  C   UNL A   1      45.846  26.439  36.337  1.00  0.00     0.040 A 
ATOM     86  F   UNL A   1      43.728  25.919  35.480  1.00  0.00    -0.206 F 
ATOM     87  C   UNL A   1      46.982  27.245  36.351  1.00  0.00     0.006 A 
ENDBRANCH  63  80
ENDBRANCH  37  38
ENDBRANCH  30  32
ENDBRANCH  29  30
ENDBRANCH  28  29
ENDBRANCH   1  28
TORSDOF 16
ENDMDL
MODEL 3
REMARK VINA RESULT:     -11.3      3.235      5.646
REMARK SMILES O=C(C[C@@H](NS(=O)(=O)c1ccc2c(c1)OCCO2)c1ccccc1)OCCOC(=O)c1ccc(-c2c3nc(c(-c4c(F)cccc4F)c4ccc([nH]4)c(-c4c(F)cccc4F)c4nc(c(-c5c(F)cccc5F)c5ccc2[nH]5)C=C4)C=C3)cc1
REMARK SMILES IDX 26 1 25 2 2 3 1 4 3 5 4 6 5 7 6 9 7 10 8 11 9 12 10 13 14 14
REMARK SMILES IDX 11 15 13 16 12 17 15 18 18 19 16 20 17 21 19 22 20 23 24 24
REMARK SMILES IDX 21 25 23 26 22 27 27 28 28 29 29 30 30 31 31 32 32 33 84 34
REMARK SMILES IDX 33 35 83 36 34 37 35 38 36 39 77 40 37 41 82 42 76 43 78 44
REMARK SMILES IDX 38 45 81 46 75 47 74 48 39 50 65 51 48 52 64 53 49 54 52 55
REMARK SMILES IDX 63 56 79 57 50 58 51 59 62 61 80 62 53 63 40 64 41 65 46 66
REMARK SMILES IDX 42 67 43 68 45 69 47 70 44 71 66 72 67 73 72 74 68 75 69 76
REMARK SMILES IDX 71 77 73 78 70 79 54 80 55 81 60 82 56 83 57 84 59 85 61 86
REMARK SMILES IDX 58 87
REMARK H PARENT 5 8 78 49 52 60
REMARK Flexibility Score: inf
ROOT
ATOM      1  C   UNL A   1      31.143  30.614  25.356  1.00  0.00     0.274 C 
ENDROOT
BRANCH   1   2
ATOM      2  O   UNL A   1      32.174  29.656  25.020  1.00  0.00    -0.462 OA
BRANCH   2   3
ATOM      3  C   UNL A   1      32.073  28.323  25.261  1.00  0.00     0.307 C 
ATOM      4  O   UNL A   1      32.636  27.803  26.217  1.00  0.00    -0.252 OA
BRANCH   3   5
ATOM      5  C   UNL A   1      31.320  27.502  24.264  1.00  0.00     0.147 C 
BRANCH   5   6
ATOM      6  C   UNL A   1      31.370  27.887  22.789  1.00  0.00     0.111 C 
BRANCH   6   7
ATOM      7  N   UNL A   1      31.480  26.725  21.871  1.00  0.00    -0.203 NA
ATOM      8  H   UNL A   1      31.046  26.993  20.989  1.00  0.00     0.142 HD
BRANCH   7   9
ATOM      9  S   UNL A   1      33.035  26.135  21.510  1.00  0.00     0.241 S 
ATOM     10  O   UNL A   1      32.977  25.571  20.182  1.00  0.00    -0.207 OA
ATOM     11  O   UNL A   1      33.929  27.234  21.817  1.00  0.00    -0.207 OA
BRANCH   9  12
ATOM     12  C   UNL A   1      33.338  24.830  22.664  1.00  0.00     0.086 A 
ATOM     13  C   UNL A   1      34.099  25.108  23.808  1.00  0.00     0.026 A 
ATOM     14  C   UNL A   1      32.810  23.553  22.456  1.00  0.00     0.072 A 
ATOM     15  C   UNL A   1      34.462  24.074  24.669  1.00  0.00     0.052 A 
ATOM     16  C   UNL A   1      33.113  22.543  23.368  1.00  0.00     0.162 A 
ATOM     17  C   UNL A   1      33.990  22.788  24.436  1.00  0.00     0.161 A 
ATOM     18  O   UNL A   1      32.518  21.320  23.168  1.00  0.00    -0.486 OA
ATOM     19  O   UNL A   1      34.413  21.816  25.306  1.00  0.00    -0.486 OA
ATOM     20  C   UNL A   1      32.595  20.527  24.362  1.00  0.00     0.271 C 
ATOM     21  C   UNL A   1      34.027  20.507  24.868  1.00  0.00     0.271 C 
ENDBRANCH   9  12
ENDBRANCH   7   9
ENDBRANCH   6   7
BRANCH   6  22
ATOM     22  C   UNL A   1      30.072  28.681  22.568  1.00  0.00    -0.029 A 
ATOM     23  C   UNL A   1      30.097  29.869  21.823  1.00  0.00     0.005 A 
ATOM     24  C   UNL A   1      28.851  28.281  23.142  1.00  0.00     0.005 A 
ATOM     25  C   UNL A   1      28.928  30.603  21.609  1.00  0.00     0.000 A 
ATOM     26  C   UNL A   1      27.680  29.005  22.910  1.00  0.00     0.000 A 
ATOM     27  C   UNL A   1      27.718  30.162  22.140  1.00  0.00     0.000 A 
ENDBRANCH   6  22
ENDBRANCH   5   6
ENDBRANCH   3   5
ENDBRANCH   2   3
ENDBRANCH   1   2
BRANCH   1  28
ATOM     28  C   UNL A   1      31.518  31.560  26.504  1.00  0.00     0.275 C 
BRANCH  28  29
ATOM     29  O   UNL A   1      32.765  31.189  27.125  1.00  0.00    -0.458 OA
BRANCH  29  30
ATOM     30  C   UNL A   1      33.559  32.220  27.515  1.00  0.00     0.338 C 
ATOM     31  O   UNL A   1      33.232  33.391  27.590  1.00  0.00    -0.246 OA
BRANCH  30  32
ATOM     32  C   UNL A   1      34.842  31.696  28.055  1.00  0.00     0.060 A 
ATOM     33  C   UNL A   1      34.914  30.328  28.356  1.00  0.00     0.016 A 
ATOM     34  C   UNL A   1      35.971  32.502  28.227  1.00  0.00     0.016 A 
ATOM     35  C   UNL A   1      36.094  29.772  28.863  1.00  0.00     0.010 A 
ATOM     36  C   UNL A   1      37.149  31.946  28.743  1.00  0.00     0.010 A 
ATOM     37  C   UNL A   1      37.211  30.582  29.092  1.00  0.00    -0.014 A 
BRANCH  37  38
ATOM     38  C   UNL A   1      38.376  30.064  29.860  1.00  0.00     0.031 A 
ATOM     39  C   UNL A   1      38.592  30.571  31.260  1.00  0.00     0.074 A 
ATOM     40  C   UNL A   1      39.232  29.161  29.347  1.00  0.00     0.049 A 
ATOM     41  N   UNL A   1      39.555  30.298  32.105  1.00  0.00    -0.248 NA
ATOM     42  C   UNL A   1      37.584  31.509  31.776  1.00  0.00     0.031 C 
ATOM     43  C   UNL A   1      39.116  28.532  28.035  1.00  0.00     0.029 A 
ATOM     44  N   UNL A   1      40.388  28.627  29.869  1.00  0.00    -0.354 N 
ATOM     45  C   UNL A   1      39.260  31.021  33.253  1.00  0.00     0.074 A 
ATOM     46  C   UNL A   1      38.063  31.785  32.978  1.00  0.00     0.031 C 
ATOM     47  C   UNL A   1      40.182  27.739  27.830  1.00  0.00     0.029 A 
ATOM     48  C   UNL A   1      41.056  27.799  29.000  1.00  0.00     0.049 A 
ATOM     49  H   UNL A   1      40.705  28.821  30.780  1.00  0.00     0.167 HD
ATOM     50  C   UNL A   1      39.913  31.032  34.440  1.00  0.00     0.037 A 
ATOM     51  C   UNL A   1      42.240  27.166  29.128  1.00  0.00     0.037 A 
ATOM     52  C   UNL A   1      41.110  30.285  34.718  1.00  0.00     0.049 A 
ATOM     53  C   UNL A   1      43.007  27.277  30.421  1.00  0.00     0.074 A 
ATOM     54  C   UNL A   1      41.830  30.220  35.898  1.00  0.00     0.029 A 
ATOM     55  N   UNL A   1      41.774  29.485  33.800  1.00  0.00    -0.354 N 
ATOM     56  N   UNL A   1      42.694  27.924  31.518  1.00  0.00    -0.248 NA
ATOM     57  C   UNL A   1      44.285  26.550  30.502  1.00  0.00     0.031 C 
ATOM     58  C   UNL A   1      42.965  29.433  35.675  1.00  0.00     0.029 A 
ATOM     59  C   UNL A   1      42.915  28.952  34.377  1.00  0.00     0.049 A 
ATOM     60  H   UNL A   1      41.479  29.321  32.875  1.00  0.00     0.167 HD
ATOM     61  C   UNL A   1      43.707  27.646  32.429  1.00  0.00     0.074 A 
ATOM     62  C   UNL A   1      44.644  26.769  31.758  1.00  0.00     0.031 C 
ATOM     63  C   UNL A   1      43.842  28.072  33.708  1.00  0.00     0.037 A 
BRANCH  50  64
ATOM     64  C   UNL A   1      39.349  31.907  35.523  1.00  0.00     0.057 A 
ATOM     65  C   UNL A   1      38.414  31.428  36.450  1.00  0.00     0.134 A 
ATOM     66  C   UNL A   1      39.760  33.240  35.648  1.00  0.00     0.134 A 
ATOM     67  F   UNL A   1      37.967  30.165  36.376  1.00  0.00    -0.206 F 
ATOM     68  C   UNL A   1      37.885  32.252  37.444  1.00  0.00     0.040 A 
ATOM     69  C   UNL A   1      39.262  34.064  36.657  1.00  0.00     0.040 A 
ATOM     70  F   UNL A   1      40.656  33.760  34.795  1.00  0.00    -0.206 F 
ATOM     71  C   UNL A   1      38.314  33.574  37.553  1.00  0.00     0.006 A 
ENDBRANCH  50  64
BRANCH  51  72
ATOM     72  C   UNL A   1      42.782  26.357  28.005  1.00  0.00     0.057 A 
ATOM     73  C   UNL A   1      43.573  26.936  27.006  1.00  0.00     0.134 A 
ATOM     74  C   UNL A   1      42.488  24.993  27.882  1.00  0.00     0.134 A 
ATOM     75  F   UNL A   1      43.868  28.244  27.054  1.00  0.00    -0.206 F 
ATOM     76  C   UNL A   1      44.032  26.198  25.914  1.00  0.00     0.040 A 
ATOM     77  C   UNL A   1      42.962  24.236  26.808  1.00  0.00     0.040 A 
ATOM     78  F   UNL A   1      41.736  24.376  28.804  1.00  0.00    -0.206 F 
ATOM     79  C   UNL A   1      43.729  24.842  25.815  1.00  0.00     0.006 A 
ENDBRANCH  51  72
BRANCH  63  80
ATOM     80  C   UNL A   1      45.018  27.564  34.495  1.00  0.00     0.057 A 
ATOM     81  C   UNL A   1      46.227  28.268  34.568  1.00  0.00     0.134 A 
ATOM     82  C   UNL A   1      44.920  26.376  35.231  1.00  0.00     0.134 A 
ATOM     83  F   UNL A   1      46.394  29.408  33.880  1.00  0.00    -0.206 F 
ATOM     84  C   UNL A   1      47.302  27.796  35.324  1.00  0.00     0.040 A 
ATOM     85  C   UNL A   1      45.976  25.910  36.016  1.00  0.00     0.040 A 
ATOM     86  F   UNL A   1      43.788  25.656  35.216  1.00  0.00    -0.206 F 
ATOM     87  C   UNL A   1      47.175  26.618  36.058  1.00  0.00     0.006 A 
ENDBRANCH  63  80
ENDBRANCH  37  38
ENDBRANCH  30  32
ENDBRANCH  29  30
ENDBRANCH  28  29
ENDBRANCH   1  28
TORSDOF 16
ENDMDL
