MODEL 1
REMARK VINA RESULT:     -11.5      0.000      0.000
REMARK SMILES C[C@H]1SCCC[C@H]1[NH+]1CCC([N@@H+]2CCC[C@@H]2C(=O)OCCOC(=O)c2ccc(-c3c4nc(c(-c5c(F)cccc5F)c5ccc([nH]5)c(-c5c(F)cccc5F)c5nc(c(-c6c(F)cccc6F)c6ccc3[nH]6)C=C5)C=C4)cc2)CC1
REMARK SMILES IDX 20 1 19 2 17 3 18 4 16 5 12 6 13 7 14 9 15 10 11 11 8 12
REMARK SMILES IDX 9 13 80 14 10 16 79 17 7 18 1 19 2 20 3 21 4 22 6 23 5 24
REMARK SMILES IDX 21 25 22 26 23 27 24 28 25 29 26 30 78 31 27 32 77 33 28 34
REMARK SMILES IDX 29 35 30 36 71 37 31 38 76 39 70 40 72 41 32 42 75 43 69 44
REMARK SMILES IDX 68 45 33 47 59 48 42 49 58 50 43 51 46 52 57 53 73 54 44 55
REMARK SMILES IDX 45 56 56 58 74 59 47 60 34 61 35 62 40 63 36 64 37 65 39 66
REMARK SMILES IDX 41 67 38 68 60 69 61 70 66 71 62 72 63 73 65 74 67 75 64 76
REMARK SMILES IDX 48 77 49 78 54 79 50 80 51 81 53 82 55 83 52 84
REMARK H PARENT 12 8 8 15 72 46 46 57
REMARK Flexibility Score: inf
ROOT
ATOM      1  C   UNL A   1      38.177  21.192  25.363  1.00  0.00     0.274 C 
ENDROOT
BRANCH   1   2
ATOM      2  O   UNL A   1      36.918  21.111  24.656  1.00  0.00    -0.458 OA
BRANCH   2   3
ATOM      3  C   UNL A   1      35.760  21.143  25.378  1.00  0.00     0.365 C 
ATOM      4  O   UNL A   1      35.687  21.536  26.538  1.00  0.00    -0.245 OA
BRANCH   3   5
ATOM      5  C   UNL A   1      34.537  20.775  24.526  1.00  0.00     0.295 C 
ATOM      6  N   UNL A   1      33.405  21.725  24.333  1.00  0.00    -0.320 N 
ATOM      7  C   UNL A   1      32.349  20.887  23.732  1.00  0.00     0.263 C 
ATOM      8  H   UNL A   1      33.792  22.487  23.776  1.00  0.00     0.349 HD
ATOM      9  C   UNL A   1      32.470  19.526  24.402  1.00  0.00     0.068 C 
ATOM     10  C   UNL A   1      33.948  19.378  24.711  1.00  0.00     0.083 C 
BRANCH   6  11
ATOM     11  C   UNL A   1      32.894  22.628  25.383  1.00  0.00     0.196 C 
ATOM     12  N   UNL A   1      31.402  24.904  26.529  1.00  0.00    -0.331 N 
ATOM     13  C   UNL A   1      30.889  23.553  26.610  1.00  0.00     0.268 C 
ATOM     14  C   UNL A   1      32.861  24.945  26.508  1.00  0.00     0.268 C 
ATOM     15  H   UNL A   1      31.060  25.259  27.421  1.00  0.00     0.348 HD
ATOM     16  C   UNL A   1      31.361  22.701  25.441  1.00  0.00     0.126 C 
ATOM     17  C   UNL A   1      33.543  24.017  25.490  1.00  0.00     0.126 C 
BRANCH  12  18
ATOM     18  C   UNL A   1      30.657  26.024  25.936  1.00  0.00     0.196 C 
ATOM     19  C   UNL A   1      31.643  28.006  27.303  1.00  0.00     0.026 C 
ATOM     20  C   UNL A   1      31.137  27.502  25.960  1.00  0.00     0.101 C 
ATOM     21  S   UNL A   1      32.220  28.105  24.612  1.00  0.00    -0.153 SA
ATOM     22  C   UNL A   1      32.297  26.698  23.482  1.00  0.00     0.070 C 
ATOM     23  C   UNL A   1      30.099  25.737  24.527  1.00  0.00     0.067 C 
ATOM     24  C   UNL A   1      31.054  25.833  23.341  1.00  0.00     0.017 C 
ENDBRANCH  12  18
ENDBRANCH   6  11
ENDBRANCH   3   5
ENDBRANCH   2   3
ENDBRANCH   1   2
BRANCH   1  25
ATOM     25  C   UNL A   1      38.942  19.868  25.297  1.00  0.00     0.275 C 
BRANCH  25  26
ATOM     26  O   UNL A   1      39.758  19.713  26.465  1.00  0.00    -0.458 OA
BRANCH  26  27
ATOM     27  C   UNL A   1      41.081  19.608  26.209  1.00  0.00     0.338 C 
ATOM     28  O   UNL A   1      41.663  18.715  25.623  1.00  0.00    -0.246 OA
BRANCH  27  29
ATOM     29  C   UNL A   1      41.704  20.889  26.555  1.00  0.00     0.060 A 
ATOM     30  C   UNL A   1      41.939  21.134  27.911  1.00  0.00     0.016 A 
ATOM     31  C   UNL A   1      42.051  21.827  25.585  1.00  0.00     0.016 A 
ATOM     32  C   UNL A   1      42.518  22.322  28.317  1.00  0.00     0.010 A 
ATOM     33  C   UNL A   1      42.622  23.031  25.991  1.00  0.00     0.010 A 
ATOM     34  C   UNL A   1      42.843  23.282  27.357  1.00  0.00    -0.014 A 
BRANCH  34  35
ATOM     35  C   UNL A   1      43.332  24.599  27.795  1.00  0.00     0.031 A 
ATOM     36  C   UNL A   1      42.334  25.632  28.214  1.00  0.00     0.074 A 
ATOM     37  C   UNL A   1      44.652  24.848  27.809  1.00  0.00     0.049 A 
ATOM     38  N   UNL A   1      42.517  26.896  28.484  1.00  0.00    -0.248 NA
ATOM     39  C   UNL A   1      40.938  25.179  28.335  1.00  0.00     0.031 C 
ATOM     40  C   UNL A   1      45.696  23.877  27.479  1.00  0.00     0.029 A 
ATOM     41  N   UNL A   1      45.335  25.999  28.093  1.00  0.00    -0.354 N 
ATOM     42  C   UNL A   1      41.256  27.398  28.777  1.00  0.00     0.074 A 
ATOM     43  C   UNL A   1      40.316  26.307  28.644  1.00  0.00     0.031 C 
ATOM     44  C   UNL A   1      46.892  24.485  27.550  1.00  0.00     0.029 A 
ATOM     45  C   UNL A   1      46.686  25.892  27.878  1.00  0.00     0.049 A 
ATOM     46  H   UNL A   1      44.900  26.821  28.418  1.00  0.00     0.167 HD
ATOM     47  C   UNL A   1      40.926  28.663  29.121  1.00  0.00     0.037 A 
ATOM     48  C   UNL A   1      47.638  26.843  27.895  1.00  0.00     0.037 A 
ATOM     49  C   UNL A   1      41.886  29.727  29.254  1.00  0.00     0.049 A 
ATOM     50  C   UNL A   1      47.235  28.256  28.210  1.00  0.00     0.074 A 
ATOM     51  C   UNL A   1      41.674  31.041  29.628  1.00  0.00     0.029 A 
ATOM     52  N   UNL A   1      43.245  29.591  29.007  1.00  0.00    -0.354 N 
ATOM     53  N   UNL A   1      46.044  28.733  28.491  1.00  0.00    -0.248 NA
ATOM     54  C   UNL A   1      48.301  29.266  28.200  1.00  0.00     0.031 C 
ATOM     55  C   UNL A   1      42.899  31.713  29.558  1.00  0.00     0.029 A 
ATOM     56  C   UNL A   1      43.882  30.806  29.186  1.00  0.00     0.049 A 
ATOM     57  H   UNL A   1      43.690  28.753  28.744  1.00  0.00     0.167 HD
ATOM     58  C   UNL A   1      46.217  30.094  28.700  1.00  0.00     0.074 A 
ATOM     59  C   UNL A   1      47.633  30.362  28.533  1.00  0.00     0.031 C 
ATOM     60  C   UNL A   1      45.292  31.040  28.999  1.00  0.00     0.037 A 
BRANCH  47  61
ATOM     61  C   UNL A   1      39.471  28.967  29.325  1.00  0.00     0.057 A 
ATOM     62  C   UNL A   1      38.643  29.391  28.279  1.00  0.00     0.134 A 
ATOM     63  C   UNL A   1      38.891  28.827  30.592  1.00  0.00     0.134 A 
ATOM     64  F   UNL A   1      39.141  29.568  27.045  1.00  0.00    -0.206 F 
ATOM     65  C   UNL A   1      37.294  29.686  28.490  1.00  0.00     0.040 A 
ATOM     66  C   UNL A   1      37.538  29.094  30.810  1.00  0.00     0.040 A 
ATOM     67  F   UNL A   1      39.628  28.427  31.640  1.00  0.00    -0.206 F 
ATOM     68  C   UNL A   1      36.737  29.531  29.758  1.00  0.00     0.006 A 
ENDBRANCH  47  61
BRANCH  48  69
ATOM     69  C   UNL A   1      49.037  26.490  27.557  1.00  0.00     0.057 A 
ATOM     70  C   UNL A   1      49.955  26.130  28.548  1.00  0.00     0.134 A 
ATOM     71  C   UNL A   1      49.485  26.482  26.230  1.00  0.00     0.134 A 
ATOM     72  F   UNL A   1      49.592  26.137  29.839  1.00  0.00    -0.206 F 
ATOM     73  C   UNL A   1      51.270  25.780  28.233  1.00  0.00     0.040 A 
ATOM     74  C   UNL A   1      50.788  26.112  25.898  1.00  0.00     0.040 A 
ATOM     75  F   UNL A   1      48.653  26.817  25.232  1.00  0.00    -0.206 F 
ATOM     76  C   UNL A   1      51.687  25.763  26.904  1.00  0.00     0.006 A 
ENDBRANCH  48  69
BRANCH  60  77
ATOM     77  C   UNL A   1      45.790  32.443  29.168  1.00  0.00     0.057 A 
ATOM     78  C   UNL A   1      45.818  33.344  28.098  1.00  0.00     0.134 A 
ATOM     79  C   UNL A   1      46.200  32.908  30.424  1.00  0.00     0.134 A 
ATOM     80  F   UNL A   1      45.451  32.953  26.868  1.00  0.00    -0.206 F 
ATOM     81  C   UNL A   1      46.255  34.658  28.267  1.00  0.00     0.040 A 
ATOM     82  C   UNL A   1      46.615  34.227  30.610  1.00  0.00     0.040 A 
ATOM     83  F   UNL A   1      46.188  32.095  31.490  1.00  0.00    -0.206 F 
ATOM     84  C   UNL A   1      46.647  35.105  29.528  1.00  0.00     0.006 A 
ENDBRANCH  60  77
ENDBRANCH  34  35
ENDBRANCH  27  29
ENDBRANCH  26  27
ENDBRANCH  25  26
ENDBRANCH   1  25
TORSDOF 13
ENDMDL
MODEL 2
REMARK VINA RESULT:     -11.4      5.232      9.924
REMARK SMILES C[C@H]1SCCC[C@H]1[NH+]1CCC([N@@H+]2CCC[C@@H]2C(=O)OCCOC(=O)c2ccc(-c3c4nc(c(-c5c(F)cccc5F)c5ccc([nH]5)c(-c5c(F)cccc5F)c5nc(c(-c6c(F)cccc6F)c6ccc3[nH]6)C=C5)C=C4)cc2)CC1
REMARK SMILES IDX 20 1 19 2 17 3 18 4 16 5 12 6 13 7 14 9 15 10 11 11 8 12
REMARK SMILES IDX 9 13 80 14 10 16 79 17 7 18 1 19 2 20 3 21 4 22 6 23 5 24
REMARK SMILES IDX 21 25 22 26 23 27 24 28 25 29 26 30 78 31 27 32 77 33 28 34
REMARK SMILES IDX 29 35 30 36 71 37 31 38 76 39 70 40 72 41 32 42 75 43 69 44
REMARK SMILES IDX 68 45 33 47 59 48 42 49 58 50 43 51 46 52 57 53 73 54 44 55
REMARK SMILES IDX 45 56 56 58 74 59 47 60 34 61 35 62 40 63 36 64 37 65 39 66
REMARK SMILES IDX 41 67 38 68 60 69 61 70 66 71 62 72 63 73 65 74 67 75 64 76
REMARK SMILES IDX 48 77 49 78 54 79 50 80 51 81 53 82 55 83 52 84
REMARK H PARENT 12 8 8 15 72 46 46 57
REMARK Flexibility Score: inf
ROOT
ATOM      1  C   UNL A   1      31.776  31.390  26.526  1.00  0.00     0.274 C 
ENDROOT
BRANCH   1   2
ATOM      2  O   UNL A   1      32.858  30.589  27.053  1.00  0.00    -0.458 OA
BRANCH   2   3
ATOM      3  C   UNL A   1      33.362  29.581  26.281  1.00  0.00     0.365 C 
ATOM      4  O   UNL A   1      34.362  28.932  26.571  1.00  0.00    -0.245 OA
BRANCH   3   5
ATOM      5  C   UNL A   1      32.452  29.256  25.089  1.00  0.00     0.295 C 
ATOM      6  N   UNL A   1      31.482  28.124  25.132  1.00  0.00    -0.320 N 
ATOM      7  C   UNL A   1      31.055  27.980  23.728  1.00  0.00     0.263 C 
ATOM      8  H   UNL A   1      30.785  28.401  25.824  1.00  0.00     0.349 HD
ATOM      9  C   UNL A   1      32.291  28.266  22.888  1.00  0.00     0.068 C 
ATOM     10  C   UNL A   1      33.083  29.275  23.698  1.00  0.00     0.083 C 
BRANCH   6  11
ATOM     11  C   UNL A   1      31.750  26.828  25.787  1.00  0.00     0.196 C 
ATOM     12  N   UNL A   1      32.140  23.909  25.992  1.00  0.00    -0.331 N 
ATOM     13  C   UNL A   1      33.266  24.819  25.997  1.00  0.00     0.268 C 
ATOM     14  C   UNL A   1      30.937  24.510  26.559  1.00  0.00     0.268 C 
ATOM     15  H   UNL A   1      32.504  23.201  26.629  1.00  0.00     0.348 HD
ATOM     16  C   UNL A   1      32.967  26.088  25.213  1.00  0.00     0.126 C 
ATOM     17  C   UNL A   1      30.552  25.891  26.005  1.00  0.00     0.126 C 
BRANCH  12  18
ATOM     18  C   UNL A   1      31.993  22.801  25.038  1.00  0.00     0.196 C 
ATOM     19  C   UNL A   1      30.670  23.998  23.145  1.00  0.00     0.026 C 
ATOM     20  C   UNL A   1      31.744  22.988  23.515  1.00  0.00     0.101 C 
ATOM     21  S   UNL A   1      33.183  23.161  22.395  1.00  0.00    -0.153 SA
ATOM     22  C   UNL A   1      34.594  22.898  23.492  1.00  0.00     0.070 C 
ATOM     23  C   UNL A   1      33.038  21.678  25.206  1.00  0.00     0.067 C 
ATOM     24  C   UNL A   1      34.433  21.901  24.629  1.00  0.00     0.017 C 
ENDBRANCH  12  18
ENDBRANCH   6  11
ENDBRANCH   3   5
ENDBRANCH   2   3
ENDBRANCH   1   2
BRANCH   1  25
ATOM     25  C   UNL A   1      31.721  32.765  27.194  1.00  0.00     0.275 C 
BRANCH  25  26
ATOM     26  O   UNL A   1      33.027  33.354  27.215  1.00  0.00    -0.458 OA
BRANCH  26  27
ATOM     27  C   UNL A   1      33.242  34.197  28.250  1.00  0.00     0.338 C 
ATOM     28  O   UNL A   1      32.539  35.114  28.628  1.00  0.00    -0.246 OA
BRANCH  27  29
ATOM     29  C   UNL A   1      34.377  33.677  29.019  1.00  0.00     0.060 A 
ATOM     30  C   UNL A   1      35.631  34.230  28.748  1.00  0.00     0.016 A 
ATOM     31  C   UNL A   1      34.223  32.679  29.979  1.00  0.00     0.016 A 
ATOM     32  C   UNL A   1      36.752  33.787  29.429  1.00  0.00     0.010 A 
ATOM     33  C   UNL A   1      35.351  32.222  30.657  1.00  0.00     0.010 A 
ATOM     34  C   UNL A   1      36.616  32.768  30.372  1.00  0.00    -0.014 A 
BRANCH  34  35
ATOM     35  C   UNL A   1      37.821  32.201  30.997  1.00  0.00     0.031 A 
ATOM     36  C   UNL A   1      38.567  31.125  30.273  1.00  0.00     0.074 A 
ATOM     37  C   UNL A   1      38.224  32.656  32.195  1.00  0.00     0.049 A 
ATOM     38  N   UNL A   1      39.551  30.378  30.692  1.00  0.00    -0.248 NA
ATOM     39  C   UNL A   1      38.137  30.849  28.892  1.00  0.00     0.031 C 
ATOM     40  C   UNL A   1      37.594  33.747  32.939  1.00  0.00     0.029 A 
ATOM     41  N   UNL A   1      39.248  32.241  33.002  1.00  0.00    -0.354 N 
ATOM     42  C   UNL A   1      39.840  29.521  29.639  1.00  0.00     0.074 A 
ATOM     43  C   UNL A   1      38.923  29.834  28.566  1.00  0.00     0.031 C 
ATOM     44  C   UNL A   1      38.228  33.894  34.114  1.00  0.00     0.029 A 
ATOM     45  C   UNL A   1      39.270  32.877  34.218  1.00  0.00     0.049 A 
ATOM     46  H   UNL A   1      39.903  31.554  32.738  1.00  0.00     0.167 HD
ATOM     47  C   UNL A   1      40.787  28.557  29.587  1.00  0.00     0.037 A 
ATOM     48  C   UNL A   1      40.016  32.624  35.308  1.00  0.00     0.037 A 
ATOM     49  C   UNL A   1      41.692  28.275  30.670  1.00  0.00     0.049 A 
ATOM     50  C   UNL A   1      41.013  31.502  35.252  1.00  0.00     0.074 A 
ATOM     51  C   UNL A   1      42.714  27.345  30.722  1.00  0.00     0.029 A 
ATOM     52  N   UNL A   1      41.672  28.923  31.897  1.00  0.00    -0.354 N 
ATOM     53  N   UNL A   1      41.290  30.692  34.256  1.00  0.00    -0.248 NA
ATOM     54  C   UNL A   1      41.793  31.247  36.469  1.00  0.00     0.031 C 
ATOM     55  C   UNL A   1      43.280  27.397  32.001  1.00  0.00     0.029 A 
ATOM     56  C   UNL A   1      42.642  28.391  32.729  1.00  0.00     0.049 A 
ATOM     57  H   UNL A   1      41.060  29.654  32.140  1.00  0.00     0.167 HD
ATOM     58  C   UNL A   1      42.280  29.839  34.721  1.00  0.00     0.074 A 
ATOM     59  C   UNL A   1      42.570  30.244  36.083  1.00  0.00     0.031 C 
ATOM     60  C   UNL A   1      42.895  28.811  34.085  1.00  0.00     0.037 A 
BRANCH  47  61
ATOM     61  C   UNL A   1      40.853  27.717  28.347  1.00  0.00     0.057 A 
ATOM     62  C   UNL A   1      41.649  28.067  27.249  1.00  0.00     0.134 A 
ATOM     63  C   UNL A   1      40.107  26.536  28.253  1.00  0.00     0.134 A 
ATOM     64  F   UNL A   1      42.371  29.198  27.265  1.00  0.00    -0.206 F 
ATOM     65  C   UNL A   1      41.686  27.282  26.094  1.00  0.00     0.040 A 
ATOM     66  C   UNL A   1      40.154  25.730  27.114  1.00  0.00     0.040 A 
ATOM     67  F   UNL A   1      39.320  26.144  29.267  1.00  0.00    -0.206 F 
ATOM     68  C   UNL A   1      40.940  26.106  26.028  1.00  0.00     0.006 A 
ENDBRANCH  47  61
BRANCH  48  69
ATOM     69  C   UNL A   1      39.805  33.416  36.544  1.00  0.00     0.057 A 
ATOM     70  C   UNL A   1      38.899  33.003  37.526  1.00  0.00     0.134 A 
ATOM     71  C   UNL A   1      40.523  34.595  36.784  1.00  0.00     0.134 A 
ATOM     72  F   UNL A   1      38.169  31.893  37.345  1.00  0.00    -0.206 F 
ATOM     73  C   UNL A   1      38.710  33.736  38.700  1.00  0.00     0.040 A 
ATOM     74  C   UNL A   1      40.361  35.324  37.962  1.00  0.00     0.040 A 
ATOM     75  F   UNL A   1      41.408  35.045  35.882  1.00  0.00    -0.206 F 
ATOM     76  C   UNL A   1      39.448  34.896  38.923  1.00  0.00     0.006 A 
ENDBRANCH  48  69
BRANCH  60  77
ATOM     77  C   UNL A   1      43.940  28.065  34.857  1.00  0.00     0.057 A 
ATOM     78  C   UNL A   1      43.627  26.916  35.592  1.00  0.00     0.134 A 
ATOM     79  C   UNL A   1      45.279  28.474  34.825  1.00  0.00     0.134 A 
ATOM     80  F   UNL A   1      42.359  26.484  35.673  1.00  0.00    -0.206 F 
ATOM     81  C   UNL A   1      44.608  26.208  36.286  1.00  0.00     0.040 A 
ATOM     82  C   UNL A   1      46.273  27.760  35.495  1.00  0.00     0.040 A 
ATOM     83  F   UNL A   1      45.644  29.562  34.130  1.00  0.00    -0.206 F 
ATOM     84  C   UNL A   1      45.937  26.626  36.232  1.00  0.00     0.006 A 
ENDBRANCH  60  77
ENDBRANCH  34  35
ENDBRANCH  27  29
ENDBRANCH  26  27
ENDBRANCH  25  26
ENDBRANCH   1  25
TORSDOF 13
ENDMDL
MODEL 3
REMARK VINA RESULT:     -11.4      5.149      9.971
REMARK SMILES C[C@H]1SCCC[C@H]1[NH+]1CCC([N@@H+]2CCC[C@@H]2C(=O)OCCOC(=O)c2ccc(-c3c4nc(c(-c5c(F)cccc5F)c5ccc([nH]5)c(-c5c(F)cccc5F)c5nc(c(-c6c(F)cccc6F)c6ccc3[nH]6)C=C5)C=C4)cc2)CC1
REMARK SMILES IDX 20 1 19 2 17 3 18 4 16 5 12 6 13 7 14 9 15 10 11 11 8 12
REMARK SMILES IDX 9 13 80 14 10 16 79 17 7 18 1 19 2 20 3 21 4 22 6 23 5 24
REMARK SMILES IDX 21 25 22 26 23 27 24 28 25 29 26 30 78 31 27 32 77 33 28 34
REMARK SMILES IDX 29 35 30 36 71 37 31 38 76 39 70 40 72 41 32 42 75 43 69 44
REMARK SMILES IDX 68 45 33 47 59 48 42 49 58 50 43 51 46 52 57 53 73 54 44 55
REMARK SMILES IDX 45 56 56 58 74 59 47 60 34 61 35 62 40 63 36 64 37 65 39 66
REMARK SMILES IDX 41 67 38 68 60 69 61 70 66 71 62 72 63 73 65 74 67 75 64 76
REMARK SMILES IDX 48 77 49 78 54 79 50 80 51 81 53 82 55 83 52 84
REMARK H PARENT 12 8 8 15 72 46 46 57
REMARK Flexibility Score: inf
ROOT
ATOM      1  C   UNL A   1      33.280  33.650  27.963  1.00  0.00     0.274 C 
ENDROOT
BRANCH   1   2
ATOM      2  O   UNL A   1      32.862  34.548  29.016  1.00  0.00    -0.458 OA
BRANCH   2   3
ATOM      3  C   UNL A   1      33.550  35.714  29.193  1.00  0.00     0.365 C 
ATOM      4  O   UNL A   1      34.009  36.384  28.274  1.00  0.00    -0.245 OA
BRANCH   3   5
ATOM      5  C   UNL A   1      33.554  36.165  30.660  1.00  0.00     0.295 C 
ATOM      6  N   UNL A   1      34.623  35.736  31.607  1.00  0.00    -0.320 N 
ATOM      7  C   UNL A   1      34.092  36.123  32.928  1.00  0.00     0.263 C 
ATOM      8  H   UNL A   1      35.470  36.195  31.274  1.00  0.00     0.349 HD
ATOM      9  C   UNL A   1      32.592  35.872  32.860  1.00  0.00     0.068 C 
ATOM     10  C   UNL A   1      32.224  36.123  31.410  1.00  0.00     0.083 C 
BRANCH   6  11
ATOM     11  C   UNL A   1      35.240  34.394  31.607  1.00  0.00     0.196 C 
ATOM     12  N   UNL A   1      36.684  32.060  32.693  1.00  0.00    -0.331 N 
ATOM     13  C   UNL A   1      35.244  32.049  32.543  1.00  0.00     0.268 C 
ATOM     14  C   UNL A   1      37.340  32.907  31.703  1.00  0.00     0.268 C 
ATOM     15  H   UNL A   1      36.873  31.079  32.489  1.00  0.00     0.348 HD
ATOM     16  C   UNL A   1      34.655  33.446  32.663  1.00  0.00     0.126 C 
ATOM     17  C   UNL A   1      36.775  34.328  31.555  1.00  0.00     0.126 C 
BRANCH  12  18
ATOM     18  C   UNL A   1      37.371  31.800  33.967  1.00  0.00     0.196 C 
ATOM     19  C   UNL A   1      39.151  30.072  33.184  1.00  0.00     0.026 C 
ATOM     20  C   UNL A   1      38.822  31.256  34.080  1.00  0.00     0.101 C 
ATOM     21  S   UNL A   1      40.217  32.442  34.092  1.00  0.00    -0.153 SA
ATOM     22  C   UNL A   1      39.393  34.049  34.107  1.00  0.00     0.070 C 
ATOM     23  C   UNL A   1      37.211  32.924  35.012  1.00  0.00     0.067 C 
ATOM     24  C   UNL A   1      38.083  34.167  34.872  1.00  0.00     0.017 C 
ENDBRANCH  12  18
ENDBRANCH   6  11
ENDBRANCH   3   5
ENDBRANCH   2   3
ENDBRANCH   1   2
BRANCH   1  25
ATOM     25  C   UNL A   1      34.640  33.020  28.272  1.00  0.00     0.275 C 
BRANCH  25  26
ATOM     26  O   UNL A   1      34.463  31.813  29.024  1.00  0.00    -0.458 OA
BRANCH  26  27
ATOM     27  C   UNL A   1      34.571  30.681  28.292  1.00  0.00     0.338 C 
ATOM     28  O   UNL A   1      33.767  30.215  27.507  1.00  0.00    -0.246 OA
BRANCH  27  29
ATOM     29  C   UNL A   1      35.951  30.200  28.419  1.00  0.00     0.060 A 
ATOM     30  C   UNL A   1      36.347  29.734  29.675  1.00  0.00     0.016 A 
ATOM     31  C   UNL A   1      36.834  30.203  27.341  1.00  0.00     0.016 A 
ATOM     32  C   UNL A   1      37.634  29.270  29.874  1.00  0.00     0.010 A 
ATOM     33  C   UNL A   1      38.135  29.748  27.542  1.00  0.00     0.010 A 
ATOM     34  C   UNL A   1      38.538  29.294  28.811  1.00  0.00    -0.014 A 
BRANCH  34  35
ATOM     35  C   UNL A   1      39.943  28.930  29.053  1.00  0.00     0.031 A 
ATOM     36  C   UNL A   1      40.869  29.969  29.600  1.00  0.00     0.074 A 
ATOM     37  C   UNL A   1      40.364  27.684  28.779  1.00  0.00     0.049 A 
ATOM     38  N   UNL A   1      42.165  29.927  29.745  1.00  0.00    -0.248 NA
ATOM     39  C   UNL A   1      40.249  31.233  30.035  1.00  0.00     0.031 C 
ATOM     40  C   UNL A   1      39.513  26.592  28.304  1.00  0.00     0.029 A 
ATOM     41  N   UNL A   1      41.616  27.137  28.841  1.00  0.00    -0.354 N 
ATOM     42  C   UNL A   1      42.522  31.166  30.258  1.00  0.00     0.074 A 
ATOM     43  C   UNL A   1      41.309  31.942  30.392  1.00  0.00     0.031 C 
ATOM     44  C   UNL A   1      40.277  25.509  28.088  1.00  0.00     0.029 A 
ATOM     45  C   UNL A   1      41.669  25.853  28.361  1.00  0.00     0.049 A 
ATOM     46  H   UNL A   1      42.400  27.617  29.195  1.00  0.00     0.167 HD
ATOM     47  C   UNL A   1      43.759  31.607  30.581  1.00  0.00     0.037 A 
ATOM     48  C   UNL A   1      42.735  25.068  28.120  1.00  0.00     0.037 A 
ATOM     49  C   UNL A   1      44.948  30.808  30.444  1.00  0.00     0.049 A 
ATOM     50  C   UNL A   1      44.106  25.606  28.419  1.00  0.00     0.074 A 
ATOM     51  C   UNL A   1      46.251  31.135  30.768  1.00  0.00     0.029 A 
ATOM     52  N   UNL A   1      44.970  29.518  29.932  1.00  0.00    -0.354 N 
ATOM     53  N   UNL A   1      44.445  26.777  28.908  1.00  0.00    -0.248 NA
ATOM     54  C   UNL A   1      45.242  24.724  28.125  1.00  0.00     0.031 C 
ATOM     55  C   UNL A   1      47.070  30.060  30.404  1.00  0.00     0.029 A 
ATOM     56  C   UNL A   1      46.270  29.045  29.898  1.00  0.00     0.049 A 
ATOM     57  H   UNL A   1      44.178  29.013  29.637  1.00  0.00     0.167 HD
ATOM     58  C   UNL A   1      45.830  26.770  28.988  1.00  0.00     0.074 A 
ATOM     59  C   UNL A   1      46.267  25.470  28.517  1.00  0.00     0.031 C 
ATOM     60  C   UNL A   1      46.669  27.748  29.410  1.00  0.00     0.037 A 
BRANCH  47  61
ATOM     61  C   UNL A   1      43.886  33.023  31.059  1.00  0.00     0.057 A 
ATOM     62  C   UNL A   1      43.835  33.359  32.418  1.00  0.00     0.134 A 
ATOM     63  C   UNL A   1      44.065  34.066  30.142  1.00  0.00     0.134 A 
ATOM     64  F   UNL A   1      43.643  32.410  33.348  1.00  0.00    -0.206 F 
ATOM     65  C   UNL A   1      43.938  34.685  32.846  1.00  0.00     0.040 A 
ATOM     66  C   UNL A   1      44.194  35.392  30.560  1.00  0.00     0.040 A 
ATOM     67  F   UNL A   1      44.119  33.814  28.825  1.00  0.00    -0.206 F 
ATOM     68  C   UNL A   1      44.124  35.705  31.914  1.00  0.00     0.006 A 
ENDBRANCH  47  61
BRANCH  48  69
ATOM     69  C   UNL A   1      42.540  23.724  27.525  1.00  0.00     0.057 A 
ATOM     70  C   UNL A   1      42.555  23.535  26.140  1.00  0.00     0.134 A 
ATOM     71  C   UNL A   1      42.356  22.592  28.329  1.00  0.00     0.134 A 
ATOM     72  F   UNL A   1      42.707  24.582  25.317  1.00  0.00    -0.206 F 
ATOM     73  C   UNL A   1      42.388  22.268  25.574  1.00  0.00     0.040 A 
ATOM     74  C   UNL A   1      42.213  21.318  27.779  1.00  0.00     0.040 A 
ATOM     75  F   UNL A   1      42.333  22.707  29.666  1.00  0.00    -0.206 F 
ATOM     76  C   UNL A   1      42.224  21.154  26.396  1.00  0.00     0.006 A 
ENDBRANCH  48  69
BRANCH  60  77
ATOM     77  C   UNL A   1      48.136  27.441  29.382  1.00  0.00     0.057 A 
ATOM     78  C   UNL A   1      48.768  26.795  30.450  1.00  0.00     0.134 A 
ATOM     79  C   UNL A   1      48.909  27.752  28.258  1.00  0.00     0.134 A 
ATOM     80  F   UNL A   1      48.083  26.484  31.561  1.00  0.00    -0.206 F 
ATOM     81  C   UNL A   1      50.128  26.484  30.408  1.00  0.00     0.040 A 
ATOM     82  C   UNL A   1      50.264  27.425  28.194  1.00  0.00     0.040 A 
ATOM     83  F   UNL A   1      48.358  28.364  27.198  1.00  0.00    -0.206 F 
ATOM     84  C   UNL A   1      50.878  26.793  29.274  1.00  0.00     0.006 A 
ENDBRANCH  60  77
ENDBRANCH  34  35
ENDBRANCH  27  29
ENDBRANCH  26  27
ENDBRANCH  25  26
ENDBRANCH   1  25
TORSDOF 13
ENDMDL
