MODEL 1
REMARK VINA RESULT:     -12.2      0.000      0.000
REMARK SMILES O=C(OCCOC(=O)c1ccc2c(=O)n(CCC[NH+]3CCOCC3)c(=O)[nH]c2c1)c1ccc(-c2c3nc(c(-c4c(F)cccc4F)c4ccc([nH]4)c(-c4c(F)cccc4F)c4nc(c(-c5c(F)cccc5F)c5ccc2[nH]5)C=C4)C=C3)cc1
REMARK SMILES IDX 5 1 4 2 3 3 2 4 1 5 30 6 31 7 83 8 32 9 82 10 33 11 34 12
REMARK SMILES IDX 35 13 76 14 36 15 81 16 75 17 77 18 37 19 80 20 74 21 73 22
REMARK SMILES IDX 38 24 64 25 47 26 63 27 48 28 51 29 62 30 78 31 49 32 50 33
REMARK SMILES IDX 61 35 79 36 52 37 39 38 40 39 45 40 41 41 42 42 44 43 46 44
REMARK SMILES IDX 43 45 65 46 66 47 71 48 67 49 68 50 70 51 72 52 69 53 53 54
REMARK SMILES IDX 54 55 59 56 55 57 56 58 58 59 60 60 57 61 6 62 7 63 8 64
REMARK SMILES IDX 9 65 10 66 29 67 11 68 28 69 12 70 27 71 13 72 25 73 14 75
REMARK SMILES IDX 15 76 26 77 16 78 17 79 18 80 19 81 20 82 24 83 21 85 23 86
REMARK SMILES IDX 22 87
REMARK H PARENT 77 23 51 34 27 74 19 84
REMARK Flexibility Score: inf
ROOT
ATOM      1  C   UNL A   1      31.772  31.160  26.126  1.00  0.00     0.275 C 
ENDROOT
BRANCH   1   2
ATOM      2  C   UNL A   1      31.269  32.398  26.876  1.00  0.00     0.275 C 
BRANCH   2   3
ATOM      3  O   UNL A   1      32.181  33.506  26.900  1.00  0.00    -0.458 OA
BRANCH   3   4
ATOM      4  C   UNL A   1      32.898  34.011  27.931  1.00  0.00     0.338 C 
ATOM      5  O   UNL A   1      32.567  35.099  28.400  1.00  0.00    -0.246 OA
BRANCH   4   6
ATOM      6  C   UNL A   1      34.184  33.414  28.414  1.00  0.00     0.060 A 
ATOM      7  C   UNL A   1      34.054  32.250  29.185  1.00  0.00     0.016 A 
ATOM      8  C   UNL A   1      35.476  33.899  28.193  1.00  0.00     0.016 A 
ATOM      9  C   UNL A   1      35.153  31.690  29.838  1.00  0.00     0.010 A 
ATOM     10  C   UNL A   1      36.588  33.321  28.827  1.00  0.00     0.010 A 
ATOM     11  C   UNL A   1      36.433  32.236  29.690  1.00  0.00    -0.014 A 
BRANCH  11  12
ATOM     12  C   UNL A   1      37.608  31.565  30.304  1.00  0.00     0.031 A 
ATOM     13  C   UNL A   1      38.347  30.441  29.611  1.00  0.00     0.074 A 
ATOM     14  C   UNL A   1      37.966  31.987  31.533  1.00  0.00     0.049 A 
ATOM     15  N   UNL A   1      39.425  29.799  29.987  1.00  0.00    -0.248 NA
ATOM     16  C   UNL A   1      37.813  29.971  28.323  1.00  0.00     0.031 C 
ATOM     17  C   UNL A   1      37.268  33.025  32.304  1.00  0.00     0.029 A 
ATOM     18  N   UNL A   1      38.968  31.579  32.371  1.00  0.00    -0.354 N 
ATOM     19  C   UNL A   1      39.747  28.927  28.944  1.00  0.00     0.074 A 
ATOM     20  C   UNL A   1      38.713  29.068  27.947  1.00  0.00     0.031 C 
ATOM     21  C   UNL A   1      37.839  33.146  33.508  1.00  0.00     0.029 A 
ATOM     22  C   UNL A   1      38.901  32.160  33.614  1.00  0.00     0.049 A 
ATOM     23  H   UNL A   1      39.667  30.936  32.110  1.00  0.00     0.167 HD
ATOM     24  C   UNL A   1      40.818  28.101  28.839  1.00  0.00     0.037 A 
ATOM     25  C   UNL A   1      39.579  31.880  34.741  1.00  0.00     0.037 A 
ATOM     26  C   UNL A   1      41.772  27.937  29.917  1.00  0.00     0.049 A 
ATOM     27  C   UNL A   1      40.648  30.836  34.665  1.00  0.00     0.074 A 
ATOM     28  C   UNL A   1      42.953  27.215  29.935  1.00  0.00     0.029 A 
ATOM     29  N   UNL A   1      41.630  28.493  31.184  1.00  0.00    -0.354 N 
ATOM     30  N   UNL A   1      41.035  30.131  33.628  1.00  0.00    -0.248 NA
ATOM     31  C   UNL A   1      41.384  30.551  35.900  1.00  0.00     0.031 C 
ATOM     32  C   UNL A   1      43.487  27.279  31.229  1.00  0.00     0.029 A 
ATOM     33  C   UNL A   1      42.674  28.093  32.002  1.00  0.00     0.049 A 
ATOM     34  H   UNL A   1      40.894  29.085  31.460  1.00  0.00     0.167 HD
ATOM     35  C   UNL A   1      42.086  29.347  34.075  1.00  0.00     0.074 A 
ATOM     36  C   UNL A   1      42.274  29.667  35.478  1.00  0.00     0.031 C 
ATOM     37  C   UNL A   1      42.835  28.450  33.389  1.00  0.00     0.037 A 
BRANCH  24  38
ATOM     38  C   UNL A   1      41.056  27.319  27.559  1.00  0.00     0.057 A 
ATOM     39  C   UNL A   1      40.637  25.987  27.444  1.00  0.00     0.134 A 
ATOM     40  C   UNL A   1      41.827  27.812  26.496  1.00  0.00     0.134 A 
ATOM     41  F   UNL A   1      39.851  25.441  28.382  1.00  0.00    -0.206 F 
ATOM     42  C   UNL A   1      41.030  25.173  26.371  1.00  0.00     0.040 A 
ATOM     43  C   UNL A   1      42.255  27.005  25.434  1.00  0.00     0.040 A 
ATOM     44  F   UNL A   1      42.140  29.107  26.422  1.00  0.00    -0.206 F 
ATOM     45  C   UNL A   1      41.867  25.674  25.376  1.00  0.00     0.006 A 
ENDBRANCH  24  38
BRANCH  25  46
ATOM     46  C   UNL A   1      39.204  32.533  36.022  1.00  0.00     0.057 A 
ATOM     47  C   UNL A   1      38.319  31.908  36.913  1.00  0.00     0.134 A 
ATOM     48  C   UNL A   1      39.721  33.775  36.399  1.00  0.00     0.134 A 
ATOM     49  F   UNL A   1      37.774  30.721  36.608  1.00  0.00    -0.206 F 
ATOM     50  C   UNL A   1      37.965  32.493  38.128  1.00  0.00     0.040 A 
ATOM     51  C   UNL A   1      39.401  34.357  37.627  1.00  0.00     0.040 A 
ATOM     52  F   UNL A   1      40.579  34.421  35.595  1.00  0.00    -0.206 F 
ATOM     53  C   UNL A   1      38.518  33.717  38.495  1.00  0.00     0.006 A 
ENDBRANCH  25  46
BRANCH  37  54
ATOM     54  C   UNL A   1      43.962  27.820  34.148  1.00  0.00     0.057 A 
ATOM     55  C   UNL A   1      45.205  28.460  34.230  1.00  0.00     0.134 A 
ATOM     56  C   UNL A   1      43.817  26.587  34.793  1.00  0.00     0.134 A 
ATOM     57  F   UNL A   1      45.400  29.647  33.636  1.00  0.00    -0.206 F 
ATOM     58  C   UNL A   1      46.271  27.887  34.922  1.00  0.00     0.040 A 
ATOM     59  C   UNL A   1      44.868  26.017  35.510  1.00  0.00     0.040 A 
ATOM     60  F   UNL A   1      42.639  25.945  34.777  1.00  0.00    -0.206 F 
ATOM     61  C   UNL A   1      46.102  26.664  35.568  1.00  0.00     0.006 A 
ENDBRANCH  37  54
ENDBRANCH  11  12
ENDBRANCH   4   6
ENDBRANCH   3   4
ENDBRANCH   2   3
ENDBRANCH   1   2
BRANCH   1  62
ATOM     62  O   UNL A   1      32.151  30.070  26.981  1.00  0.00    -0.458 OA
BRANCH  62  63
ATOM     63  C   UNL A   1      33.245  29.360  26.591  1.00  0.00     0.338 C 
ATOM     64  O   UNL A   1      34.402  29.735  26.571  1.00  0.00    -0.246 OA
BRANCH  63  65
ATOM     65  C   UNL A   1      32.813  27.973  26.317  1.00  0.00     0.062 A 
ATOM     66  C   UNL A   1      31.490  27.592  26.564  1.00  0.00     0.016 A 
ATOM     67  C   UNL A   1      33.774  27.024  25.932  1.00  0.00     0.042 A 
ATOM     68  C   UNL A   1      31.156  26.239  26.535  1.00  0.00     0.017 A 
ATOM     69  C   UNL A   1      33.438  25.668  25.963  1.00  0.00     0.056 A 
ATOM     70  C   UNL A   1      32.153  25.285  26.309  1.00  0.00     0.064 A 
ATOM     71  N   UNL A   1      34.401  24.679  25.774  1.00  0.00    -0.307 N 
ATOM     72  C   UNL A   1      31.908  23.864  26.597  1.00  0.00     0.264 A 
ATOM     73  C   UNL A   1      34.155  23.330  25.869  1.00  0.00     0.328 A 
ATOM     74  H   UNL A   1      35.318  24.965  25.558  1.00  0.00     0.171 HD
ATOM     75  O   UNL A   1      30.908  23.605  27.251  1.00  0.00    -0.268 OA
ATOM     76  N   UNL A   1      32.864  22.944  26.203  1.00  0.00    -0.260 N 
ATOM     77  O   UNL A   1      35.086  22.552  25.670  1.00  0.00    -0.248 OA
BRANCH  76  78
ATOM     78  C   UNL A   1      32.508  21.514  26.112  1.00  0.00     0.137 C 
BRANCH  78  79
ATOM     79  C   UNL A   1      32.488  20.824  24.737  1.00  0.00     0.083 C 
BRANCH  79  80
ATOM     80  C   UNL A   1      33.189  19.458  24.518  1.00  0.00     0.264 C 
BRANCH  80  81
ATOM     81  N   UNL A   1      32.330  18.344  24.059  1.00  0.00    -0.331 N 
ATOM     82  C   UNL A   1      32.209  17.284  25.089  1.00  0.00     0.291 C 
ATOM     83  C   UNL A   1      32.904  17.658  22.862  1.00  0.00     0.291 C 
ATOM     84  H   UNL A   1      31.427  18.773  23.851  1.00  0.00     0.348 HD
ATOM     85  C   UNL A   1      33.511  16.520  25.344  1.00  0.00     0.221 C 
ATOM     86  C   UNL A   1      34.160  16.800  23.127  1.00  0.00     0.221 C 
ATOM     87  O   UNL A   1      33.916  15.834  24.159  1.00  0.00    -0.370 OA
ENDBRANCH  80  81
ENDBRANCH  79  80
ENDBRANCH  78  79
ENDBRANCH  76  78
ENDBRANCH  63  65
ENDBRANCH  62  63
ENDBRANCH   1  62
TORSDOF 15
ENDMDL
MODEL 2
REMARK VINA RESULT:     -12.1      2.778      8.197
REMARK SMILES O=C(OCCOC(=O)c1ccc2c(=O)n(CCC[NH+]3CCOCC3)c(=O)[nH]c2c1)c1ccc(-c2c3nc(c(-c4c(F)cccc4F)c4ccc([nH]4)c(-c4c(F)cccc4F)c4nc(c(-c5c(F)cccc5F)c5ccc2[nH]5)C=C4)C=C3)cc1
REMARK SMILES IDX 5 1 4 2 3 3 2 4 1 5 30 6 31 7 83 8 32 9 82 10 33 11 34 12
REMARK SMILES IDX 35 13 76 14 36 15 81 16 75 17 77 18 37 19 80 20 74 21 73 22
REMARK SMILES IDX 38 24 64 25 47 26 63 27 48 28 51 29 62 30 78 31 49 32 50 33
REMARK SMILES IDX 61 35 79 36 52 37 39 38 40 39 45 40 41 41 42 42 44 43 46 44
REMARK SMILES IDX 43 45 65 46 66 47 71 48 67 49 68 50 70 51 72 52 69 53 53 54
REMARK SMILES IDX 54 55 59 56 55 57 56 58 58 59 60 60 57 61 6 62 7 63 8 64
REMARK SMILES IDX 9 65 10 66 29 67 11 68 28 69 12 70 27 71 13 72 25 73 14 75
REMARK SMILES IDX 15 76 26 77 16 78 17 79 18 80 19 81 20 82 24 83 21 85 23 86
REMARK SMILES IDX 22 87
REMARK H PARENT 77 23 51 34 27 74 19 84
REMARK Flexibility Score: inf
ROOT
ATOM      1  C   UNL A   1      42.611  21.381  26.121  1.00  0.00     0.275 C 
ENDROOT
BRANCH   1   2
ATOM      2  C   UNL A   1      43.676  22.019  25.223  1.00  0.00     0.275 C 
BRANCH   2   3
ATOM      3  O   UNL A   1      43.321  23.298  24.675  1.00  0.00    -0.458 OA
BRANCH   3   4
ATOM      4  C   UNL A   1      43.696  24.538  25.067  1.00  0.00     0.338 C 
ATOM      5  O   UNL A   1      44.746  25.002  24.624  1.00  0.00    -0.246 OA
BRANCH   4   6
ATOM      6  C   UNL A   1      43.007  25.307  26.151  1.00  0.00     0.060 A 
ATOM      7  C   UNL A   1      43.608  26.525  26.501  1.00  0.00     0.016 A 
ATOM      8  C   UNL A   1      41.855  24.935  26.849  1.00  0.00     0.016 A 
ATOM      9  C   UNL A   1      43.171  27.255  27.606  1.00  0.00     0.010 A 
ATOM     10  C   UNL A   1      41.395  25.682  27.945  1.00  0.00     0.010 A 
ATOM     11  C   UNL A   1      42.073  26.828  28.362  1.00  0.00    -0.014 A 
BRANCH  11  12
ATOM     12  C   UNL A   1      41.552  27.672  29.468  1.00  0.00     0.031 A 
ATOM     13  C   UNL A   1      40.426  28.662  29.265  1.00  0.00     0.074 A 
ATOM     14  C   UNL A   1      42.160  27.538  30.664  1.00  0.00     0.049 A 
ATOM     15  N   UNL A   1      39.819  29.423  30.142  1.00  0.00    -0.248 NA
ATOM     16  C   UNL A   1      39.902  28.823  27.899  1.00  0.00     0.031 C 
ATOM     17  C   UNL A   1      43.300  26.650  30.934  1.00  0.00     0.029 A 
ATOM     18  N   UNL A   1      41.945  28.163  31.862  1.00  0.00    -0.354 N 
ATOM     19  C   UNL A   1      38.790  30.072  29.455  1.00  0.00     0.074 A 
ATOM     20  C   UNL A   1      38.894  29.671  28.073  1.00  0.00     0.031 C 
ATOM     21  C   UNL A   1      43.704  26.815  32.199  1.00  0.00     0.029 A 
ATOM     22  C   UNL A   1      42.891  27.854  32.809  1.00  0.00     0.049 A 
ATOM     23  H   UNL A   1      41.189  28.772  32.028  1.00  0.00     0.167 HD
ATOM     24  C   UNL A   1      37.846  30.911  29.951  1.00  0.00     0.037 A 
ATOM     25  C   UNL A   1      43.121  28.400  34.016  1.00  0.00     0.037 A 
ATOM     26  C   UNL A   1      37.854  31.346  31.334  1.00  0.00     0.049 A 
ATOM     27  C   UNL A   1      42.175  29.458  34.490  1.00  0.00     0.074 A 
ATOM     28  C   UNL A   1      36.924  32.116  32.011  1.00  0.00     0.029 A 
ATOM     29  N   UNL A   1      38.868  31.062  32.242  1.00  0.00    -0.354 N 
ATOM     30  N   UNL A   1      41.120  29.947  33.883  1.00  0.00    -0.248 NA
ATOM     31  C   UNL A   1      42.436  30.033  35.813  1.00  0.00     0.031 C 
ATOM     32  C   UNL A   1      37.408  32.352  33.304  1.00  0.00     0.029 A 
ATOM     33  C   UNL A   1      38.610  31.679  33.456  1.00  0.00     0.049 A 
ATOM     34  H   UNL A   1      39.656  30.505  32.050  1.00  0.00     0.167 HD
ATOM     35  C   UNL A   1      40.566  30.860  34.765  1.00  0.00     0.074 A 
ATOM     36  C   UNL A   1      41.405  30.853  35.950  1.00  0.00     0.031 C 
ATOM     37  C   UNL A   1      39.461  31.630  34.618  1.00  0.00     0.037 A 
BRANCH  24  38
ATOM     38  C   UNL A   1      36.729  31.417  29.056  1.00  0.00     0.057 A 
ATOM     39  C   UNL A   1      36.697  32.753  28.635  1.00  0.00     0.134 A 
ATOM     40  C   UNL A   1      35.604  30.646  28.730  1.00  0.00     0.134 A 
ATOM     41  F   UNL A   1      37.748  33.556  28.850  1.00  0.00    -0.206 F 
ATOM     42  C   UNL A   1      35.577  33.305  27.996  1.00  0.00     0.040 A 
ATOM     43  C   UNL A   1      34.465  31.189  28.122  1.00  0.00     0.040 A 
ATOM     44  F   UNL A   1      35.597  29.327  28.937  1.00  0.00    -0.206 F 
ATOM     45  C   UNL A   1      34.444  32.529  27.765  1.00  0.00     0.006 A 
ENDBRANCH  24  38
BRANCH  25  46
ATOM     46  C   UNL A   1      44.326  28.012  34.795  1.00  0.00     0.057 A 
ATOM     47  C   UNL A   1      45.547  28.677  34.605  1.00  0.00     0.134 A 
ATOM     48  C   UNL A   1      44.294  26.993  35.750  1.00  0.00     0.134 A 
ATOM     49  F   UNL A   1      45.651  29.656  33.694  1.00  0.00    -0.206 F 
ATOM     50  C   UNL A   1      46.687  28.343  35.335  1.00  0.00     0.040 A 
ATOM     51  C   UNL A   1      45.419  26.670  36.511  1.00  0.00     0.040 A 
ATOM     52  F   UNL A   1      43.156  26.324  35.986  1.00  0.00    -0.206 F 
ATOM     53  C   UNL A   1      46.621  27.344  36.303  1.00  0.00     0.006 A 
ENDBRANCH  25  46
BRANCH  37  54
ATOM     54  C   UNL A   1      39.078  32.463  35.802  1.00  0.00     0.057 A 
ATOM     55  C   UNL A   1      38.250  31.934  36.800  1.00  0.00     0.134 A 
ATOM     56  C   UNL A   1      39.527  33.779  35.953  1.00  0.00     0.134 A 
ATOM     57  F   UNL A   1      37.794  30.675  36.711  1.00  0.00    -0.206 F 
ATOM     58  C   UNL A   1      37.872  32.694  37.905  1.00  0.00     0.040 A 
ATOM     59  C   UNL A   1      39.176  34.540  37.068  1.00  0.00     0.040 A 
ATOM     60  F   UNL A   1      40.350  34.325  35.045  1.00  0.00    -0.206 F 
ATOM     61  C   UNL A   1      38.339  33.999  38.043  1.00  0.00     0.006 A 
ENDBRANCH  37  54
ENDBRANCH  11  12
ENDBRANCH   4   6
ENDBRANCH   3   4
ENDBRANCH   2   3
ENDBRANCH   1   2
BRANCH   1  62
ATOM     62  O   UNL A   1      41.261  21.660  25.718  1.00  0.00    -0.458 OA
BRANCH  62  63
ATOM     63  C   UNL A   1      40.327  21.632  26.708  1.00  0.00     0.338 C 
ATOM     64  O   UNL A   1      40.514  21.455  27.897  1.00  0.00    -0.246 OA
BRANCH  63  65
ATOM     65  C   UNL A   1      39.024  21.998  26.114  1.00  0.00     0.062 A 
ATOM     66  C   UNL A   1      38.595  23.329  26.136  1.00  0.00     0.016 A 
ATOM     67  C   UNL A   1      38.177  20.978  25.649  1.00  0.00     0.042 A 
ATOM     68  C   UNL A   1      37.276  23.624  25.798  1.00  0.00     0.017 A 
ATOM     69  C   UNL A   1      36.842  21.281  25.368  1.00  0.00     0.056 A 
ATOM     70  C   UNL A   1      36.391  22.585  25.491  1.00  0.00     0.064 A 
ATOM     71  N   UNL A   1      35.916  20.279  25.087  1.00  0.00    -0.307 N 
ATOM     72  C   UNL A   1      34.941  22.822  25.457  1.00  0.00     0.264 A 
ATOM     73  C   UNL A   1      34.575  20.500  24.879  1.00  0.00     0.328 A 
ATOM     74  H   UNL A   1      36.243  19.353  25.032  1.00  0.00     0.171 HD
ATOM     75  O   UNL A   1      34.550  23.878  25.934  1.00  0.00    -0.268 OA
ATOM     76  N   UNL A   1      34.124  21.808  24.989  1.00  0.00    -0.260 N 
ATOM     77  O   UNL A   1      33.857  19.533  24.627  1.00  0.00    -0.248 OA
BRANCH  76  78
ATOM     78  C   UNL A   1      32.742  22.116  24.572  1.00  0.00     0.137 C 
BRANCH  78  79
ATOM     79  C   UNL A   1      32.438  22.374  23.086  1.00  0.00     0.083 C 
BRANCH  79  80
ATOM     80  C   UNL A   1      32.940  23.661  22.380  1.00  0.00     0.264 C 
BRANCH  80  81
ATOM     81  N   UNL A   1      31.906  24.647  21.995  1.00  0.00    -0.331 N 
ATOM     82  C   UNL A   1      32.504  25.863  21.395  1.00  0.00     0.291 C 
ATOM     83  C   UNL A   1      31.138  25.137  23.180  1.00  0.00     0.291 C 
ATOM     84  H   UNL A   1      31.304  24.155  21.333  1.00  0.00     0.348 HD
ATOM     85  C   UNL A   1      33.312  26.707  22.385  1.00  0.00     0.221 C 
ATOM     86  C   UNL A   1      31.912  26.072  24.132  1.00  0.00     0.221 C 
ATOM     87  O   UNL A   1      32.459  27.193  23.422  1.00  0.00    -0.370 OA
ENDBRANCH  80  81
ENDBRANCH  79  80
ENDBRANCH  78  79
ENDBRANCH  76  78
ENDBRANCH  63  65
ENDBRANCH  62  63
ENDBRANCH   1  62
TORSDOF 15
ENDMDL
MODEL 3
REMARK VINA RESULT:     -12.0      2.807      8.479
REMARK SMILES O=C(OCCOC(=O)c1ccc2c(=O)n(CCC[NH+]3CCOCC3)c(=O)[nH]c2c1)c1ccc(-c2c3nc(c(-c4c(F)cccc4F)c4ccc([nH]4)c(-c4c(F)cccc4F)c4nc(c(-c5c(F)cccc5F)c5ccc2[nH]5)C=C4)C=C3)cc1
REMARK SMILES IDX 5 1 4 2 3 3 2 4 1 5 30 6 31 7 83 8 32 9 82 10 33 11 34 12
REMARK SMILES IDX 35 13 76 14 36 15 81 16 75 17 77 18 37 19 80 20 74 21 73 22
REMARK SMILES IDX 38 24 64 25 47 26 63 27 48 28 51 29 62 30 78 31 49 32 50 33
REMARK SMILES IDX 61 35 79 36 52 37 39 38 40 39 45 40 41 41 42 42 44 43 46 44
REMARK SMILES IDX 43 45 65 46 66 47 71 48 67 49 68 50 70 51 72 52 69 53 53 54
REMARK SMILES IDX 54 55 59 56 55 57 56 58 58 59 60 60 57 61 6 62 7 63 8 64
REMARK SMILES IDX 9 65 10 66 29 67 11 68 28 69 12 70 27 71 13 72 25 73 14 75
REMARK SMILES IDX 15 76 26 77 16 78 17 79 18 80 19 81 20 82 24 83 21 85 23 86
REMARK SMILES IDX 22 87
REMARK H PARENT 77 23 51 34 27 74 19 84
REMARK Flexibility Score: inf
ROOT
ATOM      1  C   UNL A   1      42.652  21.360  26.106  1.00  0.00     0.275 C 
ENDROOT
BRANCH   1   2
ATOM      2  C   UNL A   1      43.685  21.909  25.117  1.00  0.00     0.275 C 
BRANCH   2   3
ATOM      3  O   UNL A   1      43.418  23.235  24.633  1.00  0.00    -0.458 OA
BRANCH   3   4
ATOM      4  C   UNL A   1      43.897  24.424  25.068  1.00  0.00     0.338 C 
ATOM      5  O   UNL A   1      44.971  24.824  24.620  1.00  0.00    -0.246 OA
BRANCH   4   6
ATOM      6  C   UNL A   1      43.292  25.195  26.200  1.00  0.00     0.060 A 
ATOM      7  C   UNL A   1      43.937  26.398  26.521  1.00  0.00     0.016 A 
ATOM      8  C   UNL A   1      42.179  24.838  26.965  1.00  0.00     0.016 A 
ATOM      9  C   UNL A   1      43.584  27.126  27.657  1.00  0.00     0.010 A 
ATOM     10  C   UNL A   1      41.802  25.584  28.094  1.00  0.00     0.010 A 
ATOM     11  C   UNL A   1      42.527  26.713  28.476  1.00  0.00    -0.014 A 
BRANCH  11  12
ATOM     12  C   UNL A   1      42.093  27.556  29.620  1.00  0.00     0.031 A 
ATOM     13  C   UNL A   1      42.692  27.410  31.002  1.00  0.00     0.074 A 
ATOM     14  C   UNL A   1      41.108  28.443  29.373  1.00  0.00     0.049 A 
ATOM     15  N   UNL A   1      42.465  28.111  32.085  1.00  0.00    -0.248 NA
ATOM     16  C   UNL A   1      43.679  26.337  31.203  1.00  0.00     0.031 C 
ATOM     17  C   UNL A   1      40.428  28.607  28.081  1.00  0.00     0.029 A 
ATOM     18  N   UNL A   1      40.475  29.341  30.189  1.00  0.00    -0.354 N 
ATOM     19  C   UNL A   1      43.345  27.630  33.057  1.00  0.00     0.074 A 
ATOM     20  C   UNL A   1      44.064  26.529  32.461  1.00  0.00     0.031 C 
ATOM     21  C   UNL A   1      39.454  29.518  28.202  1.00  0.00     0.029 A 
ATOM     22  C   UNL A   1      39.406  29.958  29.586  1.00  0.00     0.049 A 
ATOM     23  H   UNL A   1      40.758  29.526  31.114  1.00  0.00     0.167 HD
ATOM     24  C   UNL A   1      43.533  28.085  34.321  1.00  0.00     0.037 A 
ATOM     25  C   UNL A   1      38.448  30.741  30.110  1.00  0.00     0.037 A 
ATOM     26  C   UNL A   1      42.713  29.135  34.891  1.00  0.00     0.049 A 
ATOM     27  C   UNL A   1      38.561  31.101  31.558  1.00  0.00     0.074 A 
ATOM     28  C   UNL A   1      42.833  29.769  36.115  1.00  0.00     0.029 A 
ATOM     29  N   UNL A   1      41.598  29.686  34.268  1.00  0.00    -0.354 N 
ATOM     30  N   UNL A   1      39.488  30.754  32.420  1.00  0.00    -0.248 NA
ATOM     31  C   UNL A   1      37.513  31.965  32.109  1.00  0.00     0.031 C 
ATOM     32  C   UNL A   1      41.755  30.651  36.261  1.00  0.00     0.029 A 
ATOM     33  C   UNL A   1      40.996  30.616  35.101  1.00  0.00     0.049 A 
ATOM     34  H   UNL A   1      41.281  29.450  33.367  1.00  0.00     0.167 HD
ATOM     35  C   UNL A   1      39.157  31.388  33.606  1.00  0.00     0.074 A 
ATOM     36  C   UNL A   1      37.944  32.143  33.348  1.00  0.00     0.031 C 
ATOM     37  C   UNL A   1      39.799  31.360  34.799  1.00  0.00     0.037 A 
BRANCH  24  38
ATOM     38  C   UNL A   1      44.636  27.501  35.186  1.00  0.00     0.057 A 
ATOM     39  C   UNL A   1      44.365  26.472  36.097  1.00  0.00     0.134 A 
ATOM     40  C   UNL A   1      45.928  28.043  35.244  1.00  0.00     0.134 A 
ATOM     41  F   UNL A   1      43.176  25.852  36.084  1.00  0.00    -0.206 F 
ATOM     42  C   UNL A   1      45.300  26.063  37.059  1.00  0.00     0.040 A 
ATOM     43  C   UNL A   1      46.863  27.670  36.217  1.00  0.00     0.040 A 
ATOM     44  F   UNL A   1      46.347  28.911  34.319  1.00  0.00    -0.206 F 
ATOM     45  C   UNL A   1      46.544  26.683  37.140  1.00  0.00     0.006 A 
ENDBRANCH  24  38
BRANCH  25  46
ATOM     46  C   UNL A   1      37.283  31.152  29.284  1.00  0.00     0.057 A 
ATOM     47  C   UNL A   1      36.237  30.254  29.023  1.00  0.00     0.134 A 
ATOM     48  C   UNL A   1      37.170  32.438  28.751  1.00  0.00     0.134 A 
ATOM     49  F   UNL A   1      36.287  28.999  29.494  1.00  0.00    -0.206 F 
ATOM     50  C   UNL A   1      35.125  30.621  28.266  1.00  0.00     0.040 A 
ATOM     51  C   UNL A   1      36.048  32.829  28.017  1.00  0.00     0.040 A 
ATOM     52  F   UNL A   1      38.132  33.347  28.970  1.00  0.00    -0.206 F 
ATOM     53  C   UNL A   1      35.022  31.918  27.771  1.00  0.00     0.006 A 
ENDBRANCH  25  46
BRANCH  37  54
ATOM     54  C   UNL A   1      39.224  32.230  35.874  1.00  0.00     0.057 A 
ATOM     55  C   UNL A   1      38.235  31.733  36.732  1.00  0.00     0.134 A 
ATOM     56  C   UNL A   1      39.648  33.550  36.058  1.00  0.00     0.134 A 
ATOM     57  F   UNL A   1      37.794  30.472  36.605  1.00  0.00    -0.206 F 
ATOM     58  C   UNL A   1      37.678  32.528  37.732  1.00  0.00     0.040 A 
ATOM     59  C   UNL A   1      39.117  34.346  37.073  1.00  0.00     0.040 A 
ATOM     60  F   UNL A   1      40.617  34.067  35.288  1.00  0.00    -0.206 F 
ATOM     61  C   UNL A   1      38.123  33.836  37.908  1.00  0.00     0.006 A 
ENDBRANCH  37  54
ENDBRANCH  11  12
ENDBRANCH   4   6
ENDBRANCH   3   4
ENDBRANCH   2   3
ENDBRANCH   1   2
BRANCH   1  62
ATOM     62  O   UNL A   1      41.289  21.582  25.712  1.00  0.00    -0.458 OA
BRANCH  62  63
ATOM     63  C   UNL A   1      40.400  21.773  26.726  1.00  0.00     0.338 C 
ATOM     64  O   UNL A   1      40.636  21.815  27.919  1.00  0.00    -0.246 OA
BRANCH  63  65
ATOM     65  C   UNL A   1      39.082  22.068  26.126  1.00  0.00     0.062 A 
ATOM     66  C   UNL A   1      38.583  23.374  26.144  1.00  0.00     0.016 A 
ATOM     67  C   UNL A   1      38.293  21.003  25.660  1.00  0.00     0.042 A 
ATOM     68  C   UNL A   1      37.251  23.598  25.799  1.00  0.00     0.017 A 
ATOM     69  C   UNL A   1      36.945  21.234  25.372  1.00  0.00     0.056 A 
ATOM     70  C   UNL A   1      36.425  22.512  25.490  1.00  0.00     0.064 A 
ATOM     71  N   UNL A   1      36.075  20.183  25.089  1.00  0.00    -0.307 N 
ATOM     72  C   UNL A   1      34.964  22.672  25.449  1.00  0.00     0.264 A 
ATOM     73  C   UNL A   1      34.725  20.331  24.875  1.00  0.00     0.328 A 
ATOM     74  H   UNL A   1      36.452  19.275  25.037  1.00  0.00     0.171 HD
ATOM     75  O   UNL A   1      34.515  23.706  25.923  1.00  0.00    -0.268 OA
ATOM     76  N   UNL A   1      34.204  21.614  24.980  1.00  0.00    -0.260 N 
ATOM     77  O   UNL A   1      34.061  19.328  24.621  1.00  0.00    -0.248 OA
BRANCH  76  78
ATOM     78  C   UNL A   1      32.810  21.847  24.557  1.00  0.00     0.137 C 
BRANCH  78  79
ATOM     79  C   UNL A   1      32.508  22.166  23.082  1.00  0.00     0.083 C 
BRANCH  79  80
ATOM     80  C   UNL A   1      33.125  23.410  22.392  1.00  0.00     0.264 C 
BRANCH  80  81
ATOM     81  N   UNL A   1      32.183  24.485  22.008  1.00  0.00    -0.331 N 
ATOM     82  C   UNL A   1      32.888  25.761  21.735  1.00  0.00     0.291 C 
ATOM     83  C   UNL A   1      31.223  24.801  23.109  1.00  0.00     0.291 C 
ATOM     84  H   UNL A   1      31.702  24.133  21.179  1.00  0.00     0.348 HD
ATOM     85  C   UNL A   1      33.516  26.398  22.977  1.00  0.00     0.221 C 
ATOM     86  C   UNL A   1      31.826  25.536  24.325  1.00  0.00     0.221 C 
ATOM     87  O   UNL A   1      32.499  26.737  23.920  1.00  0.00    -0.370 OA
ENDBRANCH  80  81
ENDBRANCH  79  80
ENDBRANCH  78  79
ENDBRANCH  76  78
ENDBRANCH  63  65
ENDBRANCH  62  63
ENDBRANCH   1  62
TORSDOF 15
ENDMDL
