MODEL 1
REMARK VINA RESULT:     -12.1      0.000      0.000
REMARK SMILES Cc1occc1C(=O)NN1C(=O)/C(=C\c2ccc(O[C@H](C)C(=O)OCCOC(=O)c3ccc(-c4c5nc(c(-c6c(F)cccc6F)c6ccc([nH]6)c(-c6c(F)cccc6F)c6nc(c(-c7c(F)cccc7F)c7ccc4[nH]7)C=C6)C=C5)cc3)cc2)SC1=S
REMARK SMILES IDX 24 1 22 2 23 3 20 4 21 5 19 6 18 7 15 8 16 9 85 10 17 11
REMARK SMILES IDX 84 12 14 13 10 14 11 15 87 16 12 17 13 18 86 19 88 20 9 21
REMARK SMILES IDX 7 22 8 23 6 25 1 26 2 27 3 28 4 29 5 30 25 31 26 32 27 33
REMARK SMILES IDX 28 34 29 35 30 36 31 37 83 38 32 39 82 40 33 41 34 42 35 43
REMARK SMILES IDX 76 44 36 45 81 46 75 47 77 48 37 49 80 50 74 51 73 52 38 54
REMARK SMILES IDX 64 55 47 56 63 57 48 58 51 59 62 60 78 61 49 62 50 63 61 65
REMARK SMILES IDX 79 66 52 67 39 68 40 69 45 70 41 71 42 72 44 73 46 74 43 75
REMARK SMILES IDX 65 76 66 77 71 78 67 79 68 80 70 81 72 82 69 83 53 84 54 85
REMARK SMILES IDX 59 86 55 87 56 88 58 89 60 90 57 91
REMARK H PARENT 9 24 77 53 51 64
REMARK Flexibility Score: inf
ROOT
ATOM      1  O   UNL A   1      42.482  20.377  25.386  1.00  0.00    -0.459 OA
ENDROOT
BRANCH   1   2
ATOM      2  C   UNL A   1      41.897  20.004  26.556  1.00  0.00     0.347 C 
ATOM      3  O   UNL A   1      42.187  18.992  27.185  1.00  0.00    -0.248 OA
BRANCH   2   4
ATOM      4  C   UNL A   1      40.802  20.966  27.008  1.00  0.00     0.279 C 
ATOM      5  C   UNL A   1      41.059  21.726  28.312  1.00  0.00     0.066 C 
BRANCH   4   6
ATOM      6  O   UNL A   1      40.290  21.703  25.902  1.00  0.00    -0.479 OA
BRANCH   6   7
ATOM      7  C   UNL A   1      39.007  22.132  25.820  1.00  0.00     0.120 A 
ATOM      8  C   UNL A   1      36.236  22.578  25.864  1.00  0.00    -0.024 A 
ATOM      9  C   UNL A   1      37.127  23.591  26.230  1.00  0.00     0.012 A 
ATOM     10  C   UNL A   1      36.750  21.399  25.323  1.00  0.00     0.012 A 
ATOM     11  C   UNL A   1      38.508  23.376  26.185  1.00  0.00     0.047 A 
ATOM     12  C   UNL A   1      38.126  21.169  25.331  1.00  0.00     0.047 A 
BRANCH   8  13
ATOM     13  C   UNL A   1      34.802  22.785  26.103  1.00  0.00     0.029 C 
ATOM     14  N   UNL A   1      33.181  24.874  23.609  1.00  0.00    -0.198 N 
ATOM     15  C   UNL A   1      34.265  24.103  23.990  1.00  0.00     0.285 C 
ATOM     16  C   UNL A   1      31.972  24.630  24.221  1.00  0.00     0.168 C 
ATOM     17  O   UNL A   1      35.288  23.978  23.332  1.00  0.00    -0.266 OA
ATOM     18  C   UNL A   1      33.953  23.414  25.277  1.00  0.00     0.082 C 
ATOM     19  S   UNL A   1      32.253  23.561  25.600  1.00  0.00    -0.052 SA
ATOM     20  S   UNL A   1      30.463  25.188  23.787  1.00  0.00    -0.050 S 
BRANCH  14  21
ATOM     21  N   UNL A   1      33.335  25.638  22.458  1.00  0.00    -0.254 N 
ATOM     22  C   UNL A   1      33.500  27.002  22.378  1.00  0.00     0.273 C 
ATOM     23  O   UNL A   1      33.826  27.464  21.283  1.00  0.00    -0.267 OA
ATOM     24  H   UNL A   1      33.325  25.148  21.603  1.00  0.00     0.192 HD
BRANCH  22  25
ATOM     25  C   UNL A   1      33.190  27.900  23.484  1.00  0.00     0.082 A 
ATOM     26  C   UNL A   1      30.764  28.959  23.173  1.00  0.00     0.088 C 
ATOM     27  C   UNL A   1      32.086  28.692  23.773  1.00  0.00     0.113 A 
ATOM     28  O   UNL A   1      32.273  29.347  24.958  1.00  0.00    -0.469 OA
ATOM     29  C   UNL A   1      33.452  28.939  25.475  1.00  0.00     0.196 A 
ATOM     30  C   UNL A   1      34.043  28.037  24.630  1.00  0.00     0.056 A 
ENDBRANCH  22  25
ENDBRANCH  14  21
ENDBRANCH   8  13
ENDBRANCH   6   7
ENDBRANCH   4   6
ENDBRANCH   2   4
ENDBRANCH   1   2
BRANCH   1  31
ATOM     31  C   UNL A   1      43.919  20.479  25.417  1.00  0.00     0.274 C 
BRANCH  31  32
ATOM     32  C   UNL A   1      44.409  21.875  25.020  1.00  0.00     0.275 C 
BRANCH  32  33
ATOM     33  O   UNL A   1      43.468  22.906  25.370  1.00  0.00    -0.458 OA
BRANCH  33  34
ATOM     34  C   UNL A   1      43.932  24.170  25.234  1.00  0.00     0.338 C 
ATOM     35  O   UNL A   1      44.675  24.593  24.366  1.00  0.00    -0.246 OA
BRANCH  34  36
ATOM     36  C   UNL A   1      43.290  25.054  26.218  1.00  0.00     0.060 A 
ATOM     37  C   UNL A   1      43.854  26.315  26.421  1.00  0.00     0.016 A 
ATOM     38  C   UNL A   1      42.224  24.621  27.006  1.00  0.00     0.016 A 
ATOM     39  C   UNL A   1      43.381  27.145  27.428  1.00  0.00     0.010 A 
ATOM     40  C   UNL A   1      41.736  25.463  28.012  1.00  0.00     0.010 A 
ATOM     41  C   UNL A   1      42.324  26.721  28.237  1.00  0.00    -0.014 A 
BRANCH  41  42
ATOM     42  C   UNL A   1      41.878  27.589  29.349  1.00  0.00     0.031 A 
ATOM     43  C   UNL A   1      42.634  27.591  30.643  1.00  0.00     0.074 A 
ATOM     44  C   UNL A   1      40.827  28.410  29.171  1.00  0.00     0.049 A 
ATOM     45  N   UNL A   1      42.361  28.217  31.759  1.00  0.00    -0.248 NA
ATOM     46  C   UNL A   1      43.862  26.781  30.689  1.00  0.00     0.031 C 
ATOM     47  C   UNL A   1      40.059  28.544  27.933  1.00  0.00     0.029 A 
ATOM     48  N   UNL A   1      40.229  29.291  30.035  1.00  0.00    -0.354 N 
ATOM     49  C   UNL A   1      43.368  27.861  32.646  1.00  0.00     0.074 A 
ATOM     50  C   UNL A   1      44.254  26.958  31.942  1.00  0.00     0.031 C 
ATOM     51  C   UNL A   1      39.090  29.454  28.116  1.00  0.00     0.029 A 
ATOM     52  C   UNL A   1      39.140  29.929  29.496  1.00  0.00     0.049 A 
ATOM     53  H   UNL A   1      40.549  29.449  30.952  1.00  0.00     0.167 HD
ATOM     54  C   UNL A   1      43.534  28.255  33.930  1.00  0.00     0.037 A 
ATOM     55  C   UNL A   1      38.264  30.778  30.064  1.00  0.00     0.037 A 
ATOM     56  C   UNL A   1      42.659  29.167  34.617  1.00  0.00     0.049 A 
ATOM     57  C   UNL A   1      38.435  31.150  31.508  1.00  0.00     0.074 A 
ATOM     58  C   UNL A   1      42.741  29.629  35.920  1.00  0.00     0.029 A 
ATOM     59  N   UNL A   1      41.542  29.763  34.051  1.00  0.00    -0.354 N 
ATOM     60  N   UNL A   1      39.372  30.785  32.350  1.00  0.00    -0.248 NA
ATOM     61  C   UNL A   1      37.421  32.043  32.087  1.00  0.00     0.031 C 
ATOM     62  C   UNL A   1      41.654  30.478  36.151  1.00  0.00     0.029 A 
ATOM     63  C   UNL A   1      40.916  30.574  34.983  1.00  0.00     0.049 A 
ATOM     64  H   UNL A   1      41.238  29.629  33.124  1.00  0.00     0.167 HD
ATOM     65  C   UNL A   1      39.070  31.412  33.551  1.00  0.00     0.074 A 
ATOM     66  C   UNL A   1      37.871  32.193  33.325  1.00  0.00     0.031 C 
ATOM     67  C   UNL A   1      39.725  31.344  34.736  1.00  0.00     0.037 A 
BRANCH  54  68
ATOM     68  C   UNL A   1      44.689  27.669  34.685  1.00  0.00     0.057 A 
ATOM     69  C   UNL A   1      45.937  28.299  34.734  1.00  0.00     0.134 A 
ATOM     70  C   UNL A   1      44.538  26.469  35.391  1.00  0.00     0.134 A 
ATOM     71  F   UNL A   1      46.149  29.441  34.063  1.00  0.00    -0.206 F 
ATOM     72  C   UNL A   1      47.003  27.748  35.447  1.00  0.00     0.040 A 
ATOM     73  C   UNL A   1      45.591  25.918  36.125  1.00  0.00     0.040 A 
ATOM     74  F   UNL A   1      43.366  25.817  35.385  1.00  0.00    -0.206 F 
ATOM     75  C   UNL A   1      46.830  26.557  36.150  1.00  0.00     0.006 A 
ENDBRANCH  54  68
BRANCH  55  76
ATOM     76  C   UNL A   1      37.127  31.306  29.271  1.00  0.00     0.057 A 
ATOM     77  C   UNL A   1      35.994  30.526  29.020  1.00  0.00     0.134 A 
ATOM     78  C   UNL A   1      37.150  32.603  28.743  1.00  0.00     0.134 A 
ATOM     79  F   UNL A   1      35.924  29.268  29.481  1.00  0.00    -0.206 F 
ATOM     80  C   UNL A   1      34.926  31.014  28.264  1.00  0.00     0.040 A 
ATOM     81  C   UNL A   1      36.082  33.111  28.005  1.00  0.00     0.040 A 
ATOM     82  F   UNL A   1      38.210  33.399  28.950  1.00  0.00    -0.206 F 
ATOM     83  C   UNL A   1      34.967  32.312  27.760  1.00  0.00     0.006 A 
ENDBRANCH  55  76
BRANCH  67  84
ATOM     84  C   UNL A   1      39.166  32.154  35.866  1.00  0.00     0.057 A 
ATOM     85  C   UNL A   1      39.506  33.500  36.042  1.00  0.00     0.134 A 
ATOM     86  C   UNL A   1      38.254  31.589  36.766  1.00  0.00     0.134 A 
ATOM     87  F   UNL A   1      40.385  34.093  35.220  1.00  0.00    -0.206 F 
ATOM     88  C   UNL A   1      38.970  34.254  37.088  1.00  0.00     0.040 A 
ATOM     89  C   UNL A   1      37.698  32.337  37.803  1.00  0.00     0.040 A 
ATOM     90  F   UNL A   1      37.885  30.305  36.646  1.00  0.00    -0.206 F 
ATOM     91  C   UNL A   1      38.059  33.673  37.969  1.00  0.00     0.006 A 
ENDBRANCH  67  84
ENDBRANCH  41  42
ENDBRANCH  34  36
ENDBRANCH  33  34
ENDBRANCH  32  33
ENDBRANCH  31  32
ENDBRANCH   1  31
TORSDOF 16
ENDMDL
MODEL 2
REMARK VINA RESULT:     -11.9      4.426     10.281
REMARK SMILES Cc1occc1C(=O)NN1C(=O)/C(=C\c2ccc(O[C@H](C)C(=O)OCCOC(=O)c3ccc(-c4c5nc(c(-c6c(F)cccc6F)c6ccc([nH]6)c(-c6c(F)cccc6F)c6nc(c(-c7c(F)cccc7F)c7ccc4[nH]7)C=C6)C=C5)cc3)cc2)SC1=S
REMARK SMILES IDX 24 1 22 2 23 3 20 4 21 5 19 6 18 7 15 8 16 9 85 10 17 11
REMARK SMILES IDX 84 12 14 13 10 14 11 15 87 16 12 17 13 18 86 19 88 20 9 21
REMARK SMILES IDX 7 22 8 23 6 25 1 26 2 27 3 28 4 29 5 30 25 31 26 32 27 33
REMARK SMILES IDX 28 34 29 35 30 36 31 37 83 38 32 39 82 40 33 41 34 42 35 43
REMARK SMILES IDX 76 44 36 45 81 46 75 47 77 48 37 49 80 50 74 51 73 52 38 54
REMARK SMILES IDX 64 55 47 56 63 57 48 58 51 59 62 60 78 61 49 62 50 63 61 65
REMARK SMILES IDX 79 66 52 67 39 68 40 69 45 70 41 71 42 72 44 73 46 74 43 75
REMARK SMILES IDX 65 76 66 77 71 78 67 79 68 80 70 81 72 82 69 83 53 84 54 85
REMARK SMILES IDX 59 86 55 87 56 88 58 89 60 90 57 91
REMARK H PARENT 9 24 77 53 51 64
REMARK Flexibility Score: inf
ROOT
ATOM      1  O   UNL A   1      35.198  34.295  30.825  1.00  0.00    -0.459 OA
ENDROOT
BRANCH   1   2
ATOM      2  C   UNL A   1      34.235  34.142  29.877  1.00  0.00     0.347 C 
ATOM      3  O   UNL A   1      33.131  34.678  29.917  1.00  0.00    -0.248 OA
BRANCH   2   4
ATOM      4  C   UNL A   1      34.651  33.201  28.750  1.00  0.00     0.279 C 
ATOM      5  C   UNL A   1      35.941  33.556  28.007  1.00  0.00     0.066 C 
BRANCH   4   6
ATOM      6  O   UNL A   1      34.458  31.843  29.132  1.00  0.00    -0.479 OA
BRANCH   6   7
ATOM      7  C   UNL A   1      34.251  30.839  28.245  1.00  0.00     0.120 A 
ATOM      8  C   UNL A   1      33.735  29.134  26.076  1.00  0.00    -0.024 A 
ATOM      9  C   UNL A   1      34.804  28.883  26.941  1.00  0.00     0.012 A 
ATOM     10  C   UNL A   1      32.835  30.149  26.401  1.00  0.00     0.012 A 
ATOM     11  C   UNL A   1      35.045  29.719  28.035  1.00  0.00     0.047 A 
ATOM     12  C   UNL A   1      33.112  31.014  27.461  1.00  0.00     0.047 A 
BRANCH   8  13
ATOM     13  C   UNL A   1      33.631  28.343  24.842  1.00  0.00     0.029 C 
ATOM     14  N   UNL A   1      31.659  25.311  25.200  1.00  0.00    -0.198 N 
ATOM     15  C   UNL A   1      32.034  26.549  25.691  1.00  0.00     0.285 C 
ATOM     16  C   UNL A   1      31.798  25.086  23.849  1.00  0.00     0.168 C 
ATOM     17  O   UNL A   1      31.676  27.000  26.770  1.00  0.00    -0.266 OA
ATOM     18  C   UNL A   1      32.872  27.250  24.674  1.00  0.00     0.082 C 
ATOM     19  S   UNL A   1      32.751  26.406  23.161  1.00  0.00    -0.052 SA
ATOM     20  S   UNL A   1      31.188  23.829  22.942  1.00  0.00    -0.050 S 
BRANCH  14  21
ATOM     21  N   UNL A   1      30.925  24.498  26.057  1.00  0.00    -0.254 N 
ATOM     22  C   UNL A   1      31.378  23.407  26.762  1.00  0.00     0.273 C 
ATOM     23  O   UNL A   1      30.627  22.945  27.624  1.00  0.00    -0.267 OA
ATOM     24  H   UNL A   1      29.975  24.730  26.172  1.00  0.00     0.192 HD
BRANCH  22  25
ATOM     25  C   UNL A   1      32.627  22.726  26.445  1.00  0.00     0.082 A 
ATOM     26  C   UNL A   1      32.170  20.619  24.880  1.00  0.00     0.088 C 
ATOM     27  C   UNL A   1      32.919  21.592  25.698  1.00  0.00     0.113 A 
ATOM     28  O   UNL A   1      34.268  21.369  25.688  1.00  0.00    -0.469 OA
ATOM     29  C   UNL A   1      34.860  22.379  26.360  1.00  0.00     0.196 A 
ATOM     30  C   UNL A   1      33.909  23.250  26.823  1.00  0.00     0.056 A 
ENDBRANCH  22  25
ENDBRANCH  14  21
ENDBRANCH   8  13
ENDBRANCH   6   7
ENDBRANCH   4   6
ENDBRANCH   2   4
ENDBRANCH   1   2
BRANCH   1  31
ATOM     31  C   UNL A   1      34.721  34.415  32.179  1.00  0.00     0.274 C 
BRANCH  31  32
ATOM     32  C   UNL A   1      34.523  33.050  32.847  1.00  0.00     0.275 C 
BRANCH  32  33
ATOM     33  O   UNL A   1      35.387  32.040  32.295  1.00  0.00    -0.458 OA
BRANCH  33  34
ATOM     34  C   UNL A   1      36.541  31.845  32.975  1.00  0.00     0.338 C 
ATOM     35  O   UNL A   1      36.724  31.984  34.172  1.00  0.00    -0.246 OA
BRANCH  34  36
ATOM     36  C   UNL A   1      37.563  31.278  32.083  1.00  0.00     0.060 A 
ATOM     37  C   UNL A   1      38.635  30.605  32.674  1.00  0.00     0.016 A 
ATOM     38  C   UNL A   1      37.535  31.491  30.706  1.00  0.00     0.016 A 
ATOM     39  C   UNL A   1      39.701  30.164  31.902  1.00  0.00     0.010 A 
ATOM     40  C   UNL A   1      38.602  31.033  29.925  1.00  0.00     0.010 A 
ATOM     41  C   UNL A   1      39.696  30.382  30.522  1.00  0.00    -0.014 A 
BRANCH  41  42
ATOM     42  C   UNL A   1      40.871  29.966  29.725  1.00  0.00     0.031 A 
ATOM     43  C   UNL A   1      40.935  28.579  29.159  1.00  0.00     0.074 A 
ATOM     44  C   UNL A   1      41.850  30.853  29.470  1.00  0.00     0.049 A 
ATOM     45  N   UNL A   1      41.907  27.998  28.504  1.00  0.00    -0.248 NA
ATOM     46  C   UNL A   1      39.747  27.734  29.354  1.00  0.00     0.031 C 
ATOM     47  C   UNL A   1      41.862  32.249  29.911  1.00  0.00     0.029 A 
ATOM     48  N   UNL A   1      43.022  30.710  28.774  1.00  0.00    -0.354 N 
ATOM     49  C   UNL A   1      41.459  26.714  28.228  1.00  0.00     0.074 A 
ATOM     50  C   UNL A   1      40.131  26.597  28.793  1.00  0.00     0.031 C 
ATOM     51  C   UNL A   1      42.987  32.835  29.474  1.00  0.00     0.029 A 
ATOM     52  C   UNL A   1      43.794  31.845  28.767  1.00  0.00     0.049 A 
ATOM     53  H   UNL A   1      43.285  29.875  28.324  1.00  0.00     0.167 HD
ATOM     54  C   UNL A   1      42.100  25.725  27.563  1.00  0.00     0.037 A 
ATOM     55  C   UNL A   1      45.029  32.051  28.272  1.00  0.00     0.037 A 
ATOM     56  C   UNL A   1      43.413  25.854  26.988  1.00  0.00     0.049 A 
ATOM     57  C   UNL A   1      45.744  30.918  27.592  1.00  0.00     0.074 A 
ATOM     58  C   UNL A   1      44.151  24.911  26.295  1.00  0.00     0.029 A 
ATOM     59  N   UNL A   1      44.182  27.007  27.036  1.00  0.00    -0.354 N 
ATOM     60  N   UNL A   1      45.326  29.696  27.363  1.00  0.00    -0.248 NA
ATOM     61  C   UNL A   1      47.107  31.188  27.114  1.00  0.00     0.031 C 
ATOM     62  C   UNL A   1      45.380  25.483  25.952  1.00  0.00     0.029 A 
ATOM     63  C   UNL A   1      45.394  26.793  26.400  1.00  0.00     0.049 A 
ATOM     64  H   UNL A   1      43.908  27.853  27.459  1.00  0.00     0.167 HD
ATOM     65  C   UNL A   1      46.366  29.056  26.703  1.00  0.00     0.074 A 
ATOM     66  C   UNL A   1      47.429  30.029  26.555  1.00  0.00     0.031 C 
ATOM     67  C   UNL A   1      46.437  27.777  26.262  1.00  0.00     0.037 A 
BRANCH  54  68
ATOM     68  C   UNL A   1      41.402  24.404  27.455  1.00  0.00     0.057 A 
ATOM     69  C   UNL A   1      41.753  23.313  28.258  1.00  0.00     0.134 A 
ATOM     70  C   UNL A   1      40.347  24.231  26.550  1.00  0.00     0.134 A 
ATOM     71  F   UNL A   1      42.766  23.409  29.131  1.00  0.00    -0.206 F 
ATOM     72  C   UNL A   1      41.088  22.089  28.154  1.00  0.00     0.040 A 
ATOM     73  C   UNL A   1      39.662  23.019  26.451  1.00  0.00     0.040 A 
ATOM     74  F   UNL A   1      39.961  25.239  25.753  1.00  0.00    -0.206 F 
ATOM     75  C   UNL A   1      40.036  21.941  27.252  1.00  0.00     0.006 A 
ENDBRANCH  54  68
BRANCH  55  76
ATOM     76  C   UNL A   1      45.678  33.374  28.431  1.00  0.00     0.057 A 
ATOM     77  C   UNL A   1      45.580  34.354  27.437  1.00  0.00     0.134 A 
ATOM     78  C   UNL A   1      46.414  33.689  29.579  1.00  0.00     0.134 A 
ATOM     79  F   UNL A   1      44.907  34.102  26.304  1.00  0.00    -0.206 F 
ATOM     80  C   UNL A   1      46.199  35.597  27.575  1.00  0.00     0.040 A 
ATOM     81  C   UNL A   1      47.019  34.935  29.741  1.00  0.00     0.040 A 
ATOM     82  F   UNL A   1      46.544  32.791  30.567  1.00  0.00    -0.206 F 
ATOM     83  C   UNL A   1      46.917  35.892  28.733  1.00  0.00     0.006 A 
ENDBRANCH  55  76
BRANCH  67  84
ATOM     84  C   UNL A   1      47.696  27.370  25.561  1.00  0.00     0.057 A 
ATOM     85  C   UNL A   1      47.828  27.470  24.171  1.00  0.00     0.134 A 
ATOM     86  C   UNL A   1      48.799  26.904  26.288  1.00  0.00     0.134 A 
ATOM     87  F   UNL A   1      46.802  27.897  23.421  1.00  0.00    -0.206 F 
ATOM     88  C   UNL A   1      49.010  27.104  23.525  1.00  0.00     0.040 A 
ATOM     89  C   UNL A   1      49.991  26.553  25.655  1.00  0.00     0.040 A 
ATOM     90  F   UNL A   1      48.736  26.790  27.623  1.00  0.00    -0.206 F 
ATOM     91  C   UNL A   1      50.098  26.648  24.269  1.00  0.00     0.006 A 
ENDBRANCH  67  84
ENDBRANCH  41  42
ENDBRANCH  34  36
ENDBRANCH  33  34
ENDBRANCH  32  33
ENDBRANCH  31  32
ENDBRANCH   1  31
TORSDOF 16
ENDMDL
MODEL 3
REMARK VINA RESULT:     -11.8      1.181      2.338
REMARK SMILES Cc1occc1C(=O)NN1C(=O)/C(=C\c2ccc(O[C@H](C)C(=O)OCCOC(=O)c3ccc(-c4c5nc(c(-c6c(F)cccc6F)c6ccc([nH]6)c(-c6c(F)cccc6F)c6nc(c(-c7c(F)cccc7F)c7ccc4[nH]7)C=C6)C=C5)cc3)cc2)SC1=S
REMARK SMILES IDX 24 1 22 2 23 3 20 4 21 5 19 6 18 7 15 8 16 9 85 10 17 11
REMARK SMILES IDX 84 12 14 13 10 14 11 15 87 16 12 17 13 18 86 19 88 20 9 21
REMARK SMILES IDX 7 22 8 23 6 25 1 26 2 27 3 28 4 29 5 30 25 31 26 32 27 33
REMARK SMILES IDX 28 34 29 35 30 36 31 37 83 38 32 39 82 40 33 41 34 42 35 43
REMARK SMILES IDX 76 44 36 45 81 46 75 47 77 48 37 49 80 50 74 51 73 52 38 54
REMARK SMILES IDX 64 55 47 56 63 57 48 58 51 59 62 60 78 61 49 62 50 63 61 65
REMARK SMILES IDX 79 66 52 67 39 68 40 69 45 70 41 71 42 72 44 73 46 74 43 75
REMARK SMILES IDX 65 76 66 77 71 78 67 79 68 80 70 81 72 82 69 83 53 84 54 85
REMARK SMILES IDX 59 86 55 87 56 88 58 89 60 90 57 91
REMARK H PARENT 9 24 77 53 51 64
REMARK Flexibility Score: inf
ROOT
ATOM      1  O   UNL A   1      41.217  20.665  26.016  1.00  0.00    -0.459 OA
ENDROOT
BRANCH   1   2
ATOM      2  C   UNL A   1      40.103  21.347  26.394  1.00  0.00     0.347 C 
ATOM      3  O   UNL A   1      40.061  22.144  27.327  1.00  0.00    -0.248 OA
BRANCH   2   4
ATOM      4  C   UNL A   1      38.877  21.002  25.554  1.00  0.00     0.279 C 
ATOM      5  C   UNL A   1      38.617  19.513  25.307  1.00  0.00     0.066 C 
BRANCH   4   6
ATOM      6  O   UNL A   1      37.768  21.815  25.924  1.00  0.00    -0.479 OA
BRANCH   6   7
ATOM      7  C   UNL A   1      36.719  22.067  25.103  1.00  0.00     0.120 A 
ATOM      8  C   UNL A   1      34.267  22.550  23.823  1.00  0.00    -0.024 A 
ATOM      9  C   UNL A   1      35.396  23.317  23.515  1.00  0.00     0.012 A 
ATOM     10  C   UNL A   1      34.420  21.440  24.654  1.00  0.00     0.012 A 
ATOM     11  C   UNL A   1      36.622  23.059  24.136  1.00  0.00     0.047 A 
ATOM     12  C   UNL A   1      35.630  21.222  25.313  1.00  0.00     0.047 A 
BRANCH   8  13
ATOM     13  C   UNL A   1      32.966  22.974  23.289  1.00  0.00     0.029 C 
ATOM     14  N   UNL A   1      31.168  25.277  25.451  1.00  0.00    -0.198 N 
ATOM     15  C   UNL A   1      32.353  24.649  25.108  1.00  0.00     0.285 C 
ATOM     16  C   UNL A   1      30.201  25.401  24.479  1.00  0.00     0.168 C 
ATOM     17  O   UNL A   1      33.395  24.750  25.740  1.00  0.00    -0.266 OA
ATOM     18  C   UNL A   1      32.162  23.901  23.830  1.00  0.00     0.082 C 
ATOM     19  S   UNL A   1      30.666  24.397  23.101  1.00  0.00    -0.052 SA
ATOM     20  S   UNL A   1      28.819  26.331  24.509  1.00  0.00    -0.050 S 
BRANCH  14  21
ATOM     21  N   UNL A   1      31.156  25.965  26.659  1.00  0.00    -0.254 N 
ATOM     22  C   UNL A   1      31.543  27.267  26.880  1.00  0.00     0.273 C 
ATOM     23  O   UNL A   1      31.265  27.756  27.977  1.00  0.00    -0.267 OA
ATOM     24  H   UNL A   1      30.836  25.465  27.445  1.00  0.00     0.192 HD
BRANCH  22  25
ATOM     25  C   UNL A   1      32.355  28.020  25.932  1.00  0.00     0.082 A 
ATOM     26  C   UNL A   1      30.812  29.181  24.096  1.00  0.00     0.088 C 
ATOM     27  C   UNL A   1      32.039  28.770  24.807  1.00  0.00     0.113 A 
ATOM     28  O   UNL A   1      33.173  29.302  24.260  1.00  0.00    -0.469 OA
ATOM     29  C   UNL A   1      34.213  28.964  25.053  1.00  0.00     0.196 A 
ATOM     30  C   UNL A   1      33.769  28.203  26.102  1.00  0.00     0.056 A 
ENDBRANCH  22  25
ENDBRANCH  14  21
ENDBRANCH   8  13
ENDBRANCH   6   7
ENDBRANCH   4   6
ENDBRANCH   2   4
ENDBRANCH   1   2
BRANCH   1  31
ATOM     31  C   UNL A   1      42.460  21.169  26.539  1.00  0.00     0.274 C 
BRANCH  31  32
ATOM     32  C   UNL A   1      43.310  21.848  25.460  1.00  0.00     0.275 C 
BRANCH  32  33
ATOM     33  O   UNL A   1      42.740  23.094  25.018  1.00  0.00    -0.458 OA
BRANCH  33  34
ATOM     34  C   UNL A   1      43.523  24.180  25.220  1.00  0.00     0.338 C 
ATOM     35  O   UNL A   1      44.530  24.488  24.607  1.00  0.00    -0.246 OA
BRANCH  34  36
ATOM     36  C   UNL A   1      42.907  25.067  26.219  1.00  0.00     0.060 A 
ATOM     37  C   UNL A   1      43.432  26.354  26.351  1.00  0.00     0.016 A 
ATOM     38  C   UNL A   1      41.910  24.618  27.084  1.00  0.00     0.016 A 
ATOM     39  C   UNL A   1      42.990  27.195  27.363  1.00  0.00     0.010 A 
ATOM     40  C   UNL A   1      41.452  25.470  28.095  1.00  0.00     0.010 A 
ATOM     41  C   UNL A   1      42.002  26.756  28.248  1.00  0.00    -0.014 A 
BRANCH  41  42
ATOM     42  C   UNL A   1      41.591  27.639  29.361  1.00  0.00     0.031 A 
ATOM     43  C   UNL A   1      42.352  27.614  30.653  1.00  0.00     0.074 A 
ATOM     44  C   UNL A   1      40.569  28.496  29.188  1.00  0.00     0.049 A 
ATOM     45  N   UNL A   1      42.106  28.249  31.769  1.00  0.00    -0.248 NA
ATOM     46  C   UNL A   1      43.551  26.762  30.694  1.00  0.00     0.031 C 
ATOM     47  C   UNL A   1      39.802  28.657  27.953  1.00  0.00     0.029 A 
ATOM     48  N   UNL A   1      40.006  29.397  30.054  1.00  0.00    -0.354 N 
ATOM     49  C   UNL A   1      43.103  27.859  32.653  1.00  0.00     0.074 A 
ATOM     50  C   UNL A   1      43.954  26.925  31.946  1.00  0.00     0.031 C 
ATOM     51  C   UNL A   1      38.865  29.601  28.140  1.00  0.00     0.029 A 
ATOM     52  C   UNL A   1      38.938  30.074  29.519  1.00  0.00     0.049 A 
ATOM     53  H   UNL A   1      40.335  29.544  30.970  1.00  0.00     0.167 HD
ATOM     54  C   UNL A   1      43.288  28.246  33.936  1.00  0.00     0.037 A 
ATOM     55  C   UNL A   1      38.094  30.953  30.090  1.00  0.00     0.037 A 
ATOM     56  C   UNL A   1      42.448  29.188  34.627  1.00  0.00     0.049 A 
ATOM     57  C   UNL A   1      38.284  31.319  31.534  1.00  0.00     0.074 A 
ATOM     58  C   UNL A   1      42.551  29.647  35.929  1.00  0.00     0.029 A 
ATOM     59  N   UNL A   1      41.350  29.823  34.065  1.00  0.00    -0.354 N 
ATOM     60  N   UNL A   1      39.211  30.921  32.372  1.00  0.00    -0.248 NA
ATOM     61  C   UNL A   1      37.305  32.246  32.117  1.00  0.00     0.031 C 
ATOM     62  C   UNL A   1      41.495  30.534  36.165  1.00  0.00     0.029 A 
ATOM     63  C   UNL A   1      40.757  30.655  35.000  1.00  0.00     0.049 A 
ATOM     64  H   UNL A   1      41.039  29.700  33.139  1.00  0.00     0.167 HD
ATOM     65  C   UNL A   1      38.936  31.557  33.575  1.00  0.00     0.074 A 
ATOM     66  C   UNL A   1      37.764  32.380  33.353  1.00  0.00     0.031 C 
ATOM     67  C   UNL A   1      39.592  31.467  34.757  1.00  0.00     0.037 A 
BRANCH  54  68
ATOM     68  C   UNL A   1      44.424  27.620  34.686  1.00  0.00     0.057 A 
ATOM     69  C   UNL A   1      44.279  26.411  35.377  1.00  0.00     0.134 A 
ATOM     70  C   UNL A   1      45.687  28.225  34.695  1.00  0.00     0.134 A 
ATOM     71  F   UNL A   1      43.090  25.792  35.420  1.00  0.00    -0.206 F 
ATOM     72  C   UNL A   1      45.348  25.833  36.065  1.00  0.00     0.040 A 
ATOM     73  C   UNL A   1      46.768  27.647  35.363  1.00  0.00     0.040 A 
ATOM     74  F   UNL A   1      45.891  29.385  34.052  1.00  0.00    -0.206 F 
ATOM     75  C   UNL A   1      46.598  26.449  36.055  1.00  0.00     0.006 A 
ENDBRANCH  54  68
BRANCH  55  76
ATOM     76  C   UNL A   1      36.973  31.520  29.303  1.00  0.00     0.057 A 
ATOM     77  C   UNL A   1      37.047  32.808  28.761  1.00  0.00     0.134 A 
ATOM     78  C   UNL A   1      35.801  30.789  29.076  1.00  0.00     0.134 A 
ATOM     79  F   UNL A   1      38.136  33.565  28.963  1.00  0.00    -0.206 F 
ATOM     80  C   UNL A   1      35.991  33.352  28.029  1.00  0.00     0.040 A 
ATOM     81  C   UNL A   1      34.746  31.312  28.329  1.00  0.00     0.040 A 
ATOM     82  F   UNL A   1      35.670  29.549  29.571  1.00  0.00    -0.206 F 
ATOM     83  C   UNL A   1      34.838  32.601  27.807  1.00  0.00     0.006 A 
ENDBRANCH  55  76
BRANCH  67  84
ATOM     84  C   UNL A   1      39.067  32.295  35.889  1.00  0.00     0.057 A 
ATOM     85  C   UNL A   1      38.192  31.764  36.844  1.00  0.00     0.134 A 
ATOM     86  C   UNL A   1      39.468  33.628  36.043  1.00  0.00     0.134 A 
ATOM     87  F   UNL A   1      37.762  30.497  36.741  1.00  0.00    -0.206 F 
ATOM     88  C   UNL A   1      37.718  32.536  37.905  1.00  0.00     0.040 A 
ATOM     89  C   UNL A   1      39.016  34.404  37.111  1.00  0.00     0.040 A 
ATOM     90  F   UNL A   1      40.309  34.192  35.165  1.00  0.00    -0.206 F 
ATOM     91  C   UNL A   1      38.134  33.860  38.043  1.00  0.00     0.006 A 
ENDBRANCH  67  84
ENDBRANCH  41  42
ENDBRANCH  34  36
ENDBRANCH  33  34
ENDBRANCH  32  33
ENDBRANCH  31  32
ENDBRANCH   1  31
TORSDOF 16
ENDMDL
