MODEL 1
REMARK VINA RESULT:     -11.5      0.000      0.000
REMARK SMILES C[NH2+][C@](C)(CCSc1ccncc1)C(=O)OCCOC(=O)c1ccc(-c2c3nc(c(-c4c(F)cccc4F)c4ccc([nH]4)c(-c4c(F)cccc4F)c4nc(c(-c5c(F)cccc5F)c5ccc2[nH]5)C=C4)C=C3)cc1
REMARK SMILES IDX 17 1 16 2 14 3 15 4 3 5 4 6 2 7 1 8 5 11 6 12 7 13 8 14 9 15
REMARK SMILES IDX 13 16 10 17 12 18 11 19 18 20 19 21 20 22 21 23 22 24 23 25
REMARK SMILES IDX 75 26 24 27 74 28 25 29 26 30 27 31 68 32 28 33 73 34 67 35
REMARK SMILES IDX 69 36 29 37 72 38 66 39 65 40 30 42 56 43 39 44 55 45 40 46
REMARK SMILES IDX 43 47 54 48 70 49 41 50 42 51 53 53 71 54 44 55 31 56 32 57
REMARK SMILES IDX 37 58 33 59 34 60 36 61 38 62 35 63 57 64 58 65 63 66 59 67
REMARK SMILES IDX 60 68 62 69 64 70 61 71 45 72 46 73 51 74 47 75 48 76 50 77
REMARK SMILES IDX 52 78 49 79
REMARK H PARENT 2 9 2 10 69 41 43 52
REMARK Flexibility Score: inf
ROOT
ATOM      1  C   UNL A   1      31.340  31.959  26.498  1.00  0.00     0.274 C 
ENDROOT
BRANCH   1   2
ATOM      2  O   UNL A   1      31.805  30.806  25.712  1.00  0.00    -0.457 OA
BRANCH   2   3
ATOM      3  C   UNL A   1      31.896  29.476  26.124  1.00  0.00     0.367 C 
ATOM      4  O   UNL A   1      31.778  29.127  27.290  1.00  0.00    -0.245 OA
BRANCH   3   5
ATOM      5  C   UNL A   1      32.271  28.455  24.848  1.00  0.00     0.192 C 
ATOM      6  C   UNL A   1      33.365  27.329  24.756  1.00  0.00     0.092 C 
BRANCH   5   7
ATOM      7  N   UNL A   1      32.583  29.328  23.664  1.00  0.00    -0.335 N 
ATOM      8  C   UNL A   1      33.850  28.929  23.011  1.00  0.00     0.331 C 
ATOM      9  H   UNL A   1      31.825  29.252  22.988  1.00  0.00     0.347 HD
ATOM     10  H   UNL A   1      32.685  30.288  23.994  1.00  0.00     0.347 HD
ENDBRANCH   5   7
BRANCH   5  11
ATOM     11  C   UNL A   1      30.989  27.640  24.719  1.00  0.00     0.092 C 
BRANCH  11  12
ATOM     12  C   UNL A   1      30.402  27.841  23.284  1.00  0.00     0.082 C 
BRANCH  12  13
ATOM     13  S   UNL A   1      28.613  28.594  22.896  1.00  0.00    -0.126 SA
BRANCH  13  14
ATOM     14  C   UNL A   1      28.191  30.317  22.582  1.00  0.00     0.010 A 
ATOM     15  C   UNL A   1      28.039  30.736  21.265  1.00  0.00     0.035 A 
ATOM     16  C   UNL A   1      28.424  31.356  23.495  1.00  0.00     0.035 A 
ATOM     17  C   UNL A   1      28.028  32.087  20.940  1.00  0.00     0.112 A 
ATOM     18  C   UNL A   1      28.403  32.689  23.093  1.00  0.00     0.112 A 
ATOM     19  N   UNL A   1      28.203  33.078  21.827  1.00  0.00    -0.265 NA
ENDBRANCH  13  14
ENDBRANCH  12  13
ENDBRANCH  11  12
ENDBRANCH   5  11
ENDBRANCH   3   5
ENDBRANCH   2   3
ENDBRANCH   1   2
BRANCH   1  20
ATOM     20  C   UNL A   1      32.536  32.875  27.046  1.00  0.00     0.275 C 
BRANCH  20  21
ATOM     21  O   UNL A   1      32.153  33.877  28.060  1.00  0.00    -0.458 OA
BRANCH  21  22
ATOM     22  C   UNL A   1      33.049  34.767  28.599  1.00  0.00     0.338 C 
ATOM     23  O   UNL A   1      32.779  35.912  28.936  1.00  0.00    -0.246 OA
BRANCH  22  24
ATOM     24  C   UNL A   1      34.350  34.084  28.999  1.00  0.00     0.060 A 
ATOM     25  C   UNL A   1      34.238  33.028  29.908  1.00  0.00     0.016 A 
ATOM     26  C   UNL A   1      35.624  34.328  28.474  1.00  0.00     0.016 A 
ATOM     27  C   UNL A   1      35.235  32.041  30.013  1.00  0.00     0.010 A 
ATOM     28  C   UNL A   1      36.713  33.454  28.780  1.00  0.00     0.010 A 
ATOM     29  C   UNL A   1      36.515  32.262  29.505  1.00  0.00    -0.014 A 
BRANCH  29  30
ATOM     30  C   UNL A   1      37.617  31.414  30.074  1.00  0.00     0.031 A 
ATOM     31  C   UNL A   1      37.913  31.609  31.548  1.00  0.00     0.074 A 
ATOM     32  C   UNL A   1      38.250  30.408  29.428  1.00  0.00     0.049 A 
ATOM     33  N   UNL A   1      38.846  31.089  32.303  1.00  0.00    -0.248 NA
ATOM     34  C   UNL A   1      36.993  32.501  32.278  1.00  0.00     0.031 C 
ATOM     35  C   UNL A   1      37.964  29.933  28.076  1.00  0.00     0.029 A 
ATOM     36  N   UNL A   1      39.278  29.583  29.851  1.00  0.00    -0.354 N 
ATOM     37  C   UNL A   1      38.628  31.603  33.578  1.00  0.00     0.074 A 
ATOM     38  C   UNL A   1      37.458  32.441  33.510  1.00  0.00     0.031 C 
ATOM     39  C   UNL A   1      38.814  28.930  27.771  1.00  0.00     0.029 A 
ATOM     40  C   UNL A   1      39.743  28.719  28.883  1.00  0.00     0.049 A 
ATOM     41  H   UNL A   1      39.646  29.611  30.764  1.00  0.00     0.167 HD
ATOM     42  C   UNL A   1      39.349  31.433  34.708  1.00  0.00     0.037 A 
ATOM     43  C   UNL A   1      40.819  27.897  28.878  1.00  0.00     0.037 A 
ATOM     44  C   UNL A   1      40.537  30.636  34.788  1.00  0.00     0.049 A 
ATOM     45  C   UNL A   1      41.714  27.833  30.100  1.00  0.00     0.074 A 
ATOM     46  C   UNL A   1      41.396  30.473  35.858  1.00  0.00     0.029 A 
ATOM     47  N   UNL A   1      41.035  29.872  33.745  1.00  0.00    -0.354 N 
ATOM     48  N   UNL A   1      41.567  28.413  31.266  1.00  0.00    -0.248 NA
ATOM     49  C   UNL A   1      42.939  27.020  29.995  1.00  0.00     0.031 C 
ATOM     50  C   UNL A   1      42.442  29.640  35.447  1.00  0.00     0.029 A 
ATOM     51  C   UNL A   1      42.201  29.244  34.141  1.00  0.00     0.049 A 
ATOM     52  H   UNL A   1      40.620  29.789  32.855  1.00  0.00     0.167 HD
ATOM     53  C   UNL A   1      42.659  28.021  32.035  1.00  0.00     0.074 A 
ATOM     54  C   UNL A   1      43.457  27.141  31.211  1.00  0.00     0.031 C 
ATOM     55  C   UNL A   1      42.976  28.361  33.309  1.00  0.00     0.037 A 
BRANCH  42  56
ATOM     56  C   UNL A   1      38.916  32.221  35.909  1.00  0.00     0.057 A 
ATOM     57  C   UNL A   1      39.292  33.558  36.104  1.00  0.00     0.134 A 
ATOM     58  C   UNL A   1      38.153  31.610  36.912  1.00  0.00     0.134 A 
ATOM     59  F   UNL A   1      40.060  34.186  35.201  1.00  0.00    -0.206 F 
ATOM     60  C   UNL A   1      38.943  34.248  37.266  1.00  0.00     0.040 A 
ATOM     61  C   UNL A   1      37.775  32.299  38.064  1.00  0.00     0.040 A 
ATOM     62  F   UNL A   1      37.775  30.328  36.793  1.00  0.00    -0.206 F 
ATOM     63  C   UNL A   1      38.178  33.620  38.247  1.00  0.00     0.006 A 
ENDBRANCH  42  56
BRANCH  43  64
ATOM     64  C   UNL A   1      41.193  27.128  27.651  1.00  0.00     0.057 A 
ATOM     65  C   UNL A   1      40.850  25.779  27.482  1.00  0.00     0.134 A 
ATOM     66  C   UNL A   1      41.979  27.710  26.647  1.00  0.00     0.134 A 
ATOM     67  F   UNL A   1      40.146  25.137  28.426  1.00  0.00    -0.206 F 
ATOM     68  C   UNL A   1      41.274  25.043  26.369  1.00  0.00     0.040 A 
ATOM     69  C   UNL A   1      42.384  26.996  25.515  1.00  0.00     0.040 A 
ATOM     70  F   UNL A   1      42.376  28.987  26.754  1.00  0.00    -0.206 F 
ATOM     71  C   UNL A   1      42.036  25.655  25.376  1.00  0.00     0.006 A 
ENDBRANCH  43  64
BRANCH  55  72
ATOM     72  C   UNL A   1      44.208  27.752  33.914  1.00  0.00     0.057 A 
ATOM     73  C   UNL A   1      45.440  28.417  33.915  1.00  0.00     0.134 A 
ATOM     74  C   UNL A   1      44.140  26.514  34.568  1.00  0.00     0.134 A 
ATOM     75  F   UNL A   1      45.574  29.603  33.303  1.00  0.00    -0.206 F 
ATOM     76  C   UNL A   1      46.566  27.862  34.527  1.00  0.00     0.040 A 
ATOM     77  C   UNL A   1      45.252  25.962  35.205  1.00  0.00     0.040 A 
ATOM     78  F   UNL A   1      42.985  25.833  34.618  1.00  0.00    -0.206 F 
ATOM     79  C   UNL A   1      46.472  26.635  35.181  1.00  0.00     0.006 A 
ENDBRANCH  55  72
ENDBRANCH  29  30
ENDBRANCH  22  24
ENDBRANCH  21  22
ENDBRANCH  20  21
ENDBRANCH   1  20
TORSDOF 16
ENDMDL
MODEL 2
REMARK VINA RESULT:     -11.2      1.356      6.517
REMARK SMILES C[NH2+][C@](C)(CCSc1ccncc1)C(=O)OCCOC(=O)c1ccc(-c2c3nc(c(-c4c(F)cccc4F)c4ccc([nH]4)c(-c4c(F)cccc4F)c4nc(c(-c5c(F)cccc5F)c5ccc2[nH]5)C=C4)C=C3)cc1
REMARK SMILES IDX 17 1 16 2 14 3 15 4 3 5 4 6 2 7 1 8 5 11 6 12 7 13 8 14 9 15
REMARK SMILES IDX 13 16 10 17 12 18 11 19 18 20 19 21 20 22 21 23 22 24 23 25
REMARK SMILES IDX 75 26 24 27 74 28 25 29 26 30 27 31 68 32 28 33 73 34 67 35
REMARK SMILES IDX 69 36 29 37 72 38 66 39 65 40 30 42 56 43 39 44 55 45 40 46
REMARK SMILES IDX 43 47 54 48 70 49 41 50 42 51 53 53 71 54 44 55 31 56 32 57
REMARK SMILES IDX 37 58 33 59 34 60 36 61 38 62 35 63 57 64 58 65 63 66 59 67
REMARK SMILES IDX 60 68 62 69 64 70 61 71 45 72 46 73 51 74 47 75 48 76 50 77
REMARK SMILES IDX 52 78 49 79
REMARK H PARENT 2 9 2 10 69 41 43 52
REMARK Flexibility Score: inf
ROOT
ATOM      1  C   UNL A   1      31.424  31.873  26.728  1.00  0.00     0.274 C 
ENDROOT
BRANCH   1   2
ATOM      2  O   UNL A   1      31.959  30.765  25.923  1.00  0.00    -0.457 OA
BRANCH   2   3
ATOM      3  C   UNL A   1      31.927  29.402  26.221  1.00  0.00     0.367 C 
ATOM      4  O   UNL A   1      31.792  28.969  27.357  1.00  0.00    -0.245 OA
BRANCH   3   5
ATOM      5  C   UNL A   1      32.184  28.461  24.858  1.00  0.00     0.192 C 
ATOM      6  C   UNL A   1      33.261  27.344  24.602  1.00  0.00     0.092 C 
BRANCH   5   7
ATOM      7  N   UNL A   1      32.395  29.404  23.706  1.00  0.00    -0.335 N 
ATOM      8  C   UNL A   1      33.610  29.062  22.935  1.00  0.00     0.331 C 
ATOM      9  H   UNL A   1      31.587  29.357  23.087  1.00  0.00     0.347 HD
ATOM     10  H   UNL A   1      32.513  30.346  24.083  1.00  0.00     0.347 HD
ENDBRANCH   5   7
BRANCH   5  11
ATOM     11  C   UNL A   1      30.892  27.654  24.792  1.00  0.00     0.092 C 
BRANCH  11  12
ATOM     12  C   UNL A   1      30.280  27.792  23.361  1.00  0.00     0.082 C 
BRANCH  12  13
ATOM     13  S   UNL A   1      28.496  28.556  22.970  1.00  0.00    -0.126 SA
BRANCH  13  14
ATOM     14  C   UNL A   1      28.097  30.267  22.576  1.00  0.00     0.010 A 
ATOM     15  C   UNL A   1      28.125  30.668  21.244  1.00  0.00     0.035 A 
ATOM     16  C   UNL A   1      28.182  31.321  23.497  1.00  0.00     0.035 A 
ATOM     17  C   UNL A   1      28.140  32.014  20.901  1.00  0.00     0.112 A 
ATOM     18  C   UNL A   1      28.198  32.649  23.076  1.00  0.00     0.112 A 
ATOM     19  N   UNL A   1      28.173  33.019  21.789  1.00  0.00    -0.265 NA
ENDBRANCH  13  14
ENDBRANCH  12  13
ENDBRANCH  11  12
ENDBRANCH   5  11
ENDBRANCH   3   5
ENDBRANCH   2   3
ENDBRANCH   1   2
BRANCH   1  20
ATOM     20  C   UNL A   1      32.559  32.865  27.273  1.00  0.00     0.275 C 
BRANCH  20  21
ATOM     21  O   UNL A   1      32.126  33.809  28.322  1.00  0.00    -0.458 OA
BRANCH  21  22
ATOM     22  C   UNL A   1      32.873  34.899  28.692  1.00  0.00     0.338 C 
ATOM     23  O   UNL A   1      32.447  36.044  28.768  1.00  0.00    -0.246 OA
BRANCH  22  24
ATOM     24  C   UNL A   1      34.218  34.490  29.277  1.00  0.00     0.060 A 
ATOM     25  C   UNL A   1      34.185  33.891  30.540  1.00  0.00     0.016 A 
ATOM     26  C   UNL A   1      35.464  34.548  28.641  1.00  0.00     0.016 A 
ATOM     27  C   UNL A   1      35.236  33.072  30.991  1.00  0.00     0.010 A 
ATOM     28  C   UNL A   1      36.606  33.916  29.227  1.00  0.00     0.010 A 
ATOM     29  C   UNL A   1      36.489  33.116  30.381  1.00  0.00    -0.014 A 
BRANCH  29  30
ATOM     30  C   UNL A   1      37.649  32.616  31.195  1.00  0.00     0.031 A 
ATOM     31  C   UNL A   1      38.423  31.453  30.606  1.00  0.00     0.074 A 
ATOM     32  C   UNL A   1      38.137  33.202  32.312  1.00  0.00     0.049 A 
ATOM     33  N   UNL A   1      39.414  30.755  31.099  1.00  0.00    -0.248 NA
ATOM     34  C   UNL A   1      38.036  31.044  29.243  1.00  0.00     0.031 C 
ATOM     35  C   UNL A   1      37.658  34.442  32.918  1.00  0.00     0.029 A 
ATOM     36  N   UNL A   1      39.181  32.820  33.137  1.00  0.00    -0.354 N 
ATOM     37  C   UNL A   1      39.748  29.829  30.115  1.00  0.00     0.074 A 
ATOM     38  C   UNL A   1      38.888  30.072  28.986  1.00  0.00     0.031 C 
ATOM     39  C   UNL A   1      38.380  34.699  34.029  1.00  0.00     0.029 A 
ATOM     40  C   UNL A   1      39.341  33.616  34.250  1.00  0.00     0.049 A 
ATOM     41  H   UNL A   1      39.759  32.046  32.945  1.00  0.00     0.167 HD
ATOM     42  C   UNL A   1      40.660  28.833  30.147  1.00  0.00     0.037 A 
ATOM     43  C   UNL A   1      40.132  33.462  35.339  1.00  0.00     0.037 A 
ATOM     44  C   UNL A   1      41.497  28.549  31.276  1.00  0.00     0.049 A 
ATOM     45  C   UNL A   1      41.039  32.252  35.436  1.00  0.00     0.074 A 
ATOM     46  C   UNL A   1      42.386  27.506  31.450  1.00  0.00     0.029 A 
ATOM     47  N   UNL A   1      41.537  29.316  32.429  1.00  0.00    -0.354 N 
ATOM     48  N   UNL A   1      41.266  31.313  34.549  1.00  0.00    -0.248 NA
ATOM     49  C   UNL A   1      41.783  32.066  36.695  1.00  0.00     0.031 C 
ATOM     50  C   UNL A   1      42.936  27.617  32.730  1.00  0.00     0.029 A 
ATOM     51  C   UNL A   1      42.429  28.761  33.328  1.00  0.00     0.049 A 
ATOM     52  H   UNL A   1      41.011  30.133  32.584  1.00  0.00     0.167 HD
ATOM     53  C   UNL A   1      42.186  30.444  35.130  1.00  0.00     0.074 A 
ATOM     54  C   UNL A   1      42.490  30.973  36.441  1.00  0.00     0.031 C 
ATOM     55  C   UNL A   1      42.729  29.308  34.625  1.00  0.00     0.037 A 
BRANCH  42  56
ATOM     56  C   UNL A   1      40.704  27.920  28.958  1.00  0.00     0.057 A 
ATOM     57  C   UNL A   1      41.534  28.165  27.855  1.00  0.00     0.134 A 
ATOM     58  C   UNL A   1      39.856  26.807  28.896  1.00  0.00     0.134 A 
ATOM     59  F   UNL A   1      42.337  29.239  27.833  1.00  0.00    -0.206 F 
ATOM     60  C   UNL A   1      41.501  27.345  26.726  1.00  0.00     0.040 A 
ATOM     61  C   UNL A   1      39.835  25.965  27.785  1.00  0.00     0.040 A 
ATOM     62  F   UNL A   1      39.025  26.528  29.912  1.00  0.00    -0.206 F 
ATOM     63  C   UNL A   1      40.654  26.239  26.691  1.00  0.00     0.006 A 
ENDBRANCH  42  56
BRANCH  43  64
ATOM     64  C   UNL A   1      40.049  34.412  36.490  1.00  0.00     0.057 A 
ATOM     65  C   UNL A   1      39.168  34.210  37.563  1.00  0.00     0.134 A 
ATOM     66  C   UNL A   1      40.797  35.598  36.503  1.00  0.00     0.134 A 
ATOM     67  F   UNL A   1      38.379  33.127  37.595  1.00  0.00    -0.206 F 
ATOM     68  C   UNL A   1      39.037  35.145  38.596  1.00  0.00     0.040 A 
ATOM     69  C   UNL A   1      40.698  36.526  37.543  1.00  0.00     0.040 A 
ATOM     70  F   UNL A   1      41.635  35.878  35.493  1.00  0.00    -0.206 F 
ATOM     71  C   UNL A   1      39.810  36.304  38.592  1.00  0.00     0.006 A 
ENDBRANCH  43  64
BRANCH  55  72
ATOM     72  C   UNL A   1      43.739  28.580  35.462  1.00  0.00     0.057 A 
ATOM     73  C   UNL A   1      43.365  27.608  36.399  1.00  0.00     0.134 A 
ATOM     74  C   UNL A   1      45.110  28.803  35.275  1.00  0.00     0.134 A 
ATOM     75  F   UNL A   1      42.069  27.348  36.629  1.00  0.00    -0.206 F 
ATOM     76  C   UNL A   1      44.318  26.900  37.134  1.00  0.00     0.040 A 
ATOM     77  C   UNL A   1      46.072  28.083  35.984  1.00  0.00     0.040 A 
ATOM     78  F   UNL A   1      45.536  29.708  34.380  1.00  0.00    -0.206 F 
ATOM     79  C   UNL A   1      45.676  27.131  36.922  1.00  0.00     0.006 A 
ENDBRANCH  55  72
ENDBRANCH  29  30
ENDBRANCH  22  24
ENDBRANCH  21  22
ENDBRANCH  20  21
ENDBRANCH   1  20
TORSDOF 16
ENDMDL
MODEL 3
REMARK VINA RESULT:     -10.9      6.224     11.093
REMARK SMILES C[NH2+][C@](C)(CCSc1ccncc1)C(=O)OCCOC(=O)c1ccc(-c2c3nc(c(-c4c(F)cccc4F)c4ccc([nH]4)c(-c4c(F)cccc4F)c4nc(c(-c5c(F)cccc5F)c5ccc2[nH]5)C=C4)C=C3)cc1
REMARK SMILES IDX 17 1 16 2 14 3 15 4 3 5 4 6 2 7 1 8 5 11 6 12 7 13 8 14 9 15
REMARK SMILES IDX 13 16 10 17 12 18 11 19 18 20 19 21 20 22 21 23 22 24 23 25
REMARK SMILES IDX 75 26 24 27 74 28 25 29 26 30 27 31 68 32 28 33 73 34 67 35
REMARK SMILES IDX 69 36 29 37 72 38 66 39 65 40 30 42 56 43 39 44 55 45 40 46
REMARK SMILES IDX 43 47 54 48 70 49 41 50 42 51 53 53 71 54 44 55 31 56 32 57
REMARK SMILES IDX 37 58 33 59 34 60 36 61 38 62 35 63 57 64 58 65 63 66 59 67
REMARK SMILES IDX 60 68 62 69 64 70 61 71 45 72 46 73 51 74 47 75 48 76 50 77
REMARK SMILES IDX 52 78 49 79
REMARK H PARENT 2 9 2 10 69 41 43 52
REMARK Flexibility Score: inf
ROOT
ATOM      1  C   UNL A   1      38.261  21.062  25.414  1.00  0.00     0.274 C 
ENDROOT
BRANCH   1   2
ATOM      2  O   UNL A   1      36.999  21.061  24.658  1.00  0.00    -0.457 OA
BRANCH   2   3
ATOM      3  C   UNL A   1      36.341  22.157  24.100  1.00  0.00     0.367 C 
ATOM      4  O   UNL A   1      36.829  22.855  23.221  1.00  0.00    -0.245 OA
BRANCH   3   5
ATOM      5  C   UNL A   1      34.864  22.438  24.840  1.00  0.00     0.192 C 
ATOM      6  C   UNL A   1      33.556  23.083  24.250  1.00  0.00     0.092 C 
BRANCH   5   7
ATOM      7  N   UNL A   1      35.135  23.276  26.058  1.00  0.00    -0.335 N 
ATOM      8  C   UNL A   1      34.182  22.977  27.150  1.00  0.00     0.331 C 
ATOM      9  H   UNL A   1      36.082  23.088  26.386  1.00  0.00     0.347 HD
ATOM     10  H   UNL A   1      35.025  24.257  25.801  1.00  0.00     0.347 HD
ENDBRANCH   5   7
BRANCH   5  11
ATOM     11  C   UNL A   1      34.391  21.018  25.134  1.00  0.00     0.092 C 
BRANCH  11  12
ATOM     12  C   UNL A   1      33.042  20.767  24.386  1.00  0.00     0.082 C 
BRANCH  12  13
ATOM     13  S   UNL A   1      32.503  19.035  23.593  1.00  0.00    -0.126 SA
BRANCH  13  14
ATOM     14  C   UNL A   1      33.058  17.389  24.069  1.00  0.00     0.010 A 
ATOM     15  C   UNL A   1      32.291  16.664  24.975  1.00  0.00     0.035 A 
ATOM     16  C   UNL A   1      34.384  16.948  23.953  1.00  0.00     0.035 A 
ATOM     17  C   UNL A   1      32.807  15.545  25.617  1.00  0.00     0.112 A 
ATOM     18  C   UNL A   1      34.832  15.818  24.635  1.00  0.00     0.112 A 
ATOM     19  N   UNL A   1      34.064  15.100  25.465  1.00  0.00    -0.265 NA
ENDBRANCH  13  14
ENDBRANCH  12  13
ENDBRANCH  11  12
ENDBRANCH   5  11
ENDBRANCH   3   5
ENDBRANCH   2   3
ENDBRANCH   1   2
BRANCH   1  20
ATOM     20  C   UNL A   1      39.063  19.678  25.310  1.00  0.00     0.275 C 
BRANCH  20  21
ATOM     21  O   UNL A   1      40.094  19.463  26.344  1.00  0.00    -0.458 OA
BRANCH  21  22
ATOM     22  C   UNL A   1      41.420  19.752  26.139  1.00  0.00     0.338 C 
ATOM     23  O   UNL A   1      42.178  19.095  25.437  1.00  0.00    -0.246 OA
BRANCH  22  24
ATOM     24  C   UNL A   1      41.781  21.141  26.649  1.00  0.00     0.060 A 
ATOM     25  C   UNL A   1      41.637  22.190  25.736  1.00  0.00     0.016 A 
ATOM     26  C   UNL A   1      42.133  21.491  27.958  1.00  0.00     0.016 A 
ATOM     27  C   UNL A   1      41.486  23.521  26.166  1.00  0.00     0.010 A 
ATOM     28  C   UNL A   1      42.221  22.866  28.341  1.00  0.00     0.010 A 
ATOM     29  C   UNL A   1      41.836  23.898  27.462  1.00  0.00    -0.014 A 
BRANCH  29  30
ATOM     30  C   UNL A   1      42.115  25.357  27.683  1.00  0.00     0.031 A 
ATOM     31  C   UNL A   1      43.427  25.875  27.126  1.00  0.00     0.074 A 
ATOM     32  C   UNL A   1      41.244  26.257  28.194  1.00  0.00     0.049 A 
ATOM     33  N   UNL A   1      43.984  27.056  27.223  1.00  0.00    -0.248 NA
ATOM     34  C   UNL A   1      44.204  24.922  26.314  1.00  0.00     0.031 C 
ATOM     35  C   UNL A   1      39.863  25.993  28.595  1.00  0.00     0.029 A 
ATOM     36  N   UNL A   1      41.404  27.608  28.450  1.00  0.00    -0.354 N 
ATOM     37  C   UNL A   1      45.170  26.971  26.500  1.00  0.00     0.074 A 
ATOM     38  C   UNL A   1      45.240  25.647  25.939  1.00  0.00     0.031 C 
ATOM     39  C   UNL A   1      39.317  27.131  29.074  1.00  0.00     0.029 A 
ATOM     40  C   UNL A   1      40.321  28.197  29.066  1.00  0.00     0.049 A 
ATOM     41  H   UNL A   1      42.220  28.105  28.213  1.00  0.00     0.167 HD
ATOM     42  C   UNL A   1      46.145  27.893  26.338  1.00  0.00     0.037 A 
ATOM     43  C   UNL A   1      40.176  29.432  29.604  1.00  0.00     0.037 A 
ATOM     44  C   UNL A   1      46.114  29.202  26.921  1.00  0.00     0.049 A 
ATOM     45  C   UNL A   1      41.336  30.407  29.556  1.00  0.00     0.074 A 
ATOM     46  C   UNL A   1      47.091  30.179  26.900  1.00  0.00     0.029 A 
ATOM     47  N   UNL A   1      45.043  29.711  27.638  1.00  0.00    -0.354 N 
ATOM     48  N   UNL A   1      42.502  30.279  28.970  1.00  0.00    -0.248 NA
ATOM     49  C   UNL A   1      41.169  31.688  30.266  1.00  0.00     0.031 C 
ATOM     50  C   UNL A   1      46.627  31.268  27.644  1.00  0.00     0.029 A 
ATOM     51  C   UNL A   1      45.341  30.988  28.078  1.00  0.00     0.049 A 
ATOM     52  H   UNL A   1      44.198  29.236  27.808  1.00  0.00     0.167 HD
ATOM     53  C   UNL A   1      43.194  31.461  29.221  1.00  0.00     0.074 A 
ATOM     54  C   UNL A   1      42.314  32.304  30.000  1.00  0.00     0.031 C 
ATOM     55  C   UNL A   1      44.446  31.817  28.843  1.00  0.00     0.037 A 
BRANCH  42  56
ATOM     56  C   UNL A   1      47.368  27.456  25.589  1.00  0.00     0.057 A 
ATOM     57  C   UNL A   1      48.481  26.895  26.231  1.00  0.00     0.134 A 
ATOM     58  C   UNL A   1      47.450  27.652  24.204  1.00  0.00     0.134 A 
ATOM     59  F   UNL A   1      48.483  26.722  27.561  1.00  0.00    -0.206 F 
ATOM     60  C   UNL A   1      49.639  26.568  25.523  1.00  0.00     0.040 A 
ATOM     61  C   UNL A   1      48.591  27.302  23.483  1.00  0.00     0.040 A 
ATOM     62  F   UNL A   1      46.425  28.200  23.533  1.00  0.00    -0.206 F 
ATOM     63  C   UNL A   1      49.694  26.766  24.145  1.00  0.00     0.006 A 
ENDBRANCH  42  56
BRANCH  43  64
ATOM     64  C   UNL A   1      38.926  29.812  30.332  1.00  0.00     0.057 A 
ATOM     65  C   UNL A   1      38.710  29.467  31.674  1.00  0.00     0.134 A 
ATOM     66  C   UNL A   1      37.876  30.463  29.670  1.00  0.00     0.134 A 
ATOM     67  F   UNL A   1      39.646  28.795  32.358  1.00  0.00    -0.206 F 
ATOM     68  C   UNL A   1      37.505  29.754  32.325  1.00  0.00     0.040 A 
ATOM     69  C   UNL A   1      36.678  30.783  30.316  1.00  0.00     0.040 A 
ATOM     70  F   UNL A   1      37.994  30.794  28.376  1.00  0.00    -0.206 F 
ATOM     71  C   UNL A   1      36.487  30.422  31.647  1.00  0.00     0.006 A 
ENDBRANCH  43  64
BRANCH  55  72
ATOM     72  C   UNL A   1      44.932  33.186  29.220  1.00  0.00     0.057 A 
ATOM     73  C   UNL A   1      45.689  33.413  30.376  1.00  0.00     0.134 A 
ATOM     74  C   UNL A   1      44.700  34.280  28.375  1.00  0.00     0.134 A 
ATOM     75  F   UNL A   1      45.945  32.410  31.229  1.00  0.00    -0.206 F 
ATOM     76  C   UNL A   1      46.179  34.682  30.688  1.00  0.00     0.040 A 
ATOM     77  C   UNL A   1      45.206  35.547  28.662  1.00  0.00     0.040 A 
ATOM     78  F   UNL A   1      43.996  34.127  27.242  1.00  0.00    -0.206 F 
ATOM     79  C   UNL A   1      45.945  35.752  29.826  1.00  0.00     0.006 A 
ENDBRANCH  55  72
ENDBRANCH  29  30
ENDBRANCH  22  24
ENDBRANCH  21  22
ENDBRANCH  20  21
ENDBRANCH   1  20
TORSDOF 16
ENDMDL
