MODEL 1
REMARK VINA RESULT:     -12.2      0.000      0.000
REMARK SMILES O=C(OCCOC(=O)c1cccc(CSc2nc(-c3ccccc3)n[nH]2)c1)c1ccc(-c2c3nc(c(-c4c(F)cccc4F)c4ccc([nH]4)c(-c4c(F)cccc4F)c4nc(c(-c5c(F)cccc5F)c5ccc2[nH]5)C=C4)C=C3)cc1
REMARK SMILES IDX 5 1 4 2 3 3 2 4 1 5 28 6 29 7 81 8 30 9 80 10 31 11 32 12
REMARK SMILES IDX 33 13 74 14 34 15 79 16 73 17 75 18 35 19 78 20 72 21 71 22
REMARK SMILES IDX 36 24 62 25 45 26 61 27 46 28 49 29 60 30 76 31 47 32 48 33
REMARK SMILES IDX 59 35 77 36 50 37 37 38 38 39 43 40 39 41 40 42 42 43 44 44
REMARK SMILES IDX 41 45 63 46 64 47 69 48 65 49 66 50 68 51 70 52 67 53 51 54
REMARK SMILES IDX 52 55 57 56 53 57 54 58 56 59 58 60 55 61 6 62 7 63 8 64
REMARK SMILES IDX 9 65 10 66 27 67 11 68 13 69 12 70 14 71 15 72 16 73 17 74
REMARK SMILES IDX 26 75 18 76 25 77 19 79 20 80 24 81 21 82 23 83 22 84
REMARK H PARENT 75 23 49 34 26 78
REMARK Flexibility Score: inf
ROOT
ATOM      1  C   UNL A   1      32.020  31.140  26.326  1.00  0.00     0.275 C 
ENDROOT
BRANCH   1   2
ATOM      2  C   UNL A   1      31.404  32.415  26.918  1.00  0.00     0.275 C 
BRANCH   2   3
ATOM      3  O   UNL A   1      32.275  33.561  26.968  1.00  0.00    -0.458 OA
BRANCH   3   4
ATOM      4  C   UNL A   1      32.980  34.087  27.998  1.00  0.00     0.338 C 
ATOM      5  O   UNL A   1      32.670  35.200  28.421  1.00  0.00    -0.246 OA
BRANCH   4   6
ATOM      6  C   UNL A   1      34.211  33.454  28.566  1.00  0.00     0.060 A 
ATOM      7  C   UNL A   1      35.512  33.618  28.086  1.00  0.00     0.016 A 
ATOM      8  C   UNL A   1      34.027  32.634  29.695  1.00  0.00     0.016 A 
ATOM      9  C   UNL A   1      36.605  33.065  28.755  1.00  0.00     0.010 A 
ATOM     10  C   UNL A   1      35.117  32.085  30.376  1.00  0.00     0.010 A 
ATOM     11  C   UNL A   1      36.416  32.301  29.905  1.00  0.00    -0.014 A 
BRANCH  11  12
ATOM     12  C   UNL A   1      37.563  31.579  30.493  1.00  0.00     0.031 A 
ATOM     13  C   UNL A   1      38.026  31.993  31.855  1.00  0.00     0.074 A 
ATOM     14  C   UNL A   1      38.125  30.524  29.877  1.00  0.00     0.049 A 
ATOM     15  N   UNL A   1      38.985  31.490  32.583  1.00  0.00    -0.248 NA
ATOM     16  C   UNL A   1      37.272  33.077  32.505  1.00  0.00     0.031 C 
ATOM     17  C   UNL A   1      37.650  29.911  28.640  1.00  0.00     0.029 A 
ATOM     18  N   UNL A   1      39.238  29.789  30.198  1.00  0.00    -0.354 N 
ATOM     19  C   UNL A   1      38.900  32.144  33.802  1.00  0.00     0.074 A 
ATOM     20  C   UNL A   1      37.868  33.149  33.683  1.00  0.00     0.031 C 
ATOM     21  C   UNL A   1      38.526  28.970  28.248  1.00  0.00     0.029 A 
ATOM     22  C   UNL A   1      39.618  28.917  29.208  1.00  0.00     0.049 A 
ATOM     23  H   UNL A   1      39.717  29.879  31.054  1.00  0.00     0.167 HD
ATOM     24  C   UNL A   1      39.583  31.883  34.938  1.00  0.00     0.037 A 
ATOM     25  C   UNL A   1      40.736  28.180  29.082  1.00  0.00     0.037 A 
ATOM     26  C   UNL A   1      40.634  30.908  35.026  1.00  0.00     0.049 A 
ATOM     27  C   UNL A   1      41.665  28.103  30.256  1.00  0.00     0.074 A 
ATOM     28  C   UNL A   1      41.407  30.567  36.119  1.00  0.00     0.029 A 
ATOM     29  N   UNL A   1      41.076  30.135  33.961  1.00  0.00    -0.354 N 
ATOM     30  N   UNL A   1      41.557  28.695  31.421  1.00  0.00    -0.248 NA
ATOM     31  C   UNL A   1      42.821  27.208  30.135  1.00  0.00     0.031 C 
ATOM     32  C   UNL A   1      42.362  29.634  35.697  1.00  0.00     0.029 A 
ATOM     33  C   UNL A   1      42.144  29.350  34.357  1.00  0.00     0.049 A 
ATOM     34  H   UNL A   1      40.687  30.145  33.056  1.00  0.00     0.167 HD
ATOM     35  C   UNL A   1      42.584  28.186  32.201  1.00  0.00     0.074 A 
ATOM     36  C   UNL A   1      43.322  27.261  31.362  1.00  0.00     0.031 C 
ATOM     37  C   UNL A   1      42.864  28.434  33.504  1.00  0.00     0.037 A 
BRANCH  24  38
ATOM     38  C   UNL A   1      39.207  32.690  36.143  1.00  0.00     0.057 A 
ATOM     39  C   UNL A   1      39.793  33.939  36.405  1.00  0.00     0.134 A 
ATOM     40  C   UNL A   1      38.294  32.195  37.079  1.00  0.00     0.134 A 
ATOM     41  F   UNL A   1      40.700  34.455  35.561  1.00  0.00    -0.206 F 
ATOM     42  C   UNL A   1      39.510  34.647  37.574  1.00  0.00     0.040 A 
ATOM     43  C   UNL A   1      37.984  32.907  38.238  1.00  0.00     0.040 A 
ATOM     44  F   UNL A   1      37.706  31.005  36.892  1.00  0.00    -0.206 F 
ATOM     45  C   UNL A   1      38.600  34.131  38.494  1.00  0.00     0.006 A 
ENDBRANCH  24  38
BRANCH  25  46
ATOM     46  C   UNL A   1      41.034  27.476  27.809  1.00  0.00     0.057 A 
ATOM     47  C   UNL A   1      41.734  28.090  26.767  1.00  0.00     0.134 A 
ATOM     48  C   UNL A   1      40.595  26.161  27.605  1.00  0.00     0.134 A 
ATOM     49  F   UNL A   1      42.170  29.350  26.899  1.00  0.00    -0.206 F 
ATOM     50  C   UNL A   1      41.970  27.429  25.559  1.00  0.00     0.040 A 
ATOM     51  C   UNL A   1      40.835  25.482  26.409  1.00  0.00     0.040 A 
ATOM     52  F   UNL A   1      39.924  25.517  28.573  1.00  0.00    -0.206 F 
ATOM     53  C   UNL A   1      41.521  26.121  25.378  1.00  0.00     0.006 A 
ENDBRANCH  25  46
BRANCH  37  54
ATOM     54  C   UNL A   1      43.980  27.646  34.119  1.00  0.00     0.057 A 
ATOM     55  C   UNL A   1      45.296  28.121  34.152  1.00  0.00     0.134 A 
ATOM     56  C   UNL A   1      43.720  26.407  34.719  1.00  0.00     0.134 A 
ATOM     57  F   UNL A   1      45.612  29.292  33.577  1.00  0.00    -0.206 F 
ATOM     58  C   UNL A   1      46.320  27.380  34.742  1.00  0.00     0.040 A 
ATOM     59  C   UNL A   1      44.729  25.673  35.341  1.00  0.00     0.040 A 
ATOM     60  F   UNL A   1      42.478  25.900  34.725  1.00  0.00    -0.206 F 
ATOM     61  C   UNL A   1      46.035  26.157  35.347  1.00  0.00     0.006 A 
ENDBRANCH  37  54
ENDBRANCH  11  12
ENDBRANCH   4   6
ENDBRANCH   3   4
ENDBRANCH   2   3
ENDBRANCH   1   2
BRANCH   1  62
ATOM     62  O   UNL A   1      32.113  30.050  27.259  1.00  0.00    -0.458 OA
BRANCH  62  63
ATOM     63  C   UNL A   1      33.287  29.369  27.203  1.00  0.00     0.338 C 
ATOM     64  O   UNL A   1      34.365  29.752  27.628  1.00  0.00    -0.246 OA
BRANCH  63  65
ATOM     65  C   UNL A   1      33.076  28.009  26.654  1.00  0.00     0.060 A 
ATOM     66  C   UNL A   1      34.180  27.343  26.116  1.00  0.00     0.016 A 
ATOM     67  C   UNL A   1      31.817  27.403  26.630  1.00  0.00     0.020 A 
ATOM     68  C   UNL A   1      34.032  26.062  25.588  1.00  0.00     0.001 A 
ATOM     69  C   UNL A   1      31.637  26.167  25.975  1.00  0.00    -0.037 A 
ATOM     70  C   UNL A   1      32.767  25.481  25.510  1.00  0.00     0.004 A 
BRANCH  69  71
ATOM     71  C   UNL A   1      30.260  25.607  25.699  1.00  0.00     0.113 C 
BRANCH  71  72
ATOM     72  S   UNL A   1      29.849  25.494  23.929  1.00  0.00    -0.082 SA
BRANCH  72  73
ATOM     73  C   UNL A   1      28.898  26.897  23.607  1.00  0.00     0.184 A 
ATOM     74  N   UNL A   1      29.329  28.046  23.148  1.00  0.00    -0.201 NA
ATOM     75  N   UNL A   1      27.552  26.958  23.756  1.00  0.00    -0.254 N 
ATOM     76  C   UNL A   1      28.187  28.814  23.117  1.00  0.00     0.182 A 
ATOM     77  N   UNL A   1      27.073  28.175  23.500  1.00  0.00    -0.153 NA
ATOM     78  H   UNL A   1      26.994  26.191  24.022  1.00  0.00     0.192 HD
BRANCH  76  79
ATOM     79  C   UNL A   1      28.149  30.166  22.612  1.00  0.00     0.021 A 
ATOM     80  C   UNL A   1      28.029  30.404  21.239  1.00  0.00     0.012 A 
ATOM     81  C   UNL A   1      28.335  31.233  23.496  1.00  0.00     0.012 A 
ATOM     82  C   UNL A   1      28.097  31.709  20.753  1.00  0.00     0.001 A 
ATOM     83  C   UNL A   1      28.416  32.534  23.006  1.00  0.00     0.001 A 
ATOM     84  C   UNL A   1      28.298  32.771  21.636  1.00  0.00     0.000 A 
ENDBRANCH  76  79
ENDBRANCH  72  73
ENDBRANCH  71  72
ENDBRANCH  69  71
ENDBRANCH  63  65
ENDBRANCH  62  63
ENDBRANCH   1  62
TORSDOF 15
ENDMDL
MODEL 2
REMARK VINA RESULT:     -11.7      2.990      5.068
REMARK SMILES O=C(OCCOC(=O)c1cccc(CSc2nc(-c3ccccc3)n[nH]2)c1)c1ccc(-c2c3nc(c(-c4c(F)cccc4F)c4ccc([nH]4)c(-c4c(F)cccc4F)c4nc(c(-c5c(F)cccc5F)c5ccc2[nH]5)C=C4)C=C3)cc1
REMARK SMILES IDX 5 1 4 2 3 3 2 4 1 5 28 6 29 7 81 8 30 9 80 10 31 11 32 12
REMARK SMILES IDX 33 13 74 14 34 15 79 16 73 17 75 18 35 19 78 20 72 21 71 22
REMARK SMILES IDX 36 24 62 25 45 26 61 27 46 28 49 29 60 30 76 31 47 32 48 33
REMARK SMILES IDX 59 35 77 36 50 37 37 38 38 39 43 40 39 41 40 42 42 43 44 44
REMARK SMILES IDX 41 45 63 46 64 47 69 48 65 49 66 50 68 51 70 52 67 53 51 54
REMARK SMILES IDX 52 55 57 56 53 57 54 58 56 59 58 60 55 61 6 62 7 63 8 64
REMARK SMILES IDX 9 65 10 66 27 67 11 68 13 69 12 70 14 71 15 72 16 73 17 74
REMARK SMILES IDX 26 75 18 76 25 77 19 79 20 80 24 81 21 82 23 83 22 84
REMARK H PARENT 75 23 49 34 26 78
REMARK Flexibility Score: inf
ROOT
ATOM      1  C   UNL A   1      32.738  31.264  26.723  1.00  0.00     0.275 C 
ENDROOT
BRANCH   1   2
ATOM      2  C   UNL A   1      31.780  32.363  27.203  1.00  0.00     0.275 C 
BRANCH   2   3
ATOM      3  O   UNL A   1      32.358  33.674  27.340  1.00  0.00    -0.458 OA
BRANCH   3   4
ATOM      4  C   UNL A   1      33.114  34.205  28.331  1.00  0.00     0.338 C 
ATOM      5  O   UNL A   1      32.850  35.336  28.738  1.00  0.00    -0.246 OA
BRANCH   4   6
ATOM      6  C   UNL A   1      34.346  33.551  28.871  1.00  0.00     0.060 A 
ATOM      7  C   UNL A   1      35.657  33.811  28.464  1.00  0.00     0.016 A 
ATOM      8  C   UNL A   1      34.154  32.600  29.891  1.00  0.00     0.016 A 
ATOM      9  C   UNL A   1      36.745  33.221  29.107  1.00  0.00     0.010 A 
ATOM     10  C   UNL A   1      35.239  32.012  30.546  1.00  0.00     0.010 A 
ATOM     11  C   UNL A   1      36.545  32.324  30.154  1.00  0.00    -0.014 A 
BRANCH  11  12
ATOM     12  C   UNL A   1      37.696  31.576  30.700  1.00  0.00     0.031 A 
ATOM     13  C   UNL A   1      38.211  31.973  32.049  1.00  0.00     0.074 A 
ATOM     14  C   UNL A   1      38.218  30.515  30.060  1.00  0.00     0.049 A 
ATOM     15  N   UNL A   1      39.184  31.447  32.742  1.00  0.00    -0.248 NA
ATOM     16  C   UNL A   1      37.499  33.066  32.730  1.00  0.00     0.031 C 
ATOM     17  C   UNL A   1      37.692  29.920  28.836  1.00  0.00     0.029 A 
ATOM     18  N   UNL A   1      39.327  29.758  30.341  1.00  0.00    -0.354 N 
ATOM     19  C   UNL A   1      39.151  32.094  33.967  1.00  0.00     0.074 A 
ATOM     20  C   UNL A   1      38.135  33.120  33.888  1.00  0.00     0.031 C 
ATOM     21  C   UNL A   1      38.536  28.964  28.410  1.00  0.00     0.029 A 
ATOM     22  C   UNL A   1      39.657  28.884  29.334  1.00  0.00     0.049 A 
ATOM     23  H   UNL A   1      39.835  29.833  31.181  1.00  0.00     0.167 HD
ATOM     24  C   UNL A   1      39.865  31.813  35.079  1.00  0.00     0.037 A 
ATOM     25  C   UNL A   1      40.757  28.128  29.166  1.00  0.00     0.037 A 
ATOM     26  C   UNL A   1      40.900  30.819  35.127  1.00  0.00     0.049 A 
ATOM     27  C   UNL A   1      41.722  28.026  30.309  1.00  0.00     0.074 A 
ATOM     28  C   UNL A   1      41.702  30.456  36.192  1.00  0.00     0.029 A 
ATOM     29  N   UNL A   1      41.292  30.044  34.044  1.00  0.00    -0.354 N 
ATOM     30  N   UNL A   1      41.664  28.612  31.480  1.00  0.00    -0.248 NA
ATOM     31  C   UNL A   1      42.857  27.110  30.145  1.00  0.00     0.031 C 
ATOM     32  C   UNL A   1      42.624  29.508  35.734  1.00  0.00     0.029 A 
ATOM     33  C   UNL A   1      42.358  29.236  34.399  1.00  0.00     0.049 A 
ATOM     34  H   UNL A   1      40.874  30.067  33.152  1.00  0.00     0.167 HD
ATOM     35  C   UNL A   1      42.706  28.079  32.224  1.00  0.00     0.074 A 
ATOM     36  C   UNL A   1      43.398  27.145  31.355  1.00  0.00     0.031 C 
ATOM     37  C   UNL A   1      43.032  28.313  33.518  1.00  0.00     0.037 A 
BRANCH  24  38
ATOM     38  C   UNL A   1      39.544  32.620  36.300  1.00  0.00     0.057 A 
ATOM     39  C   UNL A   1      38.504  32.258  37.170  1.00  0.00     0.134 A 
ATOM     40  C   UNL A   1      40.243  33.797  36.583  1.00  0.00     0.134 A 
ATOM     41  F   UNL A   1      37.775  31.155  36.936  1.00  0.00    -0.206 F 
ATOM     42  C   UNL A   1      38.147  33.059  38.255  1.00  0.00     0.040 A 
ATOM     43  C   UNL A   1      39.913  34.593  37.681  1.00  0.00     0.040 A 
ATOM     44  F   UNL A   1      41.243  34.203  35.787  1.00  0.00    -0.206 F 
ATOM     45  C   UNL A   1      38.856  34.231  38.514  1.00  0.00     0.006 A 
ENDBRANCH  24  38
BRANCH  25  46
ATOM     46  C   UNL A   1      41.000  27.427  27.881  1.00  0.00     0.057 A 
ATOM     47  C   UNL A   1      40.564  26.119  27.654  1.00  0.00     0.134 A 
ATOM     48  C   UNL A   1      41.704  28.060  26.847  1.00  0.00     0.134 A 
ATOM     49  F   UNL A   1      39.894  25.457  28.608  1.00  0.00    -0.206 F 
ATOM     50  C   UNL A   1      40.836  25.457  26.455  1.00  0.00     0.040 A 
ATOM     51  C   UNL A   1      41.972  27.417  25.638  1.00  0.00     0.040 A 
ATOM     52  F   UNL A   1      42.142  29.320  27.003  1.00  0.00    -0.206 F 
ATOM     53  C   UNL A   1      41.541  26.106  25.442  1.00  0.00     0.006 A 
ENDBRANCH  25  46
BRANCH  37  54
ATOM     54  C   UNL A   1      44.152  27.501  34.092  1.00  0.00     0.057 A 
ATOM     55  C   UNL A   1      45.473  27.962  34.109  1.00  0.00     0.134 A 
ATOM     56  C   UNL A   1      43.893  26.250  34.668  1.00  0.00     0.134 A 
ATOM     57  F   UNL A   1      45.789  29.143  33.555  1.00  0.00    -0.206 F 
ATOM     58  C   UNL A   1      46.502  27.198  34.660  1.00  0.00     0.040 A 
ATOM     59  C   UNL A   1      44.906  25.492  35.252  1.00  0.00     0.040 A 
ATOM     60  F   UNL A   1      42.646  25.755  34.687  1.00  0.00    -0.206 F 
ATOM     61  C   UNL A   1      46.217  25.963  35.242  1.00  0.00     0.006 A 
ENDBRANCH  37  54
ENDBRANCH  11  12
ENDBRANCH   4   6
ENDBRANCH   3   4
ENDBRANCH   2   3
ENDBRANCH   1   2
BRANCH   1  62
ATOM     62  O   UNL A   1      32.574  30.009  27.404  1.00  0.00    -0.458 OA
BRANCH  62  63
ATOM     63  C   UNL A   1      33.532  29.090  27.116  1.00  0.00     0.338 C 
ATOM     64  O   UNL A   1      34.717  29.169  27.399  1.00  0.00    -0.246 OA
BRANCH  63  65
ATOM     65  C   UNL A   1      32.931  27.884  26.500  1.00  0.00     0.060 A 
ATOM     66  C   UNL A   1      31.607  27.577  26.821  1.00  0.00     0.016 A 
ATOM     67  C   UNL A   1      33.655  27.044  25.649  1.00  0.00     0.020 A 
ATOM     68  C   UNL A   1      30.997  26.454  26.266  1.00  0.00     0.001 A 
ATOM     69  C   UNL A   1      33.087  25.835  25.195  1.00  0.00    -0.037 A 
ATOM     70  C   UNL A   1      31.735  25.584  25.465  1.00  0.00     0.004 A 
BRANCH  69  71
ATOM     71  C   UNL A   1      33.916  24.782  24.495  1.00  0.00     0.113 C 
BRANCH  71  72
ATOM     72  S   UNL A   1      32.933  23.571  23.557  1.00  0.00    -0.082 SA
BRANCH  72  73
ATOM     73  C   UNL A   1      33.487  22.033  24.107  1.00  0.00     0.184 A 
ATOM     74  N   UNL A   1      32.874  20.883  23.965  1.00  0.00    -0.201 NA
ATOM     75  N   UNL A   1      34.674  21.826  24.730  1.00  0.00    -0.254 N 
ATOM     76  C   UNL A   1      33.715  20.003  24.610  1.00  0.00     0.182 A 
ATOM     77  N   UNL A   1      34.830  20.557  25.106  1.00  0.00    -0.153 NA
ATOM     78  H   UNL A   1      35.343  22.532  24.884  1.00  0.00     0.192 HD
BRANCH  76  79
ATOM     79  C   UNL A   1      33.488  18.578  24.663  1.00  0.00     0.021 A 
ATOM     80  C   UNL A   1      32.661  18.031  25.649  1.00  0.00     0.012 A 
ATOM     81  C   UNL A   1      34.180  17.742  23.783  1.00  0.00     0.012 A 
ATOM     82  C   UNL A   1      32.530  16.646  25.754  1.00  0.00     0.001 A 
ATOM     83  C   UNL A   1      34.059  16.359  23.899  1.00  0.00     0.001 A 
ATOM     84  C   UNL A   1      33.235  15.813  24.884  1.00  0.00     0.000 A 
ENDBRANCH  76  79
ENDBRANCH  72  73
ENDBRANCH  71  72
ENDBRANCH  69  71
ENDBRANCH  63  65
ENDBRANCH  62  63
ENDBRANCH   1  62
TORSDOF 15
ENDMDL
MODEL 3
REMARK VINA RESULT:     -11.7      4.143      8.315
REMARK SMILES O=C(OCCOC(=O)c1cccc(CSc2nc(-c3ccccc3)n[nH]2)c1)c1ccc(-c2c3nc(c(-c4c(F)cccc4F)c4ccc([nH]4)c(-c4c(F)cccc4F)c4nc(c(-c5c(F)cccc5F)c5ccc2[nH]5)C=C4)C=C3)cc1
REMARK SMILES IDX 5 1 4 2 3 3 2 4 1 5 28 6 29 7 81 8 30 9 80 10 31 11 32 12
REMARK SMILES IDX 33 13 74 14 34 15 79 16 73 17 75 18 35 19 78 20 72 21 71 22
REMARK SMILES IDX 36 24 62 25 45 26 61 27 46 28 49 29 60 30 76 31 47 32 48 33
REMARK SMILES IDX 59 35 77 36 50 37 37 38 38 39 43 40 39 41 40 42 42 43 44 44
REMARK SMILES IDX 41 45 63 46 64 47 69 48 65 49 66 50 68 51 70 52 67 53 51 54
REMARK SMILES IDX 52 55 57 56 53 57 54 58 56 59 58 60 55 61 6 62 7 63 8 64
REMARK SMILES IDX 9 65 10 66 27 67 11 68 13 69 12 70 14 71 15 72 16 73 17 74
REMARK SMILES IDX 26 75 18 76 25 77 19 79 20 80 24 81 21 82 23 83 22 84
REMARK H PARENT 75 23 49 34 26 78
REMARK Flexibility Score: inf
ROOT
ATOM      1  C   UNL A   1      42.659  20.836  26.031  1.00  0.00     0.275 C 
ENDROOT
BRANCH   1   2
ATOM      2  C   UNL A   1      43.769  21.668  25.375  1.00  0.00     0.275 C 
BRANCH   2   3
ATOM      3  O   UNL A   1      43.371  22.965  24.893  1.00  0.00    -0.458 OA
BRANCH   3   4
ATOM      4  C   UNL A   1      43.813  24.202  25.224  1.00  0.00     0.338 C 
ATOM      5  O   UNL A   1      44.791  24.660  24.634  1.00  0.00    -0.246 OA
BRANCH   4   6
ATOM      6  C   UNL A   1      43.266  24.996  26.368  1.00  0.00     0.060 A 
ATOM      7  C   UNL A   1      42.280  24.572  27.261  1.00  0.00     0.016 A 
ATOM      8  C   UNL A   1      43.815  26.278  26.557  1.00  0.00     0.016 A 
ATOM      9  C   UNL A   1      41.916  25.352  28.360  1.00  0.00     0.010 A 
ATOM     10  C   UNL A   1      43.463  27.061  27.660  1.00  0.00     0.010 A 
ATOM     11  C   UNL A   1      42.507  26.596  28.570  1.00  0.00    -0.014 A 
BRANCH  11  12
ATOM     12  C   UNL A   1      41.981  27.480  29.631  1.00  0.00     0.031 A 
ATOM     13  C   UNL A   1      42.599  27.383  30.991  1.00  0.00     0.074 A 
ATOM     14  C   UNL A   1      41.043  28.409  29.377  1.00  0.00     0.049 A 
ATOM     15  N   UNL A   1      42.328  28.072  32.066  1.00  0.00    -0.248 NA
ATOM     16  C   UNL A   1      43.704  26.423  31.145  1.00  0.00     0.031 C 
ATOM     17  C   UNL A   1      40.497  28.726  28.061  1.00  0.00     0.029 A 
ATOM     18  N   UNL A   1      40.363  29.247  30.223  1.00  0.00    -0.354 N 
ATOM     19  C   UNL A   1      43.278  27.684  32.997  1.00  0.00     0.074 A 
ATOM     20  C   UNL A   1      44.064  26.627  32.401  1.00  0.00     0.031 C 
ATOM     21  C   UNL A   1      39.491  29.606  28.199  1.00  0.00     0.029 A 
ATOM     22  C   UNL A   1      39.327  29.911  29.612  1.00  0.00     0.049 A 
ATOM     23  H   UNL A   1      40.594  29.362  31.173  1.00  0.00     0.167 HD
ATOM     24  C   UNL A   1      43.510  28.209  34.220  1.00  0.00     0.037 A 
ATOM     25  C   UNL A   1      38.341  30.658  30.143  1.00  0.00     0.037 A 
ATOM     26  C   UNL A   1      42.693  29.230  34.814  1.00  0.00     0.049 A 
ATOM     27  C   UNL A   1      38.439  31.024  31.594  1.00  0.00     0.074 A 
ATOM     28  C   UNL A   1      42.821  29.829  36.052  1.00  0.00     0.029 A 
ATOM     29  N   UNL A   1      41.572  29.784  34.211  1.00  0.00    -0.354 N 
ATOM     30  N   UNL A   1      39.361  30.684  32.460  1.00  0.00    -0.248 NA
ATOM     31  C   UNL A   1      37.412  31.929  32.124  1.00  0.00     0.031 C 
ATOM     32  C   UNL A   1      41.737  30.699  36.225  1.00  0.00     0.029 A 
ATOM     33  C   UNL A   1      40.968  30.686  35.070  1.00  0.00     0.049 A 
ATOM     34  H   UNL A   1      41.252  29.567  33.305  1.00  0.00     0.167 HD
ATOM     35  C   UNL A   1      39.076  31.393  33.617  1.00  0.00     0.074 A 
ATOM     36  C   UNL A   1      37.873  32.158  33.346  1.00  0.00     0.031 C 
ATOM     37  C   UNL A   1      39.770  31.437  34.780  1.00  0.00     0.037 A 
BRANCH  24  38
ATOM     38  C   UNL A   1      44.680  27.654  34.974  1.00  0.00     0.057 A 
ATOM     39  C   UNL A   1      44.552  26.536  35.814  1.00  0.00     0.134 A 
ATOM     40  C   UNL A   1      45.932  28.271  34.906  1.00  0.00     0.134 A 
ATOM     41  F   UNL A   1      43.368  25.917  35.947  1.00  0.00    -0.206 F 
ATOM     42  C   UNL A   1      45.620  26.076  36.585  1.00  0.00     0.040 A 
ATOM     43  C   UNL A   1      47.014  27.804  35.652  1.00  0.00     0.040 A 
ATOM     44  F   UNL A   1      46.118  29.348  34.129  1.00  0.00    -0.206 F 
ATOM     45  C   UNL A   1      46.858  26.711  36.503  1.00  0.00     0.006 A 
ENDBRANCH  24  38
BRANCH  25  46
ATOM     46  C   UNL A   1      37.195  31.094  29.307  1.00  0.00     0.057 A 
ATOM     47  C   UNL A   1      37.125  32.375  28.751  1.00  0.00     0.134 A 
ATOM     48  C   UNL A   1      36.120  30.228  29.067  1.00  0.00     0.134 A 
ATOM     49  F   UNL A   1      38.118  33.252  28.955  1.00  0.00    -0.206 F 
ATOM     50  C   UNL A   1      36.021  32.786  28.002  1.00  0.00     0.040 A 
ATOM     51  C   UNL A   1      35.015  30.619  28.308  1.00  0.00     0.040 A 
ATOM     52  F   UNL A   1      36.133  28.983  29.568  1.00  0.00    -0.206 F 
ATOM     53  C   UNL A   1      34.962  31.907  27.778  1.00  0.00     0.006 A 
ENDBRANCH  25  46
BRANCH  37  54
ATOM     54  C   UNL A   1      39.279  32.389  35.827  1.00  0.00     0.057 A 
ATOM     55  C   UNL A   1      38.327  32.016  36.783  1.00  0.00     0.134 A 
ATOM     56  C   UNL A   1      39.797  33.688  35.897  1.00  0.00     0.134 A 
ATOM     57  F   UNL A   1      37.778  30.791  36.757  1.00  0.00    -0.206 F 
ATOM     58  C   UNL A   1      37.891  32.912  37.760  1.00  0.00     0.040 A 
ATOM     59  C   UNL A   1      39.394  34.581  36.888  1.00  0.00     0.040 A 
ATOM     60  F   UNL A   1      40.716  34.104  35.012  1.00  0.00    -0.206 F 
ATOM     61  C   UNL A   1      38.433  34.195  37.819  1.00  0.00     0.006 A 
ENDBRANCH  37  54
ENDBRANCH  11  12
ENDBRANCH   4   6
ENDBRANCH   3   4
ENDBRANCH   2   3
ENDBRANCH   1   2
BRANCH   1  62
ATOM     62  O   UNL A   1      41.474  21.587  26.344  1.00  0.00    -0.458 OA
BRANCH  62  63
ATOM     63  C   UNL A   1      40.314  20.914  26.128  1.00  0.00     0.338 C 
ATOM     64  O   UNL A   1      40.173  19.701  26.123  1.00  0.00    -0.246 OA
BRANCH  63  65
ATOM     65  C   UNL A   1      39.178  21.856  26.011  1.00  0.00     0.060 A 
ATOM     66  C   UNL A   1      39.316  23.121  26.586  1.00  0.00     0.016 A 
ATOM     67  C   UNL A   1      37.980  21.504  25.380  1.00  0.00     0.020 A 
ATOM     68  C   UNL A   1      38.274  24.043  26.501  1.00  0.00     0.001 A 
ATOM     69  C   UNL A   1      36.878  22.382  25.412  1.00  0.00    -0.037 A 
ATOM     70  C   UNL A   1      37.059  23.673  25.925  1.00  0.00     0.004 A 
BRANCH  69  71
ATOM     71  C   UNL A   1      35.498  21.941  24.978  1.00  0.00     0.113 C 
BRANCH  71  72
ATOM     72  S   UNL A   1      34.336  21.684  26.355  1.00  0.00    -0.082 SA
BRANCH  72  73
ATOM     73  C   UNL A   1      33.431  23.150  26.446  1.00  0.00     0.184 A 
ATOM     74  N   UNL A   1      33.833  24.342  26.079  1.00  0.00    -0.201 NA
ATOM     75  N   UNL A   1      32.150  23.231  26.881  1.00  0.00    -0.254 N 
ATOM     76  C   UNL A   1      32.759  25.142  26.400  1.00  0.00     0.182 A 
ATOM     77  N   UNL A   1      31.707  24.487  26.910  1.00  0.00    -0.153 NA
ATOM     78  H   UNL A   1      31.609  22.450  27.143  1.00  0.00     0.192 HD
BRANCH  76  79
ATOM     79  C   UNL A   1      32.706  26.556  26.114  1.00  0.00     0.021 A 
ATOM     80  C   UNL A   1      33.638  27.138  25.248  1.00  0.00     0.012 A 
ATOM     81  C   UNL A   1      31.778  27.356  26.789  1.00  0.00     0.012 A 
ATOM     82  C   UNL A   1      33.641  28.520  25.061  1.00  0.00     0.001 A 
ATOM     83  C   UNL A   1      31.793  28.738  26.610  1.00  0.00     0.001 A 
ATOM     84  C   UNL A   1      32.724  29.318  25.747  1.00  0.00     0.000 A 
ENDBRANCH  76  79
ENDBRANCH  72  73
ENDBRANCH  71  72
ENDBRANCH  69  71
ENDBRANCH  63  65
ENDBRANCH  62  63
ENDBRANCH   1  62
TORSDOF 15
ENDMDL
