MODEL 1
REMARK VINA RESULT:     -10.4      0.000      0.000
REMARK SMILES Cc1cc(C)c2c(c1)C=C(C(=O)OCCOC(=O)c1ccc(-c3c4nc(c(-c5c(F)cccc5F)c5ccc([nH]5)c(-c5c(F)cccc5F)c5nc(c(-c6c(F)cccc6F)c6ccc3[nH]6)C=C5)C=C4)cc1)[C@@H](C(F)(F)F)O2
REMARK SMILES IDX 15 1 14 2 13 3 11 4 12 5 10 6 1 7 2 8 3 9 8 10 4 11 7 12
REMARK SMILES IDX 5 13 6 14 9 15 78 16 73 17 74 18 75 19 76 20 77 21 16 22
REMARK SMILES IDX 17 23 18 24 19 25 20 26 72 27 21 28 71 29 22 30 23 31 24 32
REMARK SMILES IDX 65 33 25 34 70 35 64 36 66 37 26 38 69 39 63 40 62 41 27 43
REMARK SMILES IDX 53 44 36 45 52 46 37 47 40 48 51 49 67 50 38 51 39 52 50 54
REMARK SMILES IDX 68 55 41 56 28 57 29 58 34 59 30 60 31 61 33 62 35 63 32 64
REMARK SMILES IDX 54 65 55 66 60 67 56 68 57 69 59 70 61 71 58 72 42 73 43 74
REMARK SMILES IDX 48 75 44 76 45 77 47 78 49 79 46 80
REMARK H PARENT 66 42 40 53
REMARK Flexibility Score: inf
ROOT
ATOM      1  C   UNL A   1      40.490  20.048  26.464  1.00  0.00     0.275 C 
ENDROOT
BRANCH   1   2
ATOM      2  C   UNL A   1      41.976  19.934  26.122  1.00  0.00     0.275 C 
BRANCH   2   3
ATOM      3  O   UNL A   1      42.750  20.942  26.807  1.00  0.00    -0.459 OA
BRANCH   3   4
ATOM      4  C   UNL A   1      43.165  21.976  26.040  1.00  0.00     0.338 C 
ATOM      5  O   UNL A   1      42.653  22.363  24.999  1.00  0.00    -0.246 OA
BRANCH   4   6
ATOM      6  C   UNL A   1      44.331  22.639  26.650  1.00  0.00     0.087 C 
ATOM      7  C   UNL A   1      45.823  26.207  31.435  1.00  0.00     0.044 C 
ATOM      8  C   UNL A   1      46.051  25.483  30.140  1.00  0.00    -0.050 A 
ATOM      9  C   UNL A   1      47.269  25.577  29.457  1.00  0.00     0.010 A 
ATOM     10  C   UNL A   1      45.043  24.675  29.612  1.00  0.00     0.015 A 
ATOM     11  C   UNL A   1      47.480  24.884  28.250  1.00  0.00    -0.008 A 
ATOM     12  C   UNL A   1      45.237  23.995  28.403  1.00  0.00     0.018 A 
ATOM     13  C   UNL A   1      48.789  25.021  27.527  1.00  0.00     0.048 C 
ATOM     14  C   UNL A   1      46.453  24.085  27.727  1.00  0.00     0.130 A 
ATOM     15  C   UNL A   1      44.151  23.225  27.838  1.00  0.00     0.027 C 
ATOM     16  O   UNL A   1      46.707  23.405  26.565  1.00  0.00    -0.475 OA
ATOM     17  C   UNL A   1      45.608  22.751  25.869  1.00  0.00     0.316 C 
BRANCH  17  18
ATOM     18  C   UNL A   1      45.376  23.468  24.529  1.00  0.00     0.430 C 
ATOM     19  F   UNL A   1      46.517  24.029  24.064  1.00  0.00    -0.167 F 
ATOM     20  F   UNL A   1      44.953  22.607  23.572  1.00  0.00    -0.167 F 
ATOM     21  F   UNL A   1      44.449  24.448  24.626  1.00  0.00    -0.167 F 
ENDBRANCH  17  18
ENDBRANCH   4   6
ENDBRANCH   3   4
ENDBRANCH   2   3
ENDBRANCH   1   2
BRANCH   1  22
ATOM     22  O   UNL A   1      40.247  21.250  27.217  1.00  0.00    -0.458 OA
BRANCH  22  23
ATOM     23  C   UNL A   1      39.487  22.185  26.602  1.00  0.00     0.338 C 
ATOM     24  O   UNL A   1      38.637  22.010  25.747  1.00  0.00    -0.246 OA
BRANCH  23  25
ATOM     25  C   UNL A   1      39.789  23.513  27.160  1.00  0.00     0.060 A 
ATOM     26  C   UNL A   1      39.312  24.639  26.501  1.00  0.00     0.016 A 
ATOM     27  C   UNL A   1      40.659  23.656  28.237  1.00  0.00     0.016 A 
ATOM     28  C   UNL A   1      39.804  25.900  26.822  1.00  0.00     0.010 A 
ATOM     29  C   UNL A   1      41.038  24.939  28.655  1.00  0.00     0.010 A 
ATOM     30  C   UNL A   1      40.647  26.079  27.927  1.00  0.00    -0.014 A 
BRANCH  30  31
ATOM     31  C   UNL A   1      41.104  27.451  28.303  1.00  0.00     0.031 A 
ATOM     32  C   UNL A   1      40.152  28.441  28.928  1.00  0.00     0.074 A 
ATOM     33  C   UNL A   1      42.395  27.805  28.120  1.00  0.00     0.049 A 
ATOM     34  N   UNL A   1      40.344  29.706  29.209  1.00  0.00    -0.248 NA
ATOM     35  C   UNL A   1      38.807  27.953  29.272  1.00  0.00     0.031 C 
ATOM     36  C   UNL A   1      43.438  26.943  27.557  1.00  0.00     0.029 A 
ATOM     37  N   UNL A   1      43.061  28.970  28.414  1.00  0.00    -0.354 N 
ATOM     38  C   UNL A   1      39.135  30.175  29.709  1.00  0.00     0.074 A 
ATOM     39  C   UNL A   1      38.210  29.063  29.687  1.00  0.00     0.031 C 
ATOM     40  C   UNL A   1      44.618  27.572  27.626  1.00  0.00     0.029 A 
ATOM     41  C   UNL A   1      44.407  28.922  28.132  1.00  0.00     0.049 A 
ATOM     42  H   UNL A   1      42.618  29.765  28.790  1.00  0.00     0.167 HD
ATOM     43  C   UNL A   1      38.826  31.419  30.152  1.00  0.00     0.037 A 
ATOM     44  C   UNL A   1      45.367  29.862  28.237  1.00  0.00     0.037 A 
ATOM     45  C   UNL A   1      39.763  32.510  30.228  1.00  0.00     0.049 A 
ATOM     46  C   UNL A   1      44.993  31.238  28.703  1.00  0.00     0.074 A 
ATOM     47  C   UNL A   1      39.542  33.806  30.662  1.00  0.00     0.029 A 
ATOM     48  N   UNL A   1      41.105  32.428  29.885  1.00  0.00    -0.354 N 
ATOM     49  N   UNL A   1      43.829  31.681  29.107  1.00  0.00    -0.248 NA
ATOM     50  C   UNL A   1      46.056  32.253  28.698  1.00  0.00     0.031 C 
ATOM     51  C   UNL A   1      40.741  34.516  30.553  1.00  0.00     0.029 A 
ATOM     52  C   UNL A   1      41.719  33.651  30.092  1.00  0.00     0.049 A 
ATOM     53  H   UNL A   1      41.552  31.619  29.545  1.00  0.00     0.167 HD
ATOM     54  C   UNL A   1      44.019  33.021  29.413  1.00  0.00     0.074 A 
ATOM     55  C   UNL A   1      45.415  33.316  29.166  1.00  0.00     0.031 C 
ATOM     56  C   UNL A   1      43.113  33.926  29.852  1.00  0.00     0.037 A 
BRANCH  43  57
ATOM     57  C   UNL A   1      37.411  31.683  30.578  1.00  0.00     0.057 A 
ATOM     58  C   UNL A   1      37.010  31.585  31.915  1.00  0.00     0.134 A 
ATOM     59  C   UNL A   1      36.457  32.112  29.645  1.00  0.00     0.134 A 
ATOM     60  F   UNL A   1      37.871  31.171  32.856  1.00  0.00    -0.206 F 
ATOM     61  C   UNL A   1      35.705  31.893  32.308  1.00  0.00     0.040 A 
ATOM     62  C   UNL A   1      35.157  32.446  30.030  1.00  0.00     0.040 A 
ATOM     63  F   UNL A   1      36.779  32.238  28.350  1.00  0.00    -0.206 F 
ATOM     64  C   UNL A   1      34.777  32.335  31.365  1.00  0.00     0.006 A 
ENDBRANCH  43  57
BRANCH  44  65
ATOM     65  C   UNL A   1      46.768  29.529  27.873  1.00  0.00     0.057 A 
ATOM     66  C   UNL A   1      47.687  29.126  28.849  1.00  0.00     0.134 A 
ATOM     67  C   UNL A   1      47.213  29.570  26.547  1.00  0.00     0.134 A 
ATOM     68  F   UNL A   1      47.328  29.088  30.140  1.00  0.00    -0.206 F 
ATOM     69  C   UNL A   1      48.996  28.772  28.517  1.00  0.00     0.040 A 
ATOM     70  C   UNL A   1      48.510  29.191  26.197  1.00  0.00     0.040 A 
ATOM     71  F   UNL A   1      46.381  29.946  25.564  1.00  0.00    -0.206 F 
ATOM     72  C   UNL A   1      49.407  28.793  27.185  1.00  0.00     0.006 A 
ENDBRANCH  44  65
BRANCH  56  73
ATOM     73  C   UNL A   1      43.598  35.317  30.120  1.00  0.00     0.057 A 
ATOM     74  C   UNL A   1      43.531  36.318  29.145  1.00  0.00     0.134 A 
ATOM     75  C   UNL A   1      44.065  35.677  31.391  1.00  0.00     0.134 A 
ATOM     76  F   UNL A   1      43.103  36.033  27.906  1.00  0.00    -0.206 F 
ATOM     77  C   UNL A   1      43.914  37.631  29.423  1.00  0.00     0.040 A 
ATOM     78  C   UNL A   1      44.432  36.989  31.687  1.00  0.00     0.040 A 
ATOM     79  F   UNL A   1      44.145  34.763  32.371  1.00  0.00    -0.206 F 
ATOM     80  C   UNL A   1      44.358  37.971  30.700  1.00  0.00     0.006 A 
ENDBRANCH  56  73
ENDBRANCH  30  31
ENDBRANCH  23  25
ENDBRANCH  22  23
ENDBRANCH   1  22
TORSDOF 12
ENDMDL
MODEL 2
REMARK VINA RESULT:     -10.4      0.381      6.289
REMARK SMILES Cc1cc(C)c2c(c1)C=C(C(=O)OCCOC(=O)c1ccc(-c3c4nc(c(-c5c(F)cccc5F)c5ccc([nH]5)c(-c5c(F)cccc5F)c5nc(c(-c6c(F)cccc6F)c6ccc3[nH]6)C=C5)C=C4)cc1)[C@@H](C(F)(F)F)O2
REMARK SMILES IDX 15 1 14 2 13 3 11 4 12 5 10 6 1 7 2 8 3 9 8 10 4 11 7 12
REMARK SMILES IDX 5 13 6 14 9 15 78 16 73 17 74 18 75 19 76 20 77 21 16 22
REMARK SMILES IDX 17 23 18 24 19 25 20 26 72 27 21 28 71 29 22 30 23 31 24 32
REMARK SMILES IDX 65 33 25 34 70 35 64 36 66 37 26 38 69 39 63 40 62 41 27 43
REMARK SMILES IDX 53 44 36 45 52 46 37 47 40 48 51 49 67 50 38 51 39 52 50 54
REMARK SMILES IDX 68 55 41 56 28 57 29 58 34 59 30 60 31 61 33 62 35 63 32 64
REMARK SMILES IDX 54 65 55 66 60 67 56 68 57 69 59 70 61 71 58 72 42 73 43 74
REMARK SMILES IDX 48 75 44 76 45 77 47 78 49 79 46 80
REMARK H PARENT 66 42 40 53
REMARK Flexibility Score: inf
ROOT
ATOM      1  C   UNL A   1      40.745  19.980  26.551  1.00  0.00     0.275 C 
ENDROOT
BRANCH   1   2
ATOM      2  C   UNL A   1      42.057  19.954  25.769  1.00  0.00     0.275 C 
BRANCH   2   3
ATOM      3  O   UNL A   1      43.069  20.755  26.416  1.00  0.00    -0.459 OA
BRANCH   3   4
ATOM      4  C   UNL A   1      43.333  21.944  25.826  1.00  0.00     0.338 C 
ATOM      5  O   UNL A   1      42.728  22.442  24.888  1.00  0.00    -0.246 OA
BRANCH   4   6
ATOM      6  C   UNL A   1      44.456  22.620  26.501  1.00  0.00     0.087 C 
ATOM      7  C   UNL A   1      45.633  26.232  31.340  1.00  0.00     0.044 C 
ATOM      8  C   UNL A   1      45.944  25.500  30.066  1.00  0.00    -0.050 A 
ATOM      9  C   UNL A   1      47.200  25.597  29.457  1.00  0.00     0.010 A 
ATOM     10  C   UNL A   1      44.974  24.682  29.485  1.00  0.00     0.015 A 
ATOM     11  C   UNL A   1      47.488  24.897  28.271  1.00  0.00    -0.008 A 
ATOM     12  C   UNL A   1      45.245  23.994  28.295  1.00  0.00     0.018 A 
ATOM     13  C   UNL A   1      48.837  25.039  27.627  1.00  0.00     0.048 C 
ATOM     14  C   UNL A   1      46.499  24.088  27.693  1.00  0.00     0.130 A 
ATOM     15  C   UNL A   1      44.200  23.213  27.671  1.00  0.00     0.027 C 
ATOM     16  O   UNL A   1      46.827  23.402  26.554  1.00  0.00    -0.475 OA
ATOM     17  C   UNL A   1      45.777  22.735  25.797  1.00  0.00     0.316 C 
BRANCH  17  18
ATOM     18  C   UNL A   1      45.621  23.441  24.440  1.00  0.00     0.430 C 
ATOM     19  F   UNL A   1      46.803  23.936  24.002  1.00  0.00    -0.167 F 
ATOM     20  F   UNL A   1      45.184  22.586  23.484  1.00  0.00    -0.167 F 
ATOM     21  F   UNL A   1      44.744  24.468  24.495  1.00  0.00    -0.167 F 
ENDBRANCH  17  18
ENDBRANCH   4   6
ENDBRANCH   3   4
ENDBRANCH   2   3
ENDBRANCH   1   2
BRANCH   1  22
ATOM     22  O   UNL A   1      40.589  21.247  27.215  1.00  0.00    -0.458 OA
BRANCH  22  23
ATOM     23  C   UNL A   1      39.786  22.141  26.595  1.00  0.00     0.338 C 
ATOM     24  O   UNL A   1      38.954  21.924  25.732  1.00  0.00    -0.246 OA
BRANCH  23  25
ATOM     25  C   UNL A   1      40.011  23.483  27.158  1.00  0.00     0.060 A 
ATOM     26  C   UNL A   1      39.577  24.591  26.441  1.00  0.00     0.016 A 
ATOM     27  C   UNL A   1      40.774  23.657  28.309  1.00  0.00     0.016 A 
ATOM     28  C   UNL A   1      40.015  25.865  26.786  1.00  0.00     0.010 A 
ATOM     29  C   UNL A   1      41.089  24.953  28.740  1.00  0.00     0.010 A 
ATOM     30  C   UNL A   1      40.749  26.075  27.962  1.00  0.00    -0.014 A 
BRANCH  30  31
ATOM     31  C   UNL A   1      41.144  27.460  28.357  1.00  0.00     0.031 A 
ATOM     32  C   UNL A   1      42.562  27.943  28.180  1.00  0.00     0.074 A 
ATOM     33  C   UNL A   1      40.215  28.313  28.844  1.00  0.00     0.049 A 
ATOM     34  N   UNL A   1      43.107  29.068  28.574  1.00  0.00    -0.248 NA
ATOM     35  C   UNL A   1      43.495  27.043  27.482  1.00  0.00     0.031 C 
ATOM     36  C   UNL A   1      38.797  27.998  29.041  1.00  0.00     0.029 A 
ATOM     37  N   UNL A   1      40.313  29.626  29.236  1.00  0.00    -0.354 N 
ATOM     38  C   UNL A   1      44.449  28.987  28.220  1.00  0.00     0.074 A 
ATOM     39  C   UNL A   1      44.642  27.701  27.587  1.00  0.00     0.031 C 
ATOM     40  C   UNL A   1      38.148  29.103  29.431  1.00  0.00     0.029 A 
ATOM     41  C   UNL A   1      39.113  30.178  29.620  1.00  0.00     0.049 A 
ATOM     42  H   UNL A   1      41.162  30.125  29.242  1.00  0.00     0.167 HD
ATOM     43  C   UNL A   1      45.430  29.906  28.402  1.00  0.00     0.037 A 
ATOM     44  C   UNL A   1      38.816  31.400  30.102  1.00  0.00     0.037 A 
ATOM     45  C   UNL A   1      45.225  31.209  28.979  1.00  0.00     0.049 A 
ATOM     46  C   UNL A   1      39.924  32.388  30.321  1.00  0.00     0.074 A 
ATOM     47  C   UNL A   1      46.158  32.207  29.205  1.00  0.00     0.029 A 
ATOM     48  N   UNL A   1      44.000  31.706  29.400  1.00  0.00    -0.354 N 
ATOM     49  N   UNL A   1      41.198  32.269  30.043  1.00  0.00    -0.248 NA
ATOM     50  C   UNL A   1      39.559  33.667  30.946  1.00  0.00     0.031 C 
ATOM     51  C   UNL A   1      45.503  33.295  29.789  1.00  0.00     0.029 A 
ATOM     52  C   UNL A   1      44.157  32.992  29.888  1.00  0.00     0.049 A 
ATOM     53  H   UNL A   1      43.147  31.216  29.357  1.00  0.00     0.167 HD
ATOM     54  C   UNL A   1      41.787  33.457  30.451  1.00  0.00     0.074 A 
ATOM     55  C   UNL A   1      40.729  34.293  30.978  1.00  0.00     0.031 C 
ATOM     56  C   UNL A   1      43.091  33.817  30.399  1.00  0.00     0.037 A 
BRANCH  43  57
ATOM     57  C   UNL A   1      46.825  29.537  27.989  1.00  0.00     0.057 A 
ATOM     58  C   UNL A   1      47.765  29.051  28.904  1.00  0.00     0.134 A 
ATOM     59  C   UNL A   1      47.206  29.600  26.641  1.00  0.00     0.134 A 
ATOM     60  F   UNL A   1      47.468  28.974  30.210  1.00  0.00    -0.206 F 
ATOM     61  C   UNL A   1      49.041  28.652  28.496  1.00  0.00     0.040 A 
ATOM     62  C   UNL A   1      48.469  29.182  26.218  1.00  0.00     0.040 A 
ATOM     63  F   UNL A   1      46.349  30.045  25.711  1.00  0.00    -0.206 F 
ATOM     64  C   UNL A   1      49.392  28.708  27.148  1.00  0.00     0.006 A 
ENDBRANCH  43  57
BRANCH  44  65
ATOM     65  C   UNL A   1      37.407  31.743  30.427  1.00  0.00     0.057 A 
ATOM     66  C   UNL A   1      36.881  31.493  31.699  1.00  0.00     0.134 A 
ATOM     67  C   UNL A   1      36.567  32.360  29.492  1.00  0.00     0.134 A 
ATOM     68  F   UNL A   1      37.629  30.885  32.631  1.00  0.00    -0.206 F 
ATOM     69  C   UNL A   1      35.573  31.847  32.031  1.00  0.00     0.040 A 
ATOM     70  C   UNL A   1      35.266  32.745  29.818  1.00  0.00     0.040 A 
ATOM     71  F   UNL A   1      37.011  32.629  28.255  1.00  0.00    -0.206 F 
ATOM     72  C   UNL A   1      34.764  32.486  31.092  1.00  0.00     0.006 A 
ENDBRANCH  44  65
BRANCH  56  73
ATOM     73  C   UNL A   1      43.454  35.180  30.900  1.00  0.00     0.057 A 
ATOM     74  C   UNL A   1      43.759  35.410  32.247  1.00  0.00     0.134 A 
ATOM     75  C   UNL A   1      43.574  36.258  30.013  1.00  0.00     0.134 A 
ATOM     76  F   UNL A   1      43.651  34.421  33.147  1.00  0.00    -0.206 F 
ATOM     77  C   UNL A   1      44.169  36.666  32.695  1.00  0.00     0.040 A 
ATOM     78  C   UNL A   1      44.002  37.512  30.445  1.00  0.00     0.040 A 
ATOM     79  F   UNL A   1      43.303  36.098  28.708  1.00  0.00    -0.206 F 
ATOM     80  C   UNL A   1      44.300  37.720  31.791  1.00  0.00     0.006 A 
ENDBRANCH  56  73
ENDBRANCH  30  31
ENDBRANCH  23  25
ENDBRANCH  22  23
ENDBRANCH   1  22
TORSDOF 12
ENDMDL
MODEL 3
REMARK VINA RESULT:     -10.3      4.459     10.238
REMARK SMILES Cc1cc(C)c2c(c1)C=C(C(=O)OCCOC(=O)c1ccc(-c3c4nc(c(-c5c(F)cccc5F)c5ccc([nH]5)c(-c5c(F)cccc5F)c5nc(c(-c6c(F)cccc6F)c6ccc3[nH]6)C=C5)C=C4)cc1)[C@@H](C(F)(F)F)O2
REMARK SMILES IDX 15 1 14 2 13 3 11 4 12 5 10 6 1 7 2 8 3 9 8 10 4 11 7 12
REMARK SMILES IDX 5 13 6 14 9 15 78 16 73 17 74 18 75 19 76 20 77 21 16 22
REMARK SMILES IDX 17 23 18 24 19 25 20 26 72 27 21 28 71 29 22 30 23 31 24 32
REMARK SMILES IDX 65 33 25 34 70 35 64 36 66 37 26 38 69 39 63 40 62 41 27 43
REMARK SMILES IDX 53 44 36 45 52 46 37 47 40 48 51 49 67 50 38 51 39 52 50 54
REMARK SMILES IDX 68 55 41 56 28 57 29 58 34 59 30 60 31 61 33 62 35 63 32 64
REMARK SMILES IDX 54 65 55 66 60 67 56 68 57 69 59 70 61 71 58 72 42 73 43 74
REMARK SMILES IDX 48 75 44 76 45 77 47 78 49 79 46 80
REMARK H PARENT 66 42 40 53
REMARK Flexibility Score: inf
ROOT
ATOM      1  C   UNL A   1      33.695  33.656  27.793  1.00  0.00     0.275 C 
ENDROOT
BRANCH   1   2
ATOM      2  C   UNL A   1      33.494  34.206  29.205  1.00  0.00     0.275 C 
BRANCH   2   3
ATOM      3  O   UNL A   1      34.759  34.432  29.863  1.00  0.00    -0.459 OA
BRANCH   3   4
ATOM      4  C   UNL A   1      35.035  33.598  30.892  1.00  0.00     0.338 C 
ATOM      5  O   UNL A   1      34.402  32.603  31.213  1.00  0.00    -0.246 OA
BRANCH   4   6
ATOM      6  C   UNL A   1      36.265  34.020  31.587  1.00  0.00     0.087 C 
ATOM      7  C   UNL A   1      42.382  33.896  30.948  1.00  0.00     0.044 C 
ATOM      8  C   UNL A   1      41.082  34.135  31.659  1.00  0.00    -0.050 A 
ATOM      9  C   UNL A   1      41.047  34.579  32.986  1.00  0.00     0.010 A 
ATOM     10  C   UNL A   1      39.877  33.941  30.981  1.00  0.00     0.015 A 
ATOM     11  C   UNL A   1      39.824  34.814  33.640  1.00  0.00    -0.008 A 
ATOM     12  C   UNL A   1      38.655  34.156  31.629  1.00  0.00     0.018 A 
ATOM     13  C   UNL A   1      39.816  35.267  35.072  1.00  0.00     0.048 C 
ATOM     14  C   UNL A   1      38.622  34.603  32.949  1.00  0.00     0.130 A 
ATOM     15  C   UNL A   1      37.420  33.875  30.930  1.00  0.00     0.027 C 
ATOM     16  O   UNL A   1      37.453  34.869  33.613  1.00  0.00    -0.475 OA
ATOM     17  C   UNL A   1      36.189  34.453  33.022  1.00  0.00     0.316 C 
BRANCH  17  18
ATOM     18  C   UNL A   1      35.572  33.352  33.901  1.00  0.00     0.430 C 
ATOM     19  F   UNL A   1      35.986  32.122  33.517  1.00  0.00    -0.167 F 
ATOM     20  F   UNL A   1      35.934  33.493  35.199  1.00  0.00    -0.167 F 
ATOM     21  F   UNL A   1      34.220  33.360  33.857  1.00  0.00    -0.167 F 
ENDBRANCH  17  18
ENDBRANCH   4   6
ENDBRANCH   3   4
ENDBRANCH   2   3
ENDBRANCH   1   2
BRANCH   1  22
ATOM     22  O   UNL A   1      34.931  32.924  27.718  1.00  0.00    -0.458 OA
BRANCH  22  23
ATOM     23  C   UNL A   1      34.823  31.578  27.803  1.00  0.00     0.338 C 
ATOM     24  O   UNL A   1      33.942  30.870  27.349  1.00  0.00    -0.246 OA
BRANCH  23  25
ATOM     25  C   UNL A   1      35.994  31.031  28.508  1.00  0.00     0.060 A 
ATOM     26  C   UNL A   1      37.223  31.661  28.352  1.00  0.00     0.016 A 
ATOM     27  C   UNL A   1      35.916  29.824  29.196  1.00  0.00     0.016 A 
ATOM     28  C   UNL A   1      38.392  31.026  28.758  1.00  0.00     0.010 A 
ATOM     29  C   UNL A   1      37.079  29.259  29.737  1.00  0.00     0.010 A 
ATOM     30  C   UNL A   1      38.341  29.832  29.490  1.00  0.00    -0.014 A 
BRANCH  30  31
ATOM     31  C   UNL A   1      39.603  29.205  29.985  1.00  0.00     0.031 A 
ATOM     32  C   UNL A   1      40.246  29.666  31.269  1.00  0.00     0.074 A 
ATOM     33  C   UNL A   1      40.163  28.184  29.299  1.00  0.00     0.049 A 
ATOM     34  N   UNL A   1      41.399  29.318  31.787  1.00  0.00    -0.248 NA
ATOM     35  C   UNL A   1      39.509  30.655  32.072  1.00  0.00     0.031 C 
ATOM     36  C   UNL A   1      39.637  27.609  28.058  1.00  0.00     0.029 A 
ATOM     37  N   UNL A   1      41.280  27.427  29.559  1.00  0.00    -0.354 N 
ATOM     38  C   UNL A   1      41.546  30.080  32.940  1.00  0.00     0.074 A 
ATOM     39  C   UNL A   1      40.371  30.916  33.046  1.00  0.00     0.031 C 
ATOM     40  C   UNL A   1      40.373  26.544  27.715  1.00  0.00     0.029 A 
ATOM     41  C   UNL A   1      41.490  26.422  28.643  1.00  0.00     0.049 A 
ATOM     42  H   UNL A   1      41.873  27.588  30.328  1.00  0.00     0.167 HD
ATOM     43  C   UNL A   1      42.567  30.078  33.833  1.00  0.00     0.037 A 
ATOM     44  C   UNL A   1      42.483  25.518  28.535  1.00  0.00     0.037 A 
ATOM     45  C   UNL A   1      43.708  29.204  33.759  1.00  0.00     0.049 A 
ATOM     46  C   UNL A   1      43.615  25.556  29.519  1.00  0.00     0.074 A 
ATOM     47  C   UNL A   1      44.793  29.129  34.617  1.00  0.00     0.029 A 
ATOM     48  N   UNL A   1      43.904  28.236  32.785  1.00  0.00    -0.354 N 
ATOM     49  N   UNL A   1      43.770  26.329  30.565  1.00  0.00    -0.248 NA
ATOM     50  C   UNL A   1      44.723  24.617  29.293  1.00  0.00     0.031 C 
ATOM     51  C   UNL A   1      45.658  28.137  34.146  1.00  0.00     0.029 A 
ATOM     52  C   UNL A   1      45.092  27.565  33.019  1.00  0.00     0.049 A 
ATOM     53  H   UNL A   1      43.287  28.053  32.039  1.00  0.00     0.167 HD
ATOM     54  C   UNL A   1      44.986  25.968  31.127  1.00  0.00     0.074 A 
ATOM     55  C   UNL A   1      45.520  24.892  30.318  1.00  0.00     0.031 C 
ATOM     56  C   UNL A   1      45.606  26.488  32.212  1.00  0.00     0.037 A 
BRANCH  43  57
ATOM     57  C   UNL A   1      42.512  31.060  34.967  1.00  0.00     0.057 A 
ATOM     58  C   UNL A   1      43.090  32.331  34.875  1.00  0.00     0.134 A 
ATOM     59  C   UNL A   1      41.805  30.754  36.139  1.00  0.00     0.134 A 
ATOM     60  F   UNL A   1      43.788  32.685  33.785  1.00  0.00    -0.206 F 
ATOM     61  C   UNL A   1      42.979  33.259  35.914  1.00  0.00     0.040 A 
ATOM     62  C   UNL A   1      41.667  31.681  37.173  1.00  0.00     0.040 A 
ATOM     63  F   UNL A   1      41.218  29.557  36.287  1.00  0.00    -0.206 F 
ATOM     64  C   UNL A   1      42.257  32.938  37.062  1.00  0.00     0.006 A 
ENDBRANCH  43  57
BRANCH  44  65
ATOM     65  C   UNL A   1      42.454  24.517  27.438  1.00  0.00     0.057 A 
ATOM     66  C   UNL A   1      43.012  24.805  26.187  1.00  0.00     0.134 A 
ATOM     67  C   UNL A   1      41.904  23.242  27.620  1.00  0.00     0.134 A 
ATOM     68  F   UNL A   1      43.534  26.015  25.943  1.00  0.00    -0.206 F 
ATOM     69  C   UNL A   1      43.028  23.860  25.160  1.00  0.00     0.040 A 
ATOM     70  C   UNL A   1      41.939  22.278  26.612  1.00  0.00     0.040 A 
ATOM     71  F   UNL A   1      41.356  22.903  28.797  1.00  0.00    -0.206 F 
ATOM     72  C   UNL A   1      42.500  22.587  25.376  1.00  0.00     0.006 A 
ENDBRANCH  44  65
BRANCH  56  73
ATOM     73  C   UNL A   1      46.920  25.892  32.611  1.00  0.00     0.057 A 
ATOM     74  C   UNL A   1      48.129  26.369  32.092  1.00  0.00     0.134 A 
ATOM     75  C   UNL A   1      46.980  24.884  33.582  1.00  0.00     0.134 A 
ATOM     76  F   UNL A   1      48.136  27.325  31.152  1.00  0.00    -0.206 F 
ATOM     77  C   UNL A   1      49.355  25.861  32.524  1.00  0.00     0.040 A 
ATOM     78  C   UNL A   1      48.200  24.382  34.035  1.00  0.00     0.040 A 
ATOM     79  F   UNL A   1      45.855  24.391  34.122  1.00  0.00    -0.206 F 
ATOM     80  C   UNL A   1      49.393  24.871  33.505  1.00  0.00     0.006 A 
ENDBRANCH  56  73
ENDBRANCH  30  31
ENDBRANCH  23  25
ENDBRANCH  22  23
ENDBRANCH   1  22
TORSDOF 12
ENDMDL
