MODEL 1
REMARK VINA RESULT:     -11.3      0.000      0.000
REMARK SMILES CCOc1c(Br)cc(CNc2cccc(C(=O)OCCOC(=O)c3ccc(-c4c5nc(c(-c6c(F)cccc6F)c6ccc([nH]6)c(-c6c(F)cccc6F)c6nc(c(-c7c(F)cccc7F)c7ccc4[nH]7)C=C6)C=C5)cc3)c2C)cc1OC
REMARK SMILES IDX 18 1 16 2 17 3 15 4 11 5 12 6 78 7 13 8 79 9 14 10 10 11
REMARK SMILES IDX 9 13 8 14 4 15 5 16 81 17 6 18 7 19 80 20 3 21 2 22 1 23
REMARK SMILES IDX 82 24 83 25 19 26 20 27 21 28 22 29 23 30 24 31 25 32 77 33
REMARK SMILES IDX 26 34 76 35 27 36 28 37 29 38 70 39 30 40 75 41 69 42 71 43
REMARK SMILES IDX 31 44 74 45 68 46 67 47 32 49 58 50 41 51 57 52 42 53 45 54
REMARK SMILES IDX 56 55 72 56 43 57 44 58 55 60 73 61 46 62 33 63 34 64 39 65
REMARK SMILES IDX 35 66 36 67 38 68 40 69 37 70 59 71 60 72 65 73 61 74 62 75
REMARK SMILES IDX 64 76 66 77 63 78 47 79 48 80 53 81 49 82 50 83 52 84 54 85
REMARK SMILES IDX 51 86
REMARK H PARENT 10 12 71 48 45 59
REMARK Flexibility Score: inf
ROOT
ATOM      1  O   UNL A   1      42.016  20.465  25.640  1.00  0.00    -0.458 OA
ENDROOT
BRANCH   1   2
ATOM      2  C   UNL A   1      41.203  20.494  26.730  1.00  0.00     0.338 C 
ATOM      3  O   UNL A   1      41.324  19.784  27.722  1.00  0.00    -0.246 OA
BRANCH   2   4
ATOM      4  C   UNL A   1      39.976  21.307  26.565  1.00  0.00     0.065 A 
ATOM      5  C   UNL A   1      38.000  22.066  25.343  1.00  0.00     0.038 A 
ATOM      6  C   UNL A   1      38.147  23.313  25.972  1.00  0.00     0.026 A 
ATOM      7  C   UNL A   1      38.888  21.016  25.709  1.00  0.00    -0.013 A 
ATOM      8  C   UNL A   1      39.161  23.561  26.893  1.00  0.00     0.003 A 
ATOM      9  C   UNL A   1      38.667  19.653  25.120  1.00  0.00     0.047 C 
ATOM     10  C   UNL A   1      40.090  22.570  27.163  1.00  0.00     0.016 A 
BRANCH   5  11
ATOM     11  N   UNL A   1      37.095  21.889  24.302  1.00  0.00    -0.381 N 
ATOM     12  H   UNL A   1      36.902  20.967  24.014  1.00  0.00     0.160 HD
BRANCH  11  13
ATOM     13  C   UNL A   1      36.413  22.970  23.614  1.00  0.00     0.149 C 
BRANCH  13  14
ATOM     14  C   UNL A   1      35.143  23.341  24.348  1.00  0.00    -0.024 A 
ATOM     15  C   UNL A   1      32.847  24.043  25.866  1.00  0.00     0.175 A 
ATOM     16  C   UNL A   1      33.766  25.021  25.442  1.00  0.00     0.064 A 
ATOM     17  C   UNL A   1      33.105  22.696  25.560  1.00  0.00     0.162 A 
ATOM     18  Br  UNL A   1      33.619  26.849  25.951  1.00  0.00    -0.047 Br
ATOM     19  C   UNL A   1      34.882  24.677  24.668  1.00  0.00     0.025 A 
ATOM     20  C   UNL A   1      34.239  22.367  24.791  1.00  0.00     0.056 A 
BRANCH  15  21
ATOM     21  O   UNL A   1      31.799  24.432  26.660  1.00  0.00    -0.489 OA
BRANCH  21  22
ATOM     22  C   UNL A   1      30.537  24.419  25.981  1.00  0.00     0.226 C 
ATOM     23  C   UNL A   1      30.035  25.828  25.723  1.00  0.00     0.049 C 
ENDBRANCH  21  22
ENDBRANCH  15  21
BRANCH  17  24
ATOM     24  O   UNL A   1      32.392  21.581  25.913  1.00  0.00    -0.493 OA
ATOM     25  C   UNL A   1      32.209  20.543  24.964  1.00  0.00     0.278 C 
ENDBRANCH  17  24
ENDBRANCH  13  14
ENDBRANCH  11  13
ENDBRANCH   5  11
ENDBRANCH   2   4
ENDBRANCH   1   2
BRANCH   1  26
ATOM     26  C   UNL A   1      42.909  19.337  25.663  1.00  0.00     0.275 C 
BRANCH  26  27
ATOM     27  C   UNL A   1      44.219  19.542  24.889  1.00  0.00     0.275 C 
BRANCH  27  28
ATOM     28  O   UNL A   1      44.523  20.880  24.413  1.00  0.00    -0.458 OA
BRANCH  28  29
ATOM     29  C   UNL A   1      45.531  21.692  24.808  1.00  0.00     0.338 C 
ATOM     30  O   UNL A   1      46.689  21.543  24.431  1.00  0.00    -0.246 OA
BRANCH  29  31
ATOM     31  C   UNL A   1      45.170  22.833  25.652  1.00  0.00     0.060 A 
ATOM     32  C   UNL A   1      45.114  22.643  27.037  1.00  0.00     0.016 A 
ATOM     33  C   UNL A   1      44.982  24.090  25.085  1.00  0.00     0.016 A 
ATOM     34  C   UNL A   1      45.003  23.732  27.884  1.00  0.00     0.010 A 
ATOM     35  C   UNL A   1      44.938  25.185  25.919  1.00  0.00     0.010 A 
ATOM     36  C   UNL A   1      44.929  25.001  27.311  1.00  0.00    -0.014 A 
BRANCH  36  37
ATOM     37  C   UNL A   1      44.416  26.123  28.076  1.00  0.00     0.031 A 
ATOM     38  C   UNL A   1      43.028  26.596  27.993  1.00  0.00     0.074 A 
ATOM     39  C   UNL A   1      45.385  26.742  28.785  1.00  0.00     0.049 A 
ATOM     40  N   UNL A   1      42.700  27.839  28.087  1.00  0.00    -0.248 NA
ATOM     41  C   UNL A   1      41.884  25.717  27.766  1.00  0.00     0.031 C 
ATOM     42  C   UNL A   1      45.308  27.820  29.746  1.00  0.00     0.029 A 
ATOM     43  N   UNL A   1      46.758  26.576  28.552  1.00  0.00    -0.354 N 
ATOM     44  C   UNL A   1      41.333  27.895  28.248  1.00  0.00     0.074 A 
ATOM     45  C   UNL A   1      40.859  26.566  27.934  1.00  0.00     0.031 C 
ATOM     46  C   UNL A   1      46.523  28.401  29.821  1.00  0.00     0.029 A 
ATOM     47  C   UNL A   1      47.369  27.800  28.791  1.00  0.00     0.049 A 
ATOM     48  H   UNL A   1      47.206  25.746  28.271  1.00  0.00     0.167 HD
ATOM     49  C   UNL A   1      40.780  29.007  28.817  1.00  0.00     0.037 A 
ATOM     50  C   UNL A   1      47.958  28.457  27.750  1.00  0.00     0.037 A 
ATOM     51  C   UNL A   1      41.819  29.984  29.129  1.00  0.00     0.049 A 
ATOM     52  C   UNL A   1      47.302  29.790  27.508  1.00  0.00     0.074 A 
ATOM     53  C   UNL A   1      42.567  30.163  30.282  1.00  0.00     0.029 A 
ATOM     54  N   UNL A   1      42.490  30.650  28.110  1.00  0.00    -0.354 N 
ATOM     55  N   UNL A   1      46.040  30.032  27.734  1.00  0.00    -0.248 NA
ATOM     56  C   UNL A   1      48.029  30.953  27.016  1.00  0.00     0.031 C 
ATOM     57  C   UNL A   1      43.733  30.880  29.940  1.00  0.00     0.029 A 
ATOM     58  C   UNL A   1      43.683  31.163  28.587  1.00  0.00     0.049 A 
ATOM     59  H   UNL A   1      42.166  30.741  27.186  1.00  0.00     0.167 HD
ATOM     60  C   UNL A   1      45.794  31.358  27.497  1.00  0.00     0.074 A 
ATOM     61  C   UNL A   1      47.064  31.887  27.035  1.00  0.00     0.031 C 
ATOM     62  C   UNL A   1      44.575  31.926  27.732  1.00  0.00     0.037 A 
BRANCH  49  63
ATOM     63  C   UNL A   1      39.402  29.028  29.434  1.00  0.00     0.057 A 
ATOM     64  C   UNL A   1      38.283  29.465  28.694  1.00  0.00     0.134 A 
ATOM     65  C   UNL A   1      39.120  28.675  30.763  1.00  0.00     0.134 A 
ATOM     66  F   UNL A   1      38.365  29.758  27.390  1.00  0.00    -0.206 F 
ATOM     67  C   UNL A   1      37.012  29.640  29.255  1.00  0.00     0.040 A 
ATOM     68  C   UNL A   1      37.856  28.869  31.347  1.00  0.00     0.040 A 
ATOM     69  F   UNL A   1      40.053  28.109  31.541  1.00  0.00    -0.206 F 
ATOM     70  C   UNL A   1      36.800  29.370  30.596  1.00  0.00     0.006 A 
ENDBRANCH  49  63
BRANCH  50  71
ATOM     71  C   UNL A   1      48.542  27.603  26.665  1.00  0.00     0.057 A 
ATOM     72  C   UNL A   1      47.846  27.442  25.449  1.00  0.00     0.134 A 
ATOM     73  C   UNL A   1      49.846  27.099  26.701  1.00  0.00     0.134 A 
ATOM     74  F   UNL A   1      46.585  27.887  25.327  1.00  0.00    -0.206 F 
ATOM     75  C   UNL A   1      48.441  26.887  24.310  1.00  0.00     0.040 A 
ATOM     76  C   UNL A   1      50.448  26.522  25.570  1.00  0.00     0.040 A 
ATOM     77  F   UNL A   1      50.592  27.201  27.809  1.00  0.00    -0.206 F 
ATOM     78  C   UNL A   1      49.754  26.439  24.364  1.00  0.00     0.006 A 
ENDBRANCH  50  71
BRANCH  62  79
ATOM     79  C   UNL A   1      44.156  33.311  27.320  1.00  0.00     0.057 A 
ATOM     80  C   UNL A   1      43.781  33.659  26.017  1.00  0.00     0.134 A 
ATOM     81  C   UNL A   1      43.977  34.325  28.289  1.00  0.00     0.134 A 
ATOM     82  F   UNL A   1      43.785  32.762  25.021  1.00  0.00    -0.206 F 
ATOM     83  C   UNL A   1      43.329  34.942  25.686  1.00  0.00     0.040 A 
ATOM     84  C   UNL A   1      43.471  35.588  27.982  1.00  0.00     0.040 A 
ATOM     85  F   UNL A   1      44.264  34.129  29.586  1.00  0.00    -0.206 F 
ATOM     86  C   UNL A   1      43.161  35.907  26.671  1.00  0.00     0.006 A 
ENDBRANCH  62  79
ENDBRANCH  36  37
ENDBRANCH  29  31
ENDBRANCH  28  29
ENDBRANCH  27  28
ENDBRANCH  26  27
ENDBRANCH   1  26
TORSDOF 17
ENDMDL
MODEL 2
REMARK VINA RESULT:     -11.3      1.238      2.011
REMARK SMILES CCOc1c(Br)cc(CNc2cccc(C(=O)OCCOC(=O)c3ccc(-c4c5nc(c(-c6c(F)cccc6F)c6ccc([nH]6)c(-c6c(F)cccc6F)c6nc(c(-c7c(F)cccc7F)c7ccc4[nH]7)C=C6)C=C5)cc3)c2C)cc1OC
REMARK SMILES IDX 18 1 16 2 17 3 15 4 11 5 12 6 78 7 13 8 79 9 14 10 10 11
REMARK SMILES IDX 9 13 8 14 4 15 5 16 81 17 6 18 7 19 80 20 3 21 2 22 1 23
REMARK SMILES IDX 82 24 83 25 19 26 20 27 21 28 22 29 23 30 24 31 25 32 77 33
REMARK SMILES IDX 26 34 76 35 27 36 28 37 29 38 70 39 30 40 75 41 69 42 71 43
REMARK SMILES IDX 31 44 74 45 68 46 67 47 32 49 58 50 41 51 57 52 42 53 45 54
REMARK SMILES IDX 56 55 72 56 43 57 44 58 55 60 73 61 46 62 33 63 34 64 39 65
REMARK SMILES IDX 35 66 36 67 38 68 40 69 37 70 59 71 60 72 65 73 61 74 62 75
REMARK SMILES IDX 64 76 66 77 63 78 47 79 48 80 53 81 49 82 50 83 52 84 54 85
REMARK SMILES IDX 51 86
REMARK H PARENT 10 12 71 48 45 59
REMARK Flexibility Score: inf
ROOT
ATOM      1  O   UNL A   1      43.022  19.224  25.065  1.00  0.00    -0.458 OA
ENDROOT
BRANCH   1   2
ATOM      2  C   UNL A   1      42.526  19.082  26.323  1.00  0.00     0.338 C 
ATOM      3  O   UNL A   1      42.664  18.090  27.031  1.00  0.00    -0.246 OA
BRANCH   2   4
ATOM      4  C   UNL A   1      41.578  20.143  26.738  1.00  0.00     0.065 A 
ATOM      5  C   UNL A   1      39.684  21.648  26.386  1.00  0.00     0.038 A 
ATOM      6  C   UNL A   1      40.318  22.569  27.236  1.00  0.00     0.026 A 
ATOM      7  C   UNL A   1      40.291  20.374  26.197  1.00  0.00    -0.013 A 
ATOM      8  C   UNL A   1      41.537  22.291  27.848  1.00  0.00     0.003 A 
ATOM      9  C   UNL A   1      39.565  19.349  25.376  1.00  0.00     0.047 C 
ATOM     10  C   UNL A   1      42.178  21.096  27.573  1.00  0.00     0.016 A 
BRANCH   5  11
ATOM     11  N   UNL A   1      38.560  22.005  25.650  1.00  0.00    -0.381 N 
ATOM     12  H   UNL A   1      38.263  21.391  24.940  1.00  0.00     0.160 HD
BRANCH  11  13
ATOM     13  C   UNL A   1      37.795  23.221  25.858  1.00  0.00     0.149 C 
BRANCH  13  14
ATOM     14  C   UNL A   1      36.321  22.957  25.641  1.00  0.00    -0.024 A 
ATOM     15  C   UNL A   1      33.586  22.442  25.073  1.00  0.00     0.175 A 
ATOM     16  C   UNL A   1      34.513  21.391  25.204  1.00  0.00     0.064 A 
ATOM     17  C   UNL A   1      34.045  23.765  25.188  1.00  0.00     0.162 A 
ATOM     18  Br  UNL A   1      34.044  19.573  24.888  1.00  0.00    -0.047 Br
ATOM     19  C   UNL A   1      35.855  21.644  25.513  1.00  0.00     0.025 A 
ATOM     20  C   UNL A   1      35.402  24.002  25.488  1.00  0.00     0.056 A 
BRANCH  15  21
ATOM     21  O   UNL A   1      32.296  22.137  24.723  1.00  0.00    -0.489 OA
BRANCH  21  22
ATOM     22  C   UNL A   1      31.949  22.565  23.399  1.00  0.00     0.226 C 
ATOM     23  C   UNL A   1      32.153  21.452  22.387  1.00  0.00     0.049 C 
ENDBRANCH  21  22
ENDBRANCH  15  21
BRANCH  17  24
ATOM     24  O   UNL A   1      33.347  24.935  25.043  1.00  0.00    -0.493 OA
ATOM     25  C   UNL A   1      32.484  25.364  26.084  1.00  0.00     0.278 C 
ENDBRANCH  17  24
ENDBRANCH  13  14
ENDBRANCH  11  13
ENDBRANCH   5  11
ENDBRANCH   2   4
ENDBRANCH   1   2
BRANCH   1  26
ATOM     26  C   UNL A   1      44.280  18.547  24.901  1.00  0.00     0.275 C 
BRANCH  26  27
ATOM     27  C   UNL A   1      45.402  19.413  24.312  1.00  0.00     0.275 C 
BRANCH  27  28
ATOM     28  O   UNL A   1      45.505  20.788  24.766  1.00  0.00    -0.458 OA
BRANCH  28  29
ATOM     29  C   UNL A   1      44.901  21.882  24.245  1.00  0.00     0.338 C 
ATOM     30  O   UNL A   1      44.527  21.939  23.078  1.00  0.00    -0.246 OA
BRANCH  29  31
ATOM     31  C   UNL A   1      44.627  22.989  25.165  1.00  0.00     0.060 A 
ATOM     32  C   UNL A   1      44.954  22.827  26.515  1.00  0.00     0.016 A 
ATOM     33  C   UNL A   1      44.140  24.197  24.677  1.00  0.00     0.016 A 
ATOM     34  C   UNL A   1      44.928  23.913  27.372  1.00  0.00     0.010 A 
ATOM     35  C   UNL A   1      44.173  25.298  25.504  1.00  0.00     0.010 A 
ATOM     36  C   UNL A   1      44.546  25.149  26.850  1.00  0.00    -0.014 A 
BRANCH  36  37
ATOM     37  C   UNL A   1      44.109  26.215  27.731  1.00  0.00     0.031 A 
ATOM     38  C   UNL A   1      42.733  26.730  27.764  1.00  0.00     0.074 A 
ATOM     39  C   UNL A   1      45.132  26.747  28.435  1.00  0.00     0.049 A 
ATOM     40  N   UNL A   1      42.449  27.969  27.978  1.00  0.00    -0.248 NA
ATOM     41  C   UNL A   1      41.553  25.902  27.528  1.00  0.00     0.031 C 
ATOM     42  C   UNL A   1      45.139  27.742  29.484  1.00  0.00     0.029 A 
ATOM     43  N   UNL A   1      46.486  26.565  28.113  1.00  0.00    -0.354 N 
ATOM     44  C   UNL A   1      41.095  28.046  28.218  1.00  0.00     0.074 A 
ATOM     45  C   UNL A   1      40.565  26.761  27.822  1.00  0.00     0.031 C 
ATOM     46  C   UNL A   1      46.373  28.282  29.539  1.00  0.00     0.029 A 
ATOM     47  C   UNL A   1      47.145  27.749  28.418  1.00  0.00     0.049 A 
ATOM     48  H   UNL A   1      46.893  25.750  27.741  1.00  0.00     0.167 HD
ATOM     49  C   UNL A   1      40.607  29.121  28.906  1.00  0.00     0.037 A 
ATOM     50  C   UNL A   1      47.699  28.476  27.405  1.00  0.00     0.037 A 
ATOM     51  C   UNL A   1      41.689  30.041  29.239  1.00  0.00     0.049 A 
ATOM     52  C   UNL A   1      47.072  29.840  27.309  1.00  0.00     0.074 A 
ATOM     53  C   UNL A   1      42.502  30.102  30.361  1.00  0.00     0.029 A 
ATOM     54  N   UNL A   1      42.327  30.772  28.244  1.00  0.00    -0.354 N 
ATOM     55  N   UNL A   1      45.832  30.095  27.624  1.00  0.00    -0.248 NA
ATOM     56  C   UNL A   1      47.807  31.021  26.876  1.00  0.00     0.031 C 
ATOM     57  C   UNL A   1      43.671  30.815  30.016  1.00  0.00     0.029 A 
ATOM     58  C   UNL A   1      43.558  31.212  28.696  1.00  0.00     0.049 A 
ATOM     59  H   UNL A   1      41.958  30.949  27.350  1.00  0.00     0.167 HD
ATOM     60  C   UNL A   1      45.613  31.442  27.511  1.00  0.00     0.074 A 
ATOM     61  C   UNL A   1      46.874  31.975  27.025  1.00  0.00     0.031 C 
ATOM     62  C   UNL A   1      44.427  32.021  27.859  1.00  0.00     0.037 A 
BRANCH  49  63
ATOM     63  C   UNL A   1      39.264  29.125  29.597  1.00  0.00     0.057 A 
ATOM     64  C   UNL A   1      38.101  29.545  28.918  1.00  0.00     0.134 A 
ATOM     65  C   UNL A   1      39.060  28.773  30.941  1.00  0.00     0.134 A 
ATOM     66  F   UNL A   1      38.108  29.836  27.611  1.00  0.00    -0.206 F 
ATOM     67  C   UNL A   1      36.860  29.706  29.547  1.00  0.00     0.040 A 
ATOM     68  C   UNL A   1      37.827  28.953  31.592  1.00  0.00     0.040 A 
ATOM     69  F   UNL A   1      40.041  28.221  31.668  1.00  0.00    -0.206 F 
ATOM     70  C   UNL A   1      36.725  29.437  30.898  1.00  0.00     0.006 A 
ENDBRANCH  49  63
BRANCH  50  71
ATOM     71  C   UNL A   1      48.198  27.701  26.223  1.00  0.00     0.057 A 
ATOM     72  C   UNL A   1      47.385  27.565  25.079  1.00  0.00     0.134 A 
ATOM     73  C   UNL A   1      49.519  27.255  26.097  1.00  0.00     0.134 A 
ATOM     74  F   UNL A   1      46.100  27.956  25.112  1.00  0.00    -0.206 F 
ATOM     75  C   UNL A   1      47.877  27.091  23.857  1.00  0.00     0.040 A 
ATOM     76  C   UNL A   1      50.020  26.761  24.882  1.00  0.00     0.040 A 
ATOM     77  F   UNL A   1      50.373  27.340  27.125  1.00  0.00    -0.206 F 
ATOM     78  C   UNL A   1      49.206  26.702  23.752  1.00  0.00     0.006 A 
ENDBRANCH  50  71
BRANCH  62  79
ATOM     79  C   UNL A   1      44.029  33.446  27.586  1.00  0.00     0.057 A 
ATOM     80  C   UNL A   1      44.020  34.454  28.556  1.00  0.00     0.134 A 
ATOM     81  C   UNL A   1      43.775  33.879  26.264  1.00  0.00     0.134 A 
ATOM     82  F   UNL A   1      44.359  34.208  29.830  1.00  0.00    -0.206 F 
ATOM     83  C   UNL A   1      43.711  35.785  28.249  1.00  0.00     0.040 A 
ATOM     84  C   UNL A   1      43.526  35.213  25.937  1.00  0.00     0.040 A 
ATOM     85  F   UNL A   1      43.781  33.031  25.223  1.00  0.00    -0.206 F 
ATOM     86  C   UNL A   1      43.475  36.170  26.936  1.00  0.00     0.006 A 
ENDBRANCH  62  79
ENDBRANCH  36  37
ENDBRANCH  29  31
ENDBRANCH  28  29
ENDBRANCH  27  28
ENDBRANCH  26  27
ENDBRANCH   1  26
TORSDOF 17
ENDMDL
MODEL 3
REMARK VINA RESULT:     -11.0      3.379      5.840
REMARK SMILES CCOc1c(Br)cc(CNc2cccc(C(=O)OCCOC(=O)c3ccc(-c4c5nc(c(-c6c(F)cccc6F)c6ccc([nH]6)c(-c6c(F)cccc6F)c6nc(c(-c7c(F)cccc7F)c7ccc4[nH]7)C=C6)C=C5)cc3)c2C)cc1OC
REMARK SMILES IDX 18 1 16 2 17 3 15 4 11 5 12 6 78 7 13 8 79 9 14 10 10 11
REMARK SMILES IDX 9 13 8 14 4 15 5 16 81 17 6 18 7 19 80 20 3 21 2 22 1 23
REMARK SMILES IDX 82 24 83 25 19 26 20 27 21 28 22 29 23 30 24 31 25 32 77 33
REMARK SMILES IDX 26 34 76 35 27 36 28 37 29 38 70 39 30 40 75 41 69 42 71 43
REMARK SMILES IDX 31 44 74 45 68 46 67 47 32 49 58 50 41 51 57 52 42 53 45 54
REMARK SMILES IDX 56 55 72 56 43 57 44 58 55 60 73 61 46 62 33 63 34 64 39 65
REMARK SMILES IDX 35 66 36 67 38 68 40 69 37 70 59 71 60 72 65 73 61 74 62 75
REMARK SMILES IDX 64 76 66 77 63 78 47 79 48 80 53 81 49 82 50 83 52 84 54 85
REMARK SMILES IDX 51 86
REMARK H PARENT 10 12 71 48 45 59
REMARK Flexibility Score: inf
ROOT
ATOM      1  O   UNL A   1      36.753  21.405  25.369  1.00  0.00    -0.458 OA
ENDROOT
BRANCH   1   2
ATOM      2  C   UNL A   1      36.027  21.880  24.322  1.00  0.00     0.338 C 
ATOM      3  O   UNL A   1      36.494  22.385  23.307  1.00  0.00    -0.246 OA
BRANCH   2   4
ATOM      4  C   UNL A   1      34.568  21.965  24.568  1.00  0.00     0.065 A 
ATOM      5  C   UNL A   1      32.582  22.871  25.668  1.00  0.00     0.038 A 
ATOM      6  C   UNL A   1      31.984  21.609  25.526  1.00  0.00     0.026 A 
ATOM      7  C   UNL A   1      33.873  23.075  25.105  1.00  0.00    -0.013 A 
ATOM      8  C   UNL A   1      32.636  20.549  24.903  1.00  0.00     0.003 A 
ATOM      9  C   UNL A   1      34.471  24.451  25.161  1.00  0.00     0.047 C 
ATOM     10  C   UNL A   1      33.935  20.719  24.455  1.00  0.00     0.016 A 
BRANCH   5  11
ATOM     11  N   UNL A   1      31.990  23.863  26.442  1.00  0.00    -0.381 N 
ATOM     12  H   UNL A   1      32.453  24.140  27.266  1.00  0.00     0.160 HD
BRANCH  11  13
ATOM     13  C   UNL A   1      30.737  24.520  26.117  1.00  0.00     0.149 C 
BRANCH  13  14
ATOM     14  C   UNL A   1      30.969  25.994  25.861  1.00  0.00    -0.024 A 
ATOM     15  C   UNL A   1      31.528  28.717  25.280  1.00  0.00     0.175 A 
ATOM     16  C   UNL A   1      30.778  27.923  24.393  1.00  0.00     0.064 A 
ATOM     17  C   UNL A   1      32.037  28.127  26.450  1.00  0.00     0.162 A 
ATOM     18  Br  UNL A   1      30.195  28.561  22.697  1.00  0.00    -0.047 Br
ATOM     19  C   UNL A   1      30.477  26.589  24.694  1.00  0.00     0.025 A 
ATOM     20  C   UNL A   1      31.735  26.779  26.732  1.00  0.00     0.056 A 
BRANCH  15  21
ATOM     21  O   UNL A   1      31.831  30.003  24.911  1.00  0.00    -0.489 OA
BRANCH  21  22
ATOM     22  C   UNL A   1      30.903  30.972  25.414  1.00  0.00     0.226 C 
ATOM     23  C   UNL A   1      31.523  31.809  26.518  1.00  0.00     0.049 C 
ENDBRANCH  21  22
ENDBRANCH  15  21
BRANCH  17  24
ATOM     24  O   UNL A   1      32.831  28.680  27.419  1.00  0.00    -0.493 OA
ATOM     25  C   UNL A   1      34.238  28.698  27.239  1.00  0.00     0.278 C 
ENDBRANCH  17  24
ENDBRANCH  13  14
ENDBRANCH  11  13
ENDBRANCH   5  11
ENDBRANCH   2   4
ENDBRANCH   1   2
BRANCH   1  26
ATOM     26  C   UNL A   1      38.051  22.020  25.449  1.00  0.00     0.275 C 
BRANCH  26  27
ATOM     27  C   UNL A   1      38.048  23.452  26.002  1.00  0.00     0.275 C 
BRANCH  27  28
ATOM     28  O   UNL A   1      39.025  23.786  27.022  1.00  0.00    -0.458 OA
BRANCH  28  29
ATOM     29  C   UNL A   1      40.060  24.654  26.927  1.00  0.00     0.338 C 
ATOM     30  O   UNL A   1      41.043  24.439  26.227  1.00  0.00    -0.246 OA
BRANCH  29  31
ATOM     31  C   UNL A   1      39.924  25.927  27.639  1.00  0.00     0.060 A 
ATOM     32  C   UNL A   1      39.388  25.912  28.931  1.00  0.00     0.016 A 
ATOM     33  C   UNL A   1      40.405  27.101  27.069  1.00  0.00     0.016 A 
ATOM     34  C   UNL A   1      39.450  27.044  29.723  1.00  0.00     0.010 A 
ATOM     35  C   UNL A   1      40.533  28.214  27.870  1.00  0.00     0.010 A 
ATOM     36  C   UNL A   1      40.037  28.188  29.184  1.00  0.00    -0.014 A 
BRANCH  36  37
ATOM     37  C   UNL A   1      39.785  29.490  29.772  1.00  0.00     0.031 A 
ATOM     38  C   UNL A   1      38.706  30.385  29.332  1.00  0.00     0.074 A 
ATOM     39  C   UNL A   1      40.717  29.824  30.690  1.00  0.00     0.049 A 
ATOM     40  N   UNL A   1      38.818  31.669  29.315  1.00  0.00    -0.248 NA
ATOM     41  C   UNL A   1      37.413  29.916  28.841  1.00  0.00     0.031 C 
ATOM     42  C   UNL A   1      40.801  30.962  31.579  1.00  0.00     0.029 A 
ATOM     43  N   UNL A   1      41.962  29.189  30.814  1.00  0.00    -0.354 N 
ATOM     44  C   UNL A   1      37.558  32.192  29.125  1.00  0.00     0.074 A 
ATOM     45  C   UNL A   1      36.738  31.070  28.728  1.00  0.00     0.031 C 
ATOM     46  C   UNL A   1      42.090  31.112  31.947  1.00  0.00     0.029 A 
ATOM     47  C   UNL A   1      42.887  30.160  31.175  1.00  0.00     0.049 A 
ATOM     48  H   UNL A   1      42.145  28.233  30.673  1.00  0.00     0.167 HD
ATOM     49  C   UNL A   1      37.311  33.478  29.513  1.00  0.00     0.037 A 
ATOM     50  C   UNL A   1      43.891  30.471  30.305  1.00  0.00     0.037 A 
ATOM     51  C   UNL A   1      38.522  34.082  30.058  1.00  0.00     0.049 A 
ATOM     52  C   UNL A   1      43.813  31.912  29.878  1.00  0.00     0.074 A 
ATOM     53  C   UNL A   1      38.999  34.124  31.359  1.00  0.00     0.029 A 
ATOM     54  N   UNL A   1      39.599  34.377  29.229  1.00  0.00    -0.354 N 
ATOM     55  N   UNL A   1      42.698  32.581  29.774  1.00  0.00    -0.248 NA
ATOM     56  C   UNL A   1      44.991  32.709  29.563  1.00  0.00     0.031 C 
ATOM     57  C   UNL A   1      40.387  34.374  31.309  1.00  0.00     0.029 A 
ATOM     58  C   UNL A   1      40.751  34.513  29.982  1.00  0.00     0.049 A 
ATOM     59  H   UNL A   1      39.548  34.472  28.251  1.00  0.00     0.167 HD
ATOM     60  C   UNL A   1      42.988  33.881  29.456  1.00  0.00     0.074 A 
ATOM     61  C   UNL A   1      44.434  33.907  29.319  1.00  0.00     0.031 C 
ATOM     62  C   UNL A   1      42.024  34.842  29.364  1.00  0.00     0.037 A 
BRANCH  49  63
ATOM     63  C   UNL A   1      35.923  34.019  29.762  1.00  0.00     0.057 A 
ATOM     64  C   UNL A   1      35.098  34.419  28.689  1.00  0.00     0.134 A 
ATOM     65  C   UNL A   1      35.361  34.214  31.033  1.00  0.00     0.134 A 
ATOM     66  F   UNL A   1      35.450  34.224  27.412  1.00  0.00    -0.206 F 
ATOM     67  C   UNL A   1      33.865  35.058  28.865  1.00  0.00     0.040 A 
ATOM     68  C   UNL A   1      34.136  34.876  31.227  1.00  0.00     0.040 A 
ATOM     69  F   UNL A   1      35.967  33.751  32.136  1.00  0.00    -0.206 F 
ATOM     70  C   UNL A   1      33.391  35.317  30.140  1.00  0.00     0.006 A 
ENDBRANCH  49  63
BRANCH  50  71
ATOM     71  C   UNL A   1      44.374  29.362  29.420  1.00  0.00     0.057 A 
ATOM     72  C   UNL A   1      45.120  28.298  29.972  1.00  0.00     0.134 A 
ATOM     73  C   UNL A   1      43.967  29.204  28.091  1.00  0.00     0.134 A 
ATOM     74  F   UNL A   1      45.561  28.368  31.239  1.00  0.00    -0.206 F 
ATOM     75  C   UNL A   1      45.373  27.114  29.271  1.00  0.00     0.040 A 
ATOM     76  C   UNL A   1      44.232  28.028  27.370  1.00  0.00     0.040 A 
ATOM     77  F   UNL A   1      43.255  30.156  27.474  1.00  0.00    -0.206 F 
ATOM     78  C   UNL A   1      44.914  26.970  27.968  1.00  0.00     0.006 A 
ENDBRANCH  50  71
BRANCH  62  79
ATOM     79  C   UNL A   1      42.218  36.236  28.832  1.00  0.00     0.057 A 
ATOM     80  C   UNL A   1      42.938  37.234  29.500  1.00  0.00     0.134 A 
ATOM     81  C   UNL A   1      41.793  36.571  27.526  1.00  0.00     0.134 A 
ATOM     82  F   UNL A   1      43.502  37.014  30.696  1.00  0.00    -0.206 F 
ATOM     83  C   UNL A   1      43.157  38.499  28.941  1.00  0.00     0.040 A 
ATOM     84  C   UNL A   1      42.059  37.807  26.936  1.00  0.00     0.040 A 
ATOM     85  F   UNL A   1      41.119  35.706  26.753  1.00  0.00    -0.206 F 
ATOM     86  C   UNL A   1      42.728  38.785  27.651  1.00  0.00     0.006 A 
ENDBRANCH  62  79
ENDBRANCH  36  37
ENDBRANCH  29  31
ENDBRANCH  28  29
ENDBRANCH  27  28
ENDBRANCH  26  27
ENDBRANCH   1  26
TORSDOF 17
ENDMDL
