MODEL 1
REMARK VINA RESULT:     -11.1      0.000      0.000
REMARK SMILES O=C(C[C@@H](c1ccccc1)[NH+]1CCCCC1)OCCOC(=O)c1ccc(-c2c3nc(c(-c4c(F)cccc4F)c4ccc([nH]4)c(-c4c(F)cccc4F)c4nc(c(-c5c(F)cccc5F)c5ccc2[nH]5)C=C4)C=C3)cc1
REMARK SMILES IDX 18 1 17 2 2 3 1 4 3 5 4 6 5 7 6 8 10 9 7 10 9 11 8 12 11 13
REMARK SMILES IDX 12 14 16 15 13 17 15 18 14 19 19 20 20 21 21 22 22 23 23 24
REMARK SMILES IDX 24 25 76 26 25 27 75 28 26 29 27 30 28 31 69 32 29 33 74 34
REMARK SMILES IDX 68 35 70 36 30 37 73 38 67 39 66 40 31 42 57 43 40 44 56 45
REMARK SMILES IDX 41 46 44 47 55 48 71 49 42 50 43 51 54 53 72 54 45 55 32 56
REMARK SMILES IDX 33 57 38 58 34 59 35 60 37 61 39 62 36 63 58 64 59 65 64 66
REMARK SMILES IDX 60 67 61 68 63 69 65 70 62 71 46 72 47 73 52 74 48 75 49 76
REMARK SMILES IDX 51 77 53 78 50 79
REMARK H PARENT 11 16 70 41 44 52
REMARK Flexibility Score: inf
ROOT
ATOM      1  C   UNL A   1      36.334  20.672  25.016  1.00  0.00     0.274 C 
ENDROOT
BRANCH   1   2
ATOM      2  O   UNL A   1      36.239  22.013  25.555  1.00  0.00    -0.462 OA
BRANCH   2   3
ATOM      3  C   UNL A   1      36.058  23.135  24.813  1.00  0.00     0.312 C 
ATOM      4  O   UNL A   1      36.469  23.187  23.655  1.00  0.00    -0.252 OA
BRANCH   3   5
ATOM      5  C   UNL A   1      35.378  24.320  25.442  1.00  0.00     0.192 C 
BRANCH   5   6
ATOM      6  C   UNL A   1      33.846  24.253  25.696  1.00  0.00     0.226 C 
BRANCH   6   7
ATOM      7  C   UNL A   1      33.219  25.660  25.902  1.00  0.00     0.010 A 
ATOM      8  C   UNL A   1      33.887  26.890  25.905  1.00  0.00     0.010 A 
ATOM      9  C   UNL A   1      31.829  25.753  26.137  1.00  0.00     0.010 A 
ATOM     10  C   UNL A   1      33.297  28.069  26.379  1.00  0.00     0.001 A 
ATOM     11  C   UNL A   1      31.226  26.919  26.632  1.00  0.00     0.001 A 
ATOM     12  C   UNL A   1      31.978  28.069  26.803  1.00  0.00     0.000 A 
ENDBRANCH   6   7
BRANCH   6  13
ATOM     13  N   UNL A   1      33.442  23.349  24.570  1.00  0.00    -0.328 N 
ATOM     14  C   UNL A   1      32.741  22.133  24.996  1.00  0.00     0.262 C 
ATOM     15  C   UNL A   1      33.034  23.860  23.278  1.00  0.00     0.262 C 
ATOM     16  H   UNL A   1      34.390  23.106  24.285  1.00  0.00     0.348 HD
ATOM     17  C   UNL A   1      32.657  21.068  23.891  1.00  0.00     0.062 C 
ATOM     18  C   UNL A   1      32.980  22.809  22.171  1.00  0.00     0.062 C 
ATOM     19  C   UNL A   1      32.107  21.643  22.594  1.00  0.00     0.012 C 
ENDBRANCH   6  13
ENDBRANCH   5   6
ENDBRANCH   3   5
ENDBRANCH   2   3
ENDBRANCH   1   2
BRANCH   1  20
ATOM     20  C   UNL A   1      37.767  20.145  25.017  1.00  0.00     0.275 C 
BRANCH  20  21
ATOM     21  O   UNL A   1      38.688  21.226  25.218  1.00  0.00    -0.458 OA
BRANCH  21  22
ATOM     22  C   UNL A   1      39.659  20.966  26.128  1.00  0.00     0.338 C 
ATOM     23  O   UNL A   1      40.275  19.928  26.260  1.00  0.00    -0.246 OA
BRANCH  22  24
ATOM     24  C   UNL A   1      39.983  22.200  26.874  1.00  0.00     0.060 A 
ATOM     25  C   UNL A   1      39.226  23.343  26.584  1.00  0.00     0.016 A 
ATOM     26  C   UNL A   1      41.028  22.258  27.801  1.00  0.00     0.016 A 
ATOM     27  C   UNL A   1      39.585  24.569  27.132  1.00  0.00     0.010 A 
ATOM     28  C   UNL A   1      41.384  23.487  28.358  1.00  0.00     0.010 A 
ATOM     29  C   UNL A   1      40.707  24.655  27.968  1.00  0.00    -0.014 A 
BRANCH  29  30
ATOM     30  C   UNL A   1      41.316  25.982  28.212  1.00  0.00     0.031 A 
ATOM     31  C   UNL A   1      42.694  26.240  27.662  1.00  0.00     0.074 A 
ATOM     32  C   UNL A   1      40.647  26.949  28.859  1.00  0.00     0.049 A 
ATOM     33  N   UNL A   1      43.420  27.328  27.707  1.00  0.00    -0.248 NA
ATOM     34  C   UNL A   1      43.343  25.114  26.968  1.00  0.00     0.031 C 
ATOM     35  C   UNL A   1      39.298  26.825  29.407  1.00  0.00     0.029 A 
ATOM     36  N   UNL A   1      41.017  28.235  29.155  1.00  0.00    -0.354 N 
ATOM     37  C   UNL A   1      44.607  27.013  27.057  1.00  0.00     0.074 A 
ATOM     38  C   UNL A   1      44.526  25.624  26.667  1.00  0.00     0.031 C 
ATOM     39  C   UNL A   1      38.950  27.995  29.970  1.00  0.00     0.029 A 
ATOM     40  C   UNL A   1      40.058  28.940  29.836  1.00  0.00     0.049 A 
ATOM     41  H   UNL A   1      41.889  28.616  28.902  1.00  0.00     0.167 HD
ATOM     42  C   UNL A   1      45.667  27.814  26.793  1.00  0.00     0.037 A 
ATOM     43  C   UNL A   1      40.079  30.206  30.295  1.00  0.00     0.037 A 
ATOM     44  C   UNL A   1      45.742  29.197  27.180  1.00  0.00     0.049 A 
ATOM     45  C   UNL A   1      41.291  31.062  30.038  1.00  0.00     0.074 A 
ATOM     46  C   UNL A   1      46.756  30.107  26.943  1.00  0.00     0.029 A 
ATOM     47  N   UNL A   1      44.761  29.867  27.898  1.00  0.00    -0.354 N 
ATOM     48  N   UNL A   1      42.392  30.772  29.385  1.00  0.00    -0.248 NA
ATOM     49  C   UNL A   1      41.256  32.431  30.571  1.00  0.00     0.031 C 
ATOM     50  C   UNL A   1      46.416  31.311  27.569  1.00  0.00     0.029 A 
ATOM     51  C   UNL A   1      45.159  31.171  28.136  1.00  0.00     0.049 A 
ATOM     52  H   UNL A   1      43.909  29.473  28.193  1.00  0.00     0.167 HD
ATOM     53  C   UNL A   1      43.157  31.933  29.388  1.00  0.00     0.074 A 
ATOM     54  C   UNL A   1      42.392  32.932  30.106  1.00  0.00     0.031 C 
ATOM     55  C   UNL A   1      44.377  32.158  28.839  1.00  0.00     0.037 A 
BRANCH  42  56
ATOM     56  C   UNL A   1      46.837  27.197  26.082  1.00  0.00     0.057 A 
ATOM     57  C   UNL A   1      47.837  26.489  26.764  1.00  0.00     0.134 A 
ATOM     58  C   UNL A   1      46.966  27.314  24.693  1.00  0.00     0.134 A 
ATOM     59  F   UNL A   1      47.785  26.354  28.099  1.00  0.00    -0.206 F 
ATOM     60  C   UNL A   1      48.938  25.951  26.096  1.00  0.00     0.040 A 
ATOM     61  C   UNL A   1      48.045  26.753  24.008  1.00  0.00     0.040 A 
ATOM     62  F   UNL A   1      46.046  27.976  23.976  1.00  0.00    -0.206 F 
ATOM     63  C   UNL A   1      49.041  26.077  24.711  1.00  0.00     0.006 A 
ENDBRANCH  42  56
BRANCH  43  64
ATOM     64  C   UNL A   1      38.906  30.754  31.022  1.00  0.00     0.057 A 
ATOM     65  C   UNL A   1      38.763  30.577  32.404  1.00  0.00     0.134 A 
ATOM     66  C   UNL A   1      37.889  31.445  30.353  1.00  0.00     0.134 A 
ATOM     67  F   UNL A   1      39.695  29.905  33.098  1.00  0.00    -0.206 F 
ATOM     68  C   UNL A   1      37.642  31.046  33.090  1.00  0.00     0.040 A 
ATOM     69  C   UNL A   1      36.775  31.942  31.031  1.00  0.00     0.040 A 
ATOM     70  F   UNL A   1      37.966  31.651  29.030  1.00  0.00    -0.206 F 
ATOM     71  C   UNL A   1      36.645  31.735  32.403  1.00  0.00     0.006 A 
ENDBRANCH  43  64
BRANCH  55  72
ATOM     72  C   UNL A   1      44.932  33.551  28.934  1.00  0.00     0.057 A 
ATOM     73  C   UNL A   1      45.768  33.955  29.983  1.00  0.00     0.134 A 
ATOM     74  C   UNL A   1      44.645  34.494  27.938  1.00  0.00     0.134 A 
ATOM     75  F   UNL A   1      46.076  33.105  30.973  1.00  0.00    -0.206 F 
ATOM     76  C   UNL A   1      46.270  35.256  30.055  1.00  0.00     0.040 A 
ATOM     77  C   UNL A   1      45.167  35.787  27.982  1.00  0.00     0.040 A 
ATOM     78  F   UNL A   1      43.862  34.172  26.897  1.00  0.00    -0.206 F 
ATOM     79  C   UNL A   1      45.974  36.174  29.050  1.00  0.00     0.006 A 
ENDBRANCH  55  72
ENDBRANCH  29  30
ENDBRANCH  22  24
ENDBRANCH  21  22
ENDBRANCH  20  21
ENDBRANCH   1  20
TORSDOF 14
ENDMDL
MODEL 2
REMARK VINA RESULT:     -10.9      5.378     10.576
REMARK SMILES O=C(C[C@@H](c1ccccc1)[NH+]1CCCCC1)OCCOC(=O)c1ccc(-c2c3nc(c(-c4c(F)cccc4F)c4ccc([nH]4)c(-c4c(F)cccc4F)c4nc(c(-c5c(F)cccc5F)c5ccc2[nH]5)C=C4)C=C3)cc1
REMARK SMILES IDX 18 1 17 2 2 3 1 4 3 5 4 6 5 7 6 8 10 9 7 10 9 11 8 12 11 13
REMARK SMILES IDX 12 14 16 15 13 17 15 18 14 19 19 20 20 21 21 22 22 23 23 24
REMARK SMILES IDX 24 25 76 26 25 27 75 28 26 29 27 30 28 31 69 32 29 33 74 34
REMARK SMILES IDX 68 35 70 36 30 37 73 38 67 39 66 40 31 42 57 43 40 44 56 45
REMARK SMILES IDX 41 46 44 47 55 48 71 49 42 50 43 51 54 53 72 54 45 55 32 56
REMARK SMILES IDX 33 57 38 58 34 59 35 60 37 61 39 62 36 63 58 64 59 65 64 66
REMARK SMILES IDX 60 67 61 68 63 69 65 70 62 71 46 72 47 73 52 74 48 75 49 76
REMARK SMILES IDX 51 77 53 78 50 79
REMARK H PARENT 11 16 70 41 44 52
REMARK Flexibility Score: inf
ROOT
ATOM      1  C   UNL A   1      34.076  34.241  30.872  1.00  0.00     0.274 C 
ENDROOT
BRANCH   1   2
ATOM      2  O   UNL A   1      33.981  33.258  31.932  1.00  0.00    -0.462 OA
BRANCH   2   3
ATOM      3  C   UNL A   1      34.857  33.143  32.963  1.00  0.00     0.312 C 
ATOM      4  O   UNL A   1      34.488  33.344  34.118  1.00  0.00    -0.252 OA
BRANCH   3   5
ATOM      5  C   UNL A   1      36.291  32.801  32.661  1.00  0.00     0.192 C 
BRANCH   5   6
ATOM      6  C   UNL A   1      37.415  33.623  33.352  1.00  0.00     0.226 C 
BRANCH   6   7
ATOM      7  C   UNL A   1      37.823  33.027  34.727  1.00  0.00     0.010 A 
ATOM      8  C   UNL A   1      37.970  31.673  35.050  1.00  0.00     0.010 A 
ATOM      9  C   UNL A   1      38.060  33.911  35.804  1.00  0.00     0.010 A 
ATOM     10  C   UNL A   1      38.058  31.218  36.373  1.00  0.00     0.001 A 
ATOM     11  C   UNL A   1      38.129  33.473  37.135  1.00  0.00     0.001 A 
ATOM     12  C   UNL A   1      38.075  32.120  37.423  1.00  0.00     0.000 A 
ENDBRANCH   6   7
BRANCH   6  13
ATOM     13  N   UNL A   1      38.379  33.745  32.209  1.00  0.00    -0.328 N 
ATOM     14  C   UNL A   1      37.742  33.850  30.892  1.00  0.00     0.262 C 
ATOM     15  C   UNL A   1      39.635  34.455  32.331  1.00  0.00     0.262 C 
ATOM     16  H   UNL A   1      38.782  32.813  32.312  1.00  0.00     0.348 HD
ATOM     17  C   UNL A   1      38.719  33.614  29.730  1.00  0.00     0.062 C 
ATOM     18  C   UNL A   1      40.620  34.196  31.193  1.00  0.00     0.062 C 
ATOM     19  C   UNL A   1      39.964  34.480  29.855  1.00  0.00     0.012 C 
ENDBRANCH   6  13
ENDBRANCH   5   6
ENDBRANCH   3   5
ENDBRANCH   2   3
ENDBRANCH   1   2
BRANCH   1  20
ATOM     20  C   UNL A   1      34.338  33.605  29.510  1.00  0.00     0.275 C 
BRANCH  20  21
ATOM     21  O   UNL A   1      34.598  32.202  29.664  1.00  0.00    -0.458 OA
BRANCH  21  22
ATOM     22  C   UNL A   1      34.754  31.535  28.493  1.00  0.00     0.338 C 
ATOM     23  O   UNL A   1      34.145  31.723  27.461  1.00  0.00    -0.246 OA
BRANCH  22  24
ATOM     24  C   UNL A   1      35.904  30.612  28.599  1.00  0.00     0.060 A 
ATOM     25  C   UNL A   1      35.964  29.788  29.729  1.00  0.00     0.016 A 
ATOM     26  C   UNL A   1      36.925  30.582  27.644  1.00  0.00     0.016 A 
ATOM     27  C   UNL A   1      37.097  29.016  29.966  1.00  0.00     0.010 A 
ATOM     28  C   UNL A   1      38.058  29.802  27.876  1.00  0.00     0.010 A 
ATOM     29  C   UNL A   1      38.175  29.075  29.072  1.00  0.00    -0.014 A 
BRANCH  29  30
ATOM     30  C   UNL A   1      39.501  28.591  29.520  1.00  0.00     0.031 A 
ATOM     31  C   UNL A   1      40.134  29.263  30.710  1.00  0.00     0.074 A 
ATOM     32  C   UNL A   1      40.103  27.552  28.921  1.00  0.00     0.049 A 
ATOM     33  N   UNL A   1      41.263  28.997  31.315  1.00  0.00    -0.248 NA
ATOM     34  C   UNL A   1      39.392  30.394  31.294  1.00  0.00     0.031 C 
ATOM     35  C   UNL A   1      39.572  26.805  27.784  1.00  0.00     0.029 A 
ATOM     36  N   UNL A   1      41.299  26.942  29.200  1.00  0.00    -0.354 N 
ATOM     37  C   UNL A   1      41.367  29.928  32.341  1.00  0.00     0.074 A 
ATOM     38  C   UNL A   1      40.214  30.794  32.251  1.00  0.00     0.031 C 
ATOM     39  C   UNL A   1      40.438  25.827  27.464  1.00  0.00     0.029 A 
ATOM     40  C   UNL A   1      41.590  25.895  28.364  1.00  0.00     0.049 A 
ATOM     41  H   UNL A   1      41.891  27.228  29.932  1.00  0.00     0.167 HD
ATOM     42  C   UNL A   1      42.330  30.043  33.286  1.00  0.00     0.037 A 
ATOM     43  C   UNL A   1      42.666  25.087  28.333  1.00  0.00     0.037 A 
ATOM     44  C   UNL A   1      43.475  29.177  33.374  1.00  0.00     0.049 A 
ATOM     45  C   UNL A   1      43.752  25.268  29.361  1.00  0.00     0.074 A 
ATOM     46  C   UNL A   1      44.498  29.188  34.304  1.00  0.00     0.029 A 
ATOM     47  N   UNL A   1      43.751  28.146  32.486  1.00  0.00    -0.354 N 
ATOM     48  N   UNL A   1      43.823  26.122  30.355  1.00  0.00    -0.248 NA
ATOM     49  C   UNL A   1      44.904  24.360  29.270  1.00  0.00     0.031 C 
ATOM     50  C   UNL A   1      45.424  28.203  33.946  1.00  0.00     0.029 A 
ATOM     51  C   UNL A   1      44.942  27.533  32.832  1.00  0.00     0.049 A 
ATOM     52  H   UNL A   1      43.183  27.889  31.725  1.00  0.00     0.167 HD
ATOM     53  C   UNL A   1      45.000  25.824  31.034  1.00  0.00     0.074 A 
ATOM     54  C   UNL A   1      45.608  24.707  30.339  1.00  0.00     0.031 C 
ATOM     55  C   UNL A   1      45.526  26.411  32.138  1.00  0.00     0.037 A 
BRANCH  42  56
ATOM     56  C   UNL A   1      42.196  31.167  34.274  1.00  0.00     0.057 A 
ATOM     57  C   UNL A   1      42.618  32.472  33.981  1.00  0.00     0.134 A 
ATOM     58  C   UNL A   1      41.637  30.940  35.537  1.00  0.00     0.134 A 
ATOM     59  F   UNL A   1      43.178  32.756  32.795  1.00  0.00    -0.206 F 
ATOM     60  C   UNL A   1      42.520  33.500  34.920  1.00  0.00     0.040 A 
ATOM     61  C   UNL A   1      41.504  31.966  36.473  1.00  0.00     0.040 A 
ATOM     62  F   UNL A   1      41.211  29.717  35.883  1.00  0.00    -0.206 F 
ATOM     63  C   UNL A   1      41.955  33.249  36.170  1.00  0.00     0.006 A 
ENDBRANCH  42  56
BRANCH  43  64
ATOM     64  C   UNL A   1      42.763  24.012  27.313  1.00  0.00     0.057 A 
ATOM     65  C   UNL A   1      43.305  24.263  26.046  1.00  0.00     0.134 A 
ATOM     66  C   UNL A   1      42.294  22.718  27.567  1.00  0.00     0.134 A 
ATOM     67  F   UNL A   1      43.752  25.489  25.735  1.00  0.00    -0.206 F 
ATOM     68  C   UNL A   1      43.357  23.274  25.063  1.00  0.00     0.040 A 
ATOM     69  C   UNL A   1      42.363  21.712  26.603  1.00  0.00     0.040 A 
ATOM     70  F   UNL A   1      41.765  22.411  28.762  1.00  0.00    -0.206 F 
ATOM     71  C   UNL A   1      42.889  21.991  25.342  1.00  0.00     0.006 A 
ENDBRANCH  43  64
BRANCH  55  72
ATOM     72  C   UNL A   1      46.786  25.819  32.702  1.00  0.00     0.057 A 
ATOM     73  C   UNL A   1      46.772  24.833  33.695  1.00  0.00     0.134 A 
ATOM     74  C   UNL A   1      48.036  26.226  32.215  1.00  0.00     0.134 A 
ATOM     75  F   UNL A   1      45.611  24.403  34.211  1.00  0.00    -0.206 F 
ATOM     76  C   UNL A   1      47.956  24.298  34.209  1.00  0.00     0.040 A 
ATOM     77  C   UNL A   1      49.224  25.676  32.697  1.00  0.00     0.040 A 
ATOM     78  F   UNL A   1      48.124  27.157  31.253  1.00  0.00    -0.206 F 
ATOM     79  C   UNL A   1      49.186  24.715  33.705  1.00  0.00     0.006 A 
ENDBRANCH  55  72
ENDBRANCH  29  30
ENDBRANCH  22  24
ENDBRANCH  21  22
ENDBRANCH  20  21
ENDBRANCH   1  20
TORSDOF 14
ENDMDL
MODEL 3
REMARK VINA RESULT:     -10.9      4.496      9.212
REMARK SMILES O=C(C[C@@H](c1ccccc1)[NH+]1CCCCC1)OCCOC(=O)c1ccc(-c2c3nc(c(-c4c(F)cccc4F)c4ccc([nH]4)c(-c4c(F)cccc4F)c4nc(c(-c5c(F)cccc5F)c5ccc2[nH]5)C=C4)C=C3)cc1
REMARK SMILES IDX 18 1 17 2 2 3 1 4 3 5 4 6 5 7 6 8 10 9 7 10 9 11 8 12 11 13
REMARK SMILES IDX 12 14 16 15 13 17 15 18 14 19 19 20 20 21 21 22 22 23 23 24
REMARK SMILES IDX 24 25 76 26 25 27 75 28 26 29 27 30 28 31 69 32 29 33 74 34
REMARK SMILES IDX 68 35 70 36 30 37 73 38 67 39 66 40 31 42 57 43 40 44 56 45
REMARK SMILES IDX 41 46 44 47 55 48 71 49 42 50 43 51 54 53 72 54 45 55 32 56
REMARK SMILES IDX 33 57 38 58 34 59 35 60 37 61 39 62 36 63 58 64 59 65 64 66
REMARK SMILES IDX 60 67 61 68 63 69 65 70 62 71 46 72 47 73 52 74 48 75 49 76
REMARK SMILES IDX 51 77 53 78 50 79
REMARK H PARENT 11 16 70 41 44 52
REMARK Flexibility Score: inf
ROOT
ATOM      1  C   UNL A   1      30.955  31.230  25.755  1.00  0.00     0.274 C 
ENDROOT
BRANCH   1   2
ATOM      2  O   UNL A   1      31.947  30.204  25.506  1.00  0.00    -0.462 OA
BRANCH   2   3
ATOM      3  C   UNL A   1      31.788  28.887  25.793  1.00  0.00     0.312 C 
ATOM      4  O   UNL A   1      31.612  28.521  26.954  1.00  0.00    -0.252 OA
BRANCH   3   5
ATOM      5  C   UNL A   1      31.864  27.886  24.673  1.00  0.00     0.192 C 
BRANCH   5   6
ATOM      6  C   UNL A   1      30.545  27.256  24.145  1.00  0.00     0.226 C 
BRANCH   6   7
ATOM      7  C   UNL A   1      29.740  28.236  23.248  1.00  0.00     0.010 A 
ATOM      8  C   UNL A   1      30.257  29.216  22.393  1.00  0.00     0.010 A 
ATOM      9  C   UNL A   1      28.328  28.182  23.284  1.00  0.00     0.010 A 
ATOM     10  C   UNL A   1      29.465  30.236  21.847  1.00  0.00     0.001 A 
ATOM     11  C   UNL A   1      27.523  29.205  22.761  1.00  0.00     0.001 A 
ATOM     12  C   UNL A   1      28.101  30.265  22.083  1.00  0.00     0.000 A 
ENDBRANCH   6   7
BRANCH   6  13
ATOM     13  N   UNL A   1      31.075  25.949  23.635  1.00  0.00    -0.328 N 
ATOM     14  C   UNL A   1      32.457  26.007  23.148  1.00  0.00     0.262 C 
ATOM     15  C   UNL A   1      30.694  24.680  24.220  1.00  0.00     0.262 C 
ATOM     16  H   UNL A   1      30.442  25.882  22.837  1.00  0.00     0.348 HD
ATOM     17  C   UNL A   1      32.855  24.779  22.315  1.00  0.00     0.062 C 
ATOM     18  C   UNL A   1      31.060  23.460  23.378  1.00  0.00     0.062 C 
ATOM     19  C   UNL A   1      32.538  23.479  23.039  1.00  0.00     0.012 C 
ENDBRANCH   6  13
ENDBRANCH   5   6
ENDBRANCH   3   5
ENDBRANCH   2   3
ENDBRANCH   1   2
BRANCH   1  20
ATOM     20  C   UNL A   1      31.520  32.408  26.545  1.00  0.00     0.275 C 
BRANCH  20  21
ATOM     21  O   UNL A   1      32.582  31.961  27.400  1.00  0.00    -0.458 OA
BRANCH  21  22
ATOM     22  C   UNL A   1      33.420  32.948  27.805  1.00  0.00     0.338 C 
ATOM     23  O   UNL A   1      33.120  34.091  28.083  1.00  0.00    -0.246 OA
BRANCH  22  24
ATOM     24  C   UNL A   1      34.776  32.394  28.007  1.00  0.00     0.060 A 
ATOM     25  C   UNL A   1      34.902  31.000  28.031  1.00  0.00     0.016 A 
ATOM     26  C   UNL A   1      35.891  33.212  28.215  1.00  0.00     0.016 A 
ATOM     27  C   UNL A   1      36.118  30.420  28.376  1.00  0.00     0.010 A 
ATOM     28  C   UNL A   1      37.114  32.630  28.553  1.00  0.00     0.010 A 
ATOM     29  C   UNL A   1      37.209  31.236  28.704  1.00  0.00    -0.014 A 
BRANCH  29  30
ATOM     30  C   UNL A   1      38.346  30.647  29.447  1.00  0.00     0.031 A 
ATOM     31  C   UNL A   1      38.517  31.026  30.895  1.00  0.00     0.074 A 
ATOM     32  C   UNL A   1      39.172  29.760  28.870  1.00  0.00     0.049 A 
ATOM     33  N   UNL A   1      39.404  30.615  31.765  1.00  0.00    -0.248 NA
ATOM     34  C   UNL A   1      37.558  32.007  31.433  1.00  0.00     0.031 C 
ATOM     35  C   UNL A   1      39.084  29.295  27.488  1.00  0.00     0.029 A 
ATOM     36  N   UNL A   1      40.248  29.087  29.389  1.00  0.00    -0.354 N 
ATOM     37  C   UNL A   1      39.112  31.290  32.944  1.00  0.00     0.074 A 
ATOM     38  C   UNL A   1      38.000  32.171  32.669  1.00  0.00     0.031 C 
ATOM     39  C   UNL A   1      40.065  28.403  27.269  1.00  0.00     0.029 A 
ATOM     40  C   UNL A   1      40.857  28.251  28.489  1.00  0.00     0.049 A 
ATOM     41  H   UNL A   1      40.553  29.194  30.319  1.00  0.00     0.167 HD
ATOM     42  C   UNL A   1      39.708  31.177  34.155  1.00  0.00     0.037 A 
ATOM     43  C   UNL A   1      41.933  27.456  28.641  1.00  0.00     0.037 A 
ATOM     44  C   UNL A   1      40.814  30.298  34.424  1.00  0.00     0.049 A 
ATOM     45  C   UNL A   1      42.615  27.387  29.982  1.00  0.00     0.074 A 
ATOM     46  C   UNL A   1      41.478  30.086  35.619  1.00  0.00     0.029 A 
ATOM     47  N   UNL A   1      41.425  29.489  33.477  1.00  0.00    -0.354 N 
ATOM     48  N   UNL A   1      42.308  27.995  31.103  1.00  0.00    -0.248 NA
ATOM     49  C   UNL A   1      43.787  26.507  30.081  1.00  0.00     0.031 C 
ATOM     50  C   UNL A   1      42.529  29.194  35.381  1.00  0.00     0.029 A 
ATOM     51  C   UNL A   1      42.476  28.798  34.054  1.00  0.00     0.049 A 
ATOM     52  H   UNL A   1      41.151  29.418  32.534  1.00  0.00     0.167 HD
ATOM     53  C   UNL A   1      43.217  27.535  32.050  1.00  0.00     0.074 A 
ATOM     54  C   UNL A   1      44.085  26.596  31.370  1.00  0.00     0.031 C 
ATOM     55  C   UNL A   1      43.320  27.853  33.365  1.00  0.00     0.037 A 
BRANCH  42  56
ATOM     56  C   UNL A   1      39.193  32.053  35.261  1.00  0.00     0.057 A 
ATOM     57  C   UNL A   1      38.286  31.585  36.223  1.00  0.00     0.134 A 
ATOM     58  C   UNL A   1      39.612  33.384  35.366  1.00  0.00     0.134 A 
ATOM     59  F   UNL A   1      37.830  30.324  36.172  1.00  0.00    -0.206 F 
ATOM     60  C   UNL A   1      37.789  32.419  37.226  1.00  0.00     0.040 A 
ATOM     61  C   UNL A   1      39.147  34.220  36.383  1.00  0.00     0.040 A 
ATOM     62  F   UNL A   1      40.480  33.898  34.482  1.00  0.00    -0.206 F 
ATOM     63  C   UNL A   1      38.225  33.741  37.311  1.00  0.00     0.006 A 
ENDBRANCH  42  56
BRANCH  43  64
ATOM     64  C   UNL A   1      42.421  26.637  27.502  1.00  0.00     0.057 A 
ATOM     65  C   UNL A   1      43.310  27.165  26.558  1.00  0.00     0.134 A 
ATOM     66  C   UNL A   1      41.992  25.317  27.314  1.00  0.00     0.134 A 
ATOM     67  F   UNL A   1      43.740  28.430  26.672  1.00  0.00    -0.206 F 
ATOM     68  C   UNL A   1      43.737  26.420  25.458  1.00  0.00     0.040 A 
ATOM     69  C   UNL A   1      42.431  24.552  26.233  1.00  0.00     0.040 A 
ATOM     70  F   UNL A   1      41.142  24.750  28.184  1.00  0.00    -0.206 F 
ATOM     71  C   UNL A   1      43.301  25.107  25.295  1.00  0.00     0.006 A 
ENDBRANCH  43  64
BRANCH  55  72
ATOM     72  C   UNL A   1      44.364  27.132  34.170  1.00  0.00     0.057 A 
ATOM     73  C   UNL A   1      45.655  27.642  34.353  1.00  0.00     0.134 A 
ATOM     74  C   UNL A   1      44.056  25.918  34.799  1.00  0.00     0.134 A 
ATOM     75  F   UNL A   1      46.019  28.796  33.773  1.00  0.00    -0.206 F 
ATOM     76  C   UNL A   1      46.612  26.955  35.102  1.00  0.00     0.040 A 
ATOM     77  C   UNL A   1      44.994  25.237  35.577  1.00  0.00     0.040 A 
ATOM     78  F   UNL A   1      42.834  25.377  34.679  1.00  0.00    -0.206 F 
ATOM     79  C   UNL A   1      46.280  25.752  35.721  1.00  0.00     0.006 A 
ENDBRANCH  55  72
ENDBRANCH  29  30
ENDBRANCH  22  24
ENDBRANCH  21  22
ENDBRANCH  20  21
ENDBRANCH   1  20
TORSDOF 14
ENDMDL
