MODEL 1
REMARK VINA RESULT:     -11.2      0.000      0.000
REMARK SMILES C[C@@H]1[C@@H](C(=O)OCCOC(=O)c2ccc(-c3c4nc(c(-c5c(F)cccc5F)c5ccc([nH]5)c(-c5c(F)cccc5F)c5nc(c(-c6c(F)cccc6F)c6ccc3[nH]6)C=C5)C=C4)cc2)CCN1C(=O)N1CCC[C@H]2CCC[C@@H]21
REMARK SMILES IDX 7 1 6 2 4 3 5 4 3 5 1 6 2 7 68 8 66 9 67 10 69 11 70 12
REMARK SMILES IDX 71 13 72 14 79 15 73 16 75 17 78 18 74 19 76 20 77 21 8 22
REMARK SMILES IDX 9 23 10 24 11 25 12 26 13 27 65 28 14 29 64 30 15 31 16 32
REMARK SMILES IDX 17 33 58 34 18 35 63 36 57 37 59 38 19 39 62 40 56 41 55 42
REMARK SMILES IDX 20 44 46 45 29 46 45 47 30 48 33 49 44 50 60 51 31 52 32 53
REMARK SMILES IDX 43 55 61 56 34 57 21 58 22 59 27 60 23 61 24 62 26 63 28 64
REMARK SMILES IDX 25 65 47 66 48 67 53 68 49 69 50 70 52 71 54 72 51 73 35 74
REMARK SMILES IDX 36 75 41 76 37 77 38 78 40 79 42 80 39 81
REMARK H PARENT 59 43 33 54
REMARK Flexibility Score: inf
ROOT
ATOM      1  C   UNL A   1      32.365  29.019  27.158  1.00  0.00     0.274 C 
ENDROOT
BRANCH   1   2
ATOM      2  O   UNL A   1      31.856  28.520  25.907  1.00  0.00    -0.462 OA
BRANCH   2   3
ATOM      3  C   UNL A   1      31.428  27.224  25.907  1.00  0.00     0.311 C 
ATOM      4  O   UNL A   1      30.851  26.688  26.843  1.00  0.00    -0.252 OA
BRANCH   3   5
ATOM      5  C   UNL A   1      31.667  26.591  24.547  1.00  0.00     0.123 C 
ATOM      6  C   UNL A   1      31.280  24.427  23.334  1.00  0.00     0.032 C 
ATOM      7  C   UNL A   1      31.758  25.058  24.647  1.00  0.00     0.098 C 
ATOM      8  N   UNL A   1      33.181  24.808  24.909  1.00  0.00    -0.321 N 
ATOM      9  C   UNL A   1      33.017  26.969  23.939  1.00  0.00     0.039 C 
ATOM     10  C   UNL A   1      33.986  25.962  24.546  1.00  0.00     0.122 C 
BRANCH   8  11
ATOM     11  C   UNL A   1      33.710  23.910  25.828  1.00  0.00     0.320 C 
ATOM     12  O   UNL A   1      33.473  23.990  27.033  1.00  0.00    -0.248 OA
BRANCH  11  13
ATOM     13  N   UNL A   1      34.390  22.845  25.293  1.00  0.00    -0.321 N 
ATOM     14  C   UNL A   1      33.712  21.811  24.524  1.00  0.00     0.121 C 
ATOM     15  C   UNL A   1      35.822  22.877  25.087  1.00  0.00     0.090 C 
ATOM     16  C   UNL A   1      34.256  20.425  24.875  1.00  0.00     0.022 C 
ATOM     17  C   UNL A   1      36.375  21.563  25.641  1.00  0.00     0.012 C 
ATOM     18  C   UNL A   1      36.677  23.910  25.812  1.00  0.00     0.025 C 
ATOM     19  C   UNL A   1      35.794  20.381  24.866  1.00  0.00     0.007 C 
ATOM     20  C   UNL A   1      37.880  21.779  25.594  1.00  0.00     0.006 C 
ATOM     21  C   UNL A   1      38.071  23.278  25.853  1.00  0.00     0.002 C 
ENDBRANCH  11  13
ENDBRANCH   8  11
ENDBRANCH   3   5
ENDBRANCH   2   3
ENDBRANCH   1   2
BRANCH   1  22
ATOM     22  C   UNL A   1      33.608  29.898  26.968  1.00  0.00     0.275 C 
BRANCH  22  23
ATOM     23  O   UNL A   1      34.780  29.334  27.592  1.00  0.00    -0.458 OA
BRANCH  23  24
ATOM     24  C   UNL A   1      35.448  30.169  28.424  1.00  0.00     0.338 C 
ATOM     25  O   UNL A   1      34.966  31.039  29.130  1.00  0.00    -0.246 OA
BRANCH  24  26
ATOM     26  C   UNL A   1      36.873  29.788  28.500  1.00  0.00     0.060 A 
ATOM     27  C   UNL A   1      37.610  29.855  27.316  1.00  0.00     0.016 A 
ATOM     28  C   UNL A   1      37.475  29.324  29.675  1.00  0.00     0.016 A 
ATOM     29  C   UNL A   1      38.950  29.482  27.303  1.00  0.00     0.010 A 
ATOM     30  C   UNL A   1      38.820  28.924  29.655  1.00  0.00     0.010 A 
ATOM     31  C   UNL A   1      39.564  29.003  28.469  1.00  0.00    -0.014 A 
BRANCH  31  32
ATOM     32  C   UNL A   1      40.973  28.544  28.374  1.00  0.00     0.031 A 
ATOM     33  C   UNL A   1      41.265  27.146  27.927  1.00  0.00     0.074 A 
ATOM     34  C   UNL A   1      41.982  29.417  28.552  1.00  0.00     0.049 A 
ATOM     35  N   UNL A   1      42.421  26.586  27.681  1.00  0.00    -0.248 NA
ATOM     36  C   UNL A   1      40.109  26.257  27.750  1.00  0.00     0.031 C 
ATOM     37  C   UNL A   1      41.810  30.801  28.972  1.00  0.00     0.029 A 
ATOM     38  N   UNL A   1      43.331  29.301  28.323  1.00  0.00    -0.354 N 
ATOM     39  C   UNL A   1      42.139  25.261  27.386  1.00  0.00     0.074 A 
ATOM     40  C   UNL A   1      40.699  25.114  27.429  1.00  0.00     0.031 C 
ATOM     41  C   UNL A   1      42.980  31.447  28.832  1.00  0.00     0.029 A 
ATOM     42  C   UNL A   1      43.996  30.507  28.377  1.00  0.00     0.049 A 
ATOM     43  H   UNL A   1      43.777  28.444  28.138  1.00  0.00     0.167 HD
ATOM     44  C   UNL A   1      43.012  24.253  27.155  1.00  0.00     0.037 A 
ATOM     45  C   UNL A   1      45.273  30.811  28.069  1.00  0.00     0.037 A 
ATOM     46  C   UNL A   1      44.443  24.411  27.129  1.00  0.00     0.049 A 
ATOM     47  C   UNL A   1      46.216  29.685  27.737  1.00  0.00     0.074 A 
ATOM     48  C   UNL A   1      45.419  23.439  27.000  1.00  0.00     0.029 A 
ATOM     49  N   UNL A   1      45.102  25.627  27.228  1.00  0.00    -0.354 N 
ATOM     50  N   UNL A   1      45.950  28.417  27.539  1.00  0.00    -0.248 NA
ATOM     51  C   UNL A   1      47.645  30.023  27.653  1.00  0.00     0.031 C 
ATOM     52  C   UNL A   1      46.670  24.064  27.053  1.00  0.00     0.029 A 
ATOM     53  C   UNL A   1      46.472  25.430  27.168  1.00  0.00     0.049 A 
ATOM     54  H   UNL A   1      44.661  26.502  27.325  1.00  0.00     0.167 HD
ATOM     55  C   UNL A   1      47.180  27.799  27.350  1.00  0.00     0.074 A 
ATOM     56  C   UNL A   1      48.183  28.843  27.380  1.00  0.00     0.031 C 
ATOM     57  C   UNL A   1      47.456  26.480  27.212  1.00  0.00     0.037 A 
BRANCH  44  58
ATOM     58  C   UNL A   1      42.437  22.877  27.022  1.00  0.00     0.057 A 
ATOM     59  C   UNL A   1      42.302  22.236  25.785  1.00  0.00     0.134 A 
ATOM     60  C   UNL A   1      42.001  22.186  28.161  1.00  0.00     0.134 A 
ATOM     61  F   UNL A   1      42.675  22.855  24.655  1.00  0.00    -0.206 F 
ATOM     62  C   UNL A   1      41.736  20.963  25.685  1.00  0.00     0.040 A 
ATOM     63  C   UNL A   1      41.456  20.906  28.076  1.00  0.00     0.040 A 
ATOM     64  F   UNL A   1      42.098  22.749  29.376  1.00  0.00    -0.206 F 
ATOM     65  C   UNL A   1      41.316  20.293  26.834  1.00  0.00     0.006 A 
ENDBRANCH  44  58
BRANCH  45  66
ATOM     66  C   UNL A   1      45.760  32.220  28.062  1.00  0.00     0.057 A 
ATOM     67  C   UNL A   1      45.669  33.000  26.898  1.00  0.00     0.134 A 
ATOM     68  C   UNL A   1      46.366  32.811  29.176  1.00  0.00     0.134 A 
ATOM     69  F   UNL A   1      45.126  32.488  25.784  1.00  0.00    -0.206 F 
ATOM     70  C   UNL A   1      46.176  34.300  26.841  1.00  0.00     0.040 A 
ATOM     71  C   UNL A   1      46.845  34.122  29.144  1.00  0.00     0.040 A 
ATOM     72  F   UNL A   1      46.502  32.123  30.318  1.00  0.00    -0.206 F 
ATOM     73  C   UNL A   1      46.761  34.868  27.970  1.00  0.00     0.006 A 
ENDBRANCH  45  66
BRANCH  57  74
ATOM     74  C   UNL A   1      48.902  26.095  27.118  1.00  0.00     0.057 A 
ATOM     75  C   UNL A   1      49.557  26.020  25.881  1.00  0.00     0.134 A 
ATOM     76  C   UNL A   1      49.657  25.838  28.268  1.00  0.00     0.134 A 
ATOM     77  F   UNL A   1      48.886  26.246  24.741  1.00  0.00    -0.206 F 
ATOM     78  C   UNL A   1      50.907  25.681  25.790  1.00  0.00     0.040 A 
ATOM     79  C   UNL A   1      51.014  25.520  28.191  1.00  0.00     0.040 A 
ATOM     80  F   UNL A   1      49.091  25.900  29.482  1.00  0.00    -0.206 F 
ATOM     81  C   UNL A   1      51.641  25.436  26.949  1.00  0.00     0.006 A 
ENDBRANCH  57  74
ENDBRANCH  31  32
ENDBRANCH  24  26
ENDBRANCH  23  24
ENDBRANCH  22  23
ENDBRANCH   1  22
TORSDOF 13
ENDMDL
MODEL 2
REMARK VINA RESULT:     -11.0      1.090      1.971
REMARK SMILES C[C@@H]1[C@@H](C(=O)OCCOC(=O)c2ccc(-c3c4nc(c(-c5c(F)cccc5F)c5ccc([nH]5)c(-c5c(F)cccc5F)c5nc(c(-c6c(F)cccc6F)c6ccc3[nH]6)C=C5)C=C4)cc2)CCN1C(=O)N1CCC[C@H]2CCC[C@@H]21
REMARK SMILES IDX 7 1 6 2 4 3 5 4 3 5 1 6 2 7 68 8 66 9 67 10 69 11 70 12
REMARK SMILES IDX 71 13 72 14 79 15 73 16 75 17 78 18 74 19 76 20 77 21 8 22
REMARK SMILES IDX 9 23 10 24 11 25 12 26 13 27 65 28 14 29 64 30 15 31 16 32
REMARK SMILES IDX 17 33 58 34 18 35 63 36 57 37 59 38 19 39 62 40 56 41 55 42
REMARK SMILES IDX 20 44 46 45 29 46 45 47 30 48 33 49 44 50 60 51 31 52 32 53
REMARK SMILES IDX 43 55 61 56 34 57 21 58 22 59 27 60 23 61 24 62 26 63 28 64
REMARK SMILES IDX 25 65 47 66 48 67 53 68 49 69 50 70 52 71 54 72 51 73 35 74
REMARK SMILES IDX 36 75 41 76 37 77 38 78 40 79 42 80 39 81
REMARK H PARENT 59 43 33 54
REMARK Flexibility Score: inf
ROOT
ATOM      1  C   UNL A   1      32.567  28.983  26.822  1.00  0.00     0.274 C 
ENDROOT
BRANCH   1   2
ATOM      2  O   UNL A   1      32.763  28.131  25.678  1.00  0.00    -0.462 OA
BRANCH   2   3
ATOM      3  C   UNL A   1      32.030  28.437  24.568  1.00  0.00     0.311 C 
ATOM      4  O   UNL A   1      32.268  29.376  23.821  1.00  0.00    -0.252 OA
BRANCH   3   5
ATOM      5  C   UNL A   1      30.959  27.384  24.338  1.00  0.00     0.123 C 
ATOM      6  C   UNL A   1      30.486  24.974  24.853  1.00  0.00     0.032 C 
ATOM      7  C   UNL A   1      31.551  25.964  24.368  1.00  0.00     0.098 C 
ATOM      8  N   UNL A   1      31.954  25.723  22.976  1.00  0.00    -0.321 N 
ATOM      9  C   UNL A   1      30.334  27.459  22.946  1.00  0.00     0.039 C 
ATOM     10  C   UNL A   1      31.283  26.645  22.075  1.00  0.00     0.122 C 
BRANCH   8  11
ATOM     11  C   UNL A   1      33.138  25.140  22.545  1.00  0.00     0.320 C 
ATOM     12  O   UNL A   1      34.028  25.791  21.998  1.00  0.00    -0.248 OA
BRANCH  11  13
ATOM     13  N   UNL A   1      33.316  23.826  22.898  1.00  0.00    -0.321 N 
ATOM     14  C   UNL A   1      32.896  22.735  22.030  1.00  0.00     0.121 C 
ATOM     15  C   UNL A   1      34.275  23.429  23.908  1.00  0.00     0.090 C 
ATOM     16  C   UNL A   1      32.263  21.605  22.843  1.00  0.00     0.022 C 
ATOM     17  C   UNL A   1      33.552  22.455  24.840  1.00  0.00     0.012 C 
ATOM     18  C   UNL A   1      34.823  24.458  24.890  1.00  0.00     0.025 C 
ATOM     19  C   UNL A   1      33.114  21.213  24.063  1.00  0.00     0.007 C 
ATOM     20  C   UNL A   1      34.543  22.273  25.979  1.00  0.00     0.006 C 
ATOM     21  C   UNL A   1      35.257  23.624  26.099  1.00  0.00     0.002 C 
ENDBRANCH  11  13
ENDBRANCH   8  11
ENDBRANCH   3   5
ENDBRANCH   2   3
ENDBRANCH   1   2
BRANCH   1  22
ATOM     22  C   UNL A   1      33.728  29.966  27.019  1.00  0.00     0.275 C 
BRANCH  22  23
ATOM     23  O   UNL A   1      34.864  29.353  27.660  1.00  0.00    -0.458 OA
BRANCH  23  24
ATOM     24  C   UNL A   1      35.530  30.145  28.534  1.00  0.00     0.338 C 
ATOM     25  O   UNL A   1      35.046  30.977  29.283  1.00  0.00    -0.246 OA
BRANCH  24  26
ATOM     26  C   UNL A   1      36.956  29.763  28.592  1.00  0.00     0.060 A 
ATOM     27  C   UNL A   1      37.689  29.875  27.408  1.00  0.00     0.016 A 
ATOM     28  C   UNL A   1      37.562  29.258  29.747  1.00  0.00     0.016 A 
ATOM     29  C   UNL A   1      39.030  29.504  27.378  1.00  0.00     0.010 A 
ATOM     30  C   UNL A   1      38.908  28.861  29.708  1.00  0.00     0.010 A 
ATOM     31  C   UNL A   1      39.648  28.983  28.523  1.00  0.00    -0.014 A 
BRANCH  31  32
ATOM     32  C   UNL A   1      41.057  28.530  28.408  1.00  0.00     0.031 A 
ATOM     33  C   UNL A   1      41.349  27.134  27.956  1.00  0.00     0.074 A 
ATOM     34  C   UNL A   1      42.065  29.407  28.571  1.00  0.00     0.049 A 
ATOM     35  N   UNL A   1      42.502  26.578  27.693  1.00  0.00    -0.248 NA
ATOM     36  C   UNL A   1      40.193  26.240  27.797  1.00  0.00     0.031 C 
ATOM     37  C   UNL A   1      41.894  30.791  28.993  1.00  0.00     0.029 A 
ATOM     38  N   UNL A   1      43.411  29.297  28.322  1.00  0.00    -0.354 N 
ATOM     39  C   UNL A   1      42.221  25.252  27.402  1.00  0.00     0.074 A 
ATOM     40  C   UNL A   1      40.783  25.100  27.466  1.00  0.00     0.031 C 
ATOM     41  C   UNL A   1      43.059  31.442  28.836  1.00  0.00     0.029 A 
ATOM     42  C   UNL A   1      44.072  30.505  28.366  1.00  0.00     0.049 A 
ATOM     43  H   UNL A   1      43.857  28.442  28.130  1.00  0.00     0.167 HD
ATOM     44  C   UNL A   1      43.095  24.248  27.158  1.00  0.00     0.037 A 
ATOM     45  C   UNL A   1      45.343  30.815  28.039  1.00  0.00     0.037 A 
ATOM     46  C   UNL A   1      44.525  24.411  27.111  1.00  0.00     0.049 A 
ATOM     47  C   UNL A   1      46.285  29.693  27.693  1.00  0.00     0.074 A 
ATOM     48  C   UNL A   1      45.503  23.443  26.968  1.00  0.00     0.029 A 
ATOM     49  N   UNL A   1      45.180  25.630  27.200  1.00  0.00    -0.354 N 
ATOM     50  N   UNL A   1      46.022  28.424  27.499  1.00  0.00    -0.248 NA
ATOM     51  C   UNL A   1      47.712  30.036  27.587  1.00  0.00     0.031 C 
ATOM     52  C   UNL A   1      46.752  24.074  27.002  1.00  0.00     0.029 A 
ATOM     53  C   UNL A   1      46.550  25.439  27.120  1.00  0.00     0.049 A 
ATOM     54  H   UNL A   1      44.737  26.503  27.304  1.00  0.00     0.167 HD
ATOM     55  C   UNL A   1      47.251  27.811  27.291  1.00  0.00     0.074 A 
ATOM     56  C   UNL A   1      48.251  28.859  27.306  1.00  0.00     0.031 C 
ATOM     57  C   UNL A   1      47.531  26.492  27.149  1.00  0.00     0.037 A 
BRANCH  44  58
ATOM     58  C   UNL A   1      42.523  22.869  27.034  1.00  0.00     0.057 A 
ATOM     59  C   UNL A   1      42.138  22.113  28.147  1.00  0.00     0.134 A 
ATOM     60  C   UNL A   1      42.368  22.287  25.768  1.00  0.00     0.134 A 
ATOM     61  F   UNL A   1      42.288  22.604  29.386  1.00  0.00    -0.206 F 
ATOM     62  C   UNL A   1      41.634  20.819  28.006  1.00  0.00     0.040 A 
ATOM     63  C   UNL A   1      41.845  21.004  25.614  1.00  0.00     0.040 A 
ATOM     64  F   UNL A   1      42.724  22.958  24.662  1.00  0.00    -0.206 F 
ATOM     65  C   UNL A   1      41.482  20.263  26.736  1.00  0.00     0.006 A 
ENDBRANCH  44  58
BRANCH  45  66
ATOM     66  C   UNL A   1      45.825  32.226  28.024  1.00  0.00     0.057 A 
ATOM     67  C   UNL A   1      46.377  32.802  29.179  1.00  0.00     0.134 A 
ATOM     68  C   UNL A   1      45.709  33.048  26.898  1.00  0.00     0.134 A 
ATOM     69  F   UNL A   1      46.492  32.082  30.304  1.00  0.00    -0.206 F 
ATOM     70  C   UNL A   1      46.777  34.140  29.215  1.00  0.00     0.040 A 
ATOM     71  C   UNL A   1      46.138  34.376  26.910  1.00  0.00     0.040 A 
ATOM     72  F   UNL A   1      45.178  32.571  25.763  1.00  0.00    -0.206 F 
ATOM     73  C   UNL A   1      46.664  34.930  28.075  1.00  0.00     0.006 A 
ENDBRANCH  45  66
BRANCH  57  74
ATOM     74  C   UNL A   1      48.977  26.113  27.034  1.00  0.00     0.057 A 
ATOM     75  C   UNL A   1      49.604  26.007  25.784  1.00  0.00     0.134 A 
ATOM     76  C   UNL A   1      49.758  25.893  28.173  1.00  0.00     0.134 A 
ATOM     77  F   UNL A   1      48.906  26.197  24.655  1.00  0.00    -0.206 F 
ATOM     78  C   UNL A   1      50.954  25.674  25.673  1.00  0.00     0.040 A 
ATOM     79  C   UNL A   1      51.115  25.580  28.075  1.00  0.00     0.040 A 
ATOM     80  F   UNL A   1      49.219  25.985  29.397  1.00  0.00    -0.206 F 
ATOM     81  C   UNL A   1      51.715  25.465  26.821  1.00  0.00     0.006 A 
ENDBRANCH  57  74
ENDBRANCH  31  32
ENDBRANCH  24  26
ENDBRANCH  23  24
ENDBRANCH  22  23
ENDBRANCH   1  22
TORSDOF 13
ENDMDL
MODEL 3
REMARK VINA RESULT:     -10.9      5.532     10.026
REMARK SMILES C[C@@H]1[C@@H](C(=O)OCCOC(=O)c2ccc(-c3c4nc(c(-c5c(F)cccc5F)c5ccc([nH]5)c(-c5c(F)cccc5F)c5nc(c(-c6c(F)cccc6F)c6ccc3[nH]6)C=C5)C=C4)cc2)CCN1C(=O)N1CCC[C@H]2CCC[C@@H]21
REMARK SMILES IDX 7 1 6 2 4 3 5 4 3 5 1 6 2 7 68 8 66 9 67 10 69 11 70 12
REMARK SMILES IDX 71 13 72 14 79 15 73 16 75 17 78 18 74 19 76 20 77 21 8 22
REMARK SMILES IDX 9 23 10 24 11 25 12 26 13 27 65 28 14 29 64 30 15 31 16 32
REMARK SMILES IDX 17 33 58 34 18 35 63 36 57 37 59 38 19 39 62 40 56 41 55 42
REMARK SMILES IDX 20 44 46 45 29 46 45 47 30 48 33 49 44 50 60 51 31 52 32 53
REMARK SMILES IDX 43 55 61 56 34 57 21 58 22 59 27 60 23 61 24 62 26 63 28 64
REMARK SMILES IDX 25 65 47 66 48 67 53 68 49 69 50 70 52 71 54 72 51 73 35 74
REMARK SMILES IDX 36 75 41 76 37 77 38 78 40 79 42 80 39 81
REMARK H PARENT 59 43 33 54
REMARK Flexibility Score: inf
ROOT
ATOM      1  C   UNL A   1      36.135  23.073  26.096  1.00  0.00     0.274 C 
ENDROOT
BRANCH   1   2
ATOM      2  O   UNL A   1      35.325  23.497  24.983  1.00  0.00    -0.462 OA
BRANCH   2   3
ATOM      3  C   UNL A   1      34.677  22.508  24.300  1.00  0.00     0.311 C 
ATOM      4  O   UNL A   1      34.632  21.339  24.657  1.00  0.00    -0.252 OA
BRANCH   3   5
ATOM      5  C   UNL A   1      33.932  23.091  23.112  1.00  0.00     0.123 C 
ATOM      6  C   UNL A   1      33.319  25.316  22.125  1.00  0.00     0.032 C 
ATOM      7  C   UNL A   1      33.393  24.498  23.420  1.00  0.00     0.098 C 
ATOM      8  N   UNL A   1      32.070  24.247  24.006  1.00  0.00    -0.321 N 
ATOM      9  C   UNL A   1      32.664  22.315  22.760  1.00  0.00     0.039 C 
ATOM     10  C   UNL A   1      31.605  22.910  23.679  1.00  0.00     0.122 C 
BRANCH   8  11
ATOM     11  C   UNL A   1      31.524  24.871  25.119  1.00  0.00     0.320 C 
ATOM     12  O   UNL A   1      31.518  24.341  26.230  1.00  0.00    -0.248 OA
BRANCH  11  13
ATOM     13  N   UNL A   1      31.127  26.171  24.937  1.00  0.00    -0.321 N 
ATOM     14  C   UNL A   1      29.774  26.508  24.517  1.00  0.00     0.121 C 
ATOM     15  C   UNL A   1      31.843  27.280  25.531  1.00  0.00     0.090 C 
ATOM     16  C   UNL A   1      29.788  27.644  23.493  1.00  0.00     0.022 C 
ATOM     17  C   UNL A   1      32.033  28.322  24.427  1.00  0.00     0.012 C 
ATOM     18  C   UNL A   1      33.270  27.089  26.034  1.00  0.00     0.025 C 
ATOM     19  C   UNL A   1      30.674  28.821  23.937  1.00  0.00     0.007 C 
ATOM     20  C   UNL A   1      32.977  29.329  25.066  1.00  0.00     0.006 C 
ATOM     21  C   UNL A   1      33.871  28.497  25.994  1.00  0.00     0.002 C 
ENDBRANCH  11  13
ENDBRANCH   8  11
ENDBRANCH   3   5
ENDBRANCH   2   3
ENDBRANCH   1   2
BRANCH   1  22
ATOM     22  C   UNL A   1      37.630  23.066  25.756  1.00  0.00     0.275 C 
BRANCH  22  23
ATOM     23  O   UNL A   1      38.267  24.324  26.053  1.00  0.00    -0.458 OA
BRANCH  23  24
ATOM     24  C   UNL A   1      39.498  24.230  26.611  1.00  0.00     0.338 C 
ATOM     25  O   UNL A   1      40.372  23.428  26.325  1.00  0.00    -0.246 OA
BRANCH  24  26
ATOM     26  C   UNL A   1      39.732  25.356  27.538  1.00  0.00     0.060 A 
ATOM     27  C   UNL A   1      39.063  25.316  28.763  1.00  0.00     0.016 A 
ATOM     28  C   UNL A   1      40.536  26.454  27.213  1.00  0.00     0.016 A 
ATOM     29  C   UNL A   1      39.208  26.357  29.675  1.00  0.00     0.010 A 
ATOM     30  C   UNL A   1      40.662  27.515  28.124  1.00  0.00     0.010 A 
ATOM     31  C   UNL A   1      39.999  27.470  29.359  1.00  0.00    -0.014 A 
BRANCH  31  32
ATOM     32  C   UNL A   1      40.052  28.585  30.338  1.00  0.00     0.031 A 
ATOM     33  C   UNL A   1      38.989  29.637  30.316  1.00  0.00     0.074 A 
ATOM     34  C   UNL A   1      40.966  28.575  31.326  1.00  0.00     0.049 A 
ATOM     35  N   UNL A   1      38.797  30.630  31.145  1.00  0.00    -0.248 NA
ATOM     36  C   UNL A   1      38.026  29.576  29.208  1.00  0.00     0.031 C 
ATOM     37  C   UNL A   1      42.035  27.592  31.451  1.00  0.00     0.029 A 
ATOM     38  N   UNL A   1      41.095  29.354  32.449  1.00  0.00    -0.354 N 
ATOM     39  C   UNL A   1      37.734  31.352  30.624  1.00  0.00     0.074 A 
ATOM     40  C   UNL A   1      37.287  30.651  29.438  1.00  0.00     0.031 C 
ATOM     41  C   UNL A   1      42.618  27.733  32.654  1.00  0.00     0.029 A 
ATOM     42  C   UNL A   1      42.008  28.857  33.354  1.00  0.00     0.049 A 
ATOM     43  H   UNL A   1      40.585  30.182  32.595  1.00  0.00     0.167 HD
ATOM     44  C   UNL A   1      37.220  32.521  31.071  1.00  0.00     0.037 A 
ATOM     45  C   UNL A   1      42.296  29.255  34.610  1.00  0.00     0.037 A 
ATOM     46  C   UNL A   1      37.685  33.215  32.244  1.00  0.00     0.049 A 
ATOM     47  C   UNL A   1      41.656  30.517  35.123  1.00  0.00     0.074 A 
ATOM     48  C   UNL A   1      37.298  34.451  32.729  1.00  0.00     0.029 A 
ATOM     49  N   UNL A   1      38.637  32.721  33.123  1.00  0.00    -0.354 N 
ATOM     50  N   UNL A   1      40.705  31.239  34.583  1.00  0.00    -0.248 NA
ATOM     51  C   UNL A   1      42.177  31.055  36.389  1.00  0.00     0.031 C 
ATOM     52  C   UNL A   1      38.041  34.721  33.885  1.00  0.00     0.029 A 
ATOM     53  C   UNL A   1      38.856  33.631  34.145  1.00  0.00     0.049 A 
ATOM     54  H   UNL A   1      39.090  31.852  33.035  1.00  0.00     0.167 HD
ATOM     55  C   UNL A   1      40.544  32.337  35.418  1.00  0.00     0.074 A 
ATOM     56  C   UNL A   1      41.440  32.146  36.540  1.00  0.00     0.031 C 
ATOM     57  C   UNL A   1      39.760  33.429  35.247  1.00  0.00     0.037 A 
BRANCH  44  58
ATOM     58  C   UNL A   1      36.173  33.170  30.219  1.00  0.00     0.057 A 
ATOM     59  C   UNL A   1      36.487  33.889  29.060  1.00  0.00     0.134 A 
ATOM     60  C   UNL A   1      34.821  33.076  30.578  1.00  0.00     0.134 A 
ATOM     61  F   UNL A   1      37.764  34.038  28.679  1.00  0.00    -0.206 F 
ATOM     62  C   UNL A   1      35.494  34.509  28.299  1.00  0.00     0.040 A 
ATOM     63  C   UNL A   1      33.819  33.671  29.813  1.00  0.00     0.040 A 
ATOM     64  F   UNL A   1      34.455  32.405  31.681  1.00  0.00    -0.206 F 
ATOM     65  C   UNL A   1      34.155  34.396  28.672  1.00  0.00     0.006 A 
ENDBRANCH  44  58
BRANCH  45  66
ATOM     66  C   UNL A   1      43.229  28.484  35.479  1.00  0.00     0.057 A 
ATOM     67  C   UNL A   1      44.615  28.688  35.395  1.00  0.00     0.134 A 
ATOM     68  C   UNL A   1      42.786  27.501  36.372  1.00  0.00     0.134 A 
ATOM     69  F   UNL A   1      45.113  29.594  34.540  1.00  0.00    -0.206 F 
ATOM     70  C   UNL A   1      45.518  27.936  36.149  1.00  0.00     0.040 A 
ATOM     71  C   UNL A   1      43.676  26.767  37.158  1.00  0.00     0.040 A 
ATOM     72  F   UNL A   1      41.477  27.240  36.496  1.00  0.00    -0.206 F 
ATOM     73  C   UNL A   1      45.048  26.975  37.040  1.00  0.00     0.006 A 
ENDBRANCH  45  66
BRANCH  57  74
ATOM     74  C   UNL A   1      39.866  34.511  36.280  1.00  0.00     0.057 A 
ATOM     75  C   UNL A   1      39.058  34.505  37.425  1.00  0.00     0.134 A 
ATOM     76  C   UNL A   1      40.804  35.540  36.153  1.00  0.00     0.134 A 
ATOM     77  F   UNL A   1      38.132  33.550  37.600  1.00  0.00    -0.206 F 
ATOM     78  C   UNL A   1      39.166  35.498  38.399  1.00  0.00     0.040 A 
ATOM     79  C   UNL A   1      40.938  36.527  37.131  1.00  0.00     0.040 A 
ATOM     80  F   UNL A   1      41.611  35.599  35.084  1.00  0.00    -0.206 F 
ATOM     81  C   UNL A   1      40.113  36.510  38.255  1.00  0.00     0.006 A 
ENDBRANCH  57  74
ENDBRANCH  31  32
ENDBRANCH  24  26
ENDBRANCH  23  24
ENDBRANCH  22  23
ENDBRANCH   1  22
TORSDOF 13
ENDMDL
