MODEL 1
REMARK VINA RESULT:     -10.3      0.000      0.000
REMARK SMILES C[C@H](C[NH3+])S[C@H](C)c1ccc(C(=O)OCCOC(=O)c2ccc(-c3c4nc(c(-c5c(F)cccc5F)c5ccc([nH]5)c(-c5c(F)cccc5F)c5nc(c(-c6c(F)cccc6F)c6ccc3[nH]6)C=C5)C=C4)cc2)o1
REMARK SMILES IDX 14 1 12 2 13 3 11 4 8 5 9 6 74 7 10 8 6 9 7 10 5 11 2 12
REMARK SMILES IDX 1 13 3 14 4 15 15 19 16 20 17 21 18 22 19 23 20 24 21 25
REMARK SMILES IDX 73 26 22 27 72 28 23 29 24 30 25 31 66 32 26 33 71 34 65 35
REMARK SMILES IDX 67 36 27 37 70 38 64 39 63 40 28 42 54 43 37 44 53 45 38 46
REMARK SMILES IDX 41 47 52 48 68 49 39 50 40 51 51 53 69 54 42 55 29 56 30 57
REMARK SMILES IDX 35 58 31 59 32 60 34 61 36 62 33 63 55 64 56 65 61 66 57 67
REMARK SMILES IDX 58 68 60 69 62 70 59 71 43 72 44 73 49 74 45 75 46 76 48 77
REMARK SMILES IDX 50 78 47 79
REMARK H PARENT 4 16 4 17 4 18 67 41 41 52
REMARK Flexibility Score: inf
ROOT
ATOM      1  O   UNL A   1      41.438  21.242  25.744  1.00  0.00    -0.456 OA
ENDROOT
BRANCH   1   2
ATOM      2  C   UNL A   1      40.595  21.325  26.815  1.00  0.00     0.374 C 
ATOM      3  O   UNL A   1      40.770  20.738  27.878  1.00  0.00    -0.242 OA
BRANCH   2   4
ATOM      4  C   UNL A   1      39.508  22.235  26.538  1.00  0.00     0.211 A 
ATOM      5  C   UNL A   1      37.544  22.776  25.653  1.00  0.00     0.117 A 
ATOM      6  C   UNL A   1      38.010  23.896  26.316  1.00  0.00     0.048 A 
ATOM      7  O   UNL A   1      38.493  21.799  25.726  1.00  0.00    -0.453 OA
ATOM      8  C   UNL A   1      39.233  23.529  26.936  1.00  0.00     0.058 A 
BRANCH   5   9
ATOM      9  C   UNL A   1      36.283  22.472  24.901  1.00  0.00     0.110 C 
ATOM     10  C   UNL A   1      36.409  22.794  23.402  1.00  0.00     0.028 C 
BRANCH   9  11
ATOM     11  S   UNL A   1      35.786  20.695  25.001  1.00  0.00    -0.142 SA
BRANCH  11  12
ATOM     12  C   UNL A   1      34.073  20.668  25.697  1.00  0.00     0.099 C 
ATOM     13  C   UNL A   1      32.982  20.006  24.860  1.00  0.00     0.025 C 
BRANCH  12  14
ATOM     14  C   UNL A   1      33.669  22.037  26.297  1.00  0.00     0.273 C 
BRANCH  14  15
ATOM     15  N   UNL A   1      32.925  21.983  27.549  1.00  0.00    -0.357 N 
ATOM     16  H   UNL A   1      33.579  21.960  28.331  1.00  0.00     0.344 HD
ATOM     17  H   UNL A   1      32.346  21.145  27.564  1.00  0.00     0.344 HD
ATOM     18  H   UNL A   1      32.331  22.809  27.626  1.00  0.00     0.344 HD
ENDBRANCH  14  15
ENDBRANCH  12  14
ENDBRANCH  11  12
ENDBRANCH   9  11
ENDBRANCH   5   9
ENDBRANCH   2   4
ENDBRANCH   1   2
BRANCH   1  19
ATOM     19  C   UNL A   1      42.835  21.066  26.058  1.00  0.00     0.275 C 
BRANCH  19  20
ATOM     20  C   UNL A   1      43.771  21.925  25.196  1.00  0.00     0.275 C 
BRANCH  20  21
ATOM     21  O   UNL A   1      43.198  23.202  24.857  1.00  0.00    -0.458 OA
BRANCH  21  22
ATOM     22  C   UNL A   1      43.960  24.273  25.182  1.00  0.00     0.338 C 
ATOM     23  O   UNL A   1      44.970  24.654  24.613  1.00  0.00    -0.246 OA
BRANCH  22  24
ATOM     24  C   UNL A   1      43.310  25.049  26.252  1.00  0.00     0.060 A 
ATOM     25  C   UNL A   1      43.577  26.414  26.290  1.00  0.00     0.016 A 
ATOM     26  C   UNL A   1      42.527  24.463  27.246  1.00  0.00     0.016 A 
ATOM     27  C   UNL A   1      43.076  27.209  27.310  1.00  0.00     0.010 A 
ATOM     28  C   UNL A   1      42.017  25.266  28.278  1.00  0.00     0.010 A 
ATOM     29  C   UNL A   1      42.295  26.644  28.318  1.00  0.00    -0.014 A 
BRANCH  29  30
ATOM     30  C   UNL A   1      41.836  27.514  29.428  1.00  0.00     0.031 A 
ATOM     31  C   UNL A   1      42.579  27.517  30.733  1.00  0.00     0.074 A 
ATOM     32  C   UNL A   1      40.798  28.352  29.238  1.00  0.00     0.049 A 
ATOM     33  N   UNL A   1      42.299  28.147  31.844  1.00  0.00    -0.248 NA
ATOM     34  C   UNL A   1      43.802  26.701  30.794  1.00  0.00     0.031 C 
ATOM     35  C   UNL A   1      40.049  28.497  27.989  1.00  0.00     0.029 A 
ATOM     36  N   UNL A   1      40.200  29.243  30.091  1.00  0.00    -0.354 N 
ATOM     37  C   UNL A   1      43.290  27.783  32.746  1.00  0.00     0.074 A 
ATOM     38  C   UNL A   1      44.169  26.862  32.058  1.00  0.00     0.031 C 
ATOM     39  C   UNL A   1      39.095  29.425  28.156  1.00  0.00     0.029 A 
ATOM     40  C   UNL A   1      39.124  29.892  29.538  1.00  0.00     0.049 A 
ATOM     41  H   UNL A   1      40.512  29.402  31.012  1.00  0.00     0.167 HD
ATOM     42  C   UNL A   1      43.450  28.186  34.030  1.00  0.00     0.037 A 
ATOM     43  C   UNL A   1      38.236  30.739  30.094  1.00  0.00     0.037 A 
ATOM     44  C   UNL A   1      42.578  29.118  34.697  1.00  0.00     0.049 A 
ATOM     45  C   UNL A   1      38.387  31.103  31.545  1.00  0.00     0.074 A 
ATOM     46  C   UNL A   1      42.656  29.595  35.995  1.00  0.00     0.029 A 
ATOM     47  N   UNL A   1      41.467  29.715  34.119  1.00  0.00    -0.354 N 
ATOM     48  N   UNL A   1      39.315  30.739  32.397  1.00  0.00    -0.248 NA
ATOM     49  C   UNL A   1      37.365  31.992  32.114  1.00  0.00     0.031 C 
ATOM     50  C   UNL A   1      41.559  30.433  36.219  1.00  0.00     0.029 A 
ATOM     51  C   UNL A   1      40.835  30.533  35.043  1.00  0.00     0.049 A 
ATOM     52  H   UNL A   1      41.171  29.578  33.190  1.00  0.00     0.167 HD
ATOM     53  C   UNL A   1      39.006  31.374  33.592  1.00  0.00     0.074 A 
ATOM     54  C   UNL A   1      37.813  32.160  33.350  1.00  0.00     0.031 C 
ATOM     55  C   UNL A   1      39.651  31.314  34.783  1.00  0.00     0.037 A 
BRANCH  42  56
ATOM     56  C   UNL A   1      44.585  27.584  34.810  1.00  0.00     0.057 A 
ATOM     57  C   UNL A   1      44.430  26.434  35.592  1.00  0.00     0.134 A 
ATOM     58  C   UNL A   1      45.864  28.154  34.750  1.00  0.00     0.134 A 
ATOM     59  F   UNL A   1      43.230  25.844  35.704  1.00  0.00    -0.206 F 
ATOM     60  C   UNL A   1      45.497  25.888  36.309  1.00  0.00     0.040 A 
ATOM     61  C   UNL A   1      46.946  27.601  35.437  1.00  0.00     0.040 A 
ATOM     62  F   UNL A   1      46.086  29.254  34.014  1.00  0.00    -0.206 F 
ATOM     63  C   UNL A   1      46.762  26.468  36.226  1.00  0.00     0.006 A 
ENDBRANCH  42  56
BRANCH  43  64
ATOM     64  C   UNL A   1      37.105  31.268  29.288  1.00  0.00     0.057 A 
ATOM     65  C   UNL A   1      35.979  30.485  29.010  1.00  0.00     0.134 A 
ATOM     66  C   UNL A   1      37.132  32.566  28.761  1.00  0.00     0.134 A 
ATOM     67  F   UNL A   1      35.903  29.226  29.466  1.00  0.00    -0.206 F 
ATOM     68  C   UNL A   1      34.929  30.967  28.225  1.00  0.00     0.040 A 
ATOM     69  C   UNL A   1      36.076  33.071  28.001  1.00  0.00     0.040 A 
ATOM     70  F   UNL A   1      38.182  33.369  28.989  1.00  0.00    -0.206 F 
ATOM     71  C   UNL A   1      34.974  32.266  27.723  1.00  0.00     0.006 A 
ENDBRANCH  43  64
BRANCH  55  72
ATOM     72  C   UNL A   1      39.107  32.155  35.902  1.00  0.00     0.057 A 
ATOM     73  C   UNL A   1      38.214  31.643  36.853  1.00  0.00     0.134 A 
ATOM     74  C   UNL A   1      39.511  33.489  36.048  1.00  0.00     0.134 A 
ATOM     75  F   UNL A   1      37.777  30.378  36.763  1.00  0.00    -0.206 F 
ATOM     76  C   UNL A   1      37.723  32.435  37.892  1.00  0.00     0.040 A 
ATOM     77  C   UNL A   1      39.051  34.281  37.100  1.00  0.00     0.040 A 
ATOM     78  F   UNL A   1      40.370  34.040  35.178  1.00  0.00    -0.206 F 
ATOM     79  C   UNL A   1      38.148  33.756  38.022  1.00  0.00     0.006 A 
ENDBRANCH  55  72
ENDBRANCH  29  30
ENDBRANCH  22  24
ENDBRANCH  21  22
ENDBRANCH  20  21
ENDBRANCH  19  20
ENDBRANCH   1  19
TORSDOF 16
ENDMDL
MODEL 2
REMARK VINA RESULT:      -9.9      0.410      6.473
REMARK SMILES C[C@H](C[NH3+])S[C@H](C)c1ccc(C(=O)OCCOC(=O)c2ccc(-c3c4nc(c(-c5c(F)cccc5F)c5ccc([nH]5)c(-c5c(F)cccc5F)c5nc(c(-c6c(F)cccc6F)c6ccc3[nH]6)C=C5)C=C4)cc2)o1
REMARK SMILES IDX 14 1 12 2 13 3 11 4 8 5 9 6 74 7 10 8 6 9 7 10 5 11 2 12
REMARK SMILES IDX 1 13 3 14 4 15 15 19 16 20 17 21 18 22 19 23 20 24 21 25
REMARK SMILES IDX 73 26 22 27 72 28 23 29 24 30 25 31 66 32 26 33 71 34 65 35
REMARK SMILES IDX 67 36 27 37 70 38 64 39 63 40 28 42 54 43 37 44 53 45 38 46
REMARK SMILES IDX 41 47 52 48 68 49 39 50 40 51 51 53 69 54 42 55 29 56 30 57
REMARK SMILES IDX 35 58 31 59 32 60 34 61 36 62 33 63 55 64 56 65 61 66 57 67
REMARK SMILES IDX 58 68 60 69 62 70 59 71 43 72 44 73 49 74 45 75 46 76 48 77
REMARK SMILES IDX 50 78 47 79
REMARK H PARENT 4 16 4 17 4 18 67 41 41 52
REMARK Flexibility Score: inf
ROOT
ATOM      1  O   UNL A   1      41.506  21.612  25.642  1.00  0.00    -0.456 OA
ENDROOT
BRANCH   1   2
ATOM      2  C   UNL A   1      40.607  21.472  26.661  1.00  0.00     0.374 C 
ATOM      3  O   UNL A   1      40.758  20.715  27.615  1.00  0.00    -0.242 OA
BRANCH   2   4
ATOM      4  C   UNL A   1      39.491  22.372  26.482  1.00  0.00     0.211 A 
ATOM      5  C   UNL A   1      37.473  22.911  25.728  1.00  0.00     0.117 A 
ATOM      6  C   UNL A   1      37.955  24.010  26.413  1.00  0.00     0.048 A 
ATOM      7  O   UNL A   1      38.441  21.951  25.707  1.00  0.00    -0.453 OA
ATOM      8  C   UNL A   1      39.217  23.641  26.949  1.00  0.00     0.058 A 
BRANCH   5   9
ATOM      9  C   UNL A   1      36.179  22.615  25.031  1.00  0.00     0.110 C 
ATOM     10  C   UNL A   1      36.294  22.763  23.504  1.00  0.00     0.028 C 
BRANCH   9  11
ATOM     11  S   UNL A   1      35.566  20.898  25.333  1.00  0.00    -0.142 SA
BRANCH  11  12
ATOM     12  C   UNL A   1      33.723  21.010  25.434  1.00  0.00     0.099 C 
ATOM     13  C   UNL A   1      32.936  20.874  24.134  1.00  0.00     0.025 C 
BRANCH  12  14
ATOM     14  C   UNL A   1      33.261  22.181  26.335  1.00  0.00     0.273 C 
BRANCH  14  15
ATOM     15  N   UNL A   1      32.927  21.829  27.709  1.00  0.00    -0.357 N 
ATOM     16  H   UNL A   1      33.754  21.931  28.296  1.00  0.00     0.344 HD
ATOM     17  H   UNL A   1      32.603  20.862  27.742  1.00  0.00     0.344 HD
ATOM     18  H   UNL A   1      32.190  22.446  28.048  1.00  0.00     0.344 HD
ENDBRANCH  14  15
ENDBRANCH  12  14
ENDBRANCH  11  12
ENDBRANCH   9  11
ENDBRANCH   5   9
ENDBRANCH   2   4
ENDBRANCH   1   2
BRANCH   1  19
ATOM     19  C   UNL A   1      42.876  21.297  25.967  1.00  0.00     0.275 C 
BRANCH  19  20
ATOM     20  C   UNL A   1      43.887  22.313  25.417  1.00  0.00     0.275 C 
BRANCH  20  21
ATOM     21  O   UNL A   1      43.265  23.540  24.991  1.00  0.00    -0.458 OA
BRANCH  21  22
ATOM     22  C   UNL A   1      43.961  24.664  25.286  1.00  0.00     0.338 C 
ATOM     23  O   UNL A   1      44.915  25.117  24.673  1.00  0.00    -0.246 OA
BRANCH  22  24
ATOM     24  C   UNL A   1      43.304  25.391  26.385  1.00  0.00     0.060 A 
ATOM     25  C   UNL A   1      43.678  26.718  26.573  1.00  0.00     0.016 A 
ATOM     26  C   UNL A   1      42.409  24.786  27.266  1.00  0.00     0.016 A 
ATOM     27  C   UNL A   1      43.174  27.456  27.634  1.00  0.00     0.010 A 
ATOM     28  C   UNL A   1      41.896  25.531  28.340  1.00  0.00     0.010 A 
ATOM     29  C   UNL A   1      42.282  26.870  28.533  1.00  0.00    -0.014 A 
BRANCH  29  30
ATOM     30  C   UNL A   1      41.820  27.670  29.693  1.00  0.00     0.031 A 
ATOM     31  C   UNL A   1      40.600  28.535  29.567  1.00  0.00     0.074 A 
ATOM     32  C   UNL A   1      42.454  27.562  30.877  1.00  0.00     0.049 A 
ATOM     33  N   UNL A   1      40.077  29.362  30.435  1.00  0.00    -0.248 NA
ATOM     34  C   UNL A   1      39.870  28.459  28.292  1.00  0.00     0.031 C 
ATOM     35  C   UNL A   1      43.601  26.692  31.144  1.00  0.00     0.029 A 
ATOM     36  N   UNL A   1      42.219  28.181  32.077  1.00  0.00    -0.354 N 
ATOM     37  C   UNL A   1      38.977  29.927  29.805  1.00  0.00     0.074 A 
ATOM     38  C   UNL A   1      38.917  29.363  28.473  1.00  0.00     0.031 C 
ATOM     39  C   UNL A   1      43.966  26.831  32.427  1.00  0.00     0.029 A 
ATOM     40  C   UNL A   1      43.123  27.843  33.054  1.00  0.00     0.049 A 
ATOM     41  H   UNL A   1      41.474  28.809  32.225  1.00  0.00     0.167 HD
ATOM     42  C   UNL A   1      38.097  30.832  30.297  1.00  0.00     0.037 A 
ATOM     43  C   UNL A   1      43.279  28.322  34.303  1.00  0.00     0.037 A 
ATOM     44  C   UNL A   1      38.157  31.372  31.632  1.00  0.00     0.049 A 
ATOM     45  C   UNL A   1      42.340  29.389  34.795  1.00  0.00     0.074 A 
ATOM     46  C   UNL A   1      37.310  32.290  32.229  1.00  0.00     0.029 A 
ATOM     47  N   UNL A   1      39.119  31.043  32.575  1.00  0.00    -0.354 N 
ATOM     48  N   UNL A   1      41.314  29.934  34.186  1.00  0.00    -0.248 NA
ATOM     49  C   UNL A   1      42.583  29.912  36.146  1.00  0.00     0.031 C 
ATOM     50  C   UNL A   1      37.795  32.561  33.513  1.00  0.00     0.029 A 
ATOM     51  C   UNL A   1      38.903  31.762  33.741  1.00  0.00     0.049 A 
ATOM     52  H   UNL A   1      39.847  30.394  32.438  1.00  0.00     0.167 HD
ATOM     53  C   UNL A   1      40.773  30.841  35.087  1.00  0.00     0.074 A 
ATOM     54  C   UNL A   1      41.576  30.762  36.291  1.00  0.00     0.031 C 
ATOM     55  C   UNL A   1      39.708  31.665  34.933  1.00  0.00     0.037 A 
BRANCH  42  56
ATOM     56  C   UNL A   1      37.021  31.329  29.372  1.00  0.00     0.057 A 
ATOM     57  C   UNL A   1      35.906  30.553  29.035  1.00  0.00     0.134 A 
ATOM     58  C   UNL A   1      37.093  32.621  28.834  1.00  0.00     0.134 A 
ATOM     59  F   UNL A   1      35.780  29.302  29.505  1.00  0.00    -0.206 F 
ATOM     60  C   UNL A   1      34.915  31.032  28.175  1.00  0.00     0.040 A 
ATOM     61  C   UNL A   1      36.094  33.123  27.997  1.00  0.00     0.040 A 
ATOM     62  F   UNL A   1      38.131  33.422  29.120  1.00  0.00    -0.206 F 
ATOM     63  C   UNL A   1      35.005  32.324  27.660  1.00  0.00     0.006 A 
ENDBRANCH  42  56
BRANCH  43  64
ATOM     64  C   UNL A   1      44.388  27.828  35.158  1.00  0.00     0.057 A 
ATOM     65  C   UNL A   1      44.231  26.708  35.981  1.00  0.00     0.134 A 
ATOM     66  C   UNL A   1      45.631  28.477  35.187  1.00  0.00     0.134 A 
ATOM     67  F   UNL A   1      43.059  26.057  36.018  1.00  0.00    -0.206 F 
ATOM     68  C   UNL A   1      45.259  26.260  36.813  1.00  0.00     0.040 A 
ATOM     69  C   UNL A   1      46.678  28.022  35.988  1.00  0.00     0.040 A 
ATOM     70  F   UNL A   1      45.849  29.557  34.422  1.00  0.00    -0.206 F 
ATOM     71  C   UNL A   1      46.490  26.915  36.812  1.00  0.00     0.006 A 
ENDBRANCH  43  64
BRANCH  55  72
ATOM     72  C   UNL A   1      39.321  32.513  36.110  1.00  0.00     0.057 A 
ATOM     73  C   UNL A   1      39.874  33.782  36.329  1.00  0.00     0.134 A 
ATOM     74  C   UNL A   1      38.353  32.066  37.020  1.00  0.00     0.134 A 
ATOM     75  F   UNL A   1      40.815  34.265  35.503  1.00  0.00    -0.206 F 
ATOM     76  C   UNL A   1      39.498  34.563  37.423  1.00  0.00     0.040 A 
ATOM     77  C   UNL A   1      37.947  32.850  38.101  1.00  0.00     0.040 A 
ATOM     78  F   UNL A   1      37.777  30.865  36.866  1.00  0.00    -0.206 F 
ATOM     79  C   UNL A   1      38.526  34.100  38.308  1.00  0.00     0.006 A 
ENDBRANCH  55  72
ENDBRANCH  29  30
ENDBRANCH  22  24
ENDBRANCH  21  22
ENDBRANCH  20  21
ENDBRANCH  19  20
ENDBRANCH   1  19
TORSDOF 16
ENDMDL
MODEL 3
REMARK VINA RESULT:      -9.8      4.304      8.736
REMARK SMILES C[C@H](C[NH3+])S[C@H](C)c1ccc(C(=O)OCCOC(=O)c2ccc(-c3c4nc(c(-c5c(F)cccc5F)c5ccc([nH]5)c(-c5c(F)cccc5F)c5nc(c(-c6c(F)cccc6F)c6ccc3[nH]6)C=C5)C=C4)cc2)o1
REMARK SMILES IDX 14 1 12 2 13 3 11 4 8 5 9 6 74 7 10 8 6 9 7 10 5 11 2 12
REMARK SMILES IDX 1 13 3 14 4 15 15 19 16 20 17 21 18 22 19 23 20 24 21 25
REMARK SMILES IDX 73 26 22 27 72 28 23 29 24 30 25 31 66 32 26 33 71 34 65 35
REMARK SMILES IDX 67 36 27 37 70 38 64 39 63 40 28 42 54 43 37 44 53 45 38 46
REMARK SMILES IDX 41 47 52 48 68 49 39 50 40 51 51 53 69 54 42 55 29 56 30 57
REMARK SMILES IDX 35 58 31 59 32 60 34 61 36 62 33 63 55 64 56 65 61 66 57 67
REMARK SMILES IDX 58 68 60 69 62 70 59 71 43 72 44 73 49 74 45 75 46 76 48 77
REMARK SMILES IDX 50 78 47 79
REMARK H PARENT 4 16 4 17 4 18 67 41 41 52
REMARK Flexibility Score: inf
ROOT
ATOM      1  O   UNL A   1      31.970  31.142  26.116  1.00  0.00    -0.456 OA
ENDROOT
BRANCH   1   2
ATOM      2  C   UNL A   1      32.580  30.165  26.851  1.00  0.00     0.374 C 
ATOM      3  O   UNL A   1      33.511  30.365  27.626  1.00  0.00    -0.242 OA
BRANCH   2   4
ATOM      4  C   UNL A   1      31.947  28.887  26.626  1.00  0.00     0.211 A 
ATOM      5  C   UNL A   1      31.048  27.312  25.344  1.00  0.00     0.117 A 
ATOM      6  C   UNL A   1      30.998  26.850  26.646  1.00  0.00     0.048 A 
ATOM      7  O   UNL A   1      31.552  28.579  25.349  1.00  0.00    -0.453 OA
ATOM      8  C   UNL A   1      31.631  27.830  27.456  1.00  0.00     0.058 A 
BRANCH   5   9
ATOM      9  C   UNL A   1      30.653  26.722  24.024  1.00  0.00     0.110 C 
ATOM     10  C   UNL A   1      29.127  26.590  23.880  1.00  0.00     0.028 C 
BRANCH   9  11
ATOM     11  S   UNL A   1      31.217  27.725  22.580  1.00  0.00    -0.142 SA
BRANCH  11  12
ATOM     12  C   UNL A   1      33.004  27.322  22.326  1.00  0.00     0.099 C 
ATOM     13  C   UNL A   1      33.549  26.074  23.014  1.00  0.00     0.025 C 
BRANCH  12  14
ATOM     14  C   UNL A   1      33.907  28.570  22.470  1.00  0.00     0.273 C 
BRANCH  14  15
ATOM     15  N   UNL A   1      34.254  28.946  23.835  1.00  0.00    -0.357 N 
ATOM     16  H   UNL A   1      33.507  28.657  24.466  1.00  0.00     0.344 HD
ATOM     17  H   UNL A   1      34.374  29.957  23.888  1.00  0.00     0.344 HD
ATOM     18  H   UNL A   1      35.123  28.485  24.103  1.00  0.00     0.344 HD
ENDBRANCH  14  15
ENDBRANCH  12  14
ENDBRANCH  11  12
ENDBRANCH   9  11
ENDBRANCH   5   9
ENDBRANCH   2   4
ENDBRANCH   1   2
BRANCH   1  19
ATOM     19  C   UNL A   1      31.414  32.238  26.871  1.00  0.00     0.275 C 
BRANCH  19  20
ATOM     20  C   UNL A   1      32.367  33.436  27.006  1.00  0.00     0.275 C 
BRANCH  20  21
ATOM     21  O   UNL A   1      32.149  34.184  28.217  1.00  0.00    -0.458 OA
BRANCH  21  22
ATOM     22  C   UNL A   1      33.185  34.971  28.595  1.00  0.00     0.338 C 
ATOM     23  O   UNL A   1      33.173  36.184  28.725  1.00  0.00    -0.246 OA
BRANCH  22  24
ATOM     24  C   UNL A   1      34.330  34.138  29.000  1.00  0.00     0.060 A 
ATOM     25  C   UNL A   1      34.089  33.165  29.964  1.00  0.00     0.016 A 
ATOM     26  C   UNL A   1      35.624  34.345  28.524  1.00  0.00     0.016 A 
ATOM     27  C   UNL A   1      35.123  32.390  30.467  1.00  0.00     0.010 A 
ATOM     28  C   UNL A   1      36.673  33.560  29.030  1.00  0.00     0.010 A 
ATOM     29  C   UNL A   1      36.428  32.582  30.011  1.00  0.00    -0.014 A 
BRANCH  29  30
ATOM     30  C   UNL A   1      37.516  31.782  30.623  1.00  0.00     0.031 A 
ATOM     31  C   UNL A   1      37.841  31.953  32.079  1.00  0.00     0.074 A 
ATOM     32  C   UNL A   1      38.160  30.854  29.890  1.00  0.00     0.049 A 
ATOM     33  N   UNL A   1      38.798  31.405  32.783  1.00  0.00    -0.248 NA
ATOM     34  C   UNL A   1      36.974  32.862  32.844  1.00  0.00     0.031 C 
ATOM     35  C   UNL A   1      37.877  30.541  28.488  1.00  0.00     0.029 A 
ATOM     36  N   UNL A   1      39.179  30.000  30.223  1.00  0.00    -0.354 N 
ATOM     37  C   UNL A   1      38.667  31.923  34.065  1.00  0.00     0.074 A 
ATOM     38  C   UNL A   1      37.550  32.844  34.037  1.00  0.00     0.031 C 
ATOM     39  C   UNL A   1      38.699  29.561  28.083  1.00  0.00     0.029 A 
ATOM     40  C   UNL A   1      39.608  29.224  29.174  1.00  0.00     0.049 A 
ATOM     41  H   UNL A   1      39.567  29.948  31.127  1.00  0.00     0.167 HD
ATOM     42  C   UNL A   1      39.412  31.650  35.164  1.00  0.00     0.037 A 
ATOM     43  C   UNL A   1      40.641  28.364  29.090  1.00  0.00     0.037 A 
ATOM     44  C   UNL A   1      40.510  30.717  35.182  1.00  0.00     0.049 A 
ATOM     45  C   UNL A   1      41.505  28.144  30.301  1.00  0.00     0.074 A 
ATOM     46  C   UNL A   1      41.325  30.366  36.245  1.00  0.00     0.029 A 
ATOM     47  N   UNL A   1      40.947  29.988  34.086  1.00  0.00    -0.354 N 
ATOM     48  N   UNL A   1      41.389  28.653  31.504  1.00  0.00    -0.248 NA
ATOM     49  C   UNL A   1      42.648  27.234  30.142  1.00  0.00     0.031 C 
ATOM     50  C   UNL A   1      42.291  29.470  35.777  1.00  0.00     0.029 A 
ATOM     51  C   UNL A   1      42.038  29.210  34.440  1.00  0.00     0.049 A 
ATOM     52  H   UNL A   1      40.542  30.018  33.189  1.00  0.00     0.167 HD
ATOM     53  C   UNL A   1      42.422  28.105  32.252  1.00  0.00     0.074 A 
ATOM     54  C   UNL A   1      43.147  27.212  31.370  1.00  0.00     0.031 C 
ATOM     55  C   UNL A   1      42.744  28.320  33.551  1.00  0.00     0.037 A 
BRANCH  42  56
ATOM     56  C   UNL A   1      39.093  32.404  36.424  1.00  0.00     0.057 A 
ATOM     57  C   UNL A   1      38.163  31.938  37.361  1.00  0.00     0.134 A 
ATOM     58  C   UNL A   1      39.753  33.606  36.715  1.00  0.00     0.134 A 
ATOM     59  F   UNL A   1      37.486  30.801  37.140  1.00  0.00    -0.206 F 
ATOM     60  C   UNL A   1      37.880  32.652  38.528  1.00  0.00     0.040 A 
ATOM     61  C   UNL A   1      39.501  34.313  37.892  1.00  0.00     0.040 A 
ATOM     62  F   UNL A   1      40.661  34.108  35.865  1.00  0.00    -0.206 F 
ATOM     63  C   UNL A   1      38.557  33.839  38.799  1.00  0.00     0.006 A 
ENDBRANCH  42  56
BRANCH  43  64
ATOM     64  C   UNL A   1      40.940  27.680  27.805  1.00  0.00     0.057 A 
ATOM     65  C   UNL A   1      40.445  26.401  27.529  1.00  0.00     0.134 A 
ATOM     66  C   UNL A   1      41.743  28.284  26.828  1.00  0.00     0.134 A 
ATOM     67  F   UNL A   1      39.691  25.759  28.433  1.00  0.00    -0.206 F 
ATOM     68  C   UNL A   1      40.751  25.740  26.337  1.00  0.00     0.040 A 
ATOM     69  C   UNL A   1      42.030  27.649  25.620  1.00  0.00     0.040 A 
ATOM     70  F   UNL A   1      42.249  29.510  27.029  1.00  0.00    -0.206 F 
ATOM     71  C   UNL A   1      41.541  26.368  25.376  1.00  0.00     0.006 A 
ENDBRANCH  43  64
BRANCH  55  72
ATOM     72  C   UNL A   1      43.901  27.544  34.110  1.00  0.00     0.057 A 
ATOM     73  C   UNL A   1      45.210  28.045  34.099  1.00  0.00     0.134 A 
ATOM     74  C   UNL A   1      43.695  26.289  34.700  1.00  0.00     0.134 A 
ATOM     75  F   UNL A   1      45.478  29.233  33.537  1.00  0.00    -0.206 F 
ATOM     76  C   UNL A   1      46.274  27.314  34.629  1.00  0.00     0.040 A 
ATOM     77  C   UNL A   1      44.746  25.564  35.261  1.00  0.00     0.040 A 
ATOM     78  F   UNL A   1      42.466  25.754  34.752  1.00  0.00    -0.206 F 
ATOM     79  C   UNL A   1      46.042  26.073  35.220  1.00  0.00     0.006 A 
ENDBRANCH  55  72
ENDBRANCH  29  30
ENDBRANCH  22  24
ENDBRANCH  21  22
ENDBRANCH  20  21
ENDBRANCH  19  20
ENDBRANCH   1  19
TORSDOF 16
ENDMDL
