MODEL 1
REMARK VINA RESULT:     -11.3      0.000      0.000
REMARK SMILES O=C(Cc1ccc(OC[C@H]2Cc3ccccc3S2)cc1)OCCOC(=O)c1ccc(-c2c3nc(c(-c4c(F)cccc4F)c4ccc([nH]4)c(-c4c(F)cccc4F)c4nc(c(-c5c(F)cccc5F)c5ccc2[nH]5)C=C4)C=C3)cc1
REMARK SMILES IDX 22 1 21 2 2 3 1 4 3 5 4 6 5 7 20 8 6 9 19 10 7 11 8 12 9 13
REMARK SMILES IDX 10 14 11 15 18 16 12 17 17 18 13 19 16 20 14 21 15 22 23 23
REMARK SMILES IDX 24 24 25 25 26 26 27 27 28 28 80 29 29 30 79 31 30 32 31 33
REMARK SMILES IDX 32 34 73 35 33 36 78 37 72 38 74 39 34 40 77 41 71 42 70 43
REMARK SMILES IDX 35 45 61 46 44 47 60 48 45 49 48 50 59 51 75 52 46 53 47 54
REMARK SMILES IDX 58 56 76 57 49 58 36 59 37 60 42 61 38 62 39 63 41 64 43 65
REMARK SMILES IDX 40 66 62 67 63 68 68 69 64 70 65 71 67 72 69 73 66 74 50 75
REMARK SMILES IDX 51 76 56 77 52 78 53 79 55 80 57 81 54 82
REMARK H PARENT 74 44 48 55
REMARK Flexibility Score: inf
ROOT
ATOM      1  C   UNL A   1      43.316  21.159  25.792  1.00  0.00     0.274 C 
ENDROOT
BRANCH   1   2
ATOM      2  O   UNL A   1      41.936  20.743  25.801  1.00  0.00    -0.462 OA
BRANCH   2   3
ATOM      3  C   UNL A   1      41.080  20.961  26.832  1.00  0.00     0.310 C 
ATOM      4  O   UNL A   1      40.804  20.048  27.609  1.00  0.00    -0.252 OA
BRANCH   3   5
ATOM      5  C   UNL A   1      40.390  22.298  26.924  1.00  0.00     0.158 C 
BRANCH   5   6
ATOM      6  C   UNL A   1      39.053  22.407  26.240  1.00  0.00    -0.037 A 
ATOM      7  C   UNL A   1      38.491  21.308  25.580  1.00  0.00     0.008 A 
ATOM      8  C   UNL A   1      38.288  23.571  26.371  1.00  0.00     0.008 A 
ATOM      9  C   UNL A   1      37.152  21.320  25.200  1.00  0.00     0.047 A 
ATOM     10  C   UNL A   1      36.947  23.583  25.977  1.00  0.00     0.047 A 
ATOM     11  C   UNL A   1      36.353  22.423  25.482  1.00  0.00     0.119 A 
BRANCH  11  12
ATOM     12  O   UNL A   1      35.015  22.210  25.296  1.00  0.00    -0.492 OA
BRANCH  12  13
ATOM     13  C   UNL A   1      34.271  23.218  24.614  1.00  0.00     0.244 C 
BRANCH  13  14
ATOM     14  C   UNL A   1      33.722  24.371  25.470  1.00  0.00     0.094 C 
ATOM     15  C   UNL A   1      34.271  25.770  25.140  1.00  0.00     0.055 C 
ATOM     16  S   UNL A   1      31.901  24.602  25.539  1.00  0.00    -0.119 SA
ATOM     17  C   UNL A   1      33.403  26.721  25.928  1.00  0.00    -0.033 A 
ATOM     18  C   UNL A   1      32.096  26.260  26.117  1.00  0.00     0.011 A 
ATOM     19  C   UNL A   1      33.787  27.951  26.450  1.00  0.00     0.005 A 
ATOM     20  C   UNL A   1      31.147  27.015  26.783  1.00  0.00     0.015 A 
ATOM     21  C   UNL A   1      32.851  28.698  27.172  1.00  0.00     0.000 A 
ATOM     22  C   UNL A   1      31.535  28.240  27.326  1.00  0.00     0.001 A 
ENDBRANCH  13  14
ENDBRANCH  12  13
ENDBRANCH  11  12
ENDBRANCH   5   6
ENDBRANCH   3   5
ENDBRANCH   2   3
ENDBRANCH   1   2
BRANCH   1  23
ATOM     23  C   UNL A   1      43.638  22.142  24.664  1.00  0.00     0.275 C 
BRANCH  23  24
ATOM     24  O   UNL A   1      43.067  23.435  24.926  1.00  0.00    -0.458 OA
BRANCH  24  25
ATOM     25  C   UNL A   1      43.966  24.412  25.204  1.00  0.00     0.338 C 
ATOM     26  O   UNL A   1      45.006  24.643  24.609  1.00  0.00    -0.246 OA
BRANCH  25  27
ATOM     27  C   UNL A   1      43.416  25.295  26.252  1.00  0.00     0.060 A 
ATOM     28  C   UNL A   1      43.866  26.620  26.295  1.00  0.00     0.016 A 
ATOM     29  C   UNL A   1      42.470  24.840  27.176  1.00  0.00     0.016 A 
ATOM     30  C   UNL A   1      43.377  27.494  27.269  1.00  0.00     0.010 A 
ATOM     31  C   UNL A   1      41.992  25.714  28.157  1.00  0.00     0.010 A 
ATOM     32  C   UNL A   1      42.451  27.041  28.217  1.00  0.00    -0.014 A 
BRANCH  32  33
ATOM     33  C   UNL A   1      42.011  27.923  29.324  1.00  0.00     0.031 A 
ATOM     34  C   UNL A   1      42.713  27.846  30.650  1.00  0.00     0.074 A 
ATOM     35  C   UNL A   1      40.969  28.757  29.159  1.00  0.00     0.049 A 
ATOM     36  N   UNL A   1      42.430  28.459  31.772  1.00  0.00    -0.248 NA
ATOM     37  C   UNL A   1      43.882  26.957  30.725  1.00  0.00     0.031 C 
ATOM     38  C   UNL A   1      40.211  28.934  27.922  1.00  0.00     0.029 A 
ATOM     39  N   UNL A   1      40.352  29.595  30.056  1.00  0.00    -0.354 N 
ATOM     40  C   UNL A   1      43.380  28.025  32.687  1.00  0.00     0.074 A 
ATOM     41  C   UNL A   1      44.239  27.087  31.996  1.00  0.00     0.031 C 
ATOM     42  C   UNL A   1      39.209  29.802  28.146  1.00  0.00     0.029 A 
ATOM     43  C   UNL A   1      39.241  30.221  29.547  1.00  0.00     0.049 A 
ATOM     44  H   UNL A   1      40.675  29.733  30.975  1.00  0.00     0.167 HD
ATOM     45  C   UNL A   1      43.523  28.380  33.985  1.00  0.00     0.037 A 
ATOM     46  C   UNL A   1      38.331  31.009  30.153  1.00  0.00     0.037 A 
ATOM     47  C   UNL A   1      42.676  29.317  34.675  1.00  0.00     0.049 A 
ATOM     48  C   UNL A   1      38.473  31.326  31.619  1.00  0.00     0.074 A 
ATOM     49  C   UNL A   1      42.793  29.788  35.971  1.00  0.00     0.029 A 
ATOM     50  N   UNL A   1      41.549  29.910  34.132  1.00  0.00    -0.354 N 
ATOM     51  N   UNL A   1      39.413  30.964  32.457  1.00  0.00    -0.248 NA
ATOM     52  C   UNL A   1      37.417  32.153  32.224  1.00  0.00     0.031 C 
ATOM     53  C   UNL A   1      41.703  30.625  36.231  1.00  0.00     0.029 A 
ATOM     54  C   UNL A   1      40.934  30.707  35.082  1.00  0.00     0.049 A 
ATOM     55  H   UNL A   1      41.233  29.784  33.208  1.00  0.00     0.167 HD
ATOM     56  C   UNL A   1      39.071  31.531  33.679  1.00  0.00     0.074 A 
ATOM     57  C   UNL A   1      37.847  32.275  33.472  1.00  0.00     0.031 C 
ATOM     58  C   UNL A   1      39.715  31.443  34.867  1.00  0.00     0.037 A 
BRANCH  45  59
ATOM     59  C   UNL A   1      44.629  27.740  34.766  1.00  0.00     0.057 A 
ATOM     60  C   UNL A   1      45.897  28.323  34.861  1.00  0.00     0.134 A 
ATOM     61  C   UNL A   1      44.395  26.567  35.494  1.00  0.00     0.134 A 
ATOM     62  F   UNL A   1      46.184  29.442  34.179  1.00  0.00    -0.206 F 
ATOM     63  C   UNL A   1      46.899  27.757  35.651  1.00  0.00     0.040 A 
ATOM     64  C   UNL A   1      45.382  26.003  36.302  1.00  0.00     0.040 A 
ATOM     65  F   UNL A   1      43.197  25.964  35.447  1.00  0.00    -0.206 F 
ATOM     66  C   UNL A   1      46.640  26.598  36.381  1.00  0.00     0.006 A 
ENDBRANCH  45  59
BRANCH  46  67
ATOM     67  C   UNL A   1      37.156  31.510  29.399  1.00  0.00     0.057 A 
ATOM     68  C   UNL A   1      36.032  30.709  29.177  1.00  0.00     0.134 A 
ATOM     69  C   UNL A   1      37.165  32.787  28.827  1.00  0.00     0.134 A 
ATOM     70  F   UNL A   1      35.985  29.461  29.665  1.00  0.00    -0.206 F 
ATOM     71  C   UNL A   1      34.963  31.154  28.395  1.00  0.00     0.040 A 
ATOM     72  C   UNL A   1      36.090  33.258  28.071  1.00  0.00     0.040 A 
ATOM     73  F   UNL A   1      38.230  33.585  28.981  1.00  0.00    -0.206 F 
ATOM     74  C   UNL A   1      34.989  32.434  27.845  1.00  0.00     0.006 A 
ENDBRANCH  46  67
BRANCH  58  75
ATOM     75  C   UNL A   1      39.123  32.175  36.034  1.00  0.00     0.057 A 
ATOM     76  C   UNL A   1      39.418  33.522  36.282  1.00  0.00     0.134 A 
ATOM     77  C   UNL A   1      38.207  31.545  36.886  1.00  0.00     0.134 A 
ATOM     78  F   UNL A   1      40.299  34.178  35.511  1.00  0.00    -0.206 F 
ATOM     79  C   UNL A   1      38.829  34.213  37.342  1.00  0.00     0.040 A 
ATOM     80  C   UNL A   1      37.595  32.232  37.935  1.00  0.00     0.040 A 
ATOM     81  F   UNL A   1      37.876  30.259  36.698  1.00  0.00    -0.206 F 
ATOM     82  C   UNL A   1      37.908  33.570  38.167  1.00  0.00     0.006 A 
ENDBRANCH  58  75
ENDBRANCH  32  33
ENDBRANCH  25  27
ENDBRANCH  24  25
ENDBRANCH  23  24
ENDBRANCH   1  23
TORSDOF 15
ENDMDL
MODEL 2
REMARK VINA RESULT:     -11.3      1.531      3.006
REMARK SMILES O=C(Cc1ccc(OC[C@H]2Cc3ccccc3S2)cc1)OCCOC(=O)c1ccc(-c2c3nc(c(-c4c(F)cccc4F)c4ccc([nH]4)c(-c4c(F)cccc4F)c4nc(c(-c5c(F)cccc5F)c5ccc2[nH]5)C=C4)C=C3)cc1
REMARK SMILES IDX 22 1 21 2 2 3 1 4 3 5 4 6 5 7 20 8 6 9 19 10 7 11 8 12 9 13
REMARK SMILES IDX 10 14 11 15 18 16 12 17 17 18 13 19 16 20 14 21 15 22 23 23
REMARK SMILES IDX 24 24 25 25 26 26 27 27 28 28 80 29 29 30 79 31 30 32 31 33
REMARK SMILES IDX 32 34 73 35 33 36 78 37 72 38 74 39 34 40 77 41 71 42 70 43
REMARK SMILES IDX 35 45 61 46 44 47 60 48 45 49 48 50 59 51 75 52 46 53 47 54
REMARK SMILES IDX 58 56 76 57 49 58 36 59 37 60 42 61 38 62 39 63 41 64 43 65
REMARK SMILES IDX 40 66 62 67 63 68 68 69 64 70 65 71 67 72 69 73 66 74 50 75
REMARK SMILES IDX 51 76 56 77 52 78 53 79 55 80 57 81 54 82
REMARK H PARENT 74 44 48 55
REMARK Flexibility Score: inf
ROOT
ATOM      1  C   UNL A   1      43.595  20.522  25.440  1.00  0.00     0.274 C 
ENDROOT
BRANCH   1   2
ATOM      2  O   UNL A   1      42.197  20.714  25.737  1.00  0.00    -0.462 OA
BRANCH   2   3
ATOM      3  C   UNL A   1      41.625  20.423  26.933  1.00  0.00     0.310 C 
ATOM      4  O   UNL A   1      41.720  19.290  27.404  1.00  0.00    -0.252 OA
BRANCH   3   5
ATOM      5  C   UNL A   1      40.777  21.475  27.600  1.00  0.00     0.158 C 
BRANCH   5   6
ATOM      6  C   UNL A   1      39.737  22.140  26.736  1.00  0.00    -0.037 A 
ATOM      7  C   UNL A   1      39.032  21.412  25.770  1.00  0.00     0.008 A 
ATOM      8  C   UNL A   1      39.364  23.466  26.979  1.00  0.00     0.008 A 
ATOM      9  C   UNL A   1      37.890  21.945  25.178  1.00  0.00     0.047 A 
ATOM     10  C   UNL A   1      38.225  24.001  26.372  1.00  0.00     0.047 A 
ATOM     11  C   UNL A   1      37.431  23.205  25.547  1.00  0.00     0.119 A 
BRANCH  11  12
ATOM     12  O   UNL A   1      36.175  23.501  25.094  1.00  0.00    -0.492 OA
BRANCH  12  13
ATOM     13  C   UNL A   1      35.088  22.730  25.601  1.00  0.00     0.244 C 
BRANCH  13  14
ATOM     14  C   UNL A   1      34.635  21.532  24.750  1.00  0.00     0.094 C 
ATOM     15  C   UNL A   1      34.846  20.144  25.382  1.00  0.00     0.055 C 
ATOM     16  S   UNL A   1      32.895  21.502  24.161  1.00  0.00    -0.119 SA
ATOM     17  C   UNL A   1      34.103  19.191  24.478  1.00  0.00    -0.033 A 
ATOM     18  C   UNL A   1      32.990  19.765  23.854  1.00  0.00     0.011 A 
ATOM     19  C   UNL A   1      34.426  17.861  24.235  1.00  0.00     0.005 A 
ATOM     20  C   UNL A   1      32.165  19.031  23.020  1.00  0.00     0.015 A 
ATOM     21  C   UNL A   1      33.631  17.125  23.350  1.00  0.00     0.000 A 
ATOM     22  C   UNL A   1      32.499  17.703  22.756  1.00  0.00     0.001 A 
ENDBRANCH  13  14
ENDBRANCH  12  13
ENDBRANCH  11  12
ENDBRANCH   5   6
ENDBRANCH   3   5
ENDBRANCH   2   3
ENDBRANCH   1   2
BRANCH   1  23
ATOM     23  C   UNL A   1      44.336  21.833  25.171  1.00  0.00     0.275 C 
BRANCH  23  24
ATOM     24  O   UNL A   1      43.964  22.843  26.123  1.00  0.00    -0.458 OA
BRANCH  24  25
ATOM     25  C   UNL A   1      44.174  24.120  25.716  1.00  0.00     0.338 C 
ATOM     26  O   UNL A   1      44.626  24.482  24.643  1.00  0.00    -0.246 OA
BRANCH  25  27
ATOM     27  C   UNL A   1      43.605  25.048  26.715  1.00  0.00     0.060 A 
ATOM     28  C   UNL A   1      44.073  26.368  26.722  1.00  0.00     0.016 A 
ATOM     29  C   UNL A   1      42.626  24.641  27.625  1.00  0.00     0.016 A 
ATOM     30  C   UNL A   1      43.567  27.284  27.648  1.00  0.00     0.010 A 
ATOM     31  C   UNL A   1      42.130  25.556  28.558  1.00  0.00     0.010 A 
ATOM     32  C   UNL A   1      42.606  26.879  28.583  1.00  0.00    -0.014 A 
BRANCH  32  33
ATOM     33  C   UNL A   1      42.146  27.807  29.643  1.00  0.00     0.031 A 
ATOM     34  C   UNL A   1      42.823  27.788  30.984  1.00  0.00     0.074 A 
ATOM     35  C   UNL A   1      41.106  28.632  29.423  1.00  0.00     0.049 A 
ATOM     36  N   UNL A   1      42.519  28.448  32.073  1.00  0.00    -0.248 NA
ATOM     37  C   UNL A   1      43.991  26.904  31.119  1.00  0.00     0.031 C 
ATOM     38  C   UNL A   1      40.372  28.755  28.165  1.00  0.00     0.029 A 
ATOM     39  N   UNL A   1      40.473  29.507  30.272  1.00  0.00    -0.354 N 
ATOM     40  C   UNL A   1      43.452  28.055  33.023  1.00  0.00     0.074 A 
ATOM     41  C   UNL A   1      44.324  27.088  32.389  1.00  0.00     0.031 C 
ATOM     42  C   UNL A   1      39.366  29.632  28.333  1.00  0.00     0.029 A 
ATOM     43  C   UNL A   1      39.371  30.109  29.716  1.00  0.00     0.049 A 
ATOM     44  H   UNL A   1      40.779  29.685  31.190  1.00  0.00     0.167 HD
ATOM     45  C   UNL A   1      43.571  28.465  34.308  1.00  0.00     0.037 A 
ATOM     46  C   UNL A   1      38.451  30.922  30.271  1.00  0.00     0.037 A 
ATOM     47  C   UNL A   1      42.711  29.430  34.941  1.00  0.00     0.049 A 
ATOM     48  C   UNL A   1      38.565  31.302  31.724  1.00  0.00     0.074 A 
ATOM     49  C   UNL A   1      42.804  29.955  36.217  1.00  0.00     0.029 A 
ATOM     50  N   UNL A   1      41.594  29.998  34.352  1.00  0.00    -0.354 N 
ATOM     51  N   UNL A   1      39.489  30.977  32.594  1.00  0.00    -0.248 NA
ATOM     52  C   UNL A   1      37.498  32.153  32.274  1.00  0.00     0.031 C 
ATOM     53  C   UNL A   1      41.709  30.802  36.421  1.00  0.00     0.029 A 
ATOM     54  C   UNL A   1      40.961  30.834  35.256  1.00  0.00     0.049 A 
ATOM     55  H   UNL A   1      41.295  29.832  33.428  1.00  0.00     0.167 HD
ATOM     56  C   UNL A   1      39.125  31.596  33.784  1.00  0.00     0.074 A 
ATOM     57  C   UNL A   1      37.905  32.328  33.523  1.00  0.00     0.031 C 
ATOM     58  C   UNL A   1      39.747  31.559  34.987  1.00  0.00     0.037 A 
BRANCH  45  59
ATOM     59  C   UNL A   1      44.662  27.860  35.135  1.00  0.00     0.057 A 
ATOM     60  C   UNL A   1      44.469  26.677  35.858  1.00  0.00     0.134 A 
ATOM     61  C   UNL A   1      45.943  28.427  35.144  1.00  0.00     0.134 A 
ATOM     62  F   UNL A   1      43.263  26.092  35.895  1.00  0.00    -0.206 F 
ATOM     63  C   UNL A   1      45.513  26.081  36.567  1.00  0.00     0.040 A 
ATOM     64  C   UNL A   1      46.998  27.830  35.833  1.00  0.00     0.040 A 
ATOM     65  F   UNL A   1      46.191  29.558  34.466  1.00  0.00    -0.206 F 
ATOM     66  C   UNL A   1      46.784  26.653  36.548  1.00  0.00     0.006 A 
ENDBRANCH  45  59
BRANCH  46  67
ATOM     67  C   UNL A   1      37.290  31.389  29.474  1.00  0.00     0.057 A 
ATOM     68  C   UNL A   1      36.183  30.567  29.240  1.00  0.00     0.134 A 
ATOM     69  C   UNL A   1      37.296  32.653  28.874  1.00  0.00     0.134 A 
ATOM     70  F   UNL A   1      36.140  29.330  29.755  1.00  0.00    -0.206 F 
ATOM     71  C   UNL A   1      35.130  30.980  28.420  1.00  0.00     0.040 A 
ATOM     72  C   UNL A   1      36.237  33.091  28.079  1.00  0.00     0.040 A 
ATOM     73  F   UNL A   1      38.347  33.469  29.038  1.00  0.00    -0.206 F 
ATOM     74  C   UNL A   1      35.153  32.248  27.842  1.00  0.00     0.006 A 
ENDBRANCH  46  67
BRANCH  58  75
ATOM     75  C   UNL A   1      39.133  32.340  36.110  1.00  0.00     0.057 A 
ATOM     76  C   UNL A   1      39.472  33.679  36.345  1.00  0.00     0.134 A 
ATOM     77  C   UNL A   1      38.153  31.767  36.931  1.00  0.00     0.134 A 
ATOM     78  F   UNL A   1      40.414  34.282  35.603  1.00  0.00    -0.206 F 
ATOM     79  C   UNL A   1      38.865  34.416  37.363  1.00  0.00     0.040 A 
ATOM     80  C   UNL A   1      37.523  32.500  37.937  1.00  0.00     0.040 A 
ATOM     81  F   UNL A   1      37.778  30.491  36.753  1.00  0.00    -0.206 F 
ATOM     82  C   UNL A   1      37.882  33.829  38.156  1.00  0.00     0.006 A 
ENDBRANCH  58  75
ENDBRANCH  32  33
ENDBRANCH  25  27
ENDBRANCH  24  25
ENDBRANCH  23  24
ENDBRANCH   1  23
TORSDOF 15
ENDMDL
MODEL 3
REMARK VINA RESULT:     -11.3      1.313      2.106
REMARK SMILES O=C(Cc1ccc(OC[C@H]2Cc3ccccc3S2)cc1)OCCOC(=O)c1ccc(-c2c3nc(c(-c4c(F)cccc4F)c4ccc([nH]4)c(-c4c(F)cccc4F)c4nc(c(-c5c(F)cccc5F)c5ccc2[nH]5)C=C4)C=C3)cc1
REMARK SMILES IDX 22 1 21 2 2 3 1 4 3 5 4 6 5 7 20 8 6 9 19 10 7 11 8 12 9 13
REMARK SMILES IDX 10 14 11 15 18 16 12 17 17 18 13 19 16 20 14 21 15 22 23 23
REMARK SMILES IDX 24 24 25 25 26 26 27 27 28 28 80 29 29 30 79 31 30 32 31 33
REMARK SMILES IDX 32 34 73 35 33 36 78 37 72 38 74 39 34 40 77 41 71 42 70 43
REMARK SMILES IDX 35 45 61 46 44 47 60 48 45 49 48 50 59 51 75 52 46 53 47 54
REMARK SMILES IDX 58 56 76 57 49 58 36 59 37 60 42 61 38 62 39 63 41 64 43 65
REMARK SMILES IDX 40 66 62 67 63 68 68 69 64 70 65 71 67 72 69 73 66 74 50 75
REMARK SMILES IDX 51 76 56 77 52 78 53 79 55 80 57 81 54 82
REMARK H PARENT 74 44 48 55
REMARK Flexibility Score: inf
ROOT
ATOM      1  C   UNL A   1      44.514  20.321  25.260  1.00  0.00     0.274 C 
ENDROOT
BRANCH   1   2
ATOM      2  O   UNL A   1      43.105  20.033  25.162  1.00  0.00    -0.462 OA
BRANCH   2   3
ATOM      3  C   UNL A   1      42.461  19.110  25.920  1.00  0.00     0.310 C 
ATOM      4  O   UNL A   1      42.710  17.913  25.780  1.00  0.00    -0.252 OA
BRANCH   3   5
ATOM      5  C   UNL A   1      41.357  19.573  26.835  1.00  0.00     0.158 C 
BRANCH   5   6
ATOM      6  C   UNL A   1      40.185  20.252  26.175  1.00  0.00    -0.037 A 
ATOM      7  C   UNL A   1      39.245  19.515  25.445  1.00  0.00     0.008 A 
ATOM      8  C   UNL A   1      39.943  21.612  26.397  1.00  0.00     0.008 A 
ATOM      9  C   UNL A   1      38.027  20.084  25.082  1.00  0.00     0.047 A 
ATOM     10  C   UNL A   1      38.725  22.183  26.020  1.00  0.00     0.047 A 
ATOM     11  C   UNL A   1      37.727  21.392  25.450  1.00  0.00     0.119 A 
BRANCH  11  12
ATOM     12  O   UNL A   1      36.418  21.741  25.266  1.00  0.00    -0.492 OA
BRANCH  12  13
ATOM     13  C   UNL A   1      35.936  22.896  25.951  1.00  0.00     0.244 C 
BRANCH  13  14
ATOM     14  C   UNL A   1      34.650  23.538  25.404  1.00  0.00     0.094 C 
ATOM     15  C   UNL A   1      34.655  23.870  23.901  1.00  0.00     0.055 C 
ATOM     16  S   UNL A   1      33.064  22.651  25.669  1.00  0.00    -0.119 SA
ATOM     17  C   UNL A   1      33.226  24.240  23.583  1.00  0.00    -0.033 A 
ATOM     18  C   UNL A   1      32.286  23.581  24.385  1.00  0.00     0.011 A 
ATOM     19  C   UNL A   1      32.801  25.135  22.609  1.00  0.00     0.005 A 
ATOM     20  C   UNL A   1      30.926  23.766  24.212  1.00  0.00     0.015 A 
ATOM     21  C   UNL A   1      31.430  25.370  22.462  1.00  0.00     0.000 A 
ATOM     22  C   UNL A   1      30.497  24.680  23.250  1.00  0.00     0.001 A 
ENDBRANCH  13  14
ENDBRANCH  12  13
ENDBRANCH  11  12
ENDBRANCH   5   6
ENDBRANCH   3   5
ENDBRANCH   2   3
ENDBRANCH   1   2
BRANCH   1  23
ATOM     23  C   UNL A   1      44.804  21.721  25.804  1.00  0.00     0.275 C 
BRANCH  23  24
ATOM     24  O   UNL A   1      43.591  22.476  25.963  1.00  0.00    -0.458 OA
BRANCH  24  25
ATOM     25  C   UNL A   1      43.619  23.723  25.431  1.00  0.00     0.338 C 
ATOM     26  O   UNL A   1      43.875  24.022  24.276  1.00  0.00    -0.246 OA
BRANCH  25  27
ATOM     27  C   UNL A   1      43.113  24.688  26.428  1.00  0.00     0.060 A 
ATOM     28  C   UNL A   1      43.671  25.973  26.438  1.00  0.00     0.016 A 
ATOM     29  C   UNL A   1      42.106  24.349  27.337  1.00  0.00     0.016 A 
ATOM     30  C   UNL A   1      43.228  26.921  27.363  1.00  0.00     0.010 A 
ATOM     31  C   UNL A   1      41.673  25.296  28.269  1.00  0.00     0.010 A 
ATOM     32  C   UNL A   1      42.239  26.582  28.296  1.00  0.00    -0.014 A 
BRANCH  32  33
ATOM     33  C   UNL A   1      41.842  27.540  29.356  1.00  0.00     0.031 A 
ATOM     34  C   UNL A   1      42.535  27.493  30.688  1.00  0.00     0.074 A 
ATOM     35  C   UNL A   1      40.844  28.417  29.144  1.00  0.00     0.049 A 
ATOM     36  N   UNL A   1      42.281  28.175  31.776  1.00  0.00    -0.248 NA
ATOM     37  C   UNL A   1      43.657  26.551  30.813  1.00  0.00     0.031 C 
ATOM     38  C   UNL A   1      40.100  28.570  27.895  1.00  0.00     0.029 A 
ATOM     39  N   UNL A   1      40.269  29.328  29.995  1.00  0.00    -0.354 N 
ATOM     40  C   UNL A   1      43.205  27.739  32.717  1.00  0.00     0.074 A 
ATOM     41  C   UNL A   1      44.016  26.725  32.078  1.00  0.00     0.031 C 
ATOM     42  C   UNL A   1      39.144  29.499  28.071  1.00  0.00     0.029 A 
ATOM     43  C   UNL A   1      39.192  29.984  29.449  1.00  0.00     0.049 A 
ATOM     44  H   UNL A   1      40.596  29.496  30.908  1.00  0.00     0.167 HD
ATOM     45  C   UNL A   1      43.362  28.150  33.997  1.00  0.00     0.037 A 
ATOM     46  C   UNL A   1      38.323  30.847  30.011  1.00  0.00     0.037 A 
ATOM     47  C   UNL A   1      42.562  29.163  34.634  1.00  0.00     0.049 A 
ATOM     48  C   UNL A   1      38.476  31.228  31.460  1.00  0.00     0.074 A 
ATOM     49  C   UNL A   1      42.699  29.691  35.907  1.00  0.00     0.029 A 
ATOM     50  N   UNL A   1      41.468  29.785  34.057  1.00  0.00    -0.354 N 
ATOM     51  N   UNL A   1      39.394  30.862  32.320  1.00  0.00    -0.248 NA
ATOM     52  C   UNL A   1      37.462  32.137  32.018  1.00  0.00     0.031 C 
ATOM     53  C   UNL A   1      41.652  30.594  36.119  1.00  0.00     0.029 A 
ATOM     54  C   UNL A   1      40.892  30.658  34.963  1.00  0.00     0.049 A 
ATOM     55  H   UNL A   1      41.149  29.629  33.138  1.00  0.00     0.167 HD
ATOM     56  C   UNL A   1      39.078  31.505  33.511  1.00  0.00     0.074 A 
ATOM     57  C   UNL A   1      37.894  32.299  33.261  1.00  0.00     0.031 C 
ATOM     58  C   UNL A   1      39.714  31.443  34.705  1.00  0.00     0.037 A 
BRANCH  45  59
ATOM     59  C   UNL A   1      44.431  27.494  34.814  1.00  0.00     0.057 A 
ATOM     60  C   UNL A   1      45.721  28.027  34.904  1.00  0.00     0.134 A 
ATOM     61  C   UNL A   1      44.141  26.359  35.582  1.00  0.00     0.134 A 
ATOM     62  F   UNL A   1      46.062  29.107  34.185  1.00  0.00    -0.206 F 
ATOM     63  C   UNL A   1      46.690  27.450  35.726  1.00  0.00     0.040 A 
ATOM     64  C   UNL A   1      45.094  25.785  36.422  1.00  0.00     0.040 A 
ATOM     65  F   UNL A   1      42.919  25.805  35.542  1.00  0.00    -0.206 F 
ATOM     66  C   UNL A   1      46.374  26.331  36.495  1.00  0.00     0.006 A 
ENDBRANCH  45  59
BRANCH  46  67
ATOM     67  C   UNL A   1      37.177  31.369  29.226  1.00  0.00     0.057 A 
ATOM     68  C   UNL A   1      37.175  32.667  28.708  1.00  0.00     0.134 A 
ATOM     69  C   UNL A   1      36.028  30.593  29.036  1.00  0.00     0.134 A 
ATOM     70  F   UNL A   1      38.232  33.471  28.896  1.00  0.00    -0.206 F 
ATOM     71  C   UNL A   1      36.061  33.184  28.043  1.00  0.00     0.040 A 
ATOM     72  C   UNL A   1      34.920  31.085  28.345  1.00  0.00     0.040 A 
ATOM     73  F   UNL A   1      35.963  29.353  29.540  1.00  0.00    -0.206 F 
ATOM     74  C   UNL A   1      34.931  32.389  27.856  1.00  0.00     0.006 A 
ENDBRANCH  46  67
BRANCH  58  75
ATOM     75  C   UNL A   1      39.156  32.262  35.831  1.00  0.00     0.057 A 
ATOM     76  C   UNL A   1      38.263  31.718  36.763  1.00  0.00     0.134 A 
ATOM     77  C   UNL A   1      39.559  33.590  36.020  1.00  0.00     0.134 A 
ATOM     78  F   UNL A   1      37.827  30.456  36.630  1.00  0.00    -0.206 F 
ATOM     79  C   UNL A   1      37.782  32.470  37.836  1.00  0.00     0.040 A 
ATOM     80  C   UNL A   1      39.103  34.345  37.101  1.00  0.00     0.040 A 
ATOM     81  F   UNL A   1      40.419  34.168  35.168  1.00  0.00    -0.206 F 
ATOM     82  C   UNL A   1      38.208  33.785  38.012  1.00  0.00     0.006 A 
ENDBRANCH  58  75
ENDBRANCH  32  33
ENDBRANCH  25  27
ENDBRANCH  24  25
ENDBRANCH  23  24
ENDBRANCH   1  23
TORSDOF 15
ENDMDL
