MODEL 1
REMARK VINA RESULT:     -11.3      0.000      0.000
REMARK SMILES CC(C)n1ncnc1C[C@H](C(=O)OCCOC(=O)c1ccc(-c2c3nc(c(-c4c(F)cccc4F)c4ccc([nH]4)c(-c4c(F)cccc4F)c4nc(c(-c5c(F)cccc5F)c5ccc2[nH]5)C=C4)C=C3)cc1)c1ccccc1F
REMARK SMILES IDX 14 1 13 2 11 3 12 4 10 5 9 6 8 7 4 8 5 9 6 10 7 11 2 12 1 13
REMARK SMILES IDX 3 14 73 15 74 16 78 17 75 18 77 19 79 20 76 21 15 22 16 23
REMARK SMILES IDX 17 24 18 25 19 26 20 27 72 28 21 29 71 30 22 31 23 32 24 33
REMARK SMILES IDX 65 34 25 35 70 36 64 37 66 38 26 39 69 40 63 41 62 42 27 44
REMARK SMILES IDX 53 45 36 46 52 47 37 48 40 49 51 50 67 51 38 52 39 53 50 55
REMARK SMILES IDX 68 56 41 57 28 58 29 59 34 60 30 61 31 62 33 63 35 64 32 65
REMARK SMILES IDX 54 66 55 67 60 68 56 69 57 70 59 71 61 72 58 73 42 74 43 75
REMARK SMILES IDX 48 76 44 77 45 78 47 79 49 80 46 81
REMARK H PARENT 66 43 40 54
REMARK Flexibility Score: inf
ROOT
ATOM      1  C   UNL A   1      34.269  29.201  26.451  1.00  0.00     0.274 C 
ENDROOT
BRANCH   1   2
ATOM      2  O   UNL A   1      34.208  27.762  26.488  1.00  0.00    -0.462 OA
BRANCH   2   3
ATOM      3  C   UNL A   1      32.982  27.169  26.463  1.00  0.00     0.314 C 
ATOM      4  O   UNL A   1      32.012  27.570  27.098  1.00  0.00    -0.252 OA
BRANCH   3   5
ATOM      5  C   UNL A   1      32.913  25.966  25.507  1.00  0.00     0.140 C 
BRANCH   5   6
ATOM      6  C   UNL A   1      33.630  26.445  24.213  1.00  0.00     0.097 C 
BRANCH   6   7
ATOM      7  C   UNL A   1      33.001  26.243  22.875  1.00  0.00     0.128 A 
ATOM      8  N   UNL A   1      31.754  26.684  22.482  1.00  0.00    -0.248 N 
ATOM      9  N   UNL A   1      31.502  26.326  21.204  1.00  0.00    -0.159 NA
ATOM     10  C   UNL A   1      32.642  25.735  20.858  1.00  0.00     0.246 A 
ATOM     11  N   UNL A   1      33.589  25.686  21.833  1.00  0.00    -0.220 NA
BRANCH   8  12
ATOM     12  C   UNL A   1      30.759  27.463  23.211  1.00  0.00     0.103 C 
ATOM     13  C   UNL A   1      30.180  28.597  22.357  1.00  0.00     0.033 C 
ATOM     14  C   UNL A   1      29.645  26.570  23.754  1.00  0.00     0.033 C 
ENDBRANCH   8  12
ENDBRANCH   6   7
ENDBRANCH   5   6
BRANCH   5  15
ATOM     15  C   UNL A   1      33.229  24.613  26.142  1.00  0.00     0.002 A 
ATOM     16  C   UNL A   1      32.246  23.773  26.697  1.00  0.00     0.007 A 
ATOM     17  C   UNL A   1      34.530  24.101  26.110  1.00  0.00     0.127 A 
ATOM     18  C   UNL A   1      32.579  22.587  27.356  1.00  0.00     0.001 A 
ATOM     19  C   UNL A   1      34.881  22.931  26.782  1.00  0.00     0.039 A 
ATOM     20  F   UNL A   1      35.474  24.713  25.381  1.00  0.00    -0.207 F 
ATOM     21  C   UNL A   1      33.905  22.186  27.434  1.00  0.00     0.003 A 
ENDBRANCH   5  15
ENDBRANCH   3   5
ENDBRANCH   2   3
ENDBRANCH   1   2
BRANCH   1  22
ATOM     22  C   UNL A   1      34.744  29.791  27.771  1.00  0.00     0.275 C 
BRANCH  22  23
ATOM     23  O   UNL A   1      35.882  30.629  27.574  1.00  0.00    -0.458 OA
BRANCH  23  24
ATOM     24  C   UNL A   1      36.760  30.573  28.593  1.00  0.00     0.338 C 
ATOM     25  O   UNL A   1      36.832  31.324  29.560  1.00  0.00    -0.246 OA
BRANCH  24  26
ATOM     26  C   UNL A   1      37.745  29.527  28.358  1.00  0.00     0.060 A 
ATOM     27  C   UNL A   1      37.893  28.528  29.326  1.00  0.00     0.016 A 
ATOM     28  C   UNL A   1      38.676  29.713  27.331  1.00  0.00     0.016 A 
ATOM     29  C   UNL A   1      39.045  27.776  29.341  1.00  0.00     0.010 A 
ATOM     30  C   UNL A   1      39.840  28.981  27.364  1.00  0.00     0.010 A 
ATOM     31  C   UNL A   1      40.033  28.065  28.404  1.00  0.00    -0.014 A 
BRANCH  31  32
ATOM     32  C   UNL A   1      41.306  27.384  28.534  1.00  0.00     0.031 A 
ATOM     33  C   UNL A   1      42.088  27.731  29.741  1.00  0.00     0.074 A 
ATOM     34  C   UNL A   1      41.630  26.386  27.690  1.00  0.00     0.049 A 
ATOM     35  N   UNL A   1      43.326  28.091  29.819  1.00  0.00    -0.248 NA
ATOM     36  C   UNL A   1      41.374  27.746  31.029  1.00  0.00     0.031 C 
ATOM     37  C   UNL A   1      40.773  25.793  26.659  1.00  0.00     0.029 A 
ATOM     38  N   UNL A   1      42.734  25.589  27.678  1.00  0.00    -0.354 N 
ATOM     39  C   UNL A   1      43.603  28.172  31.181  1.00  0.00     0.074 A 
ATOM     40  C   UNL A   1      42.343  28.101  31.870  1.00  0.00     0.031 C 
ATOM     41  C   UNL A   1      41.286  24.599  26.296  1.00  0.00     0.029 A 
ATOM     42  C   UNL A   1      42.544  24.396  26.996  1.00  0.00     0.049 A 
ATOM     43  H   UNL A   1      43.583  25.834  28.112  1.00  0.00     0.167 HD
ATOM     44  C   UNL A   1      44.865  28.003  31.653  1.00  0.00     0.037 A 
ATOM     45  C   UNL A   1      43.312  23.282  27.081  1.00  0.00     0.037 A 
ATOM     46  C   UNL A   1      45.859  28.293  30.654  1.00  0.00     0.049 A 
ATOM     47  C   UNL A   1      44.610  23.663  27.684  1.00  0.00     0.074 A 
ATOM     48  C   UNL A   1      46.141  29.379  29.847  1.00  0.00     0.029 A 
ATOM     49  N   UNL A   1      46.588  27.253  30.139  1.00  0.00    -0.354 N 
ATOM     50  N   UNL A   1      45.533  24.360  27.086  1.00  0.00    -0.248 NA
ATOM     51  C   UNL A   1      44.745  23.568  29.132  1.00  0.00     0.031 C 
ATOM     52  C   UNL A   1      46.648  28.826  28.635  1.00  0.00     0.029 A 
ATOM     53  C   UNL A   1      46.664  27.440  28.785  1.00  0.00     0.049 A 
ATOM     54  H   UNL A   1      46.985  26.509  30.648  1.00  0.00     0.167 HD
ATOM     55  C   UNL A   1      46.100  25.130  28.091  1.00  0.00     0.074 A 
ATOM     56  C   UNL A   1      45.672  24.505  29.336  1.00  0.00     0.031 C 
ATOM     57  C   UNL A   1      46.617  26.365  27.824  1.00  0.00     0.037 A 
BRANCH  44  58
ATOM     58  C   UNL A   1      45.163  27.179  32.883  1.00  0.00     0.057 A 
ATOM     59  C   UNL A   1      46.023  27.700  33.864  1.00  0.00     0.134 A 
ATOM     60  C   UNL A   1      44.900  25.795  32.989  1.00  0.00     0.134 A 
ATOM     61  F   UNL A   1      46.364  28.997  33.858  1.00  0.00    -0.206 F 
ATOM     62  C   UNL A   1      46.642  26.890  34.823  1.00  0.00     0.040 A 
ATOM     63  C   UNL A   1      45.467  24.989  33.978  1.00  0.00     0.040 A 
ATOM     64  F   UNL A   1      44.167  25.128  32.088  1.00  0.00    -0.206 F 
ATOM     65  C   UNL A   1      46.371  25.528  34.877  1.00  0.00     0.006 A 
ENDBRANCH  44  58
BRANCH  45  66
ATOM     66  C   UNL A   1      42.910  21.868  26.899  1.00  0.00     0.057 A 
ATOM     67  C   UNL A   1      41.805  21.341  27.580  1.00  0.00     0.134 A 
ATOM     68  C   UNL A   1      43.449  21.057  25.883  1.00  0.00     0.134 A 
ATOM     69  F   UNL A   1      41.187  22.056  28.532  1.00  0.00    -0.206 F 
ATOM     70  C   UNL A   1      41.261  20.089  27.266  1.00  0.00     0.040 A 
ATOM     71  C   UNL A   1      42.929  19.797  25.573  1.00  0.00     0.040 A 
ATOM     72  F   UNL A   1      44.444  21.491  25.097  1.00  0.00    -0.206 F 
ATOM     73  C   UNL A   1      41.823  19.314  26.256  1.00  0.00     0.006 A 
ENDBRANCH  45  66
BRANCH  57  74
ATOM     74  C   UNL A   1      46.882  26.718  26.391  1.00  0.00     0.057 A 
ATOM     75  C   UNL A   1      45.985  27.428  25.580  1.00  0.00     0.134 A 
ATOM     76  C   UNL A   1      48.142  26.438  25.852  1.00  0.00     0.134 A 
ATOM     77  F   UNL A   1      44.798  27.836  26.049  1.00  0.00    -0.206 F 
ATOM     78  C   UNL A   1      46.308  27.788  24.269  1.00  0.00     0.040 A 
ATOM     79  C   UNL A   1      48.490  26.824  24.555  1.00  0.00     0.040 A 
ATOM     80  F   UNL A   1      49.074  25.817  26.593  1.00  0.00    -0.206 F 
ATOM     81  C   UNL A   1      47.566  27.488  23.754  1.00  0.00     0.006 A 
ENDBRANCH  57  74
ENDBRANCH  31  32
ENDBRANCH  24  26
ENDBRANCH  23  24
ENDBRANCH  22  23
ENDBRANCH   1  22
TORSDOF 15
ENDMDL
MODEL 2
REMARK VINA RESULT:     -11.3      1.411      2.886
REMARK SMILES CC(C)n1ncnc1C[C@H](C(=O)OCCOC(=O)c1ccc(-c2c3nc(c(-c4c(F)cccc4F)c4ccc([nH]4)c(-c4c(F)cccc4F)c4nc(c(-c5c(F)cccc5F)c5ccc2[nH]5)C=C4)C=C3)cc1)c1ccccc1F
REMARK SMILES IDX 14 1 13 2 11 3 12 4 10 5 9 6 8 7 4 8 5 9 6 10 7 11 2 12 1 13
REMARK SMILES IDX 3 14 73 15 74 16 78 17 75 18 77 19 79 20 76 21 15 22 16 23
REMARK SMILES IDX 17 24 18 25 19 26 20 27 72 28 21 29 71 30 22 31 23 32 24 33
REMARK SMILES IDX 65 34 25 35 70 36 64 37 66 38 26 39 69 40 63 41 62 42 27 44
REMARK SMILES IDX 53 45 36 46 52 47 37 48 40 49 51 50 67 51 38 52 39 53 50 55
REMARK SMILES IDX 68 56 41 57 28 58 29 59 34 60 30 61 31 62 33 63 35 64 32 65
REMARK SMILES IDX 54 66 55 67 60 68 56 69 57 70 59 71 61 72 58 73 42 74 43 75
REMARK SMILES IDX 48 76 44 77 45 78 47 79 49 80 46 81
REMARK H PARENT 66 43 40 54
REMARK Flexibility Score: inf
ROOT
ATOM      1  C   UNL A   1      33.327  30.350  27.239  1.00  0.00     0.274 C 
ENDROOT
BRANCH   1   2
ATOM      2  O   UNL A   1      33.577  28.948  27.460  1.00  0.00    -0.462 OA
BRANCH   2   3
ATOM      3  C   UNL A   1      32.591  28.061  27.149  1.00  0.00     0.314 C 
ATOM      4  O   UNL A   1      31.609  27.850  27.854  1.00  0.00    -0.252 OA
BRANCH   3   5
ATOM      5  C   UNL A   1      32.800  27.380  25.786  1.00  0.00     0.140 C 
BRANCH   5   6
ATOM      6  C   UNL A   1      33.158  25.906  26.129  1.00  0.00     0.097 C 
BRANCH   6   7
ATOM      7  C   UNL A   1      32.119  24.836  26.064  1.00  0.00     0.128 A 
ATOM      8  N   UNL A   1      31.960  23.911  25.053  1.00  0.00    -0.248 N 
ATOM      9  N   UNL A   1      30.920  23.090  25.317  1.00  0.00    -0.159 NA
ATOM     10  C   UNL A   1      30.533  23.518  26.515  1.00  0.00     0.246 A 
ATOM     11  N   UNL A   1      31.250  24.560  27.018  1.00  0.00    -0.220 NA
BRANCH   8  12
ATOM     12  C   UNL A   1      32.740  23.701  23.839  1.00  0.00     0.103 C 
ATOM     13  C   UNL A   1      32.632  22.260  23.328  1.00  0.00     0.033 C 
ATOM     14  C   UNL A   1      32.344  24.694  22.747  1.00  0.00     0.033 C 
ENDBRANCH   8  12
ENDBRANCH   6   7
ENDBRANCH   5   6
BRANCH   5  15
ATOM     15  C   UNL A   1      31.759  27.723  24.722  1.00  0.00     0.002 A 
ATOM     16  C   UNL A   1      30.458  27.187  24.715  1.00  0.00     0.007 A 
ATOM     17  C   UNL A   1      32.036  28.682  23.741  1.00  0.00     0.127 A 
ATOM     18  C   UNL A   1      29.561  27.446  23.675  1.00  0.00     0.001 A 
ATOM     19  C   UNL A   1      31.161  28.934  22.686  1.00  0.00     0.039 A 
ATOM     20  F   UNL A   1      33.149  29.424  23.824  1.00  0.00    -0.207 F 
ATOM     21  C   UNL A   1      29.929  28.290  22.636  1.00  0.00     0.003 A 
ENDBRANCH   5  15
ENDBRANCH   3   5
ENDBRANCH   2   3
ENDBRANCH   1   2
BRANCH   1  22
ATOM     22  C   UNL A   1      34.461  31.224  27.752  1.00  0.00     0.275 C 
BRANCH  22  23
ATOM     23  O   UNL A   1      35.729  30.650  27.440  1.00  0.00    -0.458 OA
BRANCH  23  24
ATOM     24  C   UNL A   1      36.563  30.609  28.496  1.00  0.00     0.338 C 
ATOM     25  O   UNL A   1      36.579  31.359  29.466  1.00  0.00    -0.246 OA
BRANCH  24  26
ATOM     26  C   UNL A   1      37.578  29.583  28.302  1.00  0.00     0.060 A 
ATOM     27  C   UNL A   1      37.725  28.603  29.291  1.00  0.00     0.016 A 
ATOM     28  C   UNL A   1      38.531  29.776  27.297  1.00  0.00     0.016 A 
ATOM     29  C   UNL A   1      38.894  27.879  29.347  1.00  0.00     0.010 A 
ATOM     30  C   UNL A   1      39.710  29.072  27.371  1.00  0.00     0.010 A 
ATOM     31  C   UNL A   1      39.899  28.177  28.430  1.00  0.00    -0.014 A 
BRANCH  31  32
ATOM     32  C   UNL A   1      41.183  27.529  28.603  1.00  0.00     0.031 A 
ATOM     33  C   UNL A   1      41.911  27.889  29.840  1.00  0.00     0.074 A 
ATOM     34  C   UNL A   1      41.565  26.546  27.766  1.00  0.00     0.049 A 
ATOM     35  N   UNL A   1      43.136  28.280  29.966  1.00  0.00    -0.248 NA
ATOM     36  C   UNL A   1      41.150  27.876  31.101  1.00  0.00     0.031 C 
ATOM     37  C   UNL A   1      40.761  25.937  26.701  1.00  0.00     0.029 A 
ATOM     38  N   UNL A   1      42.689  25.777  27.790  1.00  0.00    -0.354 N 
ATOM     39  C   UNL A   1      43.360  28.359  31.337  1.00  0.00     0.074 A 
ATOM     40  C   UNL A   1      42.078  28.251  31.979  1.00  0.00     0.031 C 
ATOM     41  C   UNL A   1      41.319  24.759  26.351  1.00  0.00     0.029 A 
ATOM     42  C   UNL A   1      42.556  24.584  27.095  1.00  0.00     0.049 A 
ATOM     43  H   UNL A   1      43.515  26.042  28.256  1.00  0.00     0.167 HD
ATOM     44  C   UNL A   1      44.607  28.221  31.854  1.00  0.00     0.037 A 
ATOM     45  C   UNL A   1      43.348  23.491  27.202  1.00  0.00     0.037 A 
ATOM     46  C   UNL A   1      45.630  28.544  30.894  1.00  0.00     0.049 A 
ATOM     47  C   UNL A   1      44.613  23.901  27.855  1.00  0.00     0.074 A 
ATOM     48  C   UNL A   1      45.913  29.642  30.104  1.00  0.00     0.029 A 
ATOM     49  N   UNL A   1      46.404  27.526  30.401  1.00  0.00    -0.354 N 
ATOM     50  N   UNL A   1      45.539  24.626  27.295  1.00  0.00    -0.248 NA
ATOM     51  C   UNL A   1      44.697  23.801  29.306  1.00  0.00     0.031 C 
ATOM     52  C   UNL A   1      46.478  29.110  28.908  1.00  0.00     0.029 A 
ATOM     53  C   UNL A   1      46.525  27.723  29.051  1.00  0.00     0.049 A 
ATOM     54  H   UNL A   1      46.802  26.790  30.920  1.00  0.00     0.167 HD
ATOM     55  C   UNL A   1      46.048  25.404  28.324  1.00  0.00     0.074 A 
ATOM     56  C   UNL A   1      45.592  24.760  29.550  1.00  0.00     0.031 C 
ATOM     57  C   UNL A   1      46.541  26.654  28.083  1.00  0.00     0.037 A 
BRANCH  44  58
ATOM     58  C   UNL A   1      44.882  27.397  33.090  1.00  0.00     0.057 A 
ATOM     59  C   UNL A   1      44.415  26.073  33.148  1.00  0.00     0.134 A 
ATOM     60  C   UNL A   1      45.299  27.940  34.326  1.00  0.00     0.134 A 
ATOM     61  F   UNL A   1      43.973  25.453  32.043  1.00  0.00    -0.206 F 
ATOM     62  C   UNL A   1      44.290  25.376  34.354  1.00  0.00     0.040 A 
ATOM     63  C   UNL A   1      45.232  27.232  35.526  1.00  0.00     0.040 A 
ATOM     64  F   UNL A   1      45.693  29.214  34.457  1.00  0.00    -0.206 F 
ATOM     65  C   UNL A   1      44.691  25.959  35.551  1.00  0.00     0.006 A 
ENDBRANCH  44  58
BRANCH  45  66
ATOM     66  C   UNL A   1      42.992  22.067  26.998  1.00  0.00     0.057 A 
ATOM     67  C   UNL A   1      41.935  21.483  27.708  1.00  0.00     0.134 A 
ATOM     68  C   UNL A   1      43.517  21.304  25.939  1.00  0.00     0.134 A 
ATOM     69  F   UNL A   1      41.331  22.149  28.703  1.00  0.00    -0.206 F 
ATOM     70  C   UNL A   1      41.425  20.220  27.382  1.00  0.00     0.040 A 
ATOM     71  C   UNL A   1      43.031  20.034  25.616  1.00  0.00     0.040 A 
ATOM     72  F   UNL A   1      44.462  21.795  25.126  1.00  0.00    -0.206 F 
ATOM     73  C   UNL A   1      41.972  19.492  26.330  1.00  0.00     0.006 A 
ENDBRANCH  45  66
BRANCH  57  74
ATOM     74  C   UNL A   1      46.849  27.023  26.663  1.00  0.00     0.057 A 
ATOM     75  C   UNL A   1      48.076  26.768  26.035  1.00  0.00     0.134 A 
ATOM     76  C   UNL A   1      45.823  27.543  25.866  1.00  0.00     0.134 A 
ATOM     77  F   UNL A   1      49.080  26.169  26.690  1.00  0.00    -0.206 F 
ATOM     78  C   UNL A   1      48.289  27.074  24.688  1.00  0.00     0.040 A 
ATOM     79  C   UNL A   1      46.012  27.820  24.511  1.00  0.00     0.040 A 
ATOM     80  F   UNL A   1      44.602  27.754  26.385  1.00  0.00    -0.206 F 
ATOM     81  C   UNL A   1      47.253  27.600  23.921  1.00  0.00     0.006 A 
ENDBRANCH  57  74
ENDBRANCH  31  32
ENDBRANCH  24  26
ENDBRANCH  23  24
ENDBRANCH  22  23
ENDBRANCH   1  22
TORSDOF 15
ENDMDL
MODEL 3
REMARK VINA RESULT:     -11.1      5.000      9.436
REMARK SMILES CC(C)n1ncnc1C[C@H](C(=O)OCCOC(=O)c1ccc(-c2c3nc(c(-c4c(F)cccc4F)c4ccc([nH]4)c(-c4c(F)cccc4F)c4nc(c(-c5c(F)cccc5F)c5ccc2[nH]5)C=C4)C=C3)cc1)c1ccccc1F
REMARK SMILES IDX 14 1 13 2 11 3 12 4 10 5 9 6 8 7 4 8 5 9 6 10 7 11 2 12 1 13
REMARK SMILES IDX 3 14 73 15 74 16 78 17 75 18 77 19 79 20 76 21 15 22 16 23
REMARK SMILES IDX 17 24 18 25 19 26 20 27 72 28 21 29 71 30 22 31 23 32 24 33
REMARK SMILES IDX 65 34 25 35 70 36 64 37 66 38 26 39 69 40 63 41 62 42 27 44
REMARK SMILES IDX 53 45 36 46 52 47 37 48 40 49 51 50 67 51 38 52 39 53 50 55
REMARK SMILES IDX 68 56 41 57 28 58 29 59 34 60 30 61 31 62 33 63 35 64 32 65
REMARK SMILES IDX 54 66 55 67 60 68 56 69 57 70 59 71 61 72 58 73 42 74 43 75
REMARK SMILES IDX 48 76 44 77 45 78 47 79 49 80 46 81
REMARK H PARENT 66 43 40 54
REMARK Flexibility Score: inf
ROOT
ATOM      1  C   UNL A   1      37.400  23.721  25.617  1.00  0.00     0.274 C 
ENDROOT
BRANCH   1   2
ATOM      2  O   UNL A   1      37.114  22.725  24.616  1.00  0.00    -0.462 OA
BRANCH   2   3
ATOM      3  C   UNL A   1      36.154  23.000  23.689  1.00  0.00     0.314 C 
ATOM      4  O   UNL A   1      36.374  23.120  22.488  1.00  0.00    -0.252 OA
BRANCH   3   5
ATOM      5  C   UNL A   1      34.742  23.093  24.292  1.00  0.00     0.140 C 
BRANCH   5   6
ATOM      6  C   UNL A   1      34.119  24.364  23.648  1.00  0.00     0.097 C 
BRANCH   6   7
ATOM      7  C   UNL A   1      33.567  25.457  24.502  1.00  0.00     0.128 A 
ATOM      8  N   UNL A   1      32.359  26.100  24.328  1.00  0.00    -0.248 N 
ATOM      9  N   UNL A   1      32.176  27.037  25.283  1.00  0.00    -0.159 NA
ATOM     10  C   UNL A   1      33.261  26.876  26.034  1.00  0.00     0.246 A 
ATOM     11  N   UNL A   1      34.120  25.909  25.611  1.00  0.00    -0.220 NA
BRANCH   8  12
ATOM     12  C   UNL A   1      31.313  25.884  23.334  1.00  0.00     0.103 C 
ATOM     13  C   UNL A   1      31.815  26.135  21.908  1.00  0.00     0.033 C 
ATOM     14  C   UNL A   1      30.709  24.486  23.460  1.00  0.00     0.033 C 
ENDBRANCH   8  12
ENDBRANCH   6   7
ENDBRANCH   5   6
BRANCH   5  15
ATOM     15  C   UNL A   1      33.977  21.773  24.358  1.00  0.00     0.002 A 
ATOM     16  C   UNL A   1      33.118  21.327  23.336  1.00  0.00     0.007 A 
ATOM     17  C   UNL A   1      34.178  20.888  25.423  1.00  0.00     0.127 A 
ATOM     18  C   UNL A   1      32.358  20.161  23.470  1.00  0.00     0.001 A 
ATOM     19  C   UNL A   1      33.413  19.734  25.581  1.00  0.00     0.039 A 
ATOM     20  F   UNL A   1      35.162  21.114  26.305  1.00  0.00    -0.207 F 
ATOM     21  C   UNL A   1      32.476  19.385  24.614  1.00  0.00     0.003 A 
ENDBRANCH   5  15
ENDBRANCH   3   5
ENDBRANCH   2   3
ENDBRANCH   1   2
BRANCH   1  22
ATOM     22  C   UNL A   1      38.616  23.360  26.457  1.00  0.00     0.275 C 
BRANCH  22  23
ATOM     23  O   UNL A   1      39.638  24.347  26.325  1.00  0.00    -0.458 OA
BRANCH  23  24
ATOM     24  C   UNL A   1      40.243  24.638  27.492  1.00  0.00     0.338 C 
ATOM     25  O   UNL A   1      41.067  23.961  28.097  1.00  0.00    -0.246 OA
BRANCH  24  26
ATOM     26  C   UNL A   1      39.702  25.869  28.051  1.00  0.00     0.060 A 
ATOM     27  C   UNL A   1      39.743  27.027  27.265  1.00  0.00     0.016 A 
ATOM     28  C   UNL A   1      39.425  25.908  29.421  1.00  0.00     0.016 A 
ATOM     29  C   UNL A   1      39.620  28.254  27.875  1.00  0.00     0.010 A 
ATOM     30  C   UNL A   1      39.330  27.136  30.034  1.00  0.00     0.010 A 
ATOM     31  C   UNL A   1      39.489  28.291  29.262  1.00  0.00    -0.014 A 
BRANCH  31  32
ATOM     32  C   UNL A   1      39.530  29.588  29.907  1.00  0.00     0.031 A 
ATOM     33  C   UNL A   1      40.854  30.247  29.921  1.00  0.00     0.074 A 
ATOM     34  C   UNL A   1      38.388  30.189  30.294  1.00  0.00     0.049 A 
ATOM     35  N   UNL A   1      41.484  30.762  30.923  1.00  0.00    -0.248 NA
ATOM     36  C   UNL A   1      41.609  30.275  28.656  1.00  0.00     0.031 C 
ATOM     37  C   UNL A   1      37.021  29.724  30.040  1.00  0.00     0.029 A 
ATOM     38  N   UNL A   1      38.204  31.416  30.855  1.00  0.00    -0.354 N 
ATOM     39  C   UNL A   1      42.616  31.364  30.381  1.00  0.00     0.074 A 
ATOM     40  C   UNL A   1      42.722  30.908  29.021  1.00  0.00     0.031 C 
ATOM     41  C   UNL A   1      36.167  30.752  30.226  1.00  0.00     0.029 A 
ATOM     42  C   UNL A   1      36.915  31.905  30.699  1.00  0.00     0.049 A 
ATOM     43  H   UNL A   1      38.915  31.907  31.326  1.00  0.00     0.167 HD
ATOM     44  C   UNL A   1      43.219  32.412  30.997  1.00  0.00     0.037 A 
ATOM     45  C   UNL A   1      36.513  33.191  30.846  1.00  0.00     0.037 A 
ATOM     46  C   UNL A   1      42.944  32.440  32.409  1.00  0.00     0.049 A 
ATOM     47  C   UNL A   1      37.561  33.917  31.601  1.00  0.00     0.074 A 
ATOM     48  C   UNL A   1      43.097  31.543  33.449  1.00  0.00     0.029 A 
ATOM     49  N   UNL A   1      42.134  33.433  32.895  1.00  0.00    -0.354 N 
ATOM     50  N   UNL A   1      37.810  33.757  32.869  1.00  0.00    -0.248 NA
ATOM     51  C   UNL A   1      38.607  34.590  30.843  1.00  0.00     0.031 C 
ATOM     52  C   UNL A   1      42.008  31.802  34.333  1.00  0.00     0.029 A 
ATOM     53  C   UNL A   1      41.272  32.855  33.789  1.00  0.00     0.049 A 
ATOM     54  H   UNL A   1      42.166  34.386  32.649  1.00  0.00     0.167 HD
ATOM     55  C   UNL A   1      39.184  33.913  32.980  1.00  0.00     0.074 A 
ATOM     56  C   UNL A   1      39.596  34.553  31.737  1.00  0.00     0.031 C 
ATOM     57  C   UNL A   1      39.892  33.245  33.938  1.00  0.00     0.037 A 
BRANCH  44  58
ATOM     58  C   UNL A   1      43.705  33.624  30.238  1.00  0.00     0.057 A 
ATOM     59  C   UNL A   1      42.821  34.289  29.371  1.00  0.00     0.134 A 
ATOM     60  C   UNL A   1      45.067  33.966  30.083  1.00  0.00     0.134 A 
ATOM     61  F   UNL A   1      41.504  34.035  29.409  1.00  0.00    -0.206 F 
ATOM     62  C   UNL A   1      43.267  35.159  28.371  1.00  0.00     0.040 A 
ATOM     63  C   UNL A   1      45.515  34.877  29.126  1.00  0.00     0.040 A 
ATOM     64  F   UNL A   1      46.045  33.365  30.773  1.00  0.00    -0.206 F 
ATOM     65  C   UNL A   1      44.619  35.450  28.240  1.00  0.00     0.006 A 
ENDBRANCH  44  58
BRANCH  45  66
ATOM     66  C   UNL A   1      35.398  33.893  30.170  1.00  0.00     0.057 A 
ATOM     67  C   UNL A   1      34.408  34.552  30.912  1.00  0.00     0.134 A 
ATOM     68  C   UNL A   1      35.393  34.141  28.785  1.00  0.00     0.134 A 
ATOM     69  F   UNL A   1      34.357  34.424  32.246  1.00  0.00    -0.206 F 
ATOM     70  C   UNL A   1      33.476  35.411  30.316  1.00  0.00     0.040 A 
ATOM     71  C   UNL A   1      34.456  34.979  28.174  1.00  0.00     0.040 A 
ATOM     72  F   UNL A   1      36.348  33.647  27.984  1.00  0.00    -0.206 F 
ATOM     73  C   UNL A   1      33.500  35.629  28.942  1.00  0.00     0.006 A 
ENDBRANCH  45  66
BRANCH  57  74
ATOM     74  C   UNL A   1      39.128  32.633  35.074  1.00  0.00     0.057 A 
ATOM     75  C   UNL A   1      38.707  31.296  35.106  1.00  0.00     0.134 A 
ATOM     76  C   UNL A   1      38.921  33.393  36.231  1.00  0.00     0.134 A 
ATOM     77  F   UNL A   1      38.963  30.463  34.087  1.00  0.00    -0.206 F 
ATOM     78  C   UNL A   1      38.054  30.758  36.218  1.00  0.00     0.040 A 
ATOM     79  C   UNL A   1      38.302  32.857  37.362  1.00  0.00     0.040 A 
ATOM     80  F   UNL A   1      39.355  34.662  36.295  1.00  0.00    -0.206 F 
ATOM     81  C   UNL A   1      37.853  31.539  37.352  1.00  0.00     0.006 A 
ENDBRANCH  57  74
ENDBRANCH  31  32
ENDBRANCH  24  26
ENDBRANCH  23  24
ENDBRANCH  22  23
ENDBRANCH   1  22
TORSDOF 15
ENDMDL
