MODEL 1
REMARK VINA RESULT:     -10.3      0.000      0.000
REMARK SMILES CC(C)(C)N(CC(=O)OCCOC(=O)c1ccc(-c2c3nc(c(-c4c(F)cccc4F)c4ccc([nH]4)c(-c4c(F)cccc4F)c4nc(c(-c5c(F)cccc5F)c5ccc2[nH]5)C=C4)C=C3)cc1)C(=O)N1CC[C@H](C[NH3+])C1
REMARK SMILES IDX 9 1 7 2 8 3 6 4 5 5 2 6 1 7 3 8 4 9 69 10 70 11 71 12 72 13
REMARK SMILES IDX 77 14 73 15 74 16 75 17 76 18 10 22 11 23 12 24 13 25 14 26
REMARK SMILES IDX 15 27 16 28 68 29 17 30 67 31 18 32 19 33 20 34 61 35 21 36
REMARK SMILES IDX 66 37 60 38 62 39 22 40 65 41 59 42 58 43 23 45 49 46 32 47
REMARK SMILES IDX 48 48 33 49 36 50 47 51 63 52 34 53 35 54 46 56 64 57 37 58
REMARK SMILES IDX 24 59 25 60 30 61 26 62 27 63 29 64 31 65 28 66 50 67 51 68
REMARK SMILES IDX 56 69 52 70 53 71 55 72 57 73 54 74 38 75 39 76 44 77 40 78
REMARK SMILES IDX 41 79 43 80 45 81 42 82
REMARK H PARENT 76 19 76 20 76 21 62 44 36 55
REMARK Flexibility Score: inf
ROOT
ATOM      1  O   UNL A   1      33.094  28.875  27.538  1.00  0.00    -0.461 OA
ENDROOT
BRANCH   1   2
ATOM      2  C   UNL A   1      32.165  27.888  27.397  1.00  0.00     0.325 C 
ATOM      3  O   UNL A   1      31.020  27.945  27.834  1.00  0.00    -0.250 OA
BRANCH   2   4
ATOM      4  C   UNL A   1      32.615  26.778  26.437  1.00  0.00     0.244 C 
BRANCH   4   5
ATOM      5  N   UNL A   1      32.141  26.811  25.048  1.00  0.00    -0.309 N 
BRANCH   5   6
ATOM      6  C   UNL A   1      33.166  26.550  23.964  1.00  0.00     0.037 C 
ATOM      7  C   UNL A   1      33.955  27.809  23.502  1.00  0.00     0.034 C 
ATOM      8  C   UNL A   1      32.446  26.012  22.713  1.00  0.00     0.034 C 
ATOM      9  C   UNL A   1      34.255  25.554  24.436  1.00  0.00     0.034 C 
ENDBRANCH   5   6
BRANCH   5  10
ATOM     10  C   UNL A   1      30.788  26.838  24.697  1.00  0.00     0.320 C 
ATOM     11  O   UNL A   1      30.055  25.863  24.869  1.00  0.00    -0.248 OA
BRANCH  10  12
ATOM     12  N   UNL A   1      30.223  27.993  24.200  1.00  0.00    -0.324 N 
ATOM     13  C   UNL A   1      30.794  29.314  24.290  1.00  0.00     0.122 C 
ATOM     14  C   UNL A   1      29.389  27.916  23.003  1.00  0.00     0.130 C 
ATOM     15  C   UNL A   1      29.803  30.210  23.588  1.00  0.00     0.033 C 
ATOM     16  C   UNL A   1      29.237  29.350  22.467  1.00  0.00     0.065 C 
BRANCH  16  17
ATOM     17  C   UNL A   1      27.777  29.678  22.164  1.00  0.00     0.264 C 
BRANCH  17  18
ATOM     18  N   UNL A   1      26.819  28.807  22.837  1.00  0.00    -0.357 N 
ATOM     19  H   UNL A   1      27.321  28.074  23.340  1.00  0.00     0.344 HD
ATOM     20  H   UNL A   1      26.201  28.383  22.146  1.00  0.00     0.344 HD
ATOM     21  H   UNL A   1      26.268  29.355  23.498  1.00  0.00     0.344 HD
ENDBRANCH  17  18
ENDBRANCH  16  17
ENDBRANCH  10  12
ENDBRANCH   5  10
ENDBRANCH   4   5
ENDBRANCH   2   4
ENDBRANCH   1   2
BRANCH   1  22
ATOM     22  C   UNL A   1      32.671  30.206  27.176  1.00  0.00     0.274 C 
BRANCH  22  23
ATOM     23  C   UNL A   1      33.749  31.241  27.552  1.00  0.00     0.275 C 
BRANCH  23  24
ATOM     24  O   UNL A   1      35.093  30.726  27.695  1.00  0.00    -0.458 OA
BRANCH  24  25
ATOM     25  C   UNL A   1      35.725  30.879  28.879  1.00  0.00     0.338 C 
ATOM     26  O   UNL A   1      35.407  31.615  29.794  1.00  0.00    -0.246 OA
BRANCH  25  27
ATOM     27  C   UNL A   1      37.002  30.129  28.818  1.00  0.00     0.060 A 
ATOM     28  C   UNL A   1      37.686  30.075  27.599  1.00  0.00     0.016 A 
ATOM     29  C   UNL A   1      37.519  29.469  29.938  1.00  0.00     0.016 A 
ATOM     30  C   UNL A   1      38.876  29.345  27.486  1.00  0.00     0.010 A 
ATOM     31  C   UNL A   1      38.743  28.788  29.839  1.00  0.00     0.010 A 
ATOM     32  C   UNL A   1      39.444  28.736  28.616  1.00  0.00    -0.014 A 
BRANCH  32  33
ATOM     33  C   UNL A   1      40.896  28.404  28.620  1.00  0.00     0.031 A 
ATOM     34  C   UNL A   1      42.001  29.391  28.818  1.00  0.00     0.074 A 
ATOM     35  C   UNL A   1      41.209  27.115  28.403  1.00  0.00     0.049 A 
ATOM     36  N   UNL A   1      43.242  29.350  28.407  1.00  0.00    -0.248 NA
ATOM     37  C   UNL A   1      41.673  30.587  29.587  1.00  0.00     0.031 C 
ATOM     38  C   UNL A   1      40.239  26.023  28.300  1.00  0.00     0.029 A 
ATOM     39  N   UNL A   1      42.423  26.511  28.226  1.00  0.00    -0.354 N 
ATOM     40  C   UNL A   1      43.805  30.574  28.758  1.00  0.00     0.074 A 
ATOM     41  C   UNL A   1      42.766  31.327  29.431  1.00  0.00     0.031 C 
ATOM     42  C   UNL A   1      40.893  24.882  28.061  1.00  0.00     0.029 A 
ATOM     43  C   UNL A   1      42.312  25.180  27.916  1.00  0.00     0.049 A 
ATOM     44  H   UNL A   1      43.284  26.981  28.312  1.00  0.00     0.167 HD
ATOM     45  C   UNL A   1      45.080  30.998  28.562  1.00  0.00     0.037 A 
ATOM     46  C   UNL A   1      43.241  24.305  27.500  1.00  0.00     0.037 A 
ATOM     47  C   UNL A   1      46.150  30.124  28.137  1.00  0.00     0.049 A 
ATOM     48  C   UNL A   1      44.655  24.765  27.351  1.00  0.00     0.074 A 
ATOM     49  C   UNL A   1      47.500  30.409  28.005  1.00  0.00     0.029 A 
ATOM     50  N   UNL A   1      46.003  28.771  27.856  1.00  0.00    -0.354 N 
ATOM     51  N   UNL A   1      45.149  25.969  27.509  1.00  0.00    -0.248 NA
ATOM     52  C   UNL A   1      45.640  23.747  26.973  1.00  0.00     0.031 C 
ATOM     53  C   UNL A   1      48.166  29.233  27.643  1.00  0.00     0.029 A 
ATOM     54  C   UNL A   1      47.238  28.207  27.577  1.00  0.00     0.049 A 
ATOM     55  H   UNL A   1      45.147  28.285  27.855  1.00  0.00     0.167 HD
ATOM     56  C   UNL A   1      46.508  25.854  27.264  1.00  0.00     0.074 A 
ATOM     57  C   UNL A   1      46.759  24.457  26.964  1.00  0.00     0.031 C 
ATOM     58  C   UNL A   1      47.463  26.815  27.286  1.00  0.00     0.037 A 
BRANCH  45  59
ATOM     59  C   UNL A   1      45.423  32.447  28.801  1.00  0.00     0.057 A 
ATOM     60  C   UNL A   1      45.228  33.452  27.848  1.00  0.00     0.134 A 
ATOM     61  C   UNL A   1      45.858  32.853  30.074  1.00  0.00     0.134 A 
ATOM     62  F   UNL A   1      44.804  33.146  26.613  1.00  0.00    -0.206 F 
ATOM     63  C   UNL A   1      45.472  34.798  28.141  1.00  0.00     0.040 A 
ATOM     64  C   UNL A   1      46.073  34.198  30.388  1.00  0.00     0.040 A 
ATOM     65  F   UNL A   1      46.047  31.951  31.049  1.00  0.00    -0.206 F 
ATOM     66  C   UNL A   1      45.886  35.176  29.417  1.00  0.00     0.006 A 
ENDBRANCH  45  59
BRANCH  46  67
ATOM     67  C   UNL A   1      42.820  22.924  27.186  1.00  0.00     0.057 A 
ATOM     68  C   UNL A   1      42.561  22.005  28.206  1.00  0.00     0.134 A 
ATOM     69  C   UNL A   1      42.561  22.528  25.868  1.00  0.00     0.134 A 
ATOM     70  F   UNL A   1      42.793  22.334  29.486  1.00  0.00    -0.206 F 
ATOM     71  C   UNL A   1      42.057  20.735  27.926  1.00  0.00     0.040 A 
ATOM     72  C   UNL A   1      42.032  21.272  25.576  1.00  0.00     0.040 A 
ATOM     73  F   UNL A   1      42.764  23.380  24.853  1.00  0.00    -0.206 F 
ATOM     74  C   UNL A   1      41.781  20.371  26.609  1.00  0.00     0.006 A 
ENDBRANCH  46  67
BRANCH  58  75
ATOM     75  C   UNL A   1      48.867  26.372  27.009  1.00  0.00     0.057 A 
ATOM     76  C   UNL A   1      49.702  25.901  28.028  1.00  0.00     0.134 A 
ATOM     77  C   UNL A   1      49.383  26.411  25.707  1.00  0.00     0.134 A 
ATOM     78  F   UNL A   1      49.268  25.857  29.297  1.00  0.00    -0.206 F 
ATOM     79  C   UNL A   1      51.015  25.507  27.767  1.00  0.00     0.040 A 
ATOM     80  C   UNL A   1      50.687  25.998  25.431  1.00  0.00     0.040 A 
ATOM     81  F   UNL A   1      48.630  26.848  24.687  1.00  0.00    -0.206 F 
ATOM     82  C   UNL A   1      51.508  25.552  26.464  1.00  0.00     0.006 A 
ENDBRANCH  58  75
ENDBRANCH  32  33
ENDBRANCH  25  27
ENDBRANCH  24  25
ENDBRANCH  23  24
ENDBRANCH  22  23
ENDBRANCH   1  22
TORSDOF 17
ENDMDL
MODEL 2
REMARK VINA RESULT:     -10.2      1.596      3.270
REMARK SMILES CC(C)(C)N(CC(=O)OCCOC(=O)c1ccc(-c2c3nc(c(-c4c(F)cccc4F)c4ccc([nH]4)c(-c4c(F)cccc4F)c4nc(c(-c5c(F)cccc5F)c5ccc2[nH]5)C=C4)C=C3)cc1)C(=O)N1CC[C@H](C[NH3+])C1
REMARK SMILES IDX 9 1 7 2 8 3 6 4 5 5 2 6 1 7 3 8 4 9 69 10 70 11 71 12 72 13
REMARK SMILES IDX 77 14 73 15 74 16 75 17 76 18 10 22 11 23 12 24 13 25 14 26
REMARK SMILES IDX 15 27 16 28 68 29 17 30 67 31 18 32 19 33 20 34 61 35 21 36
REMARK SMILES IDX 66 37 60 38 62 39 22 40 65 41 59 42 58 43 23 45 49 46 32 47
REMARK SMILES IDX 48 48 33 49 36 50 47 51 63 52 34 53 35 54 46 56 64 57 37 58
REMARK SMILES IDX 24 59 25 60 30 61 26 62 27 63 29 64 31 65 28 66 50 67 51 68
REMARK SMILES IDX 56 69 52 70 53 71 55 72 57 73 54 74 38 75 39 76 44 77 40 78
REMARK SMILES IDX 41 79 43 80 45 81 42 82
REMARK H PARENT 76 19 76 20 76 21 62 44 36 55
REMARK Flexibility Score: inf
ROOT
ATOM      1  O   UNL A   1      33.088  28.769  27.456  1.00  0.00    -0.461 OA
ENDROOT
BRANCH   1   2
ATOM      2  C   UNL A   1      32.216  27.746  27.234  1.00  0.00     0.325 C 
ATOM      3  O   UNL A   1      31.070  27.702  27.672  1.00  0.00    -0.250 OA
BRANCH   2   4
ATOM      4  C   UNL A   1      32.725  26.744  26.188  1.00  0.00     0.244 C 
BRANCH   4   5
ATOM      5  N   UNL A   1      31.863  25.616  25.813  1.00  0.00    -0.309 N 
BRANCH   5   6
ATOM      6  C   UNL A   1      31.090  25.742  24.517  1.00  0.00     0.037 C 
ATOM      7  C   UNL A   1      31.513  26.944  23.625  1.00  0.00     0.034 C 
ATOM      8  C   UNL A   1      29.599  25.951  24.842  1.00  0.00     0.034 C 
ATOM      9  C   UNL A   1      31.280  24.496  23.616  1.00  0.00     0.034 C 
ENDBRANCH   5   6
BRANCH   5  10
ATOM     10  C   UNL A   1      31.900  24.374  26.453  1.00  0.00     0.320 C 
ATOM     11  O   UNL A   1      31.027  24.033  27.254  1.00  0.00    -0.248 OA
BRANCH  10  12
ATOM     12  N   UNL A   1      32.893  23.468  26.154  1.00  0.00    -0.324 N 
ATOM     13  C   UNL A   1      34.284  23.597  26.512  1.00  0.00     0.122 C 
ATOM     14  C   UNL A   1      32.556  22.049  26.063  1.00  0.00     0.130 C 
ATOM     15  C   UNL A   1      34.938  22.349  25.969  1.00  0.00     0.033 C 
ATOM     16  C   UNL A   1      33.880  21.267  26.118  1.00  0.00     0.065 C 
BRANCH  16  17
ATOM     17  C   UNL A   1      33.955  20.224  25.006  1.00  0.00     0.264 C 
BRANCH  17  18
ATOM     18  N   UNL A   1      35.206  19.475  24.974  1.00  0.00    -0.357 N 
ATOM     19  H   UNL A   1      35.005  18.478  24.890  1.00  0.00     0.344 HD
ATOM     20  H   UNL A   1      35.726  19.645  25.834  1.00  0.00     0.344 HD
ATOM     21  H   UNL A   1      35.762  19.777  24.174  1.00  0.00     0.344 HD
ENDBRANCH  17  18
ENDBRANCH  16  17
ENDBRANCH  10  12
ENDBRANCH   5  10
ENDBRANCH   4   5
ENDBRANCH   2   4
ENDBRANCH   1   2
BRANCH   1  22
ATOM     22  C   UNL A   1      32.594  30.098  27.186  1.00  0.00     0.274 C 
BRANCH  22  23
ATOM     23  C   UNL A   1      33.622  31.159  27.620  1.00  0.00     0.275 C 
BRANCH  23  24
ATOM     24  O   UNL A   1      34.992  30.705  27.722  1.00  0.00    -0.458 OA
BRANCH  24  25
ATOM     25  C   UNL A   1      35.648  30.874  28.891  1.00  0.00     0.338 C 
ATOM     26  O   UNL A   1      35.347  31.620  29.803  1.00  0.00    -0.246 OA
BRANCH  25  27
ATOM     27  C   UNL A   1      36.925  30.126  28.812  1.00  0.00     0.060 A 
ATOM     28  C   UNL A   1      37.594  30.074  27.584  1.00  0.00     0.016 A 
ATOM     29  C   UNL A   1      37.458  29.465  29.925  1.00  0.00     0.016 A 
ATOM     30  C   UNL A   1      38.783  29.346  27.455  1.00  0.00     0.010 A 
ATOM     31  C   UNL A   1      38.682  28.786  29.809  1.00  0.00     0.010 A 
ATOM     32  C   UNL A   1      39.367  28.737  28.577  1.00  0.00    -0.014 A 
BRANCH  32  33
ATOM     33  C   UNL A   1      40.819  28.407  28.561  1.00  0.00     0.031 A 
ATOM     34  C   UNL A   1      41.925  29.400  28.725  1.00  0.00     0.074 A 
ATOM     35  C   UNL A   1      41.131  27.116  28.361  1.00  0.00     0.049 A 
ATOM     36  N   UNL A   1      43.159  29.354  28.294  1.00  0.00    -0.248 NA
ATOM     37  C   UNL A   1      41.608  30.608  29.480  1.00  0.00     0.031 C 
ATOM     38  C   UNL A   1      40.162  26.021  28.292  1.00  0.00     0.029 A 
ATOM     39  N   UNL A   1      42.343  26.511  28.173  1.00  0.00    -0.354 N 
ATOM     40  C   UNL A   1      43.726  30.585  28.614  1.00  0.00     0.074 A 
ATOM     41  C   UNL A   1      42.697  31.347  29.293  1.00  0.00     0.031 C 
ATOM     42  C   UNL A   1      40.813  24.877  28.060  1.00  0.00     0.029 A 
ATOM     43  C   UNL A   1      42.229  25.176  27.887  1.00  0.00     0.049 A 
ATOM     44  H   UNL A   1      43.204  26.984  28.236  1.00  0.00     0.167 HD
ATOM     45  C   UNL A   1      44.996  31.008  28.390  1.00  0.00     0.037 A 
ATOM     46  C   UNL A   1      43.153  24.295  27.470  1.00  0.00     0.037 A 
ATOM     47  C   UNL A   1      46.061  30.128  27.961  1.00  0.00     0.049 A 
ATOM     48  C   UNL A   1      44.564  24.755  27.289  1.00  0.00     0.074 A 
ATOM     49  C   UNL A   1      47.408  30.413  27.802  1.00  0.00     0.029 A 
ATOM     50  N   UNL A   1      45.912  28.771  27.705  1.00  0.00    -0.354 N 
ATOM     51  N   UNL A   1      45.057  25.963  27.419  1.00  0.00    -0.248 NA
ATOM     52  C   UNL A   1      45.544  23.733  26.911  1.00  0.00     0.031 C 
ATOM     53  C   UNL A   1      48.070  29.233  27.448  1.00  0.00     0.029 A 
ATOM     54  C   UNL A   1      47.143  28.205  27.415  1.00  0.00     0.049 A 
ATOM     55  H   UNL A   1      45.057  28.284  27.727  1.00  0.00     0.167 HD
ATOM     56  C   UNL A   1      46.413  25.845  27.153  1.00  0.00     0.074 A 
ATOM     57  C   UNL A   1      46.662  24.444  26.871  1.00  0.00     0.031 C 
ATOM     58  C   UNL A   1      47.366  26.808  27.142  1.00  0.00     0.037 A 
BRANCH  45  59
ATOM     59  C   UNL A   1      45.341  32.461  28.599  1.00  0.00     0.057 A 
ATOM     60  C   UNL A   1      45.922  32.953  29.772  1.00  0.00     0.134 A 
ATOM     61  C   UNL A   1      45.184  33.369  27.538  1.00  0.00     0.134 A 
ATOM     62  F   UNL A   1      46.115  32.146  30.826  1.00  0.00    -0.206 F 
ATOM     63  C   UNL A   1      46.312  34.291  29.893  1.00  0.00     0.040 A 
ATOM     64  C   UNL A   1      45.600  34.699  27.634  1.00  0.00     0.040 A 
ATOM     65  F   UNL A   1      44.655  32.968  26.372  1.00  0.00    -0.206 F 
ATOM     66  C   UNL A   1      46.162  35.167  28.818  1.00  0.00     0.006 A 
ENDBRANCH  45  59
BRANCH  46  67
ATOM     67  C   UNL A   1      42.729  22.908  27.186  1.00  0.00     0.057 A 
ATOM     68  C   UNL A   1      42.463  22.014  28.225  1.00  0.00     0.134 A 
ATOM     69  C   UNL A   1      42.475  22.483  25.875  1.00  0.00     0.134 A 
ATOM     70  F   UNL A   1      42.689  22.372  29.498  1.00  0.00    -0.206 F 
ATOM     71  C   UNL A   1      41.957  20.739  27.972  1.00  0.00     0.040 A 
ATOM     72  C   UNL A   1      41.944  21.221  25.611  1.00  0.00     0.040 A 
ATOM     73  F   UNL A   1      42.687  23.311  24.842  1.00  0.00    -0.206 F 
ATOM     74  C   UNL A   1      41.686  20.346  26.663  1.00  0.00     0.006 A 
ENDBRANCH  46  67
BRANCH  58  75
ATOM     75  C   UNL A   1      48.765  26.363  26.849  1.00  0.00     0.057 A 
ATOM     76  C   UNL A   1      49.277  26.360  25.546  1.00  0.00     0.134 A 
ATOM     77  C   UNL A   1      49.611  25.940  27.883  1.00  0.00     0.134 A 
ATOM     78  F   UNL A   1      48.509  26.738  24.514  1.00  0.00    -0.206 F 
ATOM     79  C   UNL A   1      50.576  25.926  25.277  1.00  0.00     0.040 A 
ATOM     80  C   UNL A   1      50.918  25.526  27.629  1.00  0.00     0.040 A 
ATOM     81  F   UNL A   1      49.180  25.925  29.153  1.00  0.00    -0.206 F 
ATOM     82  C   UNL A   1      51.401  25.512  26.322  1.00  0.00     0.006 A 
ENDBRANCH  58  75
ENDBRANCH  32  33
ENDBRANCH  25  27
ENDBRANCH  24  25
ENDBRANCH  23  24
ENDBRANCH  22  23
ENDBRANCH   1  22
TORSDOF 17
ENDMDL
MODEL 3
REMARK VINA RESULT:     -10.1      0.843      1.777
REMARK SMILES CC(C)(C)N(CC(=O)OCCOC(=O)c1ccc(-c2c3nc(c(-c4c(F)cccc4F)c4ccc([nH]4)c(-c4c(F)cccc4F)c4nc(c(-c5c(F)cccc5F)c5ccc2[nH]5)C=C4)C=C3)cc1)C(=O)N1CC[C@H](C[NH3+])C1
REMARK SMILES IDX 9 1 7 2 8 3 6 4 5 5 2 6 1 7 3 8 4 9 69 10 70 11 71 12 72 13
REMARK SMILES IDX 77 14 73 15 74 16 75 17 76 18 10 22 11 23 12 24 13 25 14 26
REMARK SMILES IDX 15 27 16 28 68 29 17 30 67 31 18 32 19 33 20 34 61 35 21 36
REMARK SMILES IDX 66 37 60 38 62 39 22 40 65 41 59 42 58 43 23 45 49 46 32 47
REMARK SMILES IDX 48 48 33 49 36 50 47 51 63 52 34 53 35 54 46 56 64 57 37 58
REMARK SMILES IDX 24 59 25 60 30 61 26 62 27 63 29 64 31 65 28 66 50 67 51 68
REMARK SMILES IDX 56 69 52 70 53 71 55 72 57 73 54 74 38 75 39 76 44 77 40 78
REMARK SMILES IDX 41 79 43 80 45 81 42 82
REMARK H PARENT 76 19 76 20 76 21 62 44 36 55
REMARK Flexibility Score: inf
ROOT
ATOM      1  O   UNL A   1      33.887  29.323  24.974  1.00  0.00    -0.461 OA
ENDROOT
BRANCH   1   2
ATOM      2  C   UNL A   1      33.991  28.394  23.982  1.00  0.00     0.325 C 
ATOM      3  O   UNL A   1      34.565  28.580  22.914  1.00  0.00    -0.250 OA
BRANCH   2   4
ATOM      4  C   UNL A   1      33.512  27.002  24.416  1.00  0.00     0.244 C 
BRANCH   4   5
ATOM      5  N   UNL A   1      32.176  26.554  24.002  1.00  0.00    -0.309 N 
BRANCH   5   6
ATOM      6  C   UNL A   1      32.110  25.448  22.970  1.00  0.00     0.037 C 
ATOM      7  C   UNL A   1      33.379  24.550  22.902  1.00  0.00     0.034 C 
ATOM      8  C   UNL A   1      31.952  26.076  21.572  1.00  0.00     0.034 C 
ATOM      9  C   UNL A   1      30.947  24.466  23.259  1.00  0.00     0.034 C 
ENDBRANCH   5   6
BRANCH   5  10
ATOM     10  C   UNL A   1      31.002  26.924  24.664  1.00  0.00     0.320 C 
ATOM     11  O   UNL A   1      30.632  26.354  25.692  1.00  0.00    -0.248 OA
BRANCH  10  12
ATOM     12  N   UNL A   1      30.253  27.987  24.208  1.00  0.00    -0.324 N 
ATOM     13  C   UNL A   1      30.733  29.335  24.025  1.00  0.00     0.122 C 
ATOM     14  C   UNL A   1      29.168  27.737  23.262  1.00  0.00     0.130 C 
ATOM     15  C   UNL A   1      29.541  30.099  23.501  1.00  0.00     0.033 C 
ATOM     16  C   UNL A   1      28.790  29.093  22.641  1.00  0.00     0.065 C 
BRANCH  16  17
ATOM     17  C   UNL A   1      27.280  29.316  22.671  1.00  0.00     0.264 C 
BRANCH  17  18
ATOM     18  N   UNL A   1      26.525  28.203  23.237  1.00  0.00    -0.357 N 
ATOM     19  H   UNL A   1      27.157  27.591  23.755  1.00  0.00     0.344 HD
ATOM     20  H   UNL A   1      26.082  27.676  22.485  1.00  0.00     0.344 HD
ATOM     21  H   UNL A   1      25.810  28.564  23.868  1.00  0.00     0.344 HD
ENDBRANCH  17  18
ENDBRANCH  16  17
ENDBRANCH  10  12
ENDBRANCH   5  10
ENDBRANCH   4   5
ENDBRANCH   2   4
ENDBRANCH   1   2
BRANCH   1  22
ATOM     22  C   UNL A   1      34.015  28.831  26.325  1.00  0.00     0.274 C 
BRANCH  22  23
ATOM     23  C   UNL A   1      33.850  29.978  27.339  1.00  0.00     0.275 C 
BRANCH  23  24
ATOM     24  O   UNL A   1      35.017  30.808  27.547  1.00  0.00    -0.458 OA
BRANCH  24  25
ATOM     25  C   UNL A   1      35.583  30.838  28.773  1.00  0.00     0.338 C 
ATOM     26  O   UNL A   1      35.215  31.480  29.738  1.00  0.00    -0.246 OA
BRANCH  25  27
ATOM     27  C   UNL A   1      36.861  30.091  28.706  1.00  0.00     0.060 A 
ATOM     28  C   UNL A   1      37.563  30.075  27.496  1.00  0.00     0.016 A 
ATOM     29  C   UNL A   1      37.363  29.395  29.812  1.00  0.00     0.016 A 
ATOM     30  C   UNL A   1      38.754  29.350  27.376  1.00  0.00     0.010 A 
ATOM     31  C   UNL A   1      38.589  28.718  29.708  1.00  0.00     0.010 A 
ATOM     32  C   UNL A   1      39.307  28.706  28.495  1.00  0.00    -0.014 A 
BRANCH  32  33
ATOM     33  C   UNL A   1      40.759  28.374  28.508  1.00  0.00     0.031 A 
ATOM     34  C   UNL A   1      41.861  29.359  28.730  1.00  0.00     0.074 A 
ATOM     35  C   UNL A   1      41.075  27.088  28.278  1.00  0.00     0.049 A 
ATOM     36  N   UNL A   1      43.106  29.324  28.331  1.00  0.00    -0.248 NA
ATOM     37  C   UNL A   1      41.525  30.545  29.511  1.00  0.00     0.031 C 
ATOM     38  C   UNL A   1      40.107  25.998  28.152  1.00  0.00     0.029 A 
ATOM     39  N   UNL A   1      42.291  26.487  28.105  1.00  0.00    -0.354 N 
ATOM     40  C   UNL A   1      43.665  30.544  28.703  1.00  0.00     0.074 A 
ATOM     41  C   UNL A   1      42.619  31.288  29.376  1.00  0.00     0.031 C 
ATOM     42  C   UNL A   1      40.763  24.860  27.904  1.00  0.00     0.029 A 
ATOM     43  C   UNL A   1      42.184  25.161  27.777  1.00  0.00     0.049 A 
ATOM     44  H   UNL A   1      43.150  26.957  28.205  1.00  0.00     0.167 HD
ATOM     45  C   UNL A   1      44.942  30.971  28.525  1.00  0.00     0.037 A 
ATOM     46  C   UNL A   1      43.118  24.292  27.359  1.00  0.00     0.037 A 
ATOM     47  C   UNL A   1      46.017  30.103  28.099  1.00  0.00     0.049 A 
ATOM     48  C   UNL A   1      44.533  24.754  27.229  1.00  0.00     0.074 A 
ATOM     49  C   UNL A   1      47.367  30.390  27.984  1.00  0.00     0.029 A 
ATOM     50  N   UNL A   1      45.873  28.754  27.799  1.00  0.00    -0.354 N 
ATOM     51  N   UNL A   1      45.024  25.957  27.408  1.00  0.00    -0.248 NA
ATOM     52  C   UNL A   1      45.522  23.742  26.848  1.00  0.00     0.031 C 
ATOM     53  C   UNL A   1      48.037  29.219  27.614  1.00  0.00     0.029 A 
ATOM     54  C   UNL A   1      47.111  28.194  27.525  1.00  0.00     0.049 A 
ATOM     55  H   UNL A   1      45.017  28.268  27.784  1.00  0.00     0.167 HD
ATOM     56  C   UNL A   1      46.386  25.845  27.175  1.00  0.00     0.074 A 
ATOM     57  C   UNL A   1      46.641  24.452  26.859  1.00  0.00     0.031 C 
ATOM     58  C   UNL A   1      47.340  26.806  27.218  1.00  0.00     0.037 A 
BRANCH  45  59
ATOM     59  C   UNL A   1      45.282  32.416  28.786  1.00  0.00     0.057 A 
ATOM     60  C   UNL A   1      45.834  32.873  29.987  1.00  0.00     0.134 A 
ATOM     61  C   UNL A   1      45.153  33.356  27.749  1.00  0.00     0.134 A 
ATOM     62  F   UNL A   1      45.999  32.035  31.022  1.00  0.00    -0.206 F 
ATOM     63  C   UNL A   1      46.221  34.207  30.158  1.00  0.00     0.040 A 
ATOM     64  C   UNL A   1      45.567  34.683  27.895  1.00  0.00     0.040 A 
ATOM     65  F   UNL A   1      44.653  32.991  26.558  1.00  0.00    -0.206 F 
ATOM     66  C   UNL A   1      46.099  35.114  29.106  1.00  0.00     0.006 A 
ENDBRANCH  45  59
BRANCH  46  67
ATOM     67  C   UNL A   1      42.700  22.914  27.023  1.00  0.00     0.057 A 
ATOM     68  C   UNL A   1      42.676  22.476  25.697  1.00  0.00     0.134 A 
ATOM     69  C   UNL A   1      42.425  21.976  28.027  1.00  0.00     0.134 A 
ATOM     70  F   UNL A   1      42.932  23.335  24.699  1.00  0.00    -0.206 F 
ATOM     71  C   UNL A   1      42.392  21.149  25.377  1.00  0.00     0.040 A 
ATOM     72  C   UNL A   1      42.166  20.641  27.722  1.00  0.00     0.040 A 
ATOM     73  F   UNL A   1      42.462  22.336  29.318  1.00  0.00    -0.206 F 
ATOM     74  C   UNL A   1      42.147  20.226  26.393  1.00  0.00     0.006 A 
ENDBRANCH  46  67
BRANCH  58  75
ATOM     75  C   UNL A   1      48.746  26.367  26.950  1.00  0.00     0.057 A 
ATOM     76  C   UNL A   1      49.593  25.944  27.981  1.00  0.00     0.134 A 
ATOM     77  C   UNL A   1      49.255  26.362  25.644  1.00  0.00     0.134 A 
ATOM     78  F   UNL A   1      49.167  25.944  29.253  1.00  0.00    -0.206 F 
ATOM     79  C   UNL A   1      50.909  25.554  27.726  1.00  0.00     0.040 A 
ATOM     80  C   UNL A   1      50.561  25.953  25.375  1.00  0.00     0.040 A 
ATOM     81  F   UNL A   1      48.491  26.752  24.613  1.00  0.00    -0.206 F 
ATOM     82  C   UNL A   1      51.394  25.554  26.419  1.00  0.00     0.006 A 
ENDBRANCH  58  75
ENDBRANCH  32  33
ENDBRANCH  25  27
ENDBRANCH  24  25
ENDBRANCH  23  24
ENDBRANCH  22  23
ENDBRANCH   1  22
TORSDOF 17
ENDMDL
