MODEL 1
REMARK VINA RESULT:     -11.3      0.000      0.000
REMARK SMILES O=C(OCCOC(=O)c1cc2nn[nH]n2n1)c1ccc(-c2c3nc(c(-c4c(F)cccc4F)c4ccc([nH]4)c(-c4c(F)cccc4F)c4nc(c(-c5c(F)cccc5F)c5ccc2[nH]5)C=C4)C=C3)cc1
REMARK SMILES IDX 4 1 3 2 2 3 1 4 17 5 18 6 70 7 19 8 69 9 20 10 21 11 22 12
REMARK SMILES IDX 63 13 23 14 68 15 62 16 64 17 24 18 67 19 61 20 60 21 25 23
REMARK SMILES IDX 51 24 34 25 50 26 35 27 38 28 49 29 65 30 36 31 37 32 48 34
REMARK SMILES IDX 66 35 39 36 26 37 27 38 32 39 28 40 29 41 31 42 33 43 30 44
REMARK SMILES IDX 52 45 53 46 58 47 54 48 55 49 57 50 59 51 56 52 40 53 41 54
REMARK SMILES IDX 46 55 42 56 43 57 45 58 47 59 44 60 5 61 6 62 7 63 8 64 9 65
REMARK SMILES IDX 10 66 16 67 11 68 15 69 12 70 14 71 13 72
REMARK H PARENT 64 22 38 33 14 73
REMARK Flexibility Score: inf
ROOT
ATOM      1  C   UNL A   1      35.111  31.861  29.384  1.00  0.00     0.275 C 
ENDROOT
BRANCH   1   2
ATOM      2  O   UNL A   1      36.062  30.801  29.616  1.00  0.00    -0.458 OA
BRANCH   2   3
ATOM      3  C   UNL A   1      36.133  29.773  28.741  1.00  0.00     0.338 C 
ATOM      4  O   UNL A   1      35.196  29.373  28.074  1.00  0.00    -0.246 OA
BRANCH   3   5
ATOM      5  C   UNL A   1      37.532  29.309  28.575  1.00  0.00     0.060 A 
ATOM      6  C   UNL A   1      38.161  28.526  29.549  1.00  0.00     0.016 A 
ATOM      7  C   UNL A   1      38.229  29.674  27.415  1.00  0.00     0.016 A 
ATOM      8  C   UNL A   1      39.493  28.172  29.400  1.00  0.00     0.010 A 
ATOM      9  C   UNL A   1      39.566  29.316  27.264  1.00  0.00     0.010 A 
ATOM     10  C   UNL A   1      40.208  28.595  28.274  1.00  0.00    -0.014 A 
BRANCH  10  11
ATOM     11  C   UNL A   1      41.619  28.222  28.205  1.00  0.00     0.031 A 
ATOM     12  C   UNL A   1      41.932  26.921  27.541  1.00  0.00     0.074 A 
ATOM     13  C   UNL A   1      42.624  29.011  28.635  1.00  0.00     0.049 A 
ATOM     14  N   UNL A   1      42.486  25.865  28.047  1.00  0.00    -0.248 NA
ATOM     15  C   UNL A   1      41.519  26.762  26.140  1.00  0.00     0.031 C 
ATOM     16  C   UNL A   1      42.572  30.416  29.043  1.00  0.00     0.029 A 
ATOM     17  N   UNL A   1      43.952  28.714  28.715  1.00  0.00    -0.354 N 
ATOM     18  C   UNL A   1      42.637  24.958  26.996  1.00  0.00     0.074 A 
ATOM     19  C   UNL A   1      41.938  25.524  25.870  1.00  0.00     0.031 C 
ATOM     20  C   UNL A   1      43.831  30.904  29.119  1.00  0.00     0.029 A 
ATOM     21  C   UNL A   1      44.770  29.813  28.917  1.00  0.00     0.049 A 
ATOM     22  H   UNL A   1      44.300  27.797  28.635  1.00  0.00     0.167 HD
ATOM     23  C   UNL A   1      43.464  23.878  27.077  1.00  0.00     0.037 A 
ATOM     24  C   UNL A   1      46.124  29.833  28.871  1.00  0.00     0.037 A 
ATOM     25  C   UNL A   1      43.794  23.558  28.439  1.00  0.00     0.049 A 
ATOM     26  C   UNL A   1      46.609  28.446  29.062  1.00  0.00     0.074 A 
ATOM     27  C   UNL A   1      43.075  23.176  29.554  1.00  0.00     0.029 A 
ATOM     28  N   UNL A   1      45.037  23.901  28.905  1.00  0.00    -0.354 N 
ATOM     29  N   UNL A   1      46.522  27.785  30.181  1.00  0.00    -0.248 NA
ATOM     30  C   UNL A   1      46.844  27.638  27.875  1.00  0.00     0.031 C 
ATOM     31  C   UNL A   1      43.745  23.791  30.651  1.00  0.00     0.029 A 
ATOM     32  C   UNL A   1      44.846  24.475  30.133  1.00  0.00     0.049 A 
ATOM     33  H   UNL A   1      45.897  23.761  28.448  1.00  0.00     0.167 HD
ATOM     34  C   UNL A   1      46.274  26.475  29.800  1.00  0.00     0.074 A 
ATOM     35  C   UNL A   1      46.585  26.428  28.375  1.00  0.00     0.031 C 
ATOM     36  C   UNL A   1      45.584  25.620  30.609  1.00  0.00     0.037 A 
BRANCH  23  37
ATOM     37  C   UNL A   1      44.231  23.284  25.921  1.00  0.00     0.057 A 
ATOM     38  C   UNL A   1      44.144  21.900  25.665  1.00  0.00     0.134 A 
ATOM     39  C   UNL A   1      45.274  23.950  25.250  1.00  0.00     0.134 A 
ATOM     40  F   UNL A   1      43.200  21.148  26.250  1.00  0.00    -0.206 F 
ATOM     41  C   UNL A   1      45.075  21.222  24.868  1.00  0.00     0.040 A 
ATOM     42  C   UNL A   1      46.179  23.290  24.413  1.00  0.00     0.040 A 
ATOM     43  F   UNL A   1      45.534  25.248  25.449  1.00  0.00    -0.206 F 
ATOM     44  C   UNL A   1      46.104  21.916  24.246  1.00  0.00     0.006 A 
ENDBRANCH  23  37
BRANCH  24  45
ATOM     45  C   UNL A   1      47.003  30.917  28.386  1.00  0.00     0.057 A 
ATOM     46  C   UNL A   1      46.928  31.385  27.067  1.00  0.00     0.134 A 
ATOM     47  C   UNL A   1      47.749  31.705  29.281  1.00  0.00     0.134 A 
ATOM     48  F   UNL A   1      46.204  30.726  26.152  1.00  0.00    -0.206 F 
ATOM     49  C   UNL A   1      47.542  32.579  26.667  1.00  0.00     0.040 A 
ATOM     50  C   UNL A   1      48.372  32.894  28.893  1.00  0.00     0.040 A 
ATOM     51  F   UNL A   1      47.819  31.393  30.584  1.00  0.00    -0.206 F 
ATOM     52  C   UNL A   1      48.258  33.343  27.583  1.00  0.00     0.006 A 
ENDBRANCH  24  45
BRANCH  36  53
ATOM     53  C   UNL A   1      45.319  26.039  32.025  1.00  0.00     0.057 A 
ATOM     54  C   UNL A   1      44.171  26.738  32.427  1.00  0.00     0.134 A 
ATOM     55  C   UNL A   1      46.156  25.557  33.038  1.00  0.00     0.134 A 
ATOM     56  F   UNL A   1      43.262  27.148  31.534  1.00  0.00    -0.206 F 
ATOM     57  C   UNL A   1      43.887  26.972  33.776  1.00  0.00     0.040 A 
ATOM     58  C   UNL A   1      45.868  25.756  34.389  1.00  0.00     0.040 A 
ATOM     59  F   UNL A   1      47.241  24.829  32.728  1.00  0.00    -0.206 F 
ATOM     60  C   UNL A   1      44.732  26.472  34.762  1.00  0.00     0.006 A 
ENDBRANCH  36  53
ENDBRANCH  10  11
ENDBRANCH   3   5
ENDBRANCH   2   3
ENDBRANCH   1   2
BRANCH   1  61
ATOM     61  C   UNL A   1      35.206  32.631  28.065  1.00  0.00     0.275 C 
BRANCH  61  62
ATOM     62  O   UNL A   1      34.812  33.996  28.277  1.00  0.00    -0.457 OA
BRANCH  62  63
ATOM     63  C   UNL A   1      33.480  34.205  28.530  1.00  0.00     0.359 C 
ATOM     64  O   UNL A   1      32.562  33.787  27.856  1.00  0.00    -0.244 OA
BRANCH  63  65
ATOM     65  C   UNL A   1      33.311  35.027  29.731  1.00  0.00     0.174 A 
ATOM     66  C   UNL A   1      33.172  36.460  29.770  1.00  0.00     0.091 A 
ATOM     67  N   UNL A   1      33.337  34.493  30.980  1.00  0.00    -0.142 NA
ATOM     68  C   UNL A   1      33.122  36.744  31.105  1.00  0.00     0.199 A 
ATOM     69  N   UNL A   1      33.182  35.566  31.728  1.00  0.00    -0.135 N 
ATOM     70  N   UNL A   1      33.076  37.733  32.026  1.00  0.00    -0.109 NA
ATOM     71  N   UNL A   1      33.207  35.826  33.020  1.00  0.00    -0.177 N 
ATOM     72  N   UNL A   1      33.190  37.198  33.186  1.00  0.00    -0.050 NA
ATOM     73  H   UNL A   1      33.232  35.159  33.742  1.00  0.00     0.216 HD
ENDBRANCH  63  65
ENDBRANCH  62  63
ENDBRANCH  61  62
ENDBRANCH   1  61
TORSDOF 11
ENDMDL
MODEL 2
REMARK VINA RESULT:     -11.3      2.389      6.669
REMARK SMILES O=C(OCCOC(=O)c1cc2nn[nH]n2n1)c1ccc(-c2c3nc(c(-c4c(F)cccc4F)c4ccc([nH]4)c(-c4c(F)cccc4F)c4nc(c(-c5c(F)cccc5F)c5ccc2[nH]5)C=C4)C=C3)cc1
REMARK SMILES IDX 4 1 3 2 2 3 1 4 17 5 18 6 70 7 19 8 69 9 20 10 21 11 22 12
REMARK SMILES IDX 63 13 23 14 68 15 62 16 64 17 24 18 67 19 61 20 60 21 25 23
REMARK SMILES IDX 51 24 34 25 50 26 35 27 38 28 49 29 65 30 36 31 37 32 48 34
REMARK SMILES IDX 66 35 39 36 26 37 27 38 32 39 28 40 29 41 31 42 33 43 30 44
REMARK SMILES IDX 52 45 53 46 58 47 54 48 55 49 57 50 59 51 56 52 40 53 41 54
REMARK SMILES IDX 46 55 42 56 43 57 45 58 47 59 44 60 5 61 6 62 7 63 8 64 9 65
REMARK SMILES IDX 10 66 16 67 11 68 15 69 12 70 14 71 13 72
REMARK H PARENT 64 22 38 33 14 73
REMARK Flexibility Score: inf
ROOT
ATOM      1  C   UNL A   1      33.566  33.791  28.010  1.00  0.00     0.275 C 
ENDROOT
BRANCH   1   2
ATOM      2  O   UNL A   1      34.644  32.927  28.430  1.00  0.00    -0.458 OA
BRANCH   2   3
ATOM      3  C   UNL A   1      34.632  31.628  28.056  1.00  0.00     0.338 C 
ATOM      4  O   UNL A   1      33.707  31.087  27.478  1.00  0.00    -0.246 OA
BRANCH   3   5
ATOM      5  C   UNL A   1      35.954  30.995  28.288  1.00  0.00     0.060 A 
ATOM      6  C   UNL A   1      36.175  29.644  27.998  1.00  0.00     0.016 A 
ATOM      7  C   UNL A   1      36.992  31.775  28.813  1.00  0.00     0.016 A 
ATOM      8  C   UNL A   1      37.397  29.062  28.296  1.00  0.00     0.010 A 
ATOM      9  C   UNL A   1      38.221  31.191  29.111  1.00  0.00     0.010 A 
ATOM     10  C   UNL A   1      38.411  29.826  28.885  1.00  0.00    -0.014 A 
BRANCH  10  11
ATOM     11  C   UNL A   1      39.657  29.137  29.212  1.00  0.00     0.031 A 
ATOM     12  C   UNL A   1      39.977  28.994  30.665  1.00  0.00     0.074 A 
ATOM     13  C   UNL A   1      40.467  28.576  28.292  1.00  0.00     0.049 A 
ATOM     14  N   UNL A   1      40.984  29.472  31.323  1.00  0.00    -0.248 NA
ATOM     15  C   UNL A   1      39.012  28.266  31.500  1.00  0.00     0.031 C 
ATOM     16  C   UNL A   1      40.211  28.345  26.869  1.00  0.00     0.029 A 
ATOM     17  N   UNL A   1      41.693  28.011  28.482  1.00  0.00    -0.354 N 
ATOM     18  C   UNL A   1      40.871  28.981  32.626  1.00  0.00     0.074 A 
ATOM     19  C   UNL A   1      39.590  28.326  32.701  1.00  0.00     0.031 C 
ATOM     20  C   UNL A   1      41.150  27.505  26.379  1.00  0.00     0.029 A 
ATOM     21  C   UNL A   1      42.149  27.266  27.407  1.00  0.00     0.049 A 
ATOM     22  H   UNL A   1      42.210  28.122  29.312  1.00  0.00     0.167 HD
ATOM     23  C   UNL A   1      41.909  29.007  33.508  1.00  0.00     0.037 A 
ATOM     24  C   UNL A   1      43.244  26.470  27.382  1.00  0.00     0.037 A 
ATOM     25  C   UNL A   1      42.926  29.943  33.111  1.00  0.00     0.049 A 
ATOM     26  C   UNL A   1      44.140  26.887  28.485  1.00  0.00     0.074 A 
ATOM     27  C   UNL A   1      42.972  31.308  32.913  1.00  0.00     0.029 A 
ATOM     28  N   UNL A   1      44.080  29.453  32.556  1.00  0.00    -0.354 N 
ATOM     29  N   UNL A   1      44.794  28.014  28.513  1.00  0.00    -0.248 NA
ATOM     30  C   UNL A   1      44.003  26.212  29.766  1.00  0.00     0.031 C 
ATOM     31  C   UNL A   1      43.873  31.490  31.824  1.00  0.00     0.029 A 
ATOM     32  C   UNL A   1      44.341  30.227  31.457  1.00  0.00     0.049 A 
ATOM     33  H   UNL A   1      44.616  28.694  32.883  1.00  0.00     0.167 HD
ATOM     34  C   UNL A   1      44.786  28.394  29.848  1.00  0.00     0.074 A 
ATOM     35  C   UNL A   1      44.378  27.200  30.581  1.00  0.00     0.031 C 
ATOM     36  C   UNL A   1      44.847  29.708  30.210  1.00  0.00     0.037 A 
BRANCH  23  37
ATOM     37  C   UNL A   1      42.167  27.972  34.576  1.00  0.00     0.057 A 
ATOM     38  C   UNL A   1      42.645  26.697  34.210  1.00  0.00     0.134 A 
ATOM     39  C   UNL A   1      41.682  28.071  35.894  1.00  0.00     0.134 A 
ATOM     40  F   UNL A   1      43.124  26.467  32.978  1.00  0.00    -0.206 F 
ATOM     41  C   UNL A   1      42.567  25.590  35.064  1.00  0.00     0.040 A 
ATOM     42  C   UNL A   1      41.647  26.983  36.772  1.00  0.00     0.040 A 
ATOM     43  F   UNL A   1      41.126  29.194  36.366  1.00  0.00    -0.206 F 
ATOM     44  C   UNL A   1      42.058  25.728  36.348  1.00  0.00     0.006 A 
ENDBRANCH  23  37
BRANCH  24  45
ATOM     45  C   UNL A   1      43.428  25.195  26.656  1.00  0.00     0.057 A 
ATOM     46  C   UNL A   1      42.641  24.071  26.941  1.00  0.00     0.134 A 
ATOM     47  C   UNL A   1      44.194  25.132  25.478  1.00  0.00     0.134 A 
ATOM     48  F   UNL A   1      41.843  24.056  28.018  1.00  0.00    -0.206 F 
ATOM     49  C   UNL A   1      42.602  22.957  26.093  1.00  0.00     0.040 A 
ATOM     50  C   UNL A   1      44.170  24.024  24.627  1.00  0.00     0.040 A 
ATOM     51  F   UNL A   1      44.919  26.184  25.068  1.00  0.00    -0.206 F 
ATOM     52  C   UNL A   1      43.361  22.935  24.926  1.00  0.00     0.006 A 
ENDBRANCH  24  45
BRANCH  36  53
ATOM     53  C   UNL A   1      45.182  30.722  29.156  1.00  0.00     0.057 A 
ATOM     54  C   UNL A   1      44.228  31.307  28.310  1.00  0.00     0.134 A 
ATOM     55  C   UNL A   1      46.474  31.260  29.125  1.00  0.00     0.134 A 
ATOM     56  F   UNL A   1      42.946  30.926  28.344  1.00  0.00    -0.206 F 
ATOM     57  C   UNL A   1      44.555  32.359  27.450  1.00  0.00     0.040 A 
ATOM     58  C   UNL A   1      46.806  32.331  28.293  1.00  0.00     0.040 A 
ATOM     59  F   UNL A   1      47.422  30.788  29.950  1.00  0.00    -0.206 F 
ATOM     60  C   UNL A   1      45.845  32.881  27.447  1.00  0.00     0.006 A 
ENDBRANCH  36  53
ENDBRANCH  10  11
ENDBRANCH   3   5
ENDBRANCH   2   3
ENDBRANCH   1   2
BRANCH   1  61
ATOM     61  C   UNL A   1      33.413  35.139  28.718  1.00  0.00     0.275 C 
BRANCH  61  62
ATOM     62  O   UNL A   1      32.633  34.968  29.913  1.00  0.00    -0.457 OA
BRANCH  62  63
ATOM     63  C   UNL A   1      32.903  35.840  30.936  1.00  0.00     0.359 C 
ATOM     64  O   UNL A   1      32.528  36.993  30.996  1.00  0.00    -0.244 OA
BRANCH  63  65
ATOM     65  C   UNL A   1      33.731  35.190  31.956  1.00  0.00     0.174 A 
ATOM     66  C   UNL A   1      34.518  35.854  32.963  1.00  0.00     0.091 A 
ATOM     67  N   UNL A   1      33.890  33.842  32.004  1.00  0.00    -0.142 NA
ATOM     68  C   UNL A   1      35.153  34.828  33.604  1.00  0.00     0.199 A 
ATOM     69  N   UNL A   1      34.712  33.710  33.025  1.00  0.00    -0.135 N 
ATOM     70  N   UNL A   1      36.064  34.508  34.551  1.00  0.00    -0.109 NA
ATOM     71  N   UNL A   1      35.368  32.714  33.583  1.00  0.00    -0.177 N 
ATOM     72  N   UNL A   1      36.251  33.240  34.507  1.00  0.00    -0.050 NA
ATOM     73  H   UNL A   1      35.250  31.759  33.379  1.00  0.00     0.216 HD
ENDBRANCH  63  65
ENDBRANCH  62  63
ENDBRANCH  61  62
ENDBRANCH   1  61
TORSDOF 11
ENDMDL
MODEL 3
REMARK VINA RESULT:     -11.2      2.233      6.616
REMARK SMILES O=C(OCCOC(=O)c1cc2nn[nH]n2n1)c1ccc(-c2c3nc(c(-c4c(F)cccc4F)c4ccc([nH]4)c(-c4c(F)cccc4F)c4nc(c(-c5c(F)cccc5F)c5ccc2[nH]5)C=C4)C=C3)cc1
REMARK SMILES IDX 4 1 3 2 2 3 1 4 17 5 18 6 70 7 19 8 69 9 20 10 21 11 22 12
REMARK SMILES IDX 63 13 23 14 68 15 62 16 64 17 24 18 67 19 61 20 60 21 25 23
REMARK SMILES IDX 51 24 34 25 50 26 35 27 38 28 49 29 65 30 36 31 37 32 48 34
REMARK SMILES IDX 66 35 39 36 26 37 27 38 32 39 28 40 29 41 31 42 33 43 30 44
REMARK SMILES IDX 52 45 53 46 58 47 54 48 55 49 57 50 59 51 56 52 40 53 41 54
REMARK SMILES IDX 46 55 42 56 43 57 45 58 47 59 44 60 5 61 6 62 7 63 8 64 9 65
REMARK SMILES IDX 10 66 16 67 11 68 15 69 12 70 14 71 13 72
REMARK H PARENT 64 22 38 33 14 73
REMARK Flexibility Score: inf
ROOT
ATOM      1  C   UNL A   1      34.463  32.982  30.204  1.00  0.00     0.275 C 
ENDROOT
BRANCH   1   2
ATOM      2  O   UNL A   1      34.502  32.219  28.979  1.00  0.00    -0.458 OA
BRANCH   2   3
ATOM      3  C   UNL A   1      35.555  32.366  28.143  1.00  0.00     0.338 C 
ATOM      4  O   UNL A   1      35.640  33.232  27.290  1.00  0.00    -0.246 OA
BRANCH   3   5
ATOM      5  C   UNL A   1      36.660  31.449  28.512  1.00  0.00     0.060 A 
ATOM      6  C   UNL A   1      37.824  31.921  29.129  1.00  0.00     0.016 A 
ATOM      7  C   UNL A   1      36.526  30.084  28.226  1.00  0.00     0.016 A 
ATOM      8  C   UNL A   1      38.871  31.051  29.392  1.00  0.00     0.010 A 
ATOM      9  C   UNL A   1      37.577  29.209  28.493  1.00  0.00     0.010 A 
ATOM     10  C   UNL A   1      38.763  29.701  29.043  1.00  0.00    -0.014 A 
BRANCH  10  11
ATOM     11  C   UNL A   1      39.923  28.851  29.310  1.00  0.00     0.031 A 
ATOM     12  C   UNL A   1      40.318  28.696  30.742  1.00  0.00     0.074 A 
ATOM     13  C   UNL A   1      40.584  28.165  28.356  1.00  0.00     0.049 A 
ATOM     14  N   UNL A   1      41.424  29.043  31.319  1.00  0.00    -0.248 NA
ATOM     15  C   UNL A   1      39.321  28.126  31.659  1.00  0.00     0.031 C 
ATOM     16  C   UNL A   1      40.202  27.942  26.960  1.00  0.00     0.029 A 
ATOM     17  N   UNL A   1      41.730  27.439  28.483  1.00  0.00    -0.354 N 
ATOM     18  C   UNL A   1      41.334  28.600  32.640  1.00  0.00     0.074 A 
ATOM     19  C   UNL A   1      39.983  28.130  32.818  1.00  0.00     0.031 C 
ATOM     20  C   UNL A   1      40.981  26.970  26.435  1.00  0.00     0.029 A 
ATOM     21  C   UNL A   1      42.006  26.616  27.404  1.00  0.00     0.049 A 
ATOM     22  H   UNL A   1      42.313  27.495  29.275  1.00  0.00     0.167 HD
ATOM     23  C   UNL A   1      42.423  28.500  33.453  1.00  0.00     0.037 A 
ATOM     24  C   UNL A   1      42.977  25.675  27.332  1.00  0.00     0.037 A 
ATOM     25  C   UNL A   1      43.529  29.277  32.964  1.00  0.00     0.049 A 
ATOM     26  C   UNL A   1      43.995  25.987  28.362  1.00  0.00     0.074 A 
ATOM     27  C   UNL A   1      43.748  30.618  32.722  1.00  0.00     0.029 A 
ATOM     28  N   UNL A   1      44.565  28.620  32.350  1.00  0.00    -0.354 N 
ATOM     29  N   UNL A   1      44.798  27.013  28.315  1.00  0.00    -0.248 NA
ATOM     30  C   UNL A   1      43.854  25.364  29.669  1.00  0.00     0.031 C 
ATOM     31  C   UNL A   1      44.590  30.651  31.572  1.00  0.00     0.029 A 
ATOM     32  C   UNL A   1      44.853  29.328  31.214  1.00  0.00     0.049 A 
ATOM     33  H   UNL A   1      45.012  27.802  32.664  1.00  0.00     0.167 HD
ATOM     34  C   UNL A   1      44.933  27.418  29.634  1.00  0.00     0.074 A 
ATOM     35  C   UNL A   1      44.416  26.308  30.428  1.00  0.00     0.031 C 
ATOM     36  C   UNL A   1      45.198  28.718  29.953  1.00  0.00     0.037 A 
BRANCH  23  37
ATOM     37  C   UNL A   1      42.608  27.461  34.533  1.00  0.00     0.057 A 
ATOM     38  C   UNL A   1      43.046  26.166  34.186  1.00  0.00     0.134 A 
ATOM     39  C   UNL A   1      42.090  27.586  35.835  1.00  0.00     0.134 A 
ATOM     40  F   UNL A   1      43.551  25.911  32.970  1.00  0.00    -0.206 F 
ATOM     41  C   UNL A   1      42.900  25.068  35.042  1.00  0.00     0.040 A 
ATOM     42  C   UNL A   1      41.986  26.505  36.717  1.00  0.00     0.040 A 
ATOM     43  F   UNL A   1      41.564  28.733  36.286  1.00  0.00    -0.206 F 
ATOM     44  C   UNL A   1      42.360  25.233  36.310  1.00  0.00     0.006 A 
ENDBRANCH  23  37
BRANCH  24  45
ATOM     45  C   UNL A   1      42.935  24.373  26.634  1.00  0.00     0.057 A 
ATOM     46  C   UNL A   1      43.755  24.108  25.529  1.00  0.00     0.134 A 
ATOM     47  C   UNL A   1      42.284  23.263  27.204  1.00  0.00     0.134 A 
ATOM     48  F   UNL A   1      44.451  25.094  24.947  1.00  0.00    -0.206 F 
ATOM     49  C   UNL A   1      43.934  22.810  25.032  1.00  0.00     0.040 A 
ATOM     50  C   UNL A   1      42.449  21.965  26.713  1.00  0.00     0.040 A 
ATOM     51  F   UNL A   1      41.540  23.392  28.312  1.00  0.00    -0.206 F 
ATOM     52  C   UNL A   1      43.288  21.733  25.630  1.00  0.00     0.006 A 
ENDBRANCH  24  45
BRANCH  36  53
ATOM     53  C   UNL A   1      45.596  29.653  28.849  1.00  0.00     0.057 A 
ATOM     54  C   UNL A   1      44.677  30.369  28.069  1.00  0.00     0.134 A 
ATOM     55  C   UNL A   1      46.948  29.982  28.700  1.00  0.00     0.134 A 
ATOM     56  F   UNL A   1      43.358  30.194  28.217  1.00  0.00    -0.206 F 
ATOM     57  C   UNL A   1      45.089  31.347  27.158  1.00  0.00     0.040 A 
ATOM     58  C   UNL A   1      47.371  30.977  27.817  1.00  0.00     0.040 A 
ATOM     59  F   UNL A   1      47.878  29.378  29.458  1.00  0.00    -0.206 F 
ATOM     60  C   UNL A   1      46.440  31.660  27.037  1.00  0.00     0.006 A 
ENDBRANCH  36  53
ENDBRANCH  10  11
ENDBRANCH   3   5
ENDBRANCH   2   3
ENDBRANCH   1   2
BRANCH   1  61
ATOM     61  C   UNL A   1      34.912  32.289  31.492  1.00  0.00     0.275 C 
BRANCH  61  62
ATOM     62  O   UNL A   1      34.026  32.650  32.565  1.00  0.00    -0.457 OA
BRANCH  62  63
ATOM     63  C   UNL A   1      34.528  33.534  33.486  1.00  0.00     0.359 C 
ATOM     64  O   UNL A   1      35.201  33.239  34.451  1.00  0.00    -0.244 OA
BRANCH  63  65
ATOM     65  C   UNL A   1      34.122  34.903  33.154  1.00  0.00     0.174 A 
ATOM     66  C   UNL A   1      32.872  35.300  32.559  1.00  0.00     0.091 A 
ATOM     67  N   UNL A   1      34.954  35.963  33.325  1.00  0.00    -0.142 NA
ATOM     68  C   UNL A   1      33.011  36.647  32.384  1.00  0.00     0.199 A 
ATOM     69  N   UNL A   1      34.209  36.955  32.882  1.00  0.00    -0.135 N 
ATOM     70  N   UNL A   1      32.439  37.764  31.879  1.00  0.00    -0.109 NA
ATOM     71  N   UNL A   1      34.390  38.241  32.657  1.00  0.00    -0.177 N 
ATOM     72  N   UNL A   1      33.285  38.721  31.980  1.00  0.00    -0.050 NA
ATOM     73  H   UNL A   1      35.176  38.769  32.925  1.00  0.00     0.216 HD
ENDBRANCH  63  65
ENDBRANCH  62  63
ENDBRANCH  61  62
ENDBRANCH   1  61
TORSDOF 11
ENDMDL
