MODEL 1
REMARK VINA RESULT:     -12.4      0.000      0.000
REMARK SMILES Cc1oc2cc(OCC(=O)OCCOC(=O)c3ccc(-c4c5nc(c(-c6c(F)cccc6F)c6ccc([nH]6)c(-c6c(F)cccc6F)c6nc(c(-c7c(F)cccc7F)c7ccc4[nH]7)C=C6)C=C5)cc3)ccc2c(=O)c1Oc1ccc(Cl)cc1Cl
REMARK SMILES IDX 12 1 11 2 9 3 10 4 8 5 7 6 6 7 1 8 2 9 3 10 76 11 4 12 74 13
REMARK SMILES IDX 5 14 73 15 75 16 72 17 71 18 77 19 78 20 79 21 84 22 80 23
REMARK SMILES IDX 83 24 85 25 81 26 82 27 13 28 14 29 15 30 16 31 17 32 18 33
REMARK SMILES IDX 70 34 19 35 69 36 20 37 21 38 22 39 63 40 23 41 68 42 62 43
REMARK SMILES IDX 64 44 24 45 67 46 61 47 60 48 25 50 51 51 34 52 50 53 35 54
REMARK SMILES IDX 38 55 49 56 65 57 36 58 37 59 48 61 66 62 39 63 26 64 27 65
REMARK SMILES IDX 32 66 28 67 29 68 31 69 33 70 30 71 52 72 53 73 58 74 54 75
REMARK SMILES IDX 55 76 57 77 59 78 56 79 40 80 41 81 46 82 42 83 43 84 45 85
REMARK SMILES IDX 47 86 44 87
REMARK H PARENT 64 49 38 60
REMARK Flexibility Score: inf
ROOT
ATOM      1  C   UNL A   1      42.668  20.401  26.174  1.00  0.00     0.274 C 
ENDROOT
BRANCH   1   2
ATOM      2  O   UNL A   1      41.288  20.238  25.788  1.00  0.00    -0.460 OA
BRANCH   2   3
ATOM      3  C   UNL A   1      40.372  20.858  26.577  1.00  0.00     0.344 C 
ATOM      4  O   UNL A   1      40.403  20.883  27.804  1.00  0.00    -0.248 OA
BRANCH   3   5
ATOM      5  C   UNL A   1      39.245  21.515  25.783  1.00  0.00     0.351 C 
BRANCH   5   6
ATOM      6  O   UNL A   1      38.041  20.798  25.569  1.00  0.00    -0.482 OA
BRANCH   6   7
ATOM      7  C   UNL A   1      36.956  21.448  25.052  1.00  0.00     0.123 A 
ATOM      8  C   UNL A   1      31.115  22.312  25.715  1.00  0.00     0.092 C 
ATOM      9  C   UNL A   1      32.331  22.636  24.904  1.00  0.00     0.148 A 
ATOM     10  O   UNL A   1      33.320  21.677  25.120  1.00  0.00    -0.457 OA
ATOM     11  C   UNL A   1      32.484  23.704  24.083  1.00  0.00     0.213 A 
ATOM     12  C   UNL A   1      34.609  21.970  24.777  1.00  0.00     0.142 A 
ATOM     13  C   UNL A   1      33.826  23.864  23.435  1.00  0.00     0.235 A 
ATOM     14  C   UNL A   1      35.619  21.161  25.309  1.00  0.00     0.094 A 
ATOM     15  C   UNL A   1      34.922  23.032  23.948  1.00  0.00     0.069 A 
ATOM     16  O   UNL A   1      34.025  24.673  22.535  1.00  0.00    -0.285 OA
ATOM     17  C   UNL A   1      36.255  23.303  23.640  1.00  0.00     0.020 A 
ATOM     18  C   UNL A   1      37.266  22.517  24.206  1.00  0.00     0.047 A 
BRANCH  11  19
ATOM     19  O   UNL A   1      31.591  24.731  23.785  1.00  0.00    -0.448 OA
BRANCH  19  20
ATOM     20  C   UNL A   1      31.588  25.900  24.497  1.00  0.00     0.146 A 
ATOM     21  C   UNL A   1      31.842  25.851  25.872  1.00  0.00     0.050 A 
ATOM     22  C   UNL A   1      31.299  27.122  23.875  1.00  0.00     0.085 A 
ATOM     23  C   UNL A   1      31.897  27.038  26.605  1.00  0.00     0.024 A 
ATOM     24  C   UNL A   1      31.358  28.307  24.609  1.00  0.00     0.045 A 
ATOM     25  Cl  UNL A   1      30.926  27.209  22.193  1.00  0.00    -0.080 Cl
ATOM     26  C   UNL A   1      31.669  28.260  25.968  1.00  0.00     0.042 A 
ATOM     27  Cl  UNL A   1      31.781  29.722  26.867  1.00  0.00    -0.084 Cl
ENDBRANCH  19  20
ENDBRANCH  11  19
ENDBRANCH   6   7
ENDBRANCH   5   6
ENDBRANCH   3   5
ENDBRANCH   2   3
ENDBRANCH   1   2
BRANCH   1  28
ATOM     28  C   UNL A   1      43.345  21.477  25.330  1.00  0.00     0.275 C 
BRANCH  28  29
ATOM     29  O   UNL A   1      42.559  22.683  25.370  1.00  0.00    -0.458 OA
BRANCH  29  30
ATOM     30  C   UNL A   1      43.253  23.827  25.211  1.00  0.00     0.338 C 
ATOM     31  O   UNL A   1      44.197  24.023  24.458  1.00  0.00    -0.246 OA
BRANCH  30  32
ATOM     32  C   UNL A   1      42.719  24.888  26.084  1.00  0.00     0.060 A 
ATOM     33  C   UNL A   1      43.142  26.214  25.956  1.00  0.00     0.016 A 
ATOM     34  C   UNL A   1      41.918  24.506  27.162  1.00  0.00     0.016 A 
ATOM     35  C   UNL A   1      42.878  27.128  26.976  1.00  0.00     0.010 A 
ATOM     36  C   UNL A   1      41.602  25.438  28.151  1.00  0.00     0.010 A 
ATOM     37  C   UNL A   1      42.131  26.736  28.095  1.00  0.00    -0.014 A 
BRANCH  37  38
ATOM     38  C   UNL A   1      41.830  27.688  29.185  1.00  0.00     0.031 A 
ATOM     39  C   UNL A   1      42.593  27.667  30.476  1.00  0.00     0.074 A 
ATOM     40  C   UNL A   1      40.800  28.531  29.020  1.00  0.00     0.049 A 
ATOM     41  N   UNL A   1      42.281  28.195  31.631  1.00  0.00    -0.248 NA
ATOM     42  C   UNL A   1      43.872  26.947  30.472  1.00  0.00     0.031 C 
ATOM     43  C   UNL A   1      40.015  28.666  27.794  1.00  0.00     0.029 A 
ATOM     44  N   UNL A   1      40.226  29.411  29.895  1.00  0.00    -0.354 N 
ATOM     45  C   UNL A   1      43.290  27.815  32.509  1.00  0.00     0.074 A 
ATOM     46  C   UNL A   1      44.230  27.016  31.749  1.00  0.00     0.031 C 
ATOM     47  C   UNL A   1      39.046  29.568  27.999  1.00  0.00     0.029 A 
ATOM     48  C   UNL A   1      39.114  30.027  29.382  1.00  0.00     0.049 A 
ATOM     49  H   UNL A   1      40.574  29.584  30.799  1.00  0.00     0.167 HD
ATOM     50  C   UNL A   1      43.415  28.116  33.825  1.00  0.00     0.037 A 
ATOM     51  C   UNL A   1      38.223  30.838  29.976  1.00  0.00     0.037 A 
ATOM     52  C   UNL A   1      42.521  28.996  34.538  1.00  0.00     0.049 A 
ATOM     53  C   UNL A   1      38.397  31.185  31.422  1.00  0.00     0.074 A 
ATOM     54  C   UNL A   1      42.580  29.405  35.859  1.00  0.00     0.029 A 
ATOM     55  N   UNL A   1      41.425  29.632  33.973  1.00  0.00    -0.354 N 
ATOM     56  N   UNL A   1      39.305  30.760  32.267  1.00  0.00    -0.248 NA
ATOM     57  C   UNL A   1      37.424  32.121  31.997  1.00  0.00     0.031 C 
ATOM     58  C   UNL A   1      41.514  30.282  36.097  1.00  0.00     0.029 A 
ATOM     59  C   UNL A   1      40.807  30.438  34.916  1.00  0.00     0.049 A 
ATOM     60  H   UNL A   1      41.130  29.526  33.040  1.00  0.00     0.167 HD
ATOM     61  C   UNL A   1      39.019  31.380  33.473  1.00  0.00     0.074 A 
ATOM     62  C   UNL A   1      37.862  32.224  33.245  1.00  0.00     0.031 C 
ATOM     63  C   UNL A   1      39.654  31.263  34.664  1.00  0.00     0.037 A 
BRANCH  50  64
ATOM     64  C   UNL A   1      44.547  27.496  34.591  1.00  0.00     0.057 A 
ATOM     65  C   UNL A   1      45.790  28.124  34.722  1.00  0.00     0.134 A 
ATOM     66  C   UNL A   1      44.359  26.288  35.276  1.00  0.00     0.134 A 
ATOM     67  F   UNL A   1      46.039  29.279  34.085  1.00  0.00    -0.206 F 
ATOM     68  C   UNL A   1      46.810  27.569  35.500  1.00  0.00     0.040 A 
ATOM     69  C   UNL A   1      45.362  25.733  36.073  1.00  0.00     0.040 A 
ATOM     70  F   UNL A   1      43.189  25.635  35.196  1.00  0.00    -0.206 F 
ATOM     71  C   UNL A   1      46.593  26.375  36.185  1.00  0.00     0.006 A 
ENDBRANCH  50  64
BRANCH  51  72
ATOM     72  C   UNL A   1      37.089  31.355  29.183  1.00  0.00     0.057 A 
ATOM     73  C   UNL A   1      35.940  30.583  28.991  1.00  0.00     0.134 A 
ATOM     74  C   UNL A   1      37.095  32.657  28.669  1.00  0.00     0.134 A 
ATOM     75  F   UNL A   1      35.886  29.327  29.458  1.00  0.00    -0.206 F 
ATOM     76  C   UNL A   1      34.831  31.089  28.314  1.00  0.00     0.040 A 
ATOM     77  C   UNL A   1      35.986  33.182  28.007  1.00  0.00     0.040 A 
ATOM     78  F   UNL A   1      38.165  33.447  28.840  1.00  0.00    -0.206 F 
ATOM     79  C   UNL A   1      34.849  32.395  27.829  1.00  0.00     0.006 A 
ENDBRANCH  51  72
BRANCH  63  80
ATOM     80  C   UNL A   1      39.117  32.085  35.793  1.00  0.00     0.057 A 
ATOM     81  C   UNL A   1      38.208  31.553  36.715  1.00  0.00     0.134 A 
ATOM     82  C   UNL A   1      39.510  33.418  35.957  1.00  0.00     0.134 A 
ATOM     83  F   UNL A   1      37.783  30.286  36.598  1.00  0.00    -0.206 F 
ATOM     84  C   UNL A   1      37.690  32.329  37.753  1.00  0.00     0.040 A 
ATOM     85  C   UNL A   1      39.011  34.199  37.000  1.00  0.00     0.040 A 
ATOM     86  F   UNL A   1      40.379  33.981  35.104  1.00  0.00    -0.206 F 
ATOM     87  C   UNL A   1      38.094  33.656  37.898  1.00  0.00     0.006 A 
ENDBRANCH  63  80
ENDBRANCH  37  38
ENDBRANCH  30  32
ENDBRANCH  29  30
ENDBRANCH  28  29
ENDBRANCH   1  28
TORSDOF 15
ENDMDL
MODEL 2
REMARK VINA RESULT:     -12.3      4.844      9.912
REMARK SMILES Cc1oc2cc(OCC(=O)OCCOC(=O)c3ccc(-c4c5nc(c(-c6c(F)cccc6F)c6ccc([nH]6)c(-c6c(F)cccc6F)c6nc(c(-c7c(F)cccc7F)c7ccc4[nH]7)C=C6)C=C5)cc3)ccc2c(=O)c1Oc1ccc(Cl)cc1Cl
REMARK SMILES IDX 12 1 11 2 9 3 10 4 8 5 7 6 6 7 1 8 2 9 3 10 76 11 4 12 74 13
REMARK SMILES IDX 5 14 73 15 75 16 72 17 71 18 77 19 78 20 79 21 84 22 80 23
REMARK SMILES IDX 83 24 85 25 81 26 82 27 13 28 14 29 15 30 16 31 17 32 18 33
REMARK SMILES IDX 70 34 19 35 69 36 20 37 21 38 22 39 63 40 23 41 68 42 62 43
REMARK SMILES IDX 64 44 24 45 67 46 61 47 60 48 25 50 51 51 34 52 50 53 35 54
REMARK SMILES IDX 38 55 49 56 65 57 36 58 37 59 48 61 66 62 39 63 26 64 27 65
REMARK SMILES IDX 32 66 28 67 29 68 31 69 33 70 30 71 52 72 53 73 58 74 54 75
REMARK SMILES IDX 55 76 57 77 59 78 56 79 40 80 41 81 46 82 42 83 43 84 45 85
REMARK SMILES IDX 47 86 44 87
REMARK H PARENT 64 49 38 60
REMARK Flexibility Score: inf
ROOT
ATOM      1  C   UNL A   1      33.902  35.127  29.843  1.00  0.00     0.274 C 
ENDROOT
BRANCH   1   2
ATOM      2  O   UNL A   1      33.183  34.094  29.139  1.00  0.00    -0.460 OA
BRANCH   2   3
ATOM      3  C   UNL A   1      33.872  33.452  28.159  1.00  0.00     0.344 C 
ATOM      4  O   UNL A   1      34.842  33.913  27.564  1.00  0.00    -0.248 OA
BRANCH   3   5
ATOM      5  C   UNL A   1      33.298  32.076  27.827  1.00  0.00     0.351 C 
BRANCH   5   6
ATOM      6  O   UNL A   1      34.105  31.140  27.134  1.00  0.00    -0.482 OA
BRANCH   6   7
ATOM      7  C   UNL A   1      33.611  29.893  26.871  1.00  0.00     0.123 A 
ATOM      8  C   UNL A   1      35.139  24.319  25.494  1.00  0.00     0.092 C 
ATOM      9  C   UNL A   1      34.009  25.263  25.765  1.00  0.00     0.148 A 
ATOM     10  O   UNL A   1      34.435  26.580  25.597  1.00  0.00    -0.457 OA
ATOM     11  C   UNL A   1      32.751  24.919  26.135  1.00  0.00     0.213 A 
ATOM     12  C   UNL A   1      33.689  27.587  26.140  1.00  0.00     0.142 A 
ATOM     13  C   UNL A   1      31.808  26.045  26.431  1.00  0.00     0.235 A 
ATOM     14  C   UNL A   1      34.294  28.843  26.265  1.00  0.00     0.094 A 
ATOM     15  C   UNL A   1      32.389  27.388  26.565  1.00  0.00     0.069 A 
ATOM     16  O   UNL A   1      30.605  25.868  26.588  1.00  0.00    -0.285 OA
ATOM     17  C   UNL A   1      31.672  28.444  27.128  1.00  0.00     0.020 A 
ATOM     18  C   UNL A   1      32.294  29.688  27.291  1.00  0.00     0.047 A 
BRANCH  11  19
ATOM     19  O   UNL A   1      32.200  23.657  26.345  1.00  0.00    -0.448 OA
BRANCH  19  20
ATOM     20  C   UNL A   1      32.180  22.714  25.353  1.00  0.00     0.146 A 
ATOM     21  C   UNL A   1      31.514  23.009  24.158  1.00  0.00     0.050 A 
ATOM     22  C   UNL A   1      32.778  21.461  25.537  1.00  0.00     0.085 A 
ATOM     23  C   UNL A   1      31.529  22.082  23.114  1.00  0.00     0.024 A 
ATOM     24  C   UNL A   1      32.795  20.537  24.491  1.00  0.00     0.045 A 
ATOM     25  Cl  UNL A   1      33.557  21.045  27.019  1.00  0.00    -0.080 Cl
ATOM     26  C   UNL A   1      32.181  20.858  23.281  1.00  0.00     0.042 A 
ATOM     27  Cl  UNL A   1      32.234  19.738  21.976  1.00  0.00    -0.084 Cl
ENDBRANCH  19  20
ENDBRANCH  11  19
ENDBRANCH   6   7
ENDBRANCH   5   6
ENDBRANCH   3   5
ENDBRANCH   2   3
ENDBRANCH   1   2
BRANCH   1  28
ATOM     28  C   UNL A   1      34.378  34.627  31.204  1.00  0.00     0.275 C 
BRANCH  28  29
ATOM     29  O   UNL A   1      35.541  33.797  31.030  1.00  0.00    -0.458 OA
BRANCH  29  30
ATOM     30  C   UNL A   1      35.403  32.520  31.439  1.00  0.00     0.338 C 
ATOM     31  O   UNL A   1      34.475  32.042  32.076  1.00  0.00    -0.246 OA
BRANCH  30  32
ATOM     32  C   UNL A   1      36.550  31.705  31.002  1.00  0.00     0.060 A 
ATOM     33  C   UNL A   1      37.349  31.024  31.926  1.00  0.00     0.016 A 
ATOM     34  C   UNL A   1      36.932  31.777  29.662  1.00  0.00     0.016 A 
ATOM     35  C   UNL A   1      38.595  30.533  31.537  1.00  0.00     0.010 A 
ATOM     36  C   UNL A   1      38.151  31.229  29.261  1.00  0.00     0.010 A 
ATOM     37  C   UNL A   1      39.016  30.659  30.207  1.00  0.00    -0.014 A 
BRANCH  37  38
ATOM     38  C   UNL A   1      40.328  30.139  29.767  1.00  0.00     0.031 A 
ATOM     39  C   UNL A   1      41.517  31.039  29.618  1.00  0.00     0.074 A 
ATOM     40  C   UNL A   1      40.411  28.843  29.430  1.00  0.00     0.049 A 
ATOM     41  N   UNL A   1      42.633  30.837  28.966  1.00  0.00    -0.248 NA
ATOM     42  C   UNL A   1      41.439  32.347  30.279  1.00  0.00     0.031 C 
ATOM     43  C   UNL A   1      39.331  27.868  29.573  1.00  0.00     0.029 A 
ATOM     44  N   UNL A   1      41.442  28.136  28.877  1.00  0.00    -0.354 N 
ATOM     45  C   UNL A   1      43.363  32.014  29.082  1.00  0.00     0.074 A 
ATOM     46  C   UNL A   1      42.564  32.927  29.875  1.00  0.00     0.031 C 
ATOM     47  C   UNL A   1      39.752  26.686  29.102  1.00  0.00     0.029 A 
ATOM     48  C   UNL A   1      41.105  26.841  28.580  1.00  0.00     0.049 A 
ATOM     49  H   UNL A   1      42.335  28.516  28.711  1.00  0.00     0.167 HD
ATOM     50  C   UNL A   1      44.588  32.296  28.576  1.00  0.00     0.037 A 
ATOM     51  C   UNL A   1      41.796  25.897  27.919  1.00  0.00     0.037 A 
ATOM     52  C   UNL A   1      45.409  31.339  27.876  1.00  0.00     0.049 A 
ATOM     53  C   UNL A   1      43.161  26.218  27.396  1.00  0.00     0.074 A 
ATOM     54  C   UNL A   1      46.684  31.504  27.360  1.00  0.00     0.029 A 
ATOM     55  N   UNL A   1      45.047  30.023  27.626  1.00  0.00    -0.354 N 
ATOM     56  N   UNL A   1      43.812  27.356  27.438  1.00  0.00    -0.248 NA
ATOM     57  C   UNL A   1      43.887  25.127  26.735  1.00  0.00     0.031 C 
ATOM     58  C   UNL A   1      47.089  30.291  26.791  1.00  0.00     0.029 A 
ATOM     59  C   UNL A   1      46.077  29.364  26.975  1.00  0.00     0.049 A 
ATOM     60  H   UNL A   1      44.185  29.618  27.875  1.00  0.00     0.167 HD
ATOM     61  C   UNL A   1      45.027  27.119  26.814  1.00  0.00     0.074 A 
ATOM     62  C   UNL A   1      45.029  25.724  26.419  1.00  0.00     0.031 C 
ATOM     63  C   UNL A   1      46.051  27.977  26.587  1.00  0.00     0.037 A 
BRANCH  50  64
ATOM     64  C   UNL A   1      45.125  33.687  28.748  1.00  0.00     0.057 A 
ATOM     65  C   UNL A   1      45.982  34.029  29.800  1.00  0.00     0.134 A 
ATOM     66  C   UNL A   1      44.842  34.677  27.797  1.00  0.00     0.134 A 
ATOM     67  F   UNL A   1      46.286  33.132  30.749  1.00  0.00    -0.206 F 
ATOM     68  C   UNL A   1      46.532  35.310  29.905  1.00  0.00     0.040 A 
ATOM     69  C   UNL A   1      45.401  35.954  27.879  1.00  0.00     0.040 A 
ATOM     70  F   UNL A   1      44.030  34.414  26.762  1.00  0.00    -0.206 F 
ATOM     71  C   UNL A   1      46.249  36.273  28.938  1.00  0.00     0.006 A 
ENDBRANCH  50  64
BRANCH  51  72
ATOM     72  C   UNL A   1      41.178  24.570  27.719  1.00  0.00     0.057 A 
ATOM     73  C   UNL A   1      40.203  24.376  26.737  1.00  0.00     0.134 A 
ATOM     74  C   UNL A   1      41.604  23.453  28.447  1.00  0.00     0.134 A 
ATOM     75  F   UNL A   1      39.756  25.415  26.016  1.00  0.00    -0.206 F 
ATOM     76  C   UNL A   1      39.671  23.113  26.482  1.00  0.00     0.040 A 
ATOM     77  C   UNL A   1      41.094  22.181  28.190  1.00  0.00     0.040 A 
ATOM     78  F   UNL A   1      42.550  23.579  29.389  1.00  0.00    -0.206 F 
ATOM     79  C   UNL A   1      40.124  22.009  27.204  1.00  0.00     0.006 A 
ENDBRANCH  51  72
BRANCH  63  80
ATOM     80  C   UNL A   1      47.255  27.415  25.900  1.00  0.00     0.057 A 
ATOM     81  C   UNL A   1      48.295  26.816  26.623  1.00  0.00     0.134 A 
ATOM     82  C   UNL A   1      47.376  27.473  24.508  1.00  0.00     0.134 A 
ATOM     83  F   UNL A   1      48.241  26.747  27.961  1.00  0.00    -0.206 F 
ATOM     84  C   UNL A   1      49.427  26.314  25.981  1.00  0.00     0.040 A 
ATOM     85  C   UNL A   1      48.496  26.960  23.854  1.00  0.00     0.040 A 
ATOM     86  F   UNL A   1      46.411  28.033  23.764  1.00  0.00    -0.206 F 
ATOM     87  C   UNL A   1      49.528  26.383  24.592  1.00  0.00     0.006 A 
ENDBRANCH  63  80
ENDBRANCH  37  38
ENDBRANCH  30  32
ENDBRANCH  29  30
ENDBRANCH  28  29
ENDBRANCH   1  28
TORSDOF 15
ENDMDL
MODEL 3
REMARK VINA RESULT:     -12.3      3.719      8.883
REMARK SMILES Cc1oc2cc(OCC(=O)OCCOC(=O)c3ccc(-c4c5nc(c(-c6c(F)cccc6F)c6ccc([nH]6)c(-c6c(F)cccc6F)c6nc(c(-c7c(F)cccc7F)c7ccc4[nH]7)C=C6)C=C5)cc3)ccc2c(=O)c1Oc1ccc(Cl)cc1Cl
REMARK SMILES IDX 12 1 11 2 9 3 10 4 8 5 7 6 6 7 1 8 2 9 3 10 76 11 4 12 74 13
REMARK SMILES IDX 5 14 73 15 75 16 72 17 71 18 77 19 78 20 79 21 84 22 80 23
REMARK SMILES IDX 83 24 85 25 81 26 82 27 13 28 14 29 15 30 16 31 17 32 18 33
REMARK SMILES IDX 70 34 19 35 69 36 20 37 21 38 22 39 63 40 23 41 68 42 62 43
REMARK SMILES IDX 64 44 24 45 67 46 61 47 60 48 25 50 51 51 34 52 50 53 35 54
REMARK SMILES IDX 38 55 49 56 65 57 36 58 37 59 48 61 66 62 39 63 26 64 27 65
REMARK SMILES IDX 32 66 28 67 29 68 31 69 33 70 30 71 52 72 53 73 58 74 54 75
REMARK SMILES IDX 55 76 57 77 59 78 56 79 40 80 41 81 46 82 42 83 43 84 45 85
REMARK SMILES IDX 47 86 44 87
REMARK H PARENT 64 49 38 60
REMARK Flexibility Score: inf
ROOT
ATOM      1  C   UNL A   1      34.115  34.900  28.811  1.00  0.00     0.274 C 
ENDROOT
BRANCH   1   2
ATOM      2  O   UNL A   1      33.742  33.508  28.750  1.00  0.00    -0.460 OA
BRANCH   2   3
ATOM      3  C   UNL A   1      34.598  32.692  28.081  1.00  0.00     0.344 C 
ATOM      4  O   UNL A   1      35.670  33.042  27.597  1.00  0.00    -0.248 OA
BRANCH   3   5
ATOM      5  C   UNL A   1      34.081  31.260  27.951  1.00  0.00     0.351 C 
BRANCH   5   6
ATOM      6  O   UNL A   1      33.648  30.794  26.684  1.00  0.00    -0.482 OA
BRANCH   6   7
ATOM      7  C   UNL A   1      33.243  29.497  26.549  1.00  0.00     0.123 A 
ATOM      8  C   UNL A   1      35.138  23.962  25.510  1.00  0.00     0.092 C 
ATOM      9  C   UNL A   1      33.952  24.836  25.779  1.00  0.00     0.148 A 
ATOM     10  O   UNL A   1      34.259  26.163  25.484  1.00  0.00    -0.457 OA
ATOM     11  C   UNL A   1      32.749  24.428  26.253  1.00  0.00     0.213 A 
ATOM     12  C   UNL A   1      33.466  27.152  25.994  1.00  0.00     0.142 A 
ATOM     13  C   UNL A   1      31.736  25.499  26.521  1.00  0.00     0.235 A 
ATOM     14  C   UNL A   1      33.973  28.456  25.984  1.00  0.00     0.094 A 
ATOM     15  C   UNL A   1      32.212  26.889  26.514  1.00  0.00     0.069 A 
ATOM     16  O   UNL A   1      30.562  25.243  26.768  1.00  0.00    -0.285 OA
ATOM     17  C   UNL A   1      31.446  27.930  27.040  1.00  0.00     0.020 A 
ATOM     18  C   UNL A   1      31.972  29.226  27.067  1.00  0.00     0.047 A 
BRANCH  11  19
ATOM     19  O   UNL A   1      32.315  23.149  26.594  1.00  0.00    -0.448 OA
BRANCH  19  20
ATOM     20  C   UNL A   1      32.496  22.087  25.750  1.00  0.00     0.146 A 
ATOM     21  C   UNL A   1      33.275  21.008  26.183  1.00  0.00     0.050 A 
ATOM     22  C   UNL A   1      31.948  22.089  24.460  1.00  0.00     0.085 A 
ATOM     23  C   UNL A   1      33.426  19.892  25.358  1.00  0.00     0.024 A 
ATOM     24  C   UNL A   1      32.098  20.971  23.639  1.00  0.00     0.045 A 
ATOM     25  Cl  UNL A   1      31.031  23.428  23.876  1.00  0.00    -0.080 Cl
ATOM     26  C   UNL A   1      32.825  19.873  24.097  1.00  0.00     0.042 A 
ATOM     27  Cl  UNL A   1      32.978  18.478  23.102  1.00  0.00    -0.084 Cl
ENDBRANCH  19  20
ENDBRANCH  11  19
ENDBRANCH   6   7
ENDBRANCH   5   6
ENDBRANCH   3   5
ENDBRANCH   2   3
ENDBRANCH   1   2
BRANCH   1  28
ATOM     28  C   UNL A   1      32.976  35.744  29.375  1.00  0.00     0.275 C 
BRANCH  28  29
ATOM     29  O   UNL A   1      32.447  35.109  30.554  1.00  0.00    -0.458 OA
BRANCH  29  30
ATOM     30  C   UNL A   1      32.702  35.747  31.714  1.00  0.00     0.338 C 
ATOM     31  O   UNL A   1      32.126  36.728  32.162  1.00  0.00    -0.246 OA
BRANCH  30  32
ATOM     32  C   UNL A   1      33.808  35.094  32.437  1.00  0.00     0.060 A 
ATOM     33  C   UNL A   1      35.087  35.656  32.464  1.00  0.00     0.016 A 
ATOM     34  C   UNL A   1      33.593  33.809  32.938  1.00  0.00     0.016 A 
ATOM     35  C   UNL A   1      36.176  34.883  32.868  1.00  0.00     0.010 A 
ATOM     36  C   UNL A   1      34.674  33.059  33.401  1.00  0.00     0.010 A 
ATOM     37  C   UNL A   1      35.978  33.568  33.312  1.00  0.00    -0.014 A 
BRANCH  37  38
ATOM     38  C   UNL A   1      37.113  32.731  33.753  1.00  0.00     0.031 A 
ATOM     39  C   UNL A   1      37.807  32.976  35.060  1.00  0.00     0.074 A 
ATOM     40  C   UNL A   1      37.561  31.783  32.916  1.00  0.00     0.049 A 
ATOM     41  N   UNL A   1      38.980  32.564  35.466  1.00  0.00    -0.248 NA
ATOM     42  C   UNL A   1      37.092  33.805  36.038  1.00  0.00     0.031 C 
ATOM     43  C   UNL A   1      36.940  31.431  31.640  1.00  0.00     0.029 A 
ATOM     44  N   UNL A   1      38.653  30.965  33.005  1.00  0.00    -0.354 N 
ATOM     45  C   UNL A   1      39.174  33.137  36.718  1.00  0.00     0.074 A 
ATOM     46  C   UNL A   1      37.991  33.921  37.009  1.00  0.00     0.031 C 
ATOM     47  C   UNL A   1      37.673  30.475  31.053  1.00  0.00     0.029 A 
ATOM     48  C   UNL A   1      38.836  30.193  31.887  1.00  0.00     0.049 A 
ATOM     49  H   UNL A   1      39.246  30.934  33.790  1.00  0.00     0.167 HD
ATOM     50  C   UNL A   1      40.241  33.008  37.543  1.00  0.00     0.037 A 
ATOM     51  C   UNL A   1      39.852  29.380  31.554  1.00  0.00     0.037 A 
ATOM     52  C   UNL A   1      41.364  32.142  37.278  1.00  0.00     0.049 A 
ATOM     53  C   UNL A   1      41.007  29.227  32.495  1.00  0.00     0.074 A 
ATOM     54  C   UNL A   1      42.477  31.901  38.067  1.00  0.00     0.029 A 
ATOM     55  N   UNL A   1      41.495  31.345  36.150  1.00  0.00    -0.354 N 
ATOM     56  N   UNL A   1      41.223  29.832  33.638  1.00  0.00    -0.248 NA
ATOM     57  C   UNL A   1      42.057  28.281  32.100  1.00  0.00     0.031 C 
ATOM     58  C   UNL A   1      43.286  30.965  37.411  1.00  0.00     0.029 A 
ATOM     59  C   UNL A   1      42.664  30.605  36.227  1.00  0.00     0.049 A 
ATOM     60  H   UNL A   1      40.853  31.311  35.406  1.00  0.00     0.167 HD
ATOM     61  C   UNL A   1      42.431  29.336  34.105  1.00  0.00     0.074 A 
ATOM     62  C   UNL A   1      42.891  28.369  33.128  1.00  0.00     0.031 C 
ATOM     63  C   UNL A   1      43.102  29.653  35.239  1.00  0.00     0.037 A 
BRANCH  50  64
ATOM     64  C   UNL A   1      40.262  33.817  38.807  1.00  0.00     0.057 A 
ATOM     65  C   UNL A   1      40.906  35.057  38.887  1.00  0.00     0.134 A 
ATOM     66  C   UNL A   1      39.557  33.381  39.937  1.00  0.00     0.134 A 
ATOM     67  F   UNL A   1      41.606  35.528  37.845  1.00  0.00    -0.206 F 
ATOM     68  C   UNL A   1      40.854  35.832  40.049  1.00  0.00     0.040 A 
ATOM     69  C   UNL A   1      39.480  34.155  41.097  1.00  0.00     0.040 A 
ATOM     70  F   UNL A   1      38.914  32.203  39.926  1.00  0.00    -0.206 F 
ATOM     71  C   UNL A   1      40.132  35.385  41.155  1.00  0.00     0.006 A 
ENDBRANCH  50  64
BRANCH  51  72
ATOM     72  C   UNL A   1      39.803  28.671  30.259  1.00  0.00     0.057 A 
ATOM     73  C   UNL A   1      40.439  29.197  29.132  1.00  0.00     0.134 A 
ATOM     74  C   UNL A   1      39.192  27.417  30.141  1.00  0.00     0.134 A 
ATOM     75  F   UNL A   1      41.034  30.397  29.191  1.00  0.00    -0.206 F 
ATOM     76  C   UNL A   1      40.470  28.498  27.925  1.00  0.00     0.040 A 
ATOM     77  C   UNL A   1      39.232  26.700  28.946  1.00  0.00     0.040 A 
ATOM     78  F   UNL A   1      38.584  26.858  31.197  1.00  0.00    -0.206 F 
ATOM     79  C   UNL A   1      39.873  27.242  27.833  1.00  0.00     0.006 A 
ENDBRANCH  51  72
BRANCH  63  80
ATOM     80  C   UNL A   1      44.387  28.926  35.481  1.00  0.00     0.057 A 
ATOM     81  C   UNL A   1      44.422  27.723  36.196  1.00  0.00     0.134 A 
ATOM     82  C   UNL A   1      45.597  29.434  34.996  1.00  0.00     0.134 A 
ATOM     83  F   UNL A   1      43.294  27.198  36.698  1.00  0.00    -0.206 F 
ATOM     84  C   UNL A   1      45.624  27.060  36.441  1.00  0.00     0.040 A 
ATOM     85  C   UNL A   1      46.804  28.771  35.221  1.00  0.00     0.040 A 
ATOM     86  F   UNL A   1      45.625  30.582  34.303  1.00  0.00    -0.206 F 
ATOM     87  C   UNL A   1      46.820  27.583  35.950  1.00  0.00     0.006 A 
ENDBRANCH  63  80
ENDBRANCH  37  38
ENDBRANCH  30  32
ENDBRANCH  29  30
ENDBRANCH  28  29
ENDBRANCH   1  28
TORSDOF 15
ENDMDL
