MODEL 1
REMARK VINA RESULT:      -8.6      0.000      0.000
REMARK SMILES CC[C@@H](Sc1cccc(N)c1)C(=O)OCCOC(=O)c1ccc(-c2c3nc(c(-c4c(F)cccc4F)c4ccc([nH]4)c(-c4c(F)cccc4F)c4nc(c(-c5c(F)cccc5F)c5ccc2[nH]5)C=C4)C=C3)cc1
REMARK SMILES IDX 15 1 14 2 12 3 13 4 3 5 2 6 1 7 4 8 5 9 6 10 11 11 7 12 9 13
REMARK SMILES IDX 8 14 10 15 16 18 17 19 18 20 19 21 20 22 21 23 73 24 22 25
REMARK SMILES IDX 72 26 23 27 24 28 25 29 66 30 26 31 71 32 65 33 67 34 27 35
REMARK SMILES IDX 70 36 64 37 63 38 28 40 54 41 37 42 53 43 38 44 41 45 52 46
REMARK SMILES IDX 68 47 39 48 40 49 51 51 69 52 42 53 29 54 30 55 35 56 31 57
REMARK SMILES IDX 32 58 34 59 36 60 33 61 55 62 56 63 61 64 57 65 58 66 60 67
REMARK SMILES IDX 62 68 59 69 43 70 44 71 49 72 45 73 46 74 48 75 50 76 47 77
REMARK H PARENT 10 16 10 17 67 39 41 50
REMARK Flexibility Score: inf
ROOT
ATOM      1  C   UNL A   1      40.701  20.015  26.165  1.00  0.00     0.274 C 
ENDROOT
BRANCH   1   2
ATOM      2  O   UNL A   1      41.632  20.780  26.955  1.00  0.00    -0.461 OA
BRANCH   2   3
ATOM      3  C   UNL A   1      42.602  21.475  26.293  1.00  0.00     0.319 C 
ATOM      4  O   UNL A   1      43.187  21.065  25.297  1.00  0.00    -0.251 OA
BRANCH   3   5
ATOM      5  C   UNL A   1      42.878  22.847  26.937  1.00  0.00     0.161 C 
BRANCH   5   6
ATOM      6  C   UNL A   1      42.332  22.885  28.379  1.00  0.00     0.023 C 
ATOM      7  C   UNL A   1      43.327  23.279  29.456  1.00  0.00     0.006 C 
ENDBRANCH   5   6
BRANCH   5   8
ATOM      8  S   UNL A   1      44.704  23.108  26.835  1.00  0.00    -0.111 SA
BRANCH   8   9
ATOM      9  C   UNL A   1      44.939  24.808  26.320  1.00  0.00     0.010 A 
ATOM     10  C   UNL A   1      46.071  25.468  26.815  1.00  0.00     0.015 A 
ATOM     11  C   UNL A   1      44.022  25.552  25.573  1.00  0.00     0.040 A 
ATOM     12  C   UNL A   1      46.260  26.834  26.589  1.00  0.00     0.003 A 
ATOM     13  C   UNL A   1      44.149  26.939  25.420  1.00  0.00     0.032 A 
ATOM     14  C   UNL A   1      45.296  27.566  25.900  1.00  0.00     0.025 A 
BRANCH  13  15
ATOM     15  N   UNL A   1      43.197  27.655  24.706  1.00  0.00    -0.399 N 
ATOM     16  H   UNL A   1      42.964  27.384  23.789  1.00  0.00     0.156 HD
ATOM     17  H   UNL A   1      42.757  28.433  25.117  1.00  0.00     0.156 HD
ENDBRANCH  13  15
ENDBRANCH   8   9
ENDBRANCH   5   8
ENDBRANCH   3   5
ENDBRANCH   2   3
ENDBRANCH   1   2
BRANCH   1  18
ATOM     18  C   UNL A   1      39.471  20.853  25.809  1.00  0.00     0.275 C 
BRANCH  18  19
ATOM     19  O   UNL A   1      39.336  21.974  26.703  1.00  0.00    -0.458 OA
BRANCH  19  20
ATOM     20  C   UNL A   1      38.736  23.070  26.186  1.00  0.00     0.338 C 
ATOM     21  O   UNL A   1      37.823  23.116  25.382  1.00  0.00    -0.246 OA
BRANCH  20  22
ATOM     22  C   UNL A   1      39.282  24.264  26.842  1.00  0.00     0.060 A 
ATOM     23  C   UNL A   1      38.943  24.500  28.177  1.00  0.00     0.016 A 
ATOM     24  C   UNL A   1      40.056  25.179  26.129  1.00  0.00     0.016 A 
ATOM     25  C   UNL A   1      39.378  25.660  28.809  1.00  0.00     0.010 A 
ATOM     26  C   UNL A   1      40.499  26.339  26.767  1.00  0.00     0.010 A 
ATOM     27  C   UNL A   1      40.153  26.591  28.107  1.00  0.00    -0.014 A 
BRANCH  27  28
ATOM     28  C   UNL A   1      40.570  27.850  28.767  1.00  0.00     0.031 A 
ATOM     29  C   UNL A   1      41.988  28.018  29.222  1.00  0.00     0.074 A 
ATOM     30  C   UNL A   1      39.675  28.838  28.948  1.00  0.00     0.049 A 
ATOM     31  N   UNL A   1      42.528  28.998  29.901  1.00  0.00    -0.248 NA
ATOM     32  C   UNL A   1      42.924  26.940  28.869  1.00  0.00     0.031 C 
ATOM     33  C   UNL A   1      38.279  28.805  28.511  1.00  0.00     0.029 A 
ATOM     34  N   UNL A   1      39.810  30.061  29.554  1.00  0.00    -0.354 N 
ATOM     35  C   UNL A   1      43.860  28.647  30.074  1.00  0.00     0.074 A 
ATOM     36  C   UNL A   1      44.044  27.358  29.442  1.00  0.00     0.031 C 
ATOM     37  C   UNL A   1      37.684  29.954  28.868  1.00  0.00     0.029 A 
ATOM     38  C   UNL A   1      38.643  30.782  29.593  1.00  0.00     0.049 A 
ATOM     39  H   UNL A   1      40.661  30.389  29.924  1.00  0.00     0.167 HD
ATOM     40  C   UNL A   1      44.839  29.341  30.701  1.00  0.00     0.037 A 
ATOM     41  C   UNL A   1      38.372  31.966  30.175  1.00  0.00     0.037 A 
ATOM     42  C   UNL A   1      44.655  30.628  31.318  1.00  0.00     0.049 A 
ATOM     43  C   UNL A   1      39.465  32.693  30.909  1.00  0.00     0.074 A 
ATOM     44  C   UNL A   1      45.588  31.416  31.969  1.00  0.00     0.029 A 
ATOM     45  N   UNL A   1      43.453  31.320  31.355  1.00  0.00    -0.354 N 
ATOM     46  N   UNL A   1      40.719  32.348  31.075  1.00  0.00    -0.248 NA
ATOM     47  C   UNL A   1      39.102  33.969  31.539  1.00  0.00     0.031 C 
ATOM     48  C   UNL A   1      44.943  32.569  32.429  1.00  0.00     0.029 A 
ATOM     49  C   UNL A   1      43.617  32.516  32.033  1.00  0.00     0.049 A 
ATOM     50  H   UNL A   1      42.609  31.005  30.959  1.00  0.00     0.167 HD
ATOM     51  C   UNL A   1      41.298  33.371  31.814  1.00  0.00     0.074 A 
ATOM     52  C   UNL A   1      40.262  34.355  32.052  1.00  0.00     0.031 C 
ATOM     53  C   UNL A   1      42.574  33.483  32.257  1.00  0.00     0.037 A 
BRANCH  40  54
ATOM     54  C   UNL A   1      46.194  28.705  30.773  1.00  0.00     0.057 A 
ATOM     55  C   UNL A   1      46.584  27.918  31.864  1.00  0.00     0.134 A 
ATOM     56  C   UNL A   1      47.110  28.858  29.724  1.00  0.00     0.134 A 
ATOM     57  F   UNL A   1      45.757  27.746  32.907  1.00  0.00    -0.206 F 
ATOM     58  C   UNL A   1      47.844  27.321  31.919  1.00  0.00     0.040 A 
ATOM     59  C   UNL A   1      48.365  28.249  29.758  1.00  0.00     0.040 A 
ATOM     60  F   UNL A   1      46.797  29.597  28.650  1.00  0.00    -0.206 F 
ATOM     61  C   UNL A   1      48.737  27.481  30.861  1.00  0.00     0.006 A 
ENDBRANCH  40  54
BRANCH  41  62
ATOM     62  C   UNL A   1      37.001  32.525  30.106  1.00  0.00     0.057 A 
ATOM     63  C   UNL A   1      36.636  33.424  29.100  1.00  0.00     0.134 A 
ATOM     64  C   UNL A   1      36.026  32.173  31.046  1.00  0.00     0.134 A 
ATOM     65  F   UNL A   1      37.535  33.817  28.186  1.00  0.00    -0.206 F 
ATOM     66  C   UNL A   1      35.350  33.963  29.035  1.00  0.00     0.040 A 
ATOM     67  C   UNL A   1      34.730  32.686  30.981  1.00  0.00     0.040 A 
ATOM     68  F   UNL A   1      36.316  31.314  32.035  1.00  0.00    -0.206 F 
ATOM     69  C   UNL A   1      34.391  33.589  29.974  1.00  0.00     0.006 A 
ENDBRANCH  41  62
BRANCH  53  70
ATOM     70  C   UNL A   1      42.922  34.724  33.021  1.00  0.00     0.057 A 
ATOM     71  C   UNL A   1      43.353  35.888  32.373  1.00  0.00     0.134 A 
ATOM     72  C   UNL A   1      42.791  34.765  34.415  1.00  0.00     0.134 A 
ATOM     73  F   UNL A   1      43.510  35.908  31.042  1.00  0.00    -0.206 F 
ATOM     74  C   UNL A   1      43.660  37.047  33.089  1.00  0.00     0.040 A 
ATOM     75  C   UNL A   1      43.077  35.923  35.139  1.00  0.00     0.040 A 
ATOM     76  F   UNL A   1      42.377  33.684  35.092  1.00  0.00    -0.206 F 
ATOM     77  C   UNL A   1      43.517  37.067  34.476  1.00  0.00     0.006 A 
ENDBRANCH  53  70
ENDBRANCH  27  28
ENDBRANCH  20  22
ENDBRANCH  19  20
ENDBRANCH  18  19
ENDBRANCH   1  18
TORSDOF 15
ENDMDL
MODEL 2
REMARK VINA RESULT:      -8.4      4.734      9.835
REMARK SMILES CC[C@@H](Sc1cccc(N)c1)C(=O)OCCOC(=O)c1ccc(-c2c3nc(c(-c4c(F)cccc4F)c4ccc([nH]4)c(-c4c(F)cccc4F)c4nc(c(-c5c(F)cccc5F)c5ccc2[nH]5)C=C4)C=C3)cc1
REMARK SMILES IDX 15 1 14 2 12 3 13 4 3 5 2 6 1 7 4 8 5 9 6 10 11 11 7 12 9 13
REMARK SMILES IDX 8 14 10 15 16 18 17 19 18 20 19 21 20 22 21 23 73 24 22 25
REMARK SMILES IDX 72 26 23 27 24 28 25 29 66 30 26 31 71 32 65 33 67 34 27 35
REMARK SMILES IDX 70 36 64 37 63 38 28 40 54 41 37 42 53 43 38 44 41 45 52 46
REMARK SMILES IDX 68 47 39 48 40 49 51 51 69 52 42 53 29 54 30 55 35 56 31 57
REMARK SMILES IDX 32 58 34 59 36 60 33 61 55 62 56 63 61 64 57 65 58 66 60 67
REMARK SMILES IDX 62 68 59 69 43 70 44 71 49 72 45 73 46 74 48 75 50 76 47 77
REMARK H PARENT 10 16 10 17 67 39 41 50
REMARK Flexibility Score: inf
ROOT
ATOM      1  C   UNL A   1      34.403  33.481  30.005  1.00  0.00     0.274 C 
ENDROOT
BRANCH   1   2
ATOM      2  O   UNL A   1      34.235  32.332  29.152  1.00  0.00    -0.461 OA
BRANCH   2   3
ATOM      3  C   UNL A   1      35.054  32.225  28.067  1.00  0.00     0.319 C 
ATOM      4  O   UNL A   1      35.739  33.141  27.627  1.00  0.00    -0.251 OA
BRANCH   3   5
ATOM      5  C   UNL A   1      35.028  30.812  27.454  1.00  0.00     0.161 C 
BRANCH   5   6
ATOM      6  C   UNL A   1      35.919  29.854  28.272  1.00  0.00     0.023 C 
ATOM      7  C   UNL A   1      37.294  29.571  27.695  1.00  0.00     0.006 C 
ENDBRANCH   5   6
BRANCH   5   8
ATOM      8  S   UNL A   1      33.254  30.302  27.402  1.00  0.00    -0.111 SA
BRANCH   8   9
ATOM      9  C   UNL A   1      33.075  29.254  25.960  1.00  0.00     0.010 A 
ATOM     10  C   UNL A   1      33.643  27.975  26.033  1.00  0.00     0.015 A 
ATOM     11  C   UNL A   1      32.530  29.658  24.739  1.00  0.00     0.040 A 
ATOM     12  C   UNL A   1      33.684  27.145  24.910  1.00  0.00     0.003 A 
ATOM     13  C   UNL A   1      32.649  28.877  23.583  1.00  0.00     0.032 A 
ATOM     14  C   UNL A   1      33.195  27.600  23.688  1.00  0.00     0.025 A 
BRANCH  13  15
ATOM     15  N   UNL A   1      32.131  29.328  22.376  1.00  0.00    -0.399 N 
ATOM     16  H   UNL A   1      32.626  29.172  21.539  1.00  0.00     0.156 HD
ATOM     17  H   UNL A   1      31.269  29.804  22.358  1.00  0.00     0.156 HD
ENDBRANCH  13  15
ENDBRANCH   8   9
ENDBRANCH   5   8
ENDBRANCH   3   5
ENDBRANCH   2   3
ENDBRANCH   1   2
BRANCH   1  18
ATOM     18  C   UNL A   1      34.591  33.056  31.463  1.00  0.00     0.275 C 
BRANCH  18  19
ATOM     19  O   UNL A   1      35.887  33.453  31.950  1.00  0.00    -0.458 OA
BRANCH  19  20
ATOM     20  C   UNL A   1      36.520  32.554  32.738  1.00  0.00     0.338 C 
ATOM     21  O   UNL A   1      36.229  32.213  33.870  1.00  0.00    -0.246 OA
BRANCH  20  22
ATOM     22  C   UNL A   1      37.598  31.923  31.967  1.00  0.00     0.060 A 
ATOM     23  C   UNL A   1      38.474  31.063  32.634  1.00  0.00     0.016 A 
ATOM     24  C   UNL A   1      37.788  32.234  30.621  1.00  0.00     0.016 A 
ATOM     25  C   UNL A   1      39.553  30.507  31.955  1.00  0.00     0.010 A 
ATOM     26  C   UNL A   1      38.867  31.669  29.938  1.00  0.00     0.010 A 
ATOM     27  C   UNL A   1      39.761  30.811  30.604  1.00  0.00    -0.014 A 
BRANCH  27  28
ATOM     28  C   UNL A   1      40.941  30.260  29.899  1.00  0.00     0.031 A 
ATOM     29  C   UNL A   1      42.132  31.134  29.645  1.00  0.00     0.074 A 
ATOM     30  C   UNL A   1      40.939  28.977  29.495  1.00  0.00     0.049 A 
ATOM     31  N   UNL A   1      43.220  30.873  28.965  1.00  0.00    -0.248 NA
ATOM     32  C   UNL A   1      42.096  32.482  30.232  1.00  0.00     0.031 C 
ATOM     33  C   UNL A   1      39.856  28.021  29.721  1.00  0.00     0.029 A 
ATOM     34  N   UNL A   1      41.883  28.260  28.804  1.00  0.00    -0.354 N 
ATOM     35  C   UNL A   1      43.988  32.027  29.025  1.00  0.00     0.074 A 
ATOM     36  C   UNL A   1      43.237  32.996  29.795  1.00  0.00     0.031 C 
ATOM     37  C   UNL A   1      40.193  26.842  29.174  1.00  0.00     0.029 A 
ATOM     38  C   UNL A   1      41.494  26.974  28.525  1.00  0.00     0.049 A 
ATOM     39  H   UNL A   1      42.754  28.632  28.535  1.00  0.00     0.167 HD
ATOM     40  C   UNL A   1      45.210  32.255  28.489  1.00  0.00     0.037 A 
ATOM     41  C   UNL A   1      42.108  26.019  27.801  1.00  0.00     0.037 A 
ATOM     42  C   UNL A   1      45.959  31.285  27.734  1.00  0.00     0.049 A 
ATOM     43  C   UNL A   1      43.442  26.313  27.173  1.00  0.00     0.074 A 
ATOM     44  C   UNL A   1      47.210  31.417  27.157  1.00  0.00     0.029 A 
ATOM     45  N   UNL A   1      45.524  29.998  27.454  1.00  0.00    -0.354 N 
ATOM     46  N   UNL A   1      44.156  27.411  27.228  1.00  0.00    -0.248 NA
ATOM     47  C   UNL A   1      44.051  25.237  26.379  1.00  0.00     0.031 C 
ATOM     48  C   UNL A   1      47.519  30.221  26.501  1.00  0.00     0.029 A 
ATOM     49  C   UNL A   1      46.475  29.332  26.699  1.00  0.00     0.049 A 
ATOM     50  H   UNL A   1      44.666  29.616  27.748  1.00  0.00     0.167 HD
ATOM     51  C   UNL A   1      45.304  27.154  26.491  1.00  0.00     0.074 A 
ATOM     52  C   UNL A   1      45.198  25.792  26.011  1.00  0.00     0.031 C 
ATOM     53  C   UNL A   1      46.351  27.974  26.233  1.00  0.00     0.037 A 
BRANCH  40  54
ATOM     54  C   UNL A   1      45.800  33.619  28.678  1.00  0.00     0.057 A 
ATOM     55  C   UNL A   1      46.636  33.919  29.761  1.00  0.00     0.134 A 
ATOM     56  C   UNL A   1      45.552  34.639  27.750  1.00  0.00     0.134 A 
ATOM     57  F   UNL A   1      46.900  32.990  30.693  1.00  0.00    -0.206 F 
ATOM     58  C   UNL A   1      47.189  35.189  29.925  1.00  0.00     0.040 A 
ATOM     59  C   UNL A   1      46.116  35.907  27.892  1.00  0.00     0.040 A 
ATOM     60  F   UNL A   1      44.761  34.416  26.689  1.00  0.00    -0.206 F 
ATOM     61  C   UNL A   1      46.934  36.187  28.985  1.00  0.00     0.006 A 
ENDBRANCH  40  54
BRANCH  41  62
ATOM     62  C   UNL A   1      41.454  24.701  27.614  1.00  0.00     0.057 A 
ATOM     63  C   UNL A   1      40.435  24.526  26.673  1.00  0.00     0.134 A 
ATOM     64  C   UNL A   1      41.834  23.589  28.374  1.00  0.00     0.134 A 
ATOM     65  F   UNL A   1      40.013  25.562  25.934  1.00  0.00    -0.206 F 
ATOM     66  C   UNL A   1      39.808  23.291  26.499  1.00  0.00     0.040 A 
ATOM     67  C   UNL A   1      41.231  22.343  28.196  1.00  0.00     0.040 A 
ATOM     68  F   UNL A   1      42.805  23.694  29.293  1.00  0.00    -0.206 F 
ATOM     69  C   UNL A   1      40.210  22.193  27.258  1.00  0.00     0.006 A 
ENDBRANCH  41  62
BRANCH  53  70
ATOM     70  C   UNL A   1      47.473  27.409  25.417  1.00  0.00     0.057 A 
ATOM     71  C   UNL A   1      47.524  27.571  24.027  1.00  0.00     0.134 A 
ATOM     72  C   UNL A   1      48.530  26.726  26.032  1.00  0.00     0.134 A 
ATOM     73  F   UNL A   1      46.536  28.204  23.379  1.00  0.00    -0.206 F 
ATOM     74  C   UNL A   1      48.581  27.056  23.274  1.00  0.00     0.040 A 
ATOM     75  C   UNL A   1      49.601  26.224  25.291  1.00  0.00     0.040 A 
ATOM     76  F   UNL A   1      48.541  26.543  27.361  1.00  0.00    -0.206 F 
ATOM     77  C   UNL A   1      49.626  26.385  23.907  1.00  0.00     0.006 A 
ENDBRANCH  53  70
ENDBRANCH  27  28
ENDBRANCH  20  22
ENDBRANCH  19  20
ENDBRANCH  18  19
ENDBRANCH   1  18
TORSDOF 15
ENDMDL
MODEL 3
REMARK VINA RESULT:      -8.4      3.750      6.373
REMARK SMILES CC[C@@H](Sc1cccc(N)c1)C(=O)OCCOC(=O)c1ccc(-c2c3nc(c(-c4c(F)cccc4F)c4ccc([nH]4)c(-c4c(F)cccc4F)c4nc(c(-c5c(F)cccc5F)c5ccc2[nH]5)C=C4)C=C3)cc1
REMARK SMILES IDX 15 1 14 2 12 3 13 4 3 5 2 6 1 7 4 8 5 9 6 10 11 11 7 12 9 13
REMARK SMILES IDX 8 14 10 15 16 18 17 19 18 20 19 21 20 22 21 23 73 24 22 25
REMARK SMILES IDX 72 26 23 27 24 28 25 29 66 30 26 31 71 32 65 33 67 34 27 35
REMARK SMILES IDX 70 36 64 37 63 38 28 40 54 41 37 42 53 43 38 44 41 45 52 46
REMARK SMILES IDX 68 47 39 48 40 49 51 51 69 52 42 53 29 54 30 55 35 56 31 57
REMARK SMILES IDX 32 58 34 59 36 60 33 61 55 62 56 63 61 64 57 65 58 66 60 67
REMARK SMILES IDX 62 68 59 69 43 70 44 71 49 72 45 73 46 74 48 75 50 76 47 77
REMARK H PARENT 10 16 10 17 67 39 41 50
REMARK Flexibility Score: inf
ROOT
ATOM      1  C   UNL A   1      38.425  19.829  24.833  1.00  0.00     0.274 C 
ENDROOT
BRANCH   1   2
ATOM      2  O   UNL A   1      37.200  20.441  25.279  1.00  0.00    -0.461 OA
BRANCH   2   3
ATOM      3  C   UNL A   1      36.899  21.680  24.794  1.00  0.00     0.319 C 
ATOM      4  O   UNL A   1      37.142  22.051  23.652  1.00  0.00    -0.251 OA
BRANCH   3   5
ATOM      5  C   UNL A   1      36.206  22.566  25.847  1.00  0.00     0.161 C 
BRANCH   5   6
ATOM      6  C   UNL A   1      37.054  23.823  26.135  1.00  0.00     0.023 C 
ATOM      7  C   UNL A   1      38.554  23.606  26.220  1.00  0.00     0.006 C 
ENDBRANCH   5   6
BRANCH   5   8
ATOM      8  S   UNL A   1      34.528  22.950  25.178  1.00  0.00    -0.111 SA
BRANCH   8   9
ATOM      9  C   UNL A   1      33.761  21.372  24.813  1.00  0.00     0.010 A 
ATOM     10  C   UNL A   1      33.091  21.263  23.587  1.00  0.00     0.015 A 
ATOM     11  C   UNL A   1      33.676  20.298  25.702  1.00  0.00     0.040 A 
ATOM     12  C   UNL A   1      32.340  20.127  23.280  1.00  0.00     0.003 A 
ATOM     13  C   UNL A   1      32.851  19.195  25.449  1.00  0.00     0.032 A 
ATOM     14  C   UNL A   1      32.215  19.100  24.214  1.00  0.00     0.025 A 
BRANCH  13  15
ATOM     15  N   UNL A   1      32.757  18.163  26.374  1.00  0.00    -0.399 N 
ATOM     16  H   UNL A   1      31.903  17.690  26.498  1.00  0.00     0.156 HD
ATOM     17  H   UNL A   1      33.545  17.906  26.905  1.00  0.00     0.156 HD
ENDBRANCH  13  15
ENDBRANCH   8   9
ENDBRANCH   5   8
ENDBRANCH   3   5
ENDBRANCH   2   3
ENDBRANCH   1   2
BRANCH   1  18
ATOM     18  C   UNL A   1      39.420  19.694  25.987  1.00  0.00     0.275 C 
BRANCH  18  19
ATOM     19  O   UNL A   1      40.711  19.274  25.506  1.00  0.00    -0.458 OA
BRANCH  19  20
ATOM     20  C   UNL A   1      41.738  19.419  26.375  1.00  0.00     0.338 C 
ATOM     21  O   UNL A   1      42.476  18.557  26.813  1.00  0.00    -0.246 OA
BRANCH  20  22
ATOM     22  C   UNL A   1      41.930  20.848  26.648  1.00  0.00     0.060 A 
ATOM     23  C   UNL A   1      42.092  21.715  25.565  1.00  0.00     0.016 A 
ATOM     24  C   UNL A   1      42.024  21.317  27.959  1.00  0.00     0.016 A 
ATOM     25  C   UNL A   1      42.352  23.063  25.787  1.00  0.00     0.010 A 
ATOM     26  C   UNL A   1      42.277  22.672  28.180  1.00  0.00     0.010 A 
ATOM     27  C   UNL A   1      42.454  23.551  27.096  1.00  0.00    -0.014 A 
BRANCH  27  28
ATOM     28  C   UNL A   1      42.784  24.975  27.328  1.00  0.00     0.031 A 
ATOM     29  C   UNL A   1      44.141  25.495  26.958  1.00  0.00     0.074 A 
ATOM     30  C   UNL A   1      41.863  25.797  27.863  1.00  0.00     0.049 A 
ATOM     31  N   UNL A   1      44.658  26.679  27.166  1.00  0.00    -0.248 NA
ATOM     32  C   UNL A   1      45.037  24.558  26.263  1.00  0.00     0.031 C 
ATOM     33  C   UNL A   1      40.498  25.415  28.225  1.00  0.00     0.029 A 
ATOM     34  N   UNL A   1      41.942  27.124  28.199  1.00  0.00    -0.354 N 
ATOM     35  C   UNL A   1      45.944  26.626  26.646  1.00  0.00     0.074 A 
ATOM     36  C   UNL A   1      46.135  25.288  26.127  1.00  0.00     0.031 C 
ATOM     37  C   UNL A   1      39.868  26.483  28.739  1.00  0.00     0.029 A 
ATOM     38  C   UNL A   1      40.797  27.609  28.780  1.00  0.00     0.049 A 
ATOM     39  H   UNL A   1      42.742  27.675  28.040  1.00  0.00     0.167 HD
ATOM     40  C   UNL A   1      46.877  27.605  26.605  1.00  0.00     0.037 A 
ATOM     41  C   UNL A   1      40.538  28.819  29.312  1.00  0.00     0.037 A 
ATOM     42  C   UNL A   1      46.679  28.937  27.112  1.00  0.00     0.049 A 
ATOM     43  C   UNL A   1      41.609  29.873  29.299  1.00  0.00     0.074 A 
ATOM     44  C   UNL A   1      47.561  30.004  27.108  1.00  0.00     0.029 A 
ATOM     45  N   UNL A   1      45.512  29.387  27.712  1.00  0.00    -0.354 N 
ATOM     46  N   UNL A   1      42.825  29.810  28.814  1.00  0.00    -0.248 NA
ATOM     47  C   UNL A   1      41.271  31.166  29.912  1.00  0.00     0.031 C 
ATOM     48  C   UNL A   1      46.939  31.089  27.735  1.00  0.00     0.029 A 
ATOM     49  C   UNL A   1      45.657  30.709  28.096  1.00  0.00     0.049 A 
ATOM     50  H   UNL A   1      44.701  28.845  27.845  1.00  0.00     0.167 HD
ATOM     51  C   UNL A   1      43.393  31.055  29.049  1.00  0.00     0.074 A 
ATOM     52  C   UNL A   1      42.383  31.859  29.706  1.00  0.00     0.031 C 
ATOM     53  C   UNL A   1      44.639  31.492  28.748  1.00  0.00     0.037 A 
BRANCH  40  54
ATOM     54  C   UNL A   1      48.210  27.259  26.014  1.00  0.00     0.057 A 
ATOM     55  C   UNL A   1      49.272  26.799  26.803  1.00  0.00     0.134 A 
ATOM     56  C   UNL A   1      48.425  27.362  24.633  1.00  0.00     0.134 A 
ATOM     57  F   UNL A   1      49.133  26.694  28.133  1.00  0.00    -0.206 F 
ATOM     58  C   UNL A   1      50.507  26.471  26.242  1.00  0.00     0.040 A 
ATOM     59  C   UNL A   1      49.649  27.016  24.059  1.00  0.00     0.040 A 
ATOM     60  F   UNL A   1      47.448  27.793  23.822  1.00  0.00    -0.206 F 
ATOM     61  C   UNL A   1      50.696  26.574  24.865  1.00  0.00     0.006 A 
ENDBRANCH  40  54
BRANCH  41  62
ATOM     62  C   UNL A   1      39.213  29.088  29.921  1.00  0.00     0.057 A 
ATOM     63  C   UNL A   1      38.164  29.622  29.167  1.00  0.00     0.134 A 
ATOM     64  C   UNL A   1      38.968  28.817  31.272  1.00  0.00     0.134 A 
ATOM     65  F   UNL A   1      38.348  29.924  27.873  1.00  0.00    -0.206 F 
ATOM     66  C   UNL A   1      36.918  29.888  29.737  1.00  0.00     0.040 A 
ATOM     67  C   UNL A   1      37.721  29.057  31.850  1.00  0.00     0.040 A 
ATOM     68  F   UNL A   1      39.935  28.304  32.048  1.00  0.00    -0.206 F 
ATOM     69  C   UNL A   1      36.692  29.599  31.081  1.00  0.00     0.006 A 
ENDBRANCH  41  62
BRANCH  53  70
ATOM     70  C   UNL A   1      44.968  32.910  29.105  1.00  0.00     0.057 A 
ATOM     71  C   UNL A   1      44.677  33.971  28.240  1.00  0.00     0.134 A 
ATOM     72  C   UNL A   1      45.548  33.218  30.342  1.00  0.00     0.134 A 
ATOM     73  F   UNL A   1      44.133  33.739  27.036  1.00  0.00    -0.206 F 
ATOM     74  C   UNL A   1      44.971  35.292  28.585  1.00  0.00     0.040 A 
ATOM     75  C   UNL A   1      45.828  34.536  30.706  1.00  0.00     0.040 A 
ATOM     76  F   UNL A   1      45.845  32.246  31.217  1.00  0.00    -0.206 F 
ATOM     77  C   UNL A   1      45.543  35.577  29.824  1.00  0.00     0.006 A 
ENDBRANCH  53  70
ENDBRANCH  27  28
ENDBRANCH  20  22
ENDBRANCH  19  20
ENDBRANCH  18  19
ENDBRANCH   1  18
TORSDOF 15
ENDMDL
