MODEL 1
REMARK VINA RESULT:     -10.2      0.000      0.000
REMARK SMILES C=Cc1cc(Cl)cc2c1O[C@H](C(F)(F)F)C(C(=O)OCCOC(=O)c1ccc(-c3c4nc(c(-c5c(F)cccc5F)c5ccc([nH]5)c(-c5c(F)cccc5F)c5nc(c(-c6c(F)cccc6F)c6ccc3[nH]6)C=C5)C=C4)cc1)=C2
REMARK SMILES IDX 21 1 20 2 19 3 17 4 18 5 16 6 3 7 4 8 9 9 5 10 8 11 10 12
REMARK SMILES IDX 6 13 7 14 79 15 11 16 2 17 1 18 12 19 13 20 14 21 15 22
REMARK SMILES IDX 22 23 23 24 24 25 25 26 26 27 78 28 27 29 77 30 28 31 29 32
REMARK SMILES IDX 30 33 71 34 31 35 76 36 70 37 72 38 32 39 75 40 69 41 68 42
REMARK SMILES IDX 33 44 59 45 42 46 58 47 43 48 46 49 57 50 73 51 44 52 45 53
REMARK SMILES IDX 56 55 74 56 47 57 34 58 35 59 40 60 36 61 37 62 39 63 41 64
REMARK SMILES IDX 38 65 60 66 61 67 66 68 62 69 63 70 65 71 67 72 64 73 48 74
REMARK SMILES IDX 49 75 54 76 50 77 51 78 53 79 55 80 52 81
REMARK H PARENT 72 43 46 54
REMARK Flexibility Score: inf
ROOT
ATOM      1  C   UNL A   1      33.696  33.742  28.279  1.00  0.00     0.275 C 
ENDROOT
BRANCH   1   2
ATOM      2  C   UNL A   1      34.350  34.895  29.041  1.00  0.00     0.275 C 
BRANCH   2   3
ATOM      3  O   UNL A   1      34.203  34.739  30.470  1.00  0.00    -0.459 OA
BRANCH   3   4
ATOM      4  C   UNL A   1      34.806  33.655  31.010  1.00  0.00     0.338 C 
ATOM      5  O   UNL A   1      34.401  32.503  30.976  1.00  0.00    -0.246 OA
BRANCH   4   6
ATOM      6  C   UNL A   1      36.089  34.033  31.635  1.00  0.00     0.087 C 
ATOM      7  C   UNL A   1      39.792  34.821  33.457  1.00  0.00     0.018 A 
ATOM      8  C   UNL A   1      40.963  34.602  32.711  1.00  0.00     0.032 A 
ATOM      9  C   UNL A   1      38.540  34.587  32.854  1.00  0.00     0.135 A 
ATOM     10  C   UNL A   1      40.889  34.197  31.381  1.00  0.00     0.042 A 
ATOM     11  C   UNL A   1      38.483  34.160  31.525  1.00  0.00     0.019 A 
ATOM     12  O   UNL A   1      37.413  34.821  33.599  1.00  0.00    -0.475 OA
ATOM     13  Cl  UNL A   1      42.331  33.949  30.476  1.00  0.00    -0.084 Cl
ATOM     14  C   UNL A   1      39.656  33.979  30.783  1.00  0.00     0.032 A 
ATOM     15  C   UNL A   1      37.203  33.878  30.912  1.00  0.00     0.027 C 
ATOM     16  C   UNL A   1      36.106  34.448  33.077  1.00  0.00     0.316 C 
BRANCH   7  17
ATOM     17  C   UNL A   1      39.880  35.218  34.871  1.00  0.00     0.004 C 
ATOM     18  C   UNL A   1      40.692  36.178  35.330  1.00  0.00     0.009 C 
ENDBRANCH   7  17
BRANCH  16  19
ATOM     19  C   UNL A   1      35.517  33.345  33.972  1.00  0.00     0.430 C 
ATOM     20  F   UNL A   1      35.940  32.117  33.589  1.00  0.00    -0.167 F 
ATOM     21  F   UNL A   1      35.893  33.499  35.265  1.00  0.00    -0.167 F 
ATOM     22  F   UNL A   1      34.165  33.336  33.943  1.00  0.00    -0.167 F 
ENDBRANCH  16  19
ENDBRANCH   4   6
ENDBRANCH   3   4
ENDBRANCH   2   3
ENDBRANCH   1   2
BRANCH   1  23
ATOM     23  O   UNL A   1      34.700  32.929  27.647  1.00  0.00    -0.458 OA
BRANCH  23  24
ATOM     24  C   UNL A   1      34.542  31.593  27.784  1.00  0.00     0.338 C 
ATOM     25  O   UNL A   1      33.529  30.940  27.611  1.00  0.00    -0.246 OA
BRANCH  24  26
ATOM     26  C   UNL A   1      35.840  30.977  28.095  1.00  0.00     0.060 A 
ATOM     27  C   UNL A   1      37.021  31.705  28.043  1.00  0.00     0.016 A 
ATOM     28  C   UNL A   1      35.841  29.683  28.602  1.00  0.00     0.016 A 
ATOM     29  C   UNL A   1      38.207  31.111  28.499  1.00  0.00     0.010 A 
ATOM     30  C   UNL A   1      36.984  29.152  29.188  1.00  0.00     0.010 A 
ATOM     31  C   UNL A   1      38.198  29.842  29.117  1.00  0.00    -0.014 A 
BRANCH  31  32
ATOM     32  C   UNL A   1      39.439  29.242  29.687  1.00  0.00     0.031 A 
ATOM     33  C   UNL A   1      39.974  29.682  31.032  1.00  0.00     0.074 A 
ATOM     34  C   UNL A   1      40.125  28.326  28.973  1.00  0.00     0.049 A 
ATOM     35  N   UNL A   1      41.030  29.255  31.682  1.00  0.00    -0.248 NA
ATOM     36  C   UNL A   1      39.264  30.773  31.717  1.00  0.00     0.031 C 
ATOM     37  C   UNL A   1      39.797  27.889  27.614  1.00  0.00     0.029 A 
ATOM     38  N   UNL A   1      41.235  27.585  29.296  1.00  0.00    -0.354 N 
ATOM     39  C   UNL A   1      41.123  30.044  32.823  1.00  0.00     0.074 A 
ATOM     40  C   UNL A   1      40.062  31.022  32.744  1.00  0.00     0.031 C 
ATOM     41  C   UNL A   1      40.630  26.901  27.254  1.00  0.00     0.029 A 
ATOM     42  C   UNL A   1      41.577  26.660  28.337  1.00  0.00     0.049 A 
ATOM     43  H   UNL A   1      41.738  27.704  30.133  1.00  0.00     0.167 HD
ATOM     44  C   UNL A   1      41.981  29.943  33.868  1.00  0.00     0.037 A 
ATOM     45  C   UNL A   1      42.531  25.712  28.338  1.00  0.00     0.037 A 
ATOM     46  C   UNL A   1      42.991  28.926  33.986  1.00  0.00     0.049 A 
ATOM     47  C   UNL A   1      43.429  25.572  29.534  1.00  0.00     0.074 A 
ATOM     48  C   UNL A   1      43.836  28.665  35.052  1.00  0.00     0.029 A 
ATOM     49  N   UNL A   1      43.288  27.995  33.003  1.00  0.00    -0.354 N 
ATOM     50  N   UNL A   1      43.432  26.259  30.651  1.00  0.00    -0.248 NA
ATOM     51  C   UNL A   1      44.456  24.523  29.470  1.00  0.00     0.031 C 
ATOM     52  C   UNL A   1      44.665  27.594  34.701  1.00  0.00     0.029 A 
ATOM     53  C   UNL A   1      44.314  27.167  33.431  1.00  0.00     0.049 A 
ATOM     54  H   UNL A   1      42.837  27.931  32.131  1.00  0.00     0.167 HD
ATOM     55  C   UNL A   1      44.446  25.715  31.427  1.00  0.00     0.074 A 
ATOM     56  C   UNL A   1      45.019  24.626  30.664  1.00  0.00     0.031 C 
ATOM     57  C   UNL A   1      44.872  26.089  32.659  1.00  0.00     0.037 A 
BRANCH  44  58
ATOM     58  C   UNL A   1      41.839  30.941  34.983  1.00  0.00     0.057 A 
ATOM     59  C   UNL A   1      42.709  32.034  35.085  1.00  0.00     0.134 A 
ATOM     60  C   UNL A   1      40.855  30.807  35.972  1.00  0.00     0.134 A 
ATOM     61  F   UNL A   1      43.682  32.217  34.180  1.00  0.00    -0.206 F 
ATOM     62  C   UNL A   1      42.598  32.961  36.123  1.00  0.00     0.040 A 
ATOM     63  C   UNL A   1      40.716  31.744  36.998  1.00  0.00     0.040 A 
ATOM     64  F   UNL A   1      39.983  29.787  35.931  1.00  0.00    -0.206 F 
ATOM     65  C   UNL A   1      41.594  32.823  37.078  1.00  0.00     0.006 A 
ENDBRANCH  44  58
BRANCH  45  66
ATOM     66  C   UNL A   1      42.654  24.773  27.194  1.00  0.00     0.057 A 
ATOM     67  C   UNL A   1      43.494  25.040  26.107  1.00  0.00     0.134 A 
ATOM     68  C   UNL A   1      41.938  23.570  27.177  1.00  0.00     0.134 A 
ATOM     69  F   UNL A   1      44.199  26.179  26.061  1.00  0.00    -0.206 F 
ATOM     70  C   UNL A   1      43.615  24.145  25.042  1.00  0.00     0.040 A 
ATOM     71  C   UNL A   1      42.068  22.655  26.131  1.00  0.00     0.040 A 
ATOM     72  F   UNL A   1      41.132  23.251  28.199  1.00  0.00    -0.206 F 
ATOM     73  C   UNL A   1      42.907  22.944  25.057  1.00  0.00     0.006 A 
ENDBRANCH  45  66
BRANCH  57  74
ATOM     74  C   UNL A   1      45.999  25.302  33.255  1.00  0.00     0.057 A 
ATOM     75  C   UNL A   1      47.330  25.680  33.038  1.00  0.00     0.134 A 
ATOM     76  C   UNL A   1      45.766  24.160  34.031  1.00  0.00     0.134 A 
ATOM     77  F   UNL A   1      47.619  26.760  32.297  1.00  0.00    -0.206 F 
ATOM     78  C   UNL A   1      48.390  24.948  33.573  1.00  0.00     0.040 A 
ATOM     79  C   UNL A   1      46.818  23.435  34.594  1.00  0.00     0.040 A 
ATOM     80  F   UNL A   1      44.512  23.756  34.289  1.00  0.00    -0.206 F 
ATOM     81  C   UNL A   1      48.134  23.826  34.360  1.00  0.00     0.006 A 
ENDBRANCH  57  74
ENDBRANCH  31  32
ENDBRANCH  24  26
ENDBRANCH  23  24
ENDBRANCH   1  23
TORSDOF 13
ENDMDL
MODEL 2
REMARK VINA RESULT:     -10.2      4.764     11.203
REMARK SMILES C=Cc1cc(Cl)cc2c1O[C@H](C(F)(F)F)C(C(=O)OCCOC(=O)c1ccc(-c3c4nc(c(-c5c(F)cccc5F)c5ccc([nH]5)c(-c5c(F)cccc5F)c5nc(c(-c6c(F)cccc6F)c6ccc3[nH]6)C=C5)C=C4)cc1)=C2
REMARK SMILES IDX 21 1 20 2 19 3 17 4 18 5 16 6 3 7 4 8 9 9 5 10 8 11 10 12
REMARK SMILES IDX 6 13 7 14 79 15 11 16 2 17 1 18 12 19 13 20 14 21 15 22
REMARK SMILES IDX 22 23 23 24 24 25 25 26 26 27 78 28 27 29 77 30 28 31 29 32
REMARK SMILES IDX 30 33 71 34 31 35 76 36 70 37 72 38 32 39 75 40 69 41 68 42
REMARK SMILES IDX 33 44 59 45 42 46 58 47 43 48 46 49 57 50 73 51 44 52 45 53
REMARK SMILES IDX 56 55 74 56 47 57 34 58 35 59 40 60 36 61 37 62 39 63 41 64
REMARK SMILES IDX 38 65 60 66 61 67 66 68 62 69 63 70 65 71 67 72 64 73 48 74
REMARK SMILES IDX 49 75 54 76 50 77 51 78 53 79 55 80 52 81
REMARK H PARENT 72 43 46 54
REMARK Flexibility Score: inf
ROOT
ATOM      1  C   UNL A   1      40.866  20.307  26.400  1.00  0.00     0.275 C 
ENDROOT
BRANCH   1   2
ATOM      2  C   UNL A   1      42.266  20.097  26.976  1.00  0.00     0.275 C 
BRANCH   2   3
ATOM      3  O   UNL A   1      43.291  20.529  26.054  1.00  0.00    -0.459 OA
BRANCH   3   4
ATOM      4  C   UNL A   1      43.283  21.845  25.739  1.00  0.00     0.338 C 
ATOM      5  O   UNL A   1      42.474  22.420  25.028  1.00  0.00    -0.246 OA
BRANCH   4   6
ATOM      6  C   UNL A   1      44.391  22.545  26.419  1.00  0.00     0.087 C 
ATOM      7  C   UNL A   1      47.421  24.797  28.264  1.00  0.00     0.018 A 
ATOM      8  C   UNL A   1      47.130  25.436  29.482  1.00  0.00     0.032 A 
ATOM      9  C   UNL A   1      46.425  24.017  27.644  1.00  0.00     0.135 A 
ATOM     10  C   UNL A   1      45.888  25.271  30.088  1.00  0.00     0.042 A 
ATOM     11  C   UNL A   1      45.177  23.877  28.254  1.00  0.00     0.019 A 
ATOM     12  O   UNL A   1      46.739  23.392  26.463  1.00  0.00    -0.475 OA
ATOM     13  Cl  UNL A   1      45.552  26.047  31.586  1.00  0.00    -0.084 Cl
ATOM     14  C   UNL A   1      44.912  24.491  29.484  1.00  0.00     0.032 A 
ATOM     15  C   UNL A   1      44.135  23.111  27.603  1.00  0.00     0.027 C 
ATOM     16  C   UNL A   1      45.703  22.705  25.707  1.00  0.00     0.316 C 
BRANCH   7  17
ATOM     17  C   UNL A   1      48.724  25.003  27.614  1.00  0.00     0.004 C 
ATOM     18  C   UNL A   1      49.900  24.918  28.250  1.00  0.00     0.009 C 
ENDBRANCH   7  17
BRANCH  16  19
ATOM     19  C   UNL A   1      45.514  23.430  24.364  1.00  0.00     0.430 C 
ATOM     20  F   UNL A   1      45.003  22.603  23.422  1.00  0.00    -0.167 F 
ATOM     21  F   UNL A   1      44.653  24.469  24.476  1.00  0.00    -0.167 F 
ATOM     22  F   UNL A   1      46.679  23.921  23.885  1.00  0.00    -0.167 F 
ENDBRANCH  16  19
ENDBRANCH   4   6
ENDBRANCH   3   4
ENDBRANCH   2   3
ENDBRANCH   1   2
BRANCH   1  23
ATOM     23  O   UNL A   1      40.139  21.264  27.191  1.00  0.00    -0.458 OA
BRANCH  23  24
ATOM     24  C   UNL A   1      39.517  22.243  26.497  1.00  0.00     0.338 C 
ATOM     25  O   UNL A   1      38.765  22.122  25.546  1.00  0.00    -0.246 OA
BRANCH  24  26
ATOM     26  C   UNL A   1      39.798  23.542  27.125  1.00  0.00     0.060 A 
ATOM     27  C   UNL A   1      40.665  23.654  28.205  1.00  0.00     0.016 A 
ATOM     28  C   UNL A   1      39.300  24.684  26.511  1.00  0.00     0.016 A 
ATOM     29  C   UNL A   1      41.016  24.932  28.664  1.00  0.00     0.010 A 
ATOM     30  C   UNL A   1      39.764  25.944  26.870  1.00  0.00     0.010 A 
ATOM     31  C   UNL A   1      40.605  26.094  27.977  1.00  0.00    -0.014 A 
BRANCH  31  32
ATOM     32  C   UNL A   1      41.050  27.453  28.404  1.00  0.00     0.031 A 
ATOM     33  C   UNL A   1      42.482  27.902  28.218  1.00  0.00     0.074 A 
ATOM     34  C   UNL A   1      40.175  28.280  29.011  1.00  0.00     0.049 A 
ATOM     35  N   UNL A   1      43.034  29.053  28.518  1.00  0.00    -0.248 NA
ATOM     36  C   UNL A   1      43.431  26.921  27.668  1.00  0.00     0.031 C 
ATOM     37  C   UNL A   1      38.792  27.944  29.364  1.00  0.00     0.029 A 
ATOM     38  N   UNL A   1      40.311  29.582  29.427  1.00  0.00    -0.354 N 
ATOM     39  C   UNL A   1      44.387  28.917  28.226  1.00  0.00     0.074 A 
ATOM     40  C   UNL A   1      44.588  27.554  27.792  1.00  0.00     0.031 C 
ATOM     41  C   UNL A   1      38.186  29.032  29.863  1.00  0.00     0.029 A 
ATOM     42  C   UNL A   1      39.144  30.132  29.905  1.00  0.00     0.049 A 
ATOM     43  H   UNL A   1      41.162  30.074  29.388  1.00  0.00     0.167 HD
ATOM     44  C   UNL A   1      45.371  29.849  28.268  1.00  0.00     0.037 A 
ATOM     45  C   UNL A   1      38.870  31.385  30.309  1.00  0.00     0.037 A 
ATOM     46  C   UNL A   1      45.162  31.226  28.628  1.00  0.00     0.049 A 
ATOM     47  C   UNL A   1      39.958  32.421  30.285  1.00  0.00     0.074 A 
ATOM     48  C   UNL A   1      46.065  32.275  28.594  1.00  0.00     0.029 A 
ATOM     49  N   UNL A   1      43.961  31.747  29.081  1.00  0.00    -0.354 N 
ATOM     50  N   UNL A   1      41.206  32.301  29.902  1.00  0.00    -0.248 NA
ATOM     51  C   UNL A   1      39.597  33.769  30.748  1.00  0.00     0.031 C 
ATOM     52  C   UNL A   1      45.416  33.426  29.057  1.00  0.00     0.029 A 
ATOM     53  C   UNL A   1      44.101  33.099  29.347  1.00  0.00     0.049 A 
ATOM     54  H   UNL A   1      43.130  31.232  29.198  1.00  0.00     0.167 HD
ATOM     55  C   UNL A   1      41.774  33.558  30.062  1.00  0.00     0.074 A 
ATOM     56  C   UNL A   1      40.727  34.431  30.552  1.00  0.00     0.031 C 
ATOM     57  C   UNL A   1      43.050  33.953  29.833  1.00  0.00     0.037 A 
BRANCH  44  58
ATOM     58  C   UNL A   1      46.757  29.415  27.882  1.00  0.00     0.057 A 
ATOM     59  C   UNL A   1      47.681  29.014  28.854  1.00  0.00     0.134 A 
ATOM     60  C   UNL A   1      47.185  29.416  26.547  1.00  0.00     0.134 A 
ATOM     61  F   UNL A   1      47.344  29.000  30.152  1.00  0.00    -0.206 F 
ATOM     62  C   UNL A   1      48.978  28.621  28.512  1.00  0.00     0.040 A 
ATOM     63  C   UNL A   1      48.469  28.997  26.190  1.00  0.00     0.040 A 
ATOM     64  F   UNL A   1      46.348  29.781  25.564  1.00  0.00    -0.206 F 
ATOM     65  C   UNL A   1      49.371  28.603  27.175  1.00  0.00     0.006 A 
ENDBRANCH  44  58
BRANCH  45  66
ATOM     66  C   UNL A   1      37.491  31.755  30.717  1.00  0.00     0.057 A 
ATOM     67  C   UNL A   1      36.535  32.178  29.786  1.00  0.00     0.134 A 
ATOM     68  C   UNL A   1      37.096  31.674  32.058  1.00  0.00     0.134 A 
ATOM     69  F   UNL A   1      36.854  32.284  28.489  1.00  0.00    -0.206 F 
ATOM     70  C   UNL A   1      35.236  32.510  30.176  1.00  0.00     0.040 A 
ATOM     71  C   UNL A   1      35.794  31.980  32.458  1.00  0.00     0.040 A 
ATOM     72  F   UNL A   1      37.963  31.258  32.992  1.00  0.00    -0.206 F 
ATOM     73  C   UNL A   1      34.860  32.403  31.514  1.00  0.00     0.006 A 
ENDBRANCH  45  66
BRANCH  57  74
ATOM     74  C   UNL A   1      43.373  35.392  30.096  1.00  0.00     0.057 A 
ATOM     75  C   UNL A   1      43.829  35.805  31.353  1.00  0.00     0.134 A 
ATOM     76  C   UNL A   1      43.214  36.371  29.107  1.00  0.00     0.134 A 
ATOM     77  F   UNL A   1      43.994  34.917  32.344  1.00  0.00    -0.206 F 
ATOM     78  C   UNL A   1      44.119  37.144  31.617  1.00  0.00     0.040 A 
ATOM     79  C   UNL A   1      43.525  37.710  29.352  1.00  0.00     0.040 A 
ATOM     80  F   UNL A   1      42.796  36.035  27.877  1.00  0.00    -0.206 F 
ATOM     81  C   UNL A   1      43.974  38.100  30.612  1.00  0.00     0.006 A 
ENDBRANCH  57  74
ENDBRANCH  31  32
ENDBRANCH  24  26
ENDBRANCH  23  24
ENDBRANCH   1  23
TORSDOF 13
ENDMDL
MODEL 3
REMARK VINA RESULT:     -10.1      4.578      7.428
REMARK SMILES C=Cc1cc(Cl)cc2c1O[C@H](C(F)(F)F)C(C(=O)OCCOC(=O)c1ccc(-c3c4nc(c(-c5c(F)cccc5F)c5ccc([nH]5)c(-c5c(F)cccc5F)c5nc(c(-c6c(F)cccc6F)c6ccc3[nH]6)C=C5)C=C4)cc1)=C2
REMARK SMILES IDX 21 1 20 2 19 3 17 4 18 5 16 6 3 7 4 8 9 9 5 10 8 11 10 12
REMARK SMILES IDX 6 13 7 14 79 15 11 16 2 17 1 18 12 19 13 20 14 21 15 22
REMARK SMILES IDX 22 23 23 24 24 25 25 26 26 27 78 28 27 29 77 30 28 31 29 32
REMARK SMILES IDX 30 33 71 34 31 35 76 36 70 37 72 38 32 39 75 40 69 41 68 42
REMARK SMILES IDX 33 44 59 45 42 46 58 47 43 48 46 49 57 50 73 51 44 52 45 53
REMARK SMILES IDX 56 55 74 56 47 57 34 58 35 59 40 60 36 61 37 62 39 63 41 64
REMARK SMILES IDX 38 65 60 66 61 67 66 68 62 69 63 70 65 71 67 72 64 73 48 74
REMARK SMILES IDX 49 75 54 76 50 77 51 78 53 79 55 80 52 81
REMARK H PARENT 72 43 46 54
REMARK Flexibility Score: inf
ROOT
ATOM      1  C   UNL A   1      31.585  30.591  25.702  1.00  0.00     0.275 C 
ENDROOT
BRANCH   1   2
ATOM      2  C   UNL A   1      31.561  29.200  25.068  1.00  0.00     0.275 C 
BRANCH   2   3
ATOM      3  O   UNL A   1      32.442  28.286  25.758  1.00  0.00    -0.459 OA
BRANCH   3   4
ATOM      4  C   UNL A   1      31.835  27.307  26.467  1.00  0.00     0.338 C 
ATOM      5  O   UNL A   1      31.025  27.455  27.370  1.00  0.00    -0.246 OA
BRANCH   4   6
ATOM      6  C   UNL A   1      32.251  25.978  25.975  1.00  0.00     0.087 C 
ATOM      7  C   UNL A   1      33.517  22.330  24.320  1.00  0.00     0.018 A 
ATOM      8  C   UNL A   1      34.896  22.068  24.258  1.00  0.00     0.032 A 
ATOM      9  C   UNL A   1      33.073  23.537  24.895  1.00  0.00     0.135 A 
ATOM     10  C   UNL A   1      35.813  22.970  24.792  1.00  0.00     0.042 A 
ATOM     11  C   UNL A   1      34.005  24.442  25.408  1.00  0.00     0.019 A 
ATOM     12  O   UNL A   1      31.721  23.762  24.956  1.00  0.00    -0.475 OA
ATOM     13  Cl  UNL A   1      37.497  22.628  24.723  1.00  0.00    -0.084 Cl
ATOM     14  C   UNL A   1      35.374  24.153  25.371  1.00  0.00     0.032 A 
ATOM     15  C   UNL A   1      33.560  25.702  25.963  1.00  0.00     0.027 C 
ATOM     16  C   UNL A   1      31.219  25.055  25.397  1.00  0.00     0.316 C 
BRANCH   7  17
ATOM     17  C   UNL A   1      32.558  21.387  23.724  1.00  0.00     0.004 C 
ATOM     18  C   UNL A   1      32.152  21.437  22.449  1.00  0.00     0.009 C 
ENDBRANCH   7  17
BRANCH  16  19
ATOM     19  C   UNL A   1      30.484  25.722  24.222  1.00  0.00     0.430 C 
ATOM     20  F   UNL A   1      29.519  26.567  24.657  1.00  0.00    -0.167 F 
ATOM     21  F   UNL A   1      31.328  26.456  23.458  1.00  0.00    -0.167 F 
ATOM     22  F   UNL A   1      29.893  24.813  23.413  1.00  0.00    -0.167 F 
ENDBRANCH  16  19
ENDBRANCH   4   6
ENDBRANCH   3   4
ENDBRANCH   2   3
ENDBRANCH   1   2
BRANCH   1  23
ATOM     23  O   UNL A   1      32.320  30.563  26.938  1.00  0.00    -0.458 OA
BRANCH  23  24
ATOM     24  C   UNL A   1      32.981  31.700  27.250  1.00  0.00     0.338 C 
ATOM     25  O   UNL A   1      32.557  32.841  27.227  1.00  0.00    -0.246 OA
BRANCH  24  26
ATOM     26  C   UNL A   1      34.326  31.364  27.740  1.00  0.00     0.060 A 
ATOM     27  C   UNL A   1      35.244  32.350  28.077  1.00  0.00     0.016 A 
ATOM     28  C   UNL A   1      34.604  30.030  28.014  1.00  0.00     0.016 A 
ATOM     29  C   UNL A   1      36.452  31.976  28.684  1.00  0.00     0.010 A 
ATOM     30  C   UNL A   1      35.731  29.677  28.748  1.00  0.00     0.010 A 
ATOM     31  C   UNL A   1      36.694  30.639  29.067  1.00  0.00    -0.014 A 
BRANCH  31  32
ATOM     32  C   UNL A   1      37.935  30.247  29.796  1.00  0.00     0.031 A 
ATOM     33  C   UNL A   1      38.166  30.669  31.231  1.00  0.00     0.074 A 
ATOM     34  C   UNL A   1      38.892  29.546  29.155  1.00  0.00     0.049 A 
ATOM     35  N   UNL A   1      39.180  30.404  32.018  1.00  0.00    -0.248 NA
ATOM     36  C   UNL A   1      37.154  31.540  31.850  1.00  0.00     0.031 C 
ATOM     37  C   UNL A   1      38.862  29.168  27.739  1.00  0.00     0.029 A 
ATOM     38  N   UNL A   1      40.071  29.011  29.612  1.00  0.00    -0.354 N 
ATOM     39  C   UNL A   1      38.941  31.098  33.199  1.00  0.00     0.074 A 
ATOM     40  C   UNL A   1      37.725  31.853  33.003  1.00  0.00     0.031 C 
ATOM     41  C   UNL A   1      39.924  28.395  27.466  1.00  0.00     0.029 A 
ATOM     42  C   UNL A   1      40.732  28.254  28.672  1.00  0.00     0.049 A 
ATOM     43  H   UNL A   1      40.411  29.156  30.524  1.00  0.00     0.167 HD
ATOM     44  C   UNL A   1      39.640  31.080  34.361  1.00  0.00     0.037 A 
ATOM     45  C   UNL A   1      41.850  27.514  28.777  1.00  0.00     0.037 A 
ATOM     46  C   UNL A   1      40.810  30.274  34.586  1.00  0.00     0.049 A 
ATOM     47  C   UNL A   1      42.573  27.453  30.092  1.00  0.00     0.074 A 
ATOM     48  C   UNL A   1      41.525  30.095  35.758  1.00  0.00     0.029 A 
ATOM     49  N   UNL A   1      41.432  29.504  33.616  1.00  0.00    -0.354 N 
ATOM     50  N   UNL A   1      42.272  28.031  31.230  1.00  0.00    -0.248 NA
ATOM     51  C   UNL A   1      43.793  26.634  30.138  1.00  0.00     0.031 C 
ATOM     52  C   UNL A   1      42.599  29.239  35.489  1.00  0.00     0.029 A 
ATOM     53  C   UNL A   1      42.532  28.860  34.158  1.00  0.00     0.049 A 
ATOM     54  H   UNL A   1      41.136  29.426  32.680  1.00  0.00     0.167 HD
ATOM     55  C   UNL A   1      43.252  27.633  32.129  1.00  0.00     0.074 A 
ATOM     56  C   UNL A   1      44.142  26.744  31.411  1.00  0.00     0.031 C 
ATOM     57  C   UNL A   1      43.407  27.979  33.430  1.00  0.00     0.037 A 
BRANCH  44  58
ATOM     58  C   UNL A   1      39.134  31.934  35.489  1.00  0.00     0.057 A 
ATOM     59  C   UNL A   1      39.550  33.264  35.626  1.00  0.00     0.134 A 
ATOM     60  C   UNL A   1      38.253  31.432  36.457  1.00  0.00     0.134 A 
ATOM     61  F   UNL A   1      40.402  33.807  34.743  1.00  0.00    -0.206 F 
ATOM     62  C   UNL A   1      39.100  34.067  36.677  1.00  0.00     0.040 A 
ATOM     63  C   UNL A   1      37.773  32.233  37.495  1.00  0.00     0.040 A 
ATOM     64  F   UNL A   1      37.808  30.168  36.383  1.00  0.00    -0.206 F 
ATOM     65  C   UNL A   1      38.201  33.554  37.610  1.00  0.00     0.006 A 
ENDBRANCH  44  58
BRANCH  45  66
ATOM     66  C   UNL A   1      42.330  26.716  27.620  1.00  0.00     0.057 A 
ATOM     67  C   UNL A   1      41.939  25.386  27.429  1.00  0.00     0.134 A 
ATOM     68  C   UNL A   1      43.182  27.282  26.665  1.00  0.00     0.134 A 
ATOM     69  F   UNL A   1      41.130  24.784  28.312  1.00  0.00    -0.206 F 
ATOM     70  C   UNL A   1      42.382  24.646  26.330  1.00  0.00     0.040 A 
ATOM     71  C   UNL A   1      43.614  26.563  25.549  1.00  0.00     0.040 A 
ATOM     72  F   UNL A   1      43.576  28.558  26.785  1.00  0.00    -0.206 F 
ATOM     73  C   UNL A   1      43.215  25.238  25.382  1.00  0.00     0.006 A 
ENDBRANCH  45  66
BRANCH  57  74
ATOM     74  C   UNL A   1      44.572  27.381  34.157  1.00  0.00     0.057 A 
ATOM     75  C   UNL A   1      44.444  26.164  34.837  1.00  0.00     0.134 A 
ATOM     76  C   UNL A   1      45.818  28.020  34.197  1.00  0.00     0.134 A 
ATOM     77  F   UNL A   1      43.275  25.506  34.843  1.00  0.00    -0.206 F 
ATOM     78  C   UNL A   1      45.516  25.603  35.532  1.00  0.00     0.040 A 
ATOM     79  C   UNL A   1      46.905  27.455  34.867  1.00  0.00     0.040 A 
ATOM     80  F   UNL A   1      46.009  29.181  33.552  1.00  0.00    -0.206 F 
ATOM     81  C   UNL A   1      46.753  26.246  35.541  1.00  0.00     0.006 A 
ENDBRANCH  57  74
ENDBRANCH  31  32
ENDBRANCH  24  26
ENDBRANCH  23  24
ENDBRANCH   1  23
TORSDOF 13
ENDMDL
