MODEL 1
REMARK VINA RESULT:      -9.5      0.000      0.000
REMARK SMILES COc1cccc(-c2cc(C(=O)OCCOC(=O)c3ccc(-c4c5nc(c(-c6c(F)cccc6F)c6ccc([nH]6)c(-c6c(F)cccc6F)c6nc(c(-c7c(F)cccc7F)c7ccc4[nH]7)C=C6)C=C5)cc3)cs2)c1
REMARK SMILES IDX 14 1 13 2 11 3 12 4 10 5 8 6 9 7 74 8 73 9 7 10 3 11 4 12
REMARK SMILES IDX 75 13 5 14 6 15 2 16 1 17 15 18 16 19 17 20 18 21 19 22
REMARK SMILES IDX 20 23 72 24 21 25 71 26 22 27 23 28 24 29 65 30 25 31 70 32
REMARK SMILES IDX 64 33 66 34 26 35 69 36 63 37 62 38 27 40 53 41 36 42 52 43
REMARK SMILES IDX 37 44 40 45 51 46 67 47 38 48 39 49 50 51 68 52 41 53 28 54
REMARK SMILES IDX 29 55 34 56 30 57 31 58 33 59 35 60 32 61 54 62 55 63 60 64
REMARK SMILES IDX 56 65 57 66 59 67 61 68 58 69 42 70 43 71 48 72 44 73 45 74
REMARK SMILES IDX 47 75 49 76 46 77
REMARK H PARENT 66 39 40 50
REMARK Flexibility Score: inf
ROOT
ATOM      1  C   UNL A   1      33.731  35.838  31.462  1.00  0.00     0.275 C 
ENDROOT
BRANCH   1   2
ATOM      2  O   UNL A   1      34.418  34.729  32.073  1.00  0.00    -0.458 OA
BRANCH   2   3
ATOM      3  C   UNL A   1      34.994  34.979  33.285  1.00  0.00     0.339 C 
ATOM      4  O   UNL A   1      34.746  35.951  33.984  1.00  0.00    -0.246 OA
BRANCH   3   5
ATOM      5  C   UNL A   1      35.914  33.922  33.703  1.00  0.00     0.071 A 
ATOM      6  C   UNL A   1      37.040  31.872  33.724  1.00  0.00     0.035 A 
ATOM      7  C   UNL A   1      35.980  32.584  33.197  1.00  0.00     0.036 A 
ATOM      8  S   UNL A   1      37.806  32.716  34.994  1.00  0.00    -0.143 S 
ATOM      9  C   UNL A   1      36.906  34.122  34.651  1.00  0.00     0.081 A 
BRANCH   6  10
ATOM     10  C   UNL A   1      37.646  30.650  33.220  1.00  0.00    -0.005 A 
ATOM     11  C   UNL A   1      39.586  29.192  33.263  1.00  0.00     0.119 A 
ATOM     12  C   UNL A   1      38.924  28.308  32.412  1.00  0.00     0.046 A 
ATOM     13  C   UNL A   1      38.954  30.371  33.640  1.00  0.00     0.056 A 
ATOM     14  C   UNL A   1      37.618  28.578  31.986  1.00  0.00     0.004 A 
ATOM     15  C   UNL A   1      36.973  29.746  32.396  1.00  0.00     0.010 A 
BRANCH  11  16
ATOM     16  O   UNL A   1      40.852  28.847  33.648  1.00  0.00    -0.497 OA
ATOM     17  C   UNL A   1      41.200  29.251  34.972  1.00  0.00     0.278 C 
ENDBRANCH  11  16
ENDBRANCH   6  10
ENDBRANCH   3   5
ENDBRANCH   2   3
ENDBRANCH   1   2
BRANCH   1  18
ATOM     18  C   UNL A   1      32.602  35.360  30.543  1.00  0.00     0.275 C 
BRANCH  18  19
ATOM     19  O   UNL A   1      32.978  35.465  29.156  1.00  0.00    -0.458 OA
BRANCH  19  20
ATOM     20  C   UNL A   1      33.062  34.290  28.489  1.00  0.00     0.338 C 
ATOM     21  O   UNL A   1      32.227  33.798  27.750  1.00  0.00    -0.246 OA
BRANCH  20  22
ATOM     22  C   UNL A   1      34.400  33.708  28.661  1.00  0.00     0.060 A 
ATOM     23  C   UNL A   1      34.501  32.571  29.455  1.00  0.00     0.016 A 
ATOM     24  C   UNL A   1      35.552  34.340  28.203  1.00  0.00     0.016 A 
ATOM     25  C   UNL A   1      35.738  32.086  29.856  1.00  0.00     0.010 A 
ATOM     26  C   UNL A   1      36.805  33.807  28.544  1.00  0.00     0.010 A 
ATOM     27  C   UNL A   1      36.910  32.689  29.395  1.00  0.00    -0.014 A 
BRANCH  27  28
ATOM     28  C   UNL A   1      38.228  32.164  29.848  1.00  0.00     0.031 A 
ATOM     29  C   UNL A   1      38.740  30.851  29.321  1.00  0.00     0.074 A 
ATOM     30  C   UNL A   1      38.987  32.882  30.699  1.00  0.00     0.049 A 
ATOM     31  N   UNL A   1      39.789  30.161  29.692  1.00  0.00    -0.248 NA
ATOM     32  C   UNL A   1      37.966  30.227  28.235  1.00  0.00     0.031 C 
ATOM     33  C   UNL A   1      38.644  34.201  31.238  1.00  0.00     0.029 A 
ATOM     34  N   UNL A   1      40.212  32.608  31.258  1.00  0.00    -0.354 N 
ATOM     35  C   UNL A   1      39.774  29.003  28.923  1.00  0.00     0.074 A 
ATOM     36  C   UNL A   1      38.606  29.078  28.073  1.00  0.00     0.031 C 
ATOM     37  C   UNL A   1      39.641  34.630  32.024  1.00  0.00     0.029 A 
ATOM     38  C   UNL A   1      40.653  33.585  32.120  1.00  0.00     0.049 A 
ATOM     39  H   UNL A   1      40.725  31.793  31.060  1.00  0.00     0.167 HD
ATOM     40  C   UNL A   1      40.657  27.975  28.927  1.00  0.00     0.037 A 
ATOM     41  C   UNL A   1      41.724  33.618  32.935  1.00  0.00     0.037 A 
ATOM     42  C   UNL A   1      41.840  27.928  29.747  1.00  0.00     0.049 A 
ATOM     43  C   UNL A   1      42.650  32.435  32.971  1.00  0.00     0.074 A 
ATOM     44  C   UNL A   1      42.804  26.937  29.814  1.00  0.00     0.029 A 
ATOM     45  N   UNL A   1      42.224  28.918  30.641  1.00  0.00    -0.354 N 
ATOM     46  N   UNL A   1      42.607  31.330  32.267  1.00  0.00    -0.248 NA
ATOM     47  C   UNL A   1      43.763  32.496  33.927  1.00  0.00     0.031 C 
ATOM     48  C   UNL A   1      43.742  27.302  30.783  1.00  0.00     0.029 A 
ATOM     49  C   UNL A   1      43.396  28.549  31.281  1.00  0.00     0.049 A 
ATOM     50  H   UNL A   1      41.735  29.758  30.797  1.00  0.00     0.167 HD
ATOM     51  C   UNL A   1      43.696  30.574  32.679  1.00  0.00     0.074 A 
ATOM     52  C   UNL A   1      44.393  31.357  33.680  1.00  0.00     0.031 C 
ATOM     53  C   UNL A   1      44.081  29.341  32.270  1.00  0.00     0.037 A 
BRANCH  40  54
ATOM     54  C   UNL A   1      40.357  26.796  28.044  1.00  0.00     0.057 A 
ATOM     55  C   UNL A   1      40.936  26.640  26.779  1.00  0.00     0.134 A 
ATOM     56  C   UNL A   1      39.498  25.782  28.489  1.00  0.00     0.134 A 
ATOM     57  F   UNL A   1      41.758  27.580  26.287  1.00  0.00    -0.206 F 
ATOM     58  C   UNL A   1      40.652  25.532  25.978  1.00  0.00     0.040 A 
ATOM     59  C   UNL A   1      39.230  24.655  27.710  1.00  0.00     0.040 A 
ATOM     60  F   UNL A   1      38.914  25.862  29.694  1.00  0.00    -0.206 F 
ATOM     61  C   UNL A   1      39.803  24.531  26.446  1.00  0.00     0.006 A 
ENDBRANCH  40  54
BRANCH  41  62
ATOM     62  C   UNL A   1      41.951  34.788  33.822  1.00  0.00     0.057 A 
ATOM     63  C   UNL A   1      41.505  34.792  35.148  1.00  0.00     0.134 A 
ATOM     64  C   UNL A   1      42.604  35.939  33.361  1.00  0.00     0.134 A 
ATOM     65  F   UNL A   1      40.849  33.732  35.643  1.00  0.00    -0.206 F 
ATOM     66  C   UNL A   1      41.685  35.900  35.979  1.00  0.00     0.040 A 
ATOM     67  C   UNL A   1      42.821  37.041  34.189  1.00  0.00     0.040 A 
ATOM     68  F   UNL A   1      43.058  36.002  32.101  1.00  0.00    -0.206 F 
ATOM     69  C   UNL A   1      42.353  37.027  35.500  1.00  0.00     0.006 A 
ENDBRANCH  41  62
BRANCH  53  70
ATOM     70  C   UNL A   1      45.335  28.779  32.877  1.00  0.00     0.057 A 
ATOM     71  C   UNL A   1      45.309  27.996  34.037  1.00  0.00     0.134 A 
ATOM     72  C   UNL A   1      46.579  29.003  32.274  1.00  0.00     0.134 A 
ATOM     73  F   UNL A   1      44.151  27.758  34.673  1.00  0.00    -0.206 F 
ATOM     74  C   UNL A   1      46.481  27.475  34.591  1.00  0.00     0.040 A 
ATOM     75  C   UNL A   1      47.753  28.463  32.801  1.00  0.00     0.040 A 
ATOM     76  F   UNL A   1      46.673  29.738  31.156  1.00  0.00    -0.206 F 
ATOM     77  C   UNL A   1      47.706  27.702  33.967  1.00  0.00     0.006 A 
ENDBRANCH  53  70
ENDBRANCH  27  28
ENDBRANCH  20  22
ENDBRANCH  19  20
ENDBRANCH  18  19
ENDBRANCH   1  18
TORSDOF 13
ENDMDL
MODEL 2
REMARK VINA RESULT:      -8.6      4.914     10.628
REMARK SMILES COc1cccc(-c2cc(C(=O)OCCOC(=O)c3ccc(-c4c5nc(c(-c6c(F)cccc6F)c6ccc([nH]6)c(-c6c(F)cccc6F)c6nc(c(-c7c(F)cccc7F)c7ccc4[nH]7)C=C6)C=C5)cc3)cs2)c1
REMARK SMILES IDX 14 1 13 2 11 3 12 4 10 5 8 6 9 7 74 8 73 9 7 10 3 11 4 12
REMARK SMILES IDX 75 13 5 14 6 15 2 16 1 17 15 18 16 19 17 20 18 21 19 22
REMARK SMILES IDX 20 23 72 24 21 25 71 26 22 27 23 28 24 29 65 30 25 31 70 32
REMARK SMILES IDX 64 33 66 34 26 35 69 36 63 37 62 38 27 40 53 41 36 42 52 43
REMARK SMILES IDX 37 44 40 45 51 46 67 47 38 48 39 49 50 51 68 52 41 53 28 54
REMARK SMILES IDX 29 55 34 56 30 57 31 58 33 59 35 60 32 61 54 62 55 63 60 64
REMARK SMILES IDX 56 65 57 66 59 67 61 68 58 69 42 70 43 71 48 72 44 73 45 74
REMARK SMILES IDX 47 75 49 76 46 77
REMARK H PARENT 66 39 40 50
REMARK Flexibility Score: inf
ROOT
ATOM      1  C   UNL A   1      42.282  20.584  26.702  1.00  0.00     0.275 C 
ENDROOT
BRANCH   1   2
ATOM      2  O   UNL A   1      40.932  21.085  26.754  1.00  0.00    -0.458 OA
BRANCH   2   3
ATOM      3  C   UNL A   1      40.008  20.386  26.033  1.00  0.00     0.339 C 
ATOM      4  O   UNL A   1      40.110  19.204  25.736  1.00  0.00    -0.246 OA
BRANCH   3   5
ATOM      5  C   UNL A   1      38.834  21.187  25.690  1.00  0.00     0.071 A 
ATOM      6  C   UNL A   1      36.695  21.728  24.913  1.00  0.00     0.035 A 
ATOM      7  C   UNL A   1      37.676  20.757  24.965  1.00  0.00     0.036 A 
ATOM      8  S   UNL A   1      37.248  23.226  25.514  1.00  0.00    -0.143 S 
ATOM      9  C   UNL A   1      38.683  22.506  26.089  1.00  0.00     0.081 A 
BRANCH   6  10
ATOM     10  C   UNL A   1      35.285  21.569  24.596  1.00  0.00    -0.005 A 
ATOM     11  C   UNL A   1      33.281  20.238  24.921  1.00  0.00     0.119 A 
ATOM     12  C   UNL A   1      32.564  21.155  24.154  1.00  0.00     0.046 A 
ATOM     13  C   UNL A   1      34.643  20.435  25.115  1.00  0.00     0.056 A 
ATOM     14  C   UNL A   1      33.195  22.289  23.630  1.00  0.00     0.004 A 
ATOM     15  C   UNL A   1      34.556  22.503  23.858  1.00  0.00     0.010 A 
BRANCH  11  16
ATOM     16  O   UNL A   1      32.587  19.166  25.411  1.00  0.00    -0.497 OA
ATOM     17  C   UNL A   1      32.442  18.083  24.492  1.00  0.00     0.278 C 
ENDBRANCH  11  16
ENDBRANCH   6  10
ENDBRANCH   3   5
ENDBRANCH   2   3
ENDBRANCH   1   2
BRANCH   1  18
ATOM     18  C   UNL A   1      43.119  21.337  25.662  1.00  0.00     0.275 C 
BRANCH  18  19
ATOM     19  O   UNL A   1      42.446  22.531  25.216  1.00  0.00    -0.458 OA
BRANCH  19  20
ATOM     20  C   UNL A   1      43.193  23.660  25.244  1.00  0.00     0.338 C 
ATOM     21  O   UNL A   1      44.144  23.936  24.534  1.00  0.00    -0.246 OA
BRANCH  20  22
ATOM     22  C   UNL A   1      42.612  24.623  26.189  1.00  0.00     0.060 A 
ATOM     23  C   UNL A   1      43.182  25.890  26.237  1.00  0.00     0.016 A 
ATOM     24  C   UNL A   1      41.647  24.261  27.124  1.00  0.00     0.016 A 
ATOM     25  C   UNL A   1      42.853  26.786  27.244  1.00  0.00     0.010 A 
ATOM     26  C   UNL A   1      41.257  25.192  28.099  1.00  0.00     0.010 A 
ATOM     27  C   UNL A   1      41.874  26.455  28.183  1.00  0.00    -0.014 A 
BRANCH  27  28
ATOM     28  C   UNL A   1      41.545  27.423  29.266  1.00  0.00     0.031 A 
ATOM     29  C   UNL A   1      42.358  27.447  30.531  1.00  0.00     0.074 A 
ATOM     30  C   UNL A   1      40.544  28.311  29.100  1.00  0.00     0.049 A 
ATOM     31  N   UNL A   1      42.148  28.112  31.640  1.00  0.00    -0.248 NA
ATOM     32  C   UNL A   1      43.565  26.605  30.559  1.00  0.00     0.031 C 
ATOM     33  C   UNL A   1      39.717  28.443  27.898  1.00  0.00     0.029 A 
ATOM     34  N   UNL A   1      40.053  29.278  29.944  1.00  0.00    -0.354 N 
ATOM     35  C   UNL A   1      43.165  27.735  32.508  1.00  0.00     0.074 A 
ATOM     36  C   UNL A   1      43.984  26.772  31.805  1.00  0.00     0.031 C 
ATOM     37  C   UNL A   1      38.844  29.445  28.070  1.00  0.00     0.029 A 
ATOM     38  C   UNL A   1      38.985  29.969  29.424  1.00  0.00     0.049 A 
ATOM     39  H   UNL A   1      40.431  29.459  30.834  1.00  0.00     0.167 HD
ATOM     40  C   UNL A   1      43.392  28.155  33.776  1.00  0.00     0.037 A 
ATOM     41  C   UNL A   1      38.176  30.887  29.985  1.00  0.00     0.037 A 
ATOM     42  C   UNL A   1      42.595  29.145  34.456  1.00  0.00     0.049 A 
ATOM     43  C   UNL A   1      38.407  31.285  31.416  1.00  0.00     0.074 A 
ATOM     44  C   UNL A   1      42.752  29.648  35.736  1.00  0.00     0.029 A 
ATOM     45  N   UNL A   1      41.494  29.786  33.908  1.00  0.00    -0.354 N 
ATOM     46  N   UNL A   1      39.348  30.895  32.240  1.00  0.00    -0.248 NA
ATOM     47  C   UNL A   1      37.454  32.238  32.000  1.00  0.00     0.031 C 
ATOM     48  C   UNL A   1      41.717  30.554  35.981  1.00  0.00     0.029 A 
ATOM     49  C   UNL A   1      40.947  30.661  34.833  1.00  0.00     0.049 A 
ATOM     50  H   UNL A   1      41.151  29.641  32.997  1.00  0.00     0.167 HD
ATOM     51  C   UNL A   1      39.114  31.569  33.431  1.00  0.00     0.074 A 
ATOM     52  C   UNL A   1      37.954  32.408  33.215  1.00  0.00     0.031 C 
ATOM     53  C   UNL A   1      39.795  31.494  34.601  1.00  0.00     0.037 A 
BRANCH  40  54
ATOM     54  C   UNL A   1      44.527  27.518  34.529  1.00  0.00     0.057 A 
ATOM     55  C   UNL A   1      45.815  28.066  34.547  1.00  0.00     0.134 A 
ATOM     56  C   UNL A   1      44.312  26.353  35.277  1.00  0.00     0.134 A 
ATOM     57  F   UNL A   1      46.094  29.173  33.842  1.00  0.00    -0.206 F 
ATOM     58  C   UNL A   1      46.854  27.464  35.261  1.00  0.00     0.040 A 
ATOM     59  C   UNL A   1      45.334  25.759  36.019  1.00  0.00     0.040 A 
ATOM     60  F   UNL A   1      43.100  25.778  35.312  1.00  0.00    -0.206 F 
ATOM     61  C   UNL A   1      46.613  26.311  36.006  1.00  0.00     0.006 A 
ENDBRANCH  40  54
BRANCH  41  62
ATOM     62  C   UNL A   1      37.039  31.453  29.213  1.00  0.00     0.057 A 
ATOM     63  C   UNL A   1      37.090  32.748  28.688  1.00  0.00     0.134 A 
ATOM     64  C   UNL A   1      35.866  30.717  28.996  1.00  0.00     0.134 A 
ATOM     65  F   UNL A   1      38.173  33.514  28.883  1.00  0.00    -0.206 F 
ATOM     66  C   UNL A   1      36.013  33.298  27.989  1.00  0.00     0.040 A 
ATOM     67  C   UNL A   1      34.795  31.241  28.271  1.00  0.00     0.040 A 
ATOM     68  F   UNL A   1      35.751  29.468  29.472  1.00  0.00    -0.206 F 
ATOM     69  C   UNL A   1      34.863  32.539  27.773  1.00  0.00     0.006 A 
ENDBRANCH  41  62
BRANCH  53  70
ATOM     70  C   UNL A   1      39.325  32.374  35.723  1.00  0.00     0.057 A 
ATOM     71  C   UNL A   1      39.780  33.690  35.874  1.00  0.00     0.134 A 
ATOM     72  C   UNL A   1      38.382  31.906  36.648  1.00  0.00     0.134 A 
ATOM     73  F   UNL A   1      40.696  34.194  35.032  1.00  0.00    -0.206 F 
ATOM     74  C   UNL A   1      39.333  34.500  36.919  1.00  0.00     0.040 A 
ATOM     75  C   UNL A   1      37.905  32.716  37.678  1.00  0.00     0.040 A 
ATOM     76  F   UNL A   1      37.899  30.658  36.556  1.00  0.00    -0.206 F 
ATOM     77  C   UNL A   1      38.386  34.016  37.820  1.00  0.00     0.006 A 
ENDBRANCH  53  70
ENDBRANCH  27  28
ENDBRANCH  20  22
ENDBRANCH  19  20
ENDBRANCH  18  19
ENDBRANCH   1  18
TORSDOF 13
ENDMDL
MODEL 3
REMARK VINA RESULT:      -8.5      4.554     10.476
REMARK SMILES COc1cccc(-c2cc(C(=O)OCCOC(=O)c3ccc(-c4c5nc(c(-c6c(F)cccc6F)c6ccc([nH]6)c(-c6c(F)cccc6F)c6nc(c(-c7c(F)cccc7F)c7ccc4[nH]7)C=C6)C=C5)cc3)cs2)c1
REMARK SMILES IDX 14 1 13 2 11 3 12 4 10 5 8 6 9 7 74 8 73 9 7 10 3 11 4 12
REMARK SMILES IDX 75 13 5 14 6 15 2 16 1 17 15 18 16 19 17 20 18 21 19 22
REMARK SMILES IDX 20 23 72 24 21 25 71 26 22 27 23 28 24 29 65 30 25 31 70 32
REMARK SMILES IDX 64 33 66 34 26 35 69 36 63 37 62 38 27 40 53 41 36 42 52 43
REMARK SMILES IDX 37 44 40 45 51 46 67 47 38 48 39 49 50 51 68 52 41 53 28 54
REMARK SMILES IDX 29 55 34 56 30 57 31 58 33 59 35 60 32 61 54 62 55 63 60 64
REMARK SMILES IDX 56 65 57 66 59 67 61 68 58 69 42 70 43 71 48 72 44 73 45 74
REMARK SMILES IDX 47 75 49 76 46 77
REMARK H PARENT 66 39 40 50
REMARK Flexibility Score: inf
ROOT
ATOM      1  C   UNL A   1      42.759  20.829  26.105  1.00  0.00     0.275 C 
ENDROOT
BRANCH   1   2
ATOM      2  O   UNL A   1      41.362  20.788  25.755  1.00  0.00    -0.458 OA
BRANCH   2   3
ATOM      3  C   UNL A   1      40.490  21.170  26.733  1.00  0.00     0.339 C 
ATOM      4  O   UNL A   1      40.700  21.057  27.932  1.00  0.00    -0.246 OA
BRANCH   3   5
ATOM      5  C   UNL A   1      39.279  21.791  26.200  1.00  0.00     0.071 A 
ATOM      6  C   UNL A   1      37.162  21.998  25.226  1.00  0.00     0.035 A 
ATOM      7  C   UNL A   1      38.216  21.145  25.490  1.00  0.00     0.036 A 
ATOM      8  S   UNL A   1      37.541  23.617  25.608  1.00  0.00    -0.143 S 
ATOM      9  C   UNL A   1      38.988  23.136  26.371  1.00  0.00     0.081 A 
BRANCH   6  10
ATOM     10  C   UNL A   1      35.796  21.658  24.860  1.00  0.00    -0.005 A 
ATOM     11  C   UNL A   1      33.746  22.406  23.799  1.00  0.00     0.119 A 
ATOM     12  C   UNL A   1      33.188  21.148  24.022  1.00  0.00     0.046 A 
ATOM     13  C   UNL A   1      35.037  22.662  24.243  1.00  0.00     0.056 A 
ATOM     14  C   UNL A   1      33.936  20.139  24.638  1.00  0.00     0.004 A 
ATOM     15  C   UNL A   1      35.246  20.389  25.051  1.00  0.00     0.010 A 
BRANCH  11  16
ATOM     16  O   UNL A   1      32.955  23.330  23.175  1.00  0.00    -0.497 OA
ATOM     17  C   UNL A   1      33.533  24.631  23.069  1.00  0.00     0.278 C 
ENDBRANCH  11  16
ENDBRANCH   6  10
ENDBRANCH   3   5
ENDBRANCH   2   3
ENDBRANCH   1   2
BRANCH   1  18
ATOM     18  C   UNL A   1      43.557  21.694  25.125  1.00  0.00     0.275 C 
BRANCH  18  19
ATOM     19  O   UNL A   1      42.902  22.956  24.888  1.00  0.00    -0.458 OA
BRANCH  19  20
ATOM     20  C   UNL A   1      43.661  24.053  25.116  1.00  0.00     0.338 C 
ATOM     21  O   UNL A   1      44.685  24.378  24.541  1.00  0.00    -0.246 OA
BRANCH  20  22
ATOM     22  C   UNL A   1      43.002  24.924  26.100  1.00  0.00     0.060 A 
ATOM     23  C   UNL A   1      43.373  26.264  26.112  1.00  0.00     0.016 A 
ATOM     24  C   UNL A   1      42.168  24.425  27.096  1.00  0.00     0.016 A 
ATOM     25  C   UNL A   1      42.977  27.107  27.141  1.00  0.00     0.010 A 
ATOM     26  C   UNL A   1      41.705  25.293  28.097  1.00  0.00     0.010 A 
ATOM     27  C   UNL A   1      42.125  26.637  28.142  1.00  0.00    -0.014 A 
BRANCH  27  28
ATOM     28  C   UNL A   1      41.722  27.552  29.247  1.00  0.00     0.031 A 
ATOM     29  C   UNL A   1      42.500  27.570  30.534  1.00  0.00     0.074 A 
ATOM     30  C   UNL A   1      40.686  28.398  29.081  1.00  0.00     0.049 A 
ATOM     31  N   UNL A   1      42.231  28.187  31.657  1.00  0.00    -0.248 NA
ATOM     32  C   UNL A   1      43.744  26.783  30.567  1.00  0.00     0.031 C 
ATOM     33  C   UNL A   1      39.886  28.533  27.862  1.00  0.00     0.029 A 
ATOM     34  N   UNL A   1      40.129  29.313  29.942  1.00  0.00    -0.354 N 
ATOM     35  C   UNL A   1      43.241  27.827  32.541  1.00  0.00     0.074 A 
ATOM     36  C   UNL A   1      44.121  26.927  31.829  1.00  0.00     0.031 C 
ATOM     37  C   UNL A   1      38.963  29.489  28.042  1.00  0.00     0.029 A 
ATOM     38  C   UNL A   1      39.044  29.973  29.415  1.00  0.00     0.049 A 
ATOM     39  H   UNL A   1      40.475  29.481  30.848  1.00  0.00     0.167 HD
ATOM     40  C   UNL A   1      43.414  28.215  33.827  1.00  0.00     0.037 A 
ATOM     41  C   UNL A   1      38.179  30.833  29.984  1.00  0.00     0.037 A 
ATOM     42  C   UNL A   1      42.555  29.144  34.516  1.00  0.00     0.049 A 
ATOM     43  C   UNL A   1      38.354  31.192  31.433  1.00  0.00     0.074 A 
ATOM     44  C   UNL A   1      42.656  29.610  35.816  1.00  0.00     0.029 A 
ATOM     45  N   UNL A   1      41.440  29.752  33.959  1.00  0.00    -0.354 N 
ATOM     46  N   UNL A   1      39.290  30.818  32.270  1.00  0.00    -0.248 NA
ATOM     47  C   UNL A   1      37.343  32.081  32.020  1.00  0.00     0.031 C 
ATOM     48  C   UNL A   1      41.573  30.460  36.061  1.00  0.00     0.029 A 
ATOM     49  C   UNL A   1      40.829  30.569  34.897  1.00  0.00     0.049 A 
ATOM     50  H   UNL A   1      41.128  29.622  33.034  1.00  0.00     0.167 HD
ATOM     51  C   UNL A   1      38.994  31.440  33.475  1.00  0.00     0.074 A 
ATOM     52  C   UNL A   1      37.802  32.232  33.254  1.00  0.00     0.031 C 
ATOM     53  C   UNL A   1      39.647  31.357  34.660  1.00  0.00     0.037 A 
BRANCH  40  54
ATOM     54  C   UNL A   1      44.558  27.605  34.590  1.00  0.00     0.057 A 
ATOM     55  C   UNL A   1      44.441  26.385  35.269  1.00  0.00     0.134 A 
ATOM     56  C   UNL A   1      45.808  28.238  34.614  1.00  0.00     0.134 A 
ATOM     57  F   UNL A   1      43.270  25.732  35.297  1.00  0.00    -0.206 F 
ATOM     58  C   UNL A   1      45.519  25.831  35.963  1.00  0.00     0.040 A 
ATOM     59  C   UNL A   1      46.900  27.679  35.279  1.00  0.00     0.040 A 
ATOM     60  F   UNL A   1      45.993  29.406  33.979  1.00  0.00    -0.206 F 
ATOM     61  C   UNL A   1      46.755  26.474  35.963  1.00  0.00     0.006 A 
ENDBRANCH  40  54
BRANCH  41  62
ATOM     62  C   UNL A   1      37.038  31.372  29.199  1.00  0.00     0.057 A 
ATOM     63  C   UNL A   1      37.046  32.683  28.711  1.00  0.00     0.134 A 
ATOM     64  C   UNL A   1      35.903  30.594  28.933  1.00  0.00     0.134 A 
ATOM     65  F   UNL A   1      38.090  33.488  28.954  1.00  0.00    -0.206 F 
ATOM     66  C   UNL A   1      35.963  33.207  28.001  1.00  0.00     0.040 A 
ATOM     67  C   UNL A   1      34.828  31.093  28.196  1.00  0.00     0.040 A 
ATOM     68  F   UNL A   1      35.830  29.329  29.371  1.00  0.00    -0.206 F 
ATOM     69  C   UNL A   1      34.853  32.406  27.735  1.00  0.00     0.006 A 
ENDBRANCH  41  62
BRANCH  53  70
ATOM     70  C   UNL A   1      39.107  32.176  35.797  1.00  0.00     0.057 A 
ATOM     71  C   UNL A   1      38.212  31.643  36.734  1.00  0.00     0.134 A 
ATOM     72  C   UNL A   1      39.511  33.506  35.971  1.00  0.00     0.134 A 
ATOM     73  F   UNL A   1      37.772  30.381  36.614  1.00  0.00    -0.206 F 
ATOM     74  C   UNL A   1      37.719  32.413  37.789  1.00  0.00     0.040 A 
ATOM     75  C   UNL A   1      39.049  34.275  37.040  1.00  0.00     0.040 A 
ATOM     76  F   UNL A   1      40.372  34.075  35.115  1.00  0.00    -0.206 F 
ATOM     77  C   UNL A   1      38.144  33.731  37.949  1.00  0.00     0.006 A 
ENDBRANCH  53  70
ENDBRANCH  27  28
ENDBRANCH  20  22
ENDBRANCH  19  20
ENDBRANCH  18  19
ENDBRANCH   1  18
TORSDOF 13
ENDMDL
