MODEL 1
REMARK VINA RESULT:     -10.4      0.000      0.000
REMARK SMILES CC[C@](C)(NC(=O)NC[C@@H](C)[NH+](C)C)C(=O)OCCOC(=O)c1ccc(-c2c3nc(c(-c4c(F)cccc4F)c4ccc([nH]4)c(-c4c(F)cccc4F)c4nc(c(-c5c(F)cccc5F)c5ccc2[nH]5)C=C4)C=C3)cc1
REMARK SMILES IDX 18 1 17 2 15 3 16 4 3 5 4 6 2 7 1 8 5 9 6 10 7 12 8 13 9 15
REMARK SMILES IDX 10 16 11 17 12 18 13 19 14 20 19 22 20 23 21 24 22 25 23 26
REMARK SMILES IDX 24 27 76 28 25 29 75 30 26 31 27 32 28 33 69 34 29 35 74 36
REMARK SMILES IDX 68 37 70 38 30 39 73 40 67 41 66 42 31 44 57 45 40 46 56 47
REMARK SMILES IDX 41 48 44 49 55 50 71 51 42 52 43 53 54 55 72 56 45 57 32 58
REMARK SMILES IDX 33 59 38 60 34 61 35 62 37 63 39 64 36 65 58 66 59 67 64 68
REMARK SMILES IDX 60 69 61 70 63 71 65 72 62 73 46 74 47 75 52 76 48 77 49 78
REMARK SMILES IDX 51 79 53 80 50 81
REMARK H PARENT 5 11 8 14 12 21 70 43 44 54
REMARK Flexibility Score: inf
ROOT
ATOM      1  C   UNL A   1      36.082  20.685  25.248  1.00  0.00     0.274 C 
ENDROOT
BRANCH   1   2
ATOM      2  O   UNL A   1      35.534  22.001  25.501  1.00  0.00    -0.460 OA
BRANCH   2   3
ATOM      3  C   UNL A   1      34.428  22.074  26.299  1.00  0.00     0.331 C 
ATOM      4  O   UNL A   1      34.383  21.568  27.414  1.00  0.00    -0.249 OA
BRANCH   3   5
ATOM      5  C   UNL A   1      33.250  22.879  25.629  1.00  0.00     0.136 C 
ATOM      6  C   UNL A   1      33.475  24.354  26.058  1.00  0.00     0.047 C 
BRANCH   5   7
ATOM      7  C   UNL A   1      31.816  22.495  26.109  1.00  0.00     0.037 C 
ATOM      8  C   UNL A   1      31.008  23.587  26.792  1.00  0.00     0.007 C 
ENDBRANCH   5   7
BRANCH   5   9
ATOM      9  N   UNL A   1      33.279  22.837  24.136  1.00  0.00    -0.322 N 
ATOM     10  C   UNL A   1      32.792  22.009  23.194  1.00  0.00     0.315 C 
ATOM     11  H   UNL A   1      33.772  23.596  23.750  1.00  0.00     0.166 HD
ATOM     12  O   UNL A   1      32.722  22.433  22.039  1.00  0.00    -0.249 OA
ATOM     13  N   UNL A   1      32.364  20.755  23.434  1.00  0.00    -0.332 N 
ATOM     14  H   UNL A   1      31.713  20.396  22.789  1.00  0.00     0.165 HD
BRANCH  13  15
ATOM     15  C   UNL A   1      32.732  19.863  24.510  1.00  0.00     0.182 C 
BRANCH  15  16
ATOM     16  C   UNL A   1      32.519  18.344  24.324  1.00  0.00     0.200 C 
ATOM     17  C   UNL A   1      32.498  18.041  22.816  1.00  0.00     0.077 C 
BRANCH  16  18
ATOM     18  N   UNL A   1      33.515  17.546  25.095  1.00  0.00    -0.336 N 
ATOM     19  C   UNL A   1      32.964  16.316  25.655  1.00  0.00     0.332 C 
ATOM     20  C   UNL A   1      34.781  17.252  24.428  1.00  0.00     0.332 C 
ATOM     21  H   UNL A   1      33.743  18.196  25.847  1.00  0.00     0.347 HD
ENDBRANCH  16  18
ENDBRANCH  15  16
ENDBRANCH  13  15
ENDBRANCH   5   9
ENDBRANCH   3   5
ENDBRANCH   2   3
ENDBRANCH   1   2
BRANCH   1  22
ATOM     22  C   UNL A   1      37.524  20.814  24.728  1.00  0.00     0.275 C 
BRANCH  22  23
ATOM     23  O   UNL A   1      38.169  21.900  25.400  1.00  0.00    -0.458 OA
BRANCH  23  24
ATOM     24  C   UNL A   1      39.244  21.482  26.107  1.00  0.00     0.338 C 
ATOM     25  O   UNL A   1      39.865  20.448  25.956  1.00  0.00    -0.246 OA
BRANCH  24  26
ATOM     26  C   UNL A   1      39.751  22.662  26.826  1.00  0.00     0.060 A 
ATOM     27  C   UNL A   1      39.132  23.882  26.536  1.00  0.00     0.016 A 
ATOM     28  C   UNL A   1      40.755  22.572  27.791  1.00  0.00     0.016 A 
ATOM     29  C   UNL A   1      39.558  25.044  27.154  1.00  0.00     0.010 A 
ATOM     30  C   UNL A   1      41.218  23.742  28.384  1.00  0.00     0.010 A 
ATOM     31  C   UNL A   1      40.664  24.979  28.005  1.00  0.00    -0.014 A 
BRANCH  31  32
ATOM     32  C   UNL A   1      41.480  26.196  28.148  1.00  0.00     0.031 A 
ATOM     33  C   UNL A   1      40.865  27.319  28.937  1.00  0.00     0.074 A 
ATOM     34  C   UNL A   1      42.729  26.263  27.666  1.00  0.00     0.049 A 
ATOM     35  N   UNL A   1      41.272  28.548  29.100  1.00  0.00    -0.248 NA
ATOM     36  C   UNL A   1      39.599  27.012  29.630  1.00  0.00     0.031 C 
ATOM     37  C   UNL A   1      43.438  25.176  26.993  1.00  0.00     0.029 A 
ATOM     38  N   UNL A   1      43.620  27.299  27.678  1.00  0.00    -0.354 N 
ATOM     39  C   UNL A   1      40.288  29.165  29.865  1.00  0.00     0.074 A 
ATOM     40  C   UNL A   1      39.264  28.187  30.132  1.00  0.00     0.031 C 
ATOM     41  C   UNL A   1      44.662  25.611  26.645  1.00  0.00     0.029 A 
ATOM     42  C   UNL A   1      44.793  27.014  27.027  1.00  0.00     0.049 A 
ATOM     43  H   UNL A   1      43.437  28.164  28.111  1.00  0.00     0.167 HD
ATOM     44  C   UNL A   1      40.250  30.445  30.298  1.00  0.00     0.037 A 
ATOM     45  C   UNL A   1      45.830  27.826  26.750  1.00  0.00     0.037 A 
ATOM     46  C   UNL A   1      41.305  31.383  30.040  1.00  0.00     0.049 A 
ATOM     47  C   UNL A   1      45.752  29.258  27.211  1.00  0.00     0.074 A 
ATOM     48  C   UNL A   1      41.389  32.714  30.393  1.00  0.00     0.029 A 
ATOM     49  N   UNL A   1      42.476  31.064  29.363  1.00  0.00    -0.354 N 
ATOM     50  N   UNL A   1      44.792  29.864  27.870  1.00  0.00    -0.248 NA
ATOM     51  C   UNL A   1      46.895  30.118  26.887  1.00  0.00     0.031 C 
ATOM     52  C   UNL A   1      42.603  33.211  29.903  1.00  0.00     0.029 A 
ATOM     53  C   UNL A   1      43.293  32.175  29.287  1.00  0.00     0.049 A 
ATOM     54  H   UNL A   1      42.691  30.178  28.993  1.00  0.00     0.167 HD
ATOM     55  C   UNL A   1      45.225  31.169  28.067  1.00  0.00     0.074 A 
ATOM     56  C   UNL A   1      46.541  31.258  27.464  1.00  0.00     0.031 C 
ATOM     57  C   UNL A   1      44.603  32.204  28.687  1.00  0.00     0.037 A 
BRANCH  44  58
ATOM     58  C   UNL A   1      39.013  30.888  31.025  1.00  0.00     0.057 A 
ATOM     59  C   UNL A   1      37.914  31.454  30.366  1.00  0.00     0.134 A 
ATOM     60  C   UNL A   1      38.940  30.780  32.421  1.00  0.00     0.134 A 
ATOM     61  F   UNL A   1      37.932  31.621  29.035  1.00  0.00    -0.206 F 
ATOM     62  C   UNL A   1      36.801  31.921  31.069  1.00  0.00     0.040 A 
ATOM     63  C   UNL A   1      37.821  31.217  33.132  1.00  0.00     0.040 A 
ATOM     64  F   UNL A   1      39.961  30.258  33.117  1.00  0.00    -0.206 F 
ATOM     65  C   UNL A   1      36.750  31.798  32.456  1.00  0.00     0.006 A 
ENDBRANCH  44  58
BRANCH  45  66
ATOM     66  C   UNL A   1      47.000  27.311  25.995  1.00  0.00     0.057 A 
ATOM     67  C   UNL A   1      47.068  27.416  24.601  1.00  0.00     0.134 A 
ATOM     68  C   UNL A   1      48.085  26.712  26.647  1.00  0.00     0.134 A 
ATOM     69  F   UNL A   1      46.054  27.962  23.915  1.00  0.00    -0.206 F 
ATOM     70  C   UNL A   1      48.166  26.934  23.883  1.00  0.00     0.040 A 
ATOM     71  C   UNL A   1      49.199  26.249  25.945  1.00  0.00     0.040 A 
ATOM     72  F   UNL A   1      48.085  26.583  27.982  1.00  0.00    -0.206 F 
ATOM     73  C   UNL A   1      49.239  26.355  24.557  1.00  0.00     0.006 A 
ENDBRANCH  45  66
BRANCH  57  74
ATOM     74  C   UNL A   1      45.370  33.486  28.785  1.00  0.00     0.057 A 
ATOM     75  C   UNL A   1      45.243  34.500  27.830  1.00  0.00     0.134 A 
ATOM     76  C   UNL A   1      46.223  33.714  29.872  1.00  0.00     0.134 A 
ATOM     77  F   UNL A   1      44.447  34.336  26.763  1.00  0.00    -0.206 F 
ATOM     78  C   UNL A   1      45.968  35.688  27.936  1.00  0.00     0.040 A 
ATOM     79  C   UNL A   1      46.931  34.907  30.002  1.00  0.00     0.040 A 
ATOM     80  F   UNL A   1      46.375  32.783  30.827  1.00  0.00    -0.206 F 
ATOM     81  C   UNL A   1      46.810  35.895  29.027  1.00  0.00     0.006 A 
ENDBRANCH  57  74
ENDBRANCH  31  32
ENDBRANCH  24  26
ENDBRANCH  23  24
ENDBRANCH  22  23
ENDBRANCH   1  22
TORSDOF 16
ENDMDL
MODEL 2
REMARK VINA RESULT:     -10.3      1.398      3.307
REMARK SMILES CC[C@](C)(NC(=O)NC[C@@H](C)[NH+](C)C)C(=O)OCCOC(=O)c1ccc(-c2c3nc(c(-c4c(F)cccc4F)c4ccc([nH]4)c(-c4c(F)cccc4F)c4nc(c(-c5c(F)cccc5F)c5ccc2[nH]5)C=C4)C=C3)cc1
REMARK SMILES IDX 18 1 17 2 15 3 16 4 3 5 4 6 2 7 1 8 5 9 6 10 7 12 8 13 9 15
REMARK SMILES IDX 10 16 11 17 12 18 13 19 14 20 19 22 20 23 21 24 22 25 23 26
REMARK SMILES IDX 24 27 76 28 25 29 75 30 26 31 27 32 28 33 69 34 29 35 74 36
REMARK SMILES IDX 68 37 70 38 30 39 73 40 67 41 66 42 31 44 57 45 40 46 56 47
REMARK SMILES IDX 41 48 44 49 55 50 71 51 42 52 43 53 54 55 72 56 45 57 32 58
REMARK SMILES IDX 33 59 38 60 34 61 35 62 37 63 39 64 36 65 58 66 59 67 64 68
REMARK SMILES IDX 60 69 61 70 63 71 65 72 62 73 46 74 47 75 52 76 48 77 49 78
REMARK SMILES IDX 51 79 53 80 50 81
REMARK H PARENT 5 11 8 14 12 21 70 43 44 54
REMARK Flexibility Score: inf
ROOT
ATOM      1  C   UNL A   1      35.628  21.612  24.562  1.00  0.00     0.274 C 
ENDROOT
BRANCH   1   2
ATOM      2  O   UNL A   1      34.596  21.345  25.541  1.00  0.00    -0.460 OA
BRANCH   2   3
ATOM      3  C   UNL A   1      33.744  22.369  25.846  1.00  0.00     0.331 C 
ATOM      4  O   UNL A   1      34.118  23.395  26.401  1.00  0.00    -0.249 OA
BRANCH   3   5
ATOM      5  C   UNL A   1      32.262  22.078  25.395  1.00  0.00     0.136 C 
ATOM      6  C   UNL A   1      32.250  20.579  24.993  1.00  0.00     0.047 C 
BRANCH   5   7
ATOM      7  C   UNL A   1      31.773  22.872  24.145  1.00  0.00     0.037 C 
ATOM      8  C   UNL A   1      32.492  22.598  22.834  1.00  0.00     0.007 C 
ENDBRANCH   5   7
BRANCH   5   9
ATOM      9  N   UNL A   1      31.264  22.257  26.493  1.00  0.00    -0.322 N 
ATOM     10  C   UNL A   1      30.434  23.242  26.878  1.00  0.00     0.315 C 
ATOM     11  H   UNL A   1      31.198  21.463  27.071  1.00  0.00     0.166 HD
ATOM     12  O   UNL A   1      29.510  22.949  27.638  1.00  0.00    -0.249 OA
ATOM     13  N   UNL A   1      30.540  24.524  26.476  1.00  0.00    -0.332 N 
ATOM     14  H   UNL A   1      29.709  25.050  26.509  1.00  0.00     0.165 HD
BRANCH  13  15
ATOM     15  C   UNL A   1      31.709  25.231  26.004  1.00  0.00     0.182 C 
BRANCH  15  16
ATOM     16  C   UNL A   1      31.570  26.718  25.610  1.00  0.00     0.200 C 
ATOM     17  C   UNL A   1      31.647  27.565  26.891  1.00  0.00     0.077 C 
BRANCH  16  18
ATOM     18  N   UNL A   1      32.553  27.107  24.559  1.00  0.00    -0.336 N 
ATOM     19  C   UNL A   1      33.097  28.449  24.741  1.00  0.00     0.332 C 
ATOM     20  C   UNL A   1      33.645  26.171  24.301  1.00  0.00     0.332 C 
ATOM     21  H   UNL A   1      31.966  27.083  23.726  1.00  0.00     0.347 HD
ENDBRANCH  16  18
ENDBRANCH  15  16
ENDBRANCH  13  15
ENDBRANCH   5   9
ENDBRANCH   3   5
ENDBRANCH   2   3
ENDBRANCH   1   2
BRANCH   1  22
ATOM     22  C   UNL A   1      36.898  20.819  24.917  1.00  0.00     0.275 C 
BRANCH  22  23
ATOM     23  O   UNL A   1      38.004  21.723  25.003  1.00  0.00    -0.458 OA
BRANCH  23  24
ATOM     24  C   UNL A   1      38.969  21.254  25.827  1.00  0.00     0.338 C 
ATOM     25  O   UNL A   1      39.536  20.181  25.758  1.00  0.00    -0.246 OA
BRANCH  24  26
ATOM     26  C   UNL A   1      39.472  22.415  26.579  1.00  0.00     0.060 A 
ATOM     27  C   UNL A   1      38.860  23.644  26.311  1.00  0.00     0.016 A 
ATOM     28  C   UNL A   1      40.465  22.299  27.552  1.00  0.00     0.016 A 
ATOM     29  C   UNL A   1      39.283  24.790  26.961  1.00  0.00     0.010 A 
ATOM     30  C   UNL A   1      40.925  23.453  28.177  1.00  0.00     0.010 A 
ATOM     31  C   UNL A   1      40.379  24.700  27.823  1.00  0.00    -0.014 A 
BRANCH  31  32
ATOM     32  C   UNL A   1      41.198  25.911  28.003  1.00  0.00     0.031 A 
ATOM     33  C   UNL A   1      40.568  27.026  28.792  1.00  0.00     0.074 A 
ATOM     34  C   UNL A   1      42.458  25.978  27.553  1.00  0.00     0.049 A 
ATOM     35  N   UNL A   1      40.977  28.250  28.983  1.00  0.00    -0.248 NA
ATOM     36  C   UNL A   1      39.284  26.716  29.450  1.00  0.00     0.031 C 
ATOM     37  C   UNL A   1      43.179  24.898  26.882  1.00  0.00     0.029 A 
ATOM     38  N   UNL A   1      43.354  27.010  27.602  1.00  0.00    -0.354 N 
ATOM     39  C   UNL A   1      39.977  28.861  29.732  1.00  0.00     0.074 A 
ATOM     40  C   UNL A   1      38.943  27.885  29.960  1.00  0.00     0.031 C 
ATOM     41  C   UNL A   1      44.412  25.331  26.570  1.00  0.00     0.029 A 
ATOM     42  C   UNL A   1      44.541  26.728  26.976  1.00  0.00     0.049 A 
ATOM     43  H   UNL A   1      43.165  27.869  28.043  1.00  0.00     0.167 HD
ATOM     44  C   UNL A   1      39.935  30.135  30.183  1.00  0.00     0.037 A 
ATOM     45  C   UNL A   1      45.589  27.538  26.736  1.00  0.00     0.037 A 
ATOM     46  C   UNL A   1      41.001  31.071  29.964  1.00  0.00     0.049 A 
ATOM     47  C   UNL A   1      45.506  28.963  27.216  1.00  0.00     0.074 A 
ATOM     48  C   UNL A   1      41.083  32.397  30.339  1.00  0.00     0.029 A 
ATOM     49  N   UNL A   1      42.186  30.756  29.312  1.00  0.00    -0.354 N 
ATOM     50  N   UNL A   1      44.533  29.566  27.860  1.00  0.00    -0.248 NA
ATOM     51  C   UNL A   1      46.661  29.823  26.932  1.00  0.00     0.031 C 
ATOM     52  C   UNL A   1      42.311  32.895  29.885  1.00  0.00     0.029 A 
ATOM     53  C   UNL A   1      43.011  31.864  29.272  1.00  0.00     0.049 A 
ATOM     54  H   UNL A   1      42.407  29.874  28.935  1.00  0.00     0.167 HD
ATOM     55  C   UNL A   1      44.967  30.865  28.085  1.00  0.00     0.074 A 
ATOM     56  C   UNL A   1      46.298  30.956  27.516  1.00  0.00     0.031 C 
ATOM     57  C   UNL A   1      44.335  31.894  28.705  1.00  0.00     0.037 A 
BRANCH  44  58
ATOM     58  C   UNL A   1      38.683  30.574  30.885  1.00  0.00     0.057 A 
ATOM     59  C   UNL A   1      38.504  30.430  32.267  1.00  0.00     0.134 A 
ATOM     60  C   UNL A   1      37.619  31.120  30.153  1.00  0.00     0.134 A 
ATOM     61  F   UNL A   1      39.468  29.882  33.023  1.00  0.00    -0.206 F 
ATOM     62  C   UNL A   1      37.305  30.784  32.891  1.00  0.00     0.040 A 
ATOM     63  C   UNL A   1      36.427  31.505  30.769  1.00  0.00     0.040 A 
ATOM     64  F   UNL A   1      37.717  31.276  28.824  1.00  0.00    -0.206 F 
ATOM     65  C   UNL A   1      36.264  31.329  32.141  1.00  0.00     0.006 A 
ENDBRANCH  44  58
BRANCH  45  66
ATOM     66  C   UNL A   1      46.774  27.028  26.003  1.00  0.00     0.057 A 
ATOM     67  C   UNL A   1      47.805  26.353  26.667  1.00  0.00     0.134 A 
ATOM     68  C   UNL A   1      46.903  27.193  24.617  1.00  0.00     0.134 A 
ATOM     69  F   UNL A   1      47.751  26.179  27.995  1.00  0.00    -0.206 F 
ATOM     70  C   UNL A   1      48.924  25.870  25.983  1.00  0.00     0.040 A 
ATOM     71  C   UNL A   1      48.004  26.693  23.918  1.00  0.00     0.040 A 
ATOM     72  F   UNL A   1      45.950  27.828  23.920  1.00  0.00    -0.206 F 
ATOM     73  C   UNL A   1      49.021  26.034  24.603  1.00  0.00     0.006 A 
ENDBRANCH  45  66
BRANCH  57  74
ATOM     74  C   UNL A   1      45.105  33.171  28.841  1.00  0.00     0.057 A 
ATOM     75  C   UNL A   1      45.018  34.193  27.891  1.00  0.00     0.134 A 
ATOM     76  C   UNL A   1      45.922  33.384  29.958  1.00  0.00     0.134 A 
ATOM     77  F   UNL A   1      44.259  34.043  26.795  1.00  0.00    -0.206 F 
ATOM     78  C   UNL A   1      45.745  35.376  28.031  1.00  0.00     0.040 A 
ATOM     79  C   UNL A   1      46.631  34.572  30.123  1.00  0.00     0.040 A 
ATOM     80  F   UNL A   1      46.035  32.444  30.910  1.00  0.00    -0.206 F 
ATOM     81  C   UNL A   1      46.550  35.569  29.152  1.00  0.00     0.006 A 
ENDBRANCH  57  74
ENDBRANCH  31  32
ENDBRANCH  24  26
ENDBRANCH  23  24
ENDBRANCH  22  23
ENDBRANCH   1  22
TORSDOF 16
ENDMDL
MODEL 3
REMARK VINA RESULT:     -10.2      4.438      9.004
REMARK SMILES CC[C@](C)(NC(=O)NC[C@@H](C)[NH+](C)C)C(=O)OCCOC(=O)c1ccc(-c2c3nc(c(-c4c(F)cccc4F)c4ccc([nH]4)c(-c4c(F)cccc4F)c4nc(c(-c5c(F)cccc5F)c5ccc2[nH]5)C=C4)C=C3)cc1
REMARK SMILES IDX 18 1 17 2 15 3 16 4 3 5 4 6 2 7 1 8 5 9 6 10 7 12 8 13 9 15
REMARK SMILES IDX 10 16 11 17 12 18 13 19 14 20 19 22 20 23 21 24 22 25 23 26
REMARK SMILES IDX 24 27 76 28 25 29 75 30 26 31 27 32 28 33 69 34 29 35 74 36
REMARK SMILES IDX 68 37 70 38 30 39 73 40 67 41 66 42 31 44 57 45 40 46 56 47
REMARK SMILES IDX 41 48 44 49 55 50 71 51 42 52 43 53 54 55 72 56 45 57 32 58
REMARK SMILES IDX 33 59 38 60 34 61 35 62 37 63 39 64 36 65 58 66 59 67 64 68
REMARK SMILES IDX 60 69 61 70 63 71 65 72 62 73 46 74 47 75 52 76 48 77 49 78
REMARK SMILES IDX 51 79 53 80 50 81
REMARK H PARENT 5 11 8 14 12 21 70 43 44 54
REMARK Flexibility Score: inf
ROOT
ATOM      1  C   UNL A   1      32.702  29.815  25.307  1.00  0.00     0.274 C 
ENDROOT
BRANCH   1   2
ATOM      2  O   UNL A   1      31.922  28.682  24.854  1.00  0.00    -0.460 OA
BRANCH   2   3
ATOM      3  C   UNL A   1      32.522  27.820  23.980  1.00  0.00     0.331 C 
ATOM      4  O   UNL A   1      33.679  27.439  24.117  1.00  0.00    -0.249 OA
BRANCH   3   5
ATOM      5  C   UNL A   1      31.562  27.379  22.811  1.00  0.00     0.136 C 
ATOM      6  C   UNL A   1      30.822  28.676  22.385  1.00  0.00     0.047 C 
BRANCH   5   7
ATOM      7  C   UNL A   1      30.456  26.350  23.202  1.00  0.00     0.037 C 
ATOM      8  C   UNL A   1      29.123  26.919  23.661  1.00  0.00     0.007 C 
ENDBRANCH   5   7
BRANCH   5   9
ATOM      9  N   UNL A   1      32.289  26.863  21.611  1.00  0.00    -0.322 N 
ATOM     10  C   UNL A   1      32.593  25.645  21.130  1.00  0.00     0.315 C 
ATOM     11  H   UNL A   1      32.624  27.588  21.036  1.00  0.00     0.166 HD
ATOM     12  O   UNL A   1      32.929  25.563  19.947  1.00  0.00    -0.249 OA
ATOM     13  N   UNL A   1      32.542  24.509  21.852  1.00  0.00    -0.332 N 
ATOM     14  H   UNL A   1      32.419  23.680  21.335  1.00  0.00     0.165 HD
BRANCH  13  15
ATOM     15  C   UNL A   1      32.641  24.341  23.284  1.00  0.00     0.182 C 
BRANCH  15  16
ATOM     16  C   UNL A   1      31.995  23.098  23.935  1.00  0.00     0.200 C 
ATOM     17  C   UNL A   1      32.686  21.845  23.373  1.00  0.00     0.077 C 
BRANCH  16  18
ATOM     18  N   UNL A   1      32.001  23.185  25.424  1.00  0.00    -0.336 N 
ATOM     19  C   UNL A   1      32.216  24.539  25.924  1.00  0.00     0.332 C 
ATOM     20  C   UNL A   1      30.869  22.582  26.123  1.00  0.00     0.332 C 
ATOM     21  H   UNL A   1      32.807  22.603  25.648  1.00  0.00     0.347 HD
ENDBRANCH  16  18
ENDBRANCH  15  16
ENDBRANCH  13  15
ENDBRANCH   5   9
ENDBRANCH   3   5
ENDBRANCH   2   3
ENDBRANCH   1   2
BRANCH   1  22
ATOM     22  C   UNL A   1      31.977  30.515  26.469  1.00  0.00     0.275 C 
BRANCH  22  23
ATOM     23  O   UNL A   1      32.866  30.614  27.584  1.00  0.00    -0.458 OA
BRANCH  23  24
ATOM     24  C   UNL A   1      33.579  31.764  27.553  1.00  0.00     0.338 C 
ATOM     25  O   UNL A   1      33.143  32.898  27.553  1.00  0.00    -0.246 OA
BRANCH  24  26
ATOM     26  C   UNL A   1      34.963  31.402  27.903  1.00  0.00     0.060 A 
ATOM     27  C   UNL A   1      35.219  30.043  28.108  1.00  0.00     0.016 A 
ATOM     28  C   UNL A   1      35.985  32.350  27.972  1.00  0.00     0.016 A 
ATOM     29  C   UNL A   1      36.489  29.618  28.456  1.00  0.00     0.010 A 
ATOM     30  C   UNL A   1      37.253  31.936  28.364  1.00  0.00     0.010 A 
ATOM     31  C   UNL A   1      37.477  30.582  28.675  1.00  0.00    -0.014 A 
BRANCH  31  32
ATOM     32  C   UNL A   1      38.563  30.237  29.608  1.00  0.00     0.031 A 
ATOM     33  C   UNL A   1      39.636  29.329  29.071  1.00  0.00     0.074 A 
ATOM     34  C   UNL A   1      38.626  30.768  30.836  1.00  0.00     0.049 A 
ATOM     35  N   UNL A   1      40.619  28.739  29.692  1.00  0.00    -0.248 NA
ATOM     36  C   UNL A   1      39.579  29.035  27.626  1.00  0.00     0.031 C 
ATOM     37  C   UNL A   1      37.690  31.746  31.388  1.00  0.00     0.029 A 
ATOM     38  N   UNL A   1      39.529  30.554  31.840  1.00  0.00    -0.354 N 
ATOM     39  C   UNL A   1      41.257  27.969  28.726  1.00  0.00     0.074 A 
ATOM     40  C   UNL A   1      40.556  28.158  27.482  1.00  0.00     0.031 C 
ATOM     41  C   UNL A   1      38.066  32.041  32.645  1.00  0.00     0.029 A 
ATOM     42  C   UNL A   1      39.233  31.235  32.993  1.00  0.00     0.049 A 
ATOM     43  H   UNL A   1      40.314  29.968  31.744  1.00  0.00     0.167 HD
ATOM     44  C   UNL A   1      42.336  27.169  28.877  1.00  0.00     0.037 A 
ATOM     45  C   UNL A   1      39.831  31.171  34.196  1.00  0.00     0.037 A 
ATOM     46  C   UNL A   1      43.030  27.030  30.125  1.00  0.00     0.049 A 
ATOM     47  C   UNL A   1      41.010  30.247  34.352  1.00  0.00     0.074 A 
ATOM     48  C   UNL A   1      44.119  26.239  30.431  1.00  0.00     0.029 A 
ATOM     49  N   UNL A   1      42.694  27.726  31.280  1.00  0.00    -0.354 N 
ATOM     50  N   UNL A   1      41.571  29.462  33.461  1.00  0.00    -0.248 NA
ATOM     51  C   UNL A   1      41.636  30.194  35.678  1.00  0.00     0.031 C 
ATOM     52  C   UNL A   1      44.424  26.434  31.784  1.00  0.00     0.029 A 
ATOM     53  C   UNL A   1      43.555  27.383  32.304  1.00  0.00     0.049 A 
ATOM     54  H   UNL A   1      41.952  28.369  31.356  1.00  0.00     0.167 HD
ATOM     55  C   UNL A   1      42.633  28.844  34.107  1.00  0.00     0.074 A 
ATOM     56  C   UNL A   1      42.641  29.357  35.464  1.00  0.00     0.031 C 
ATOM     57  C   UNL A   1      43.526  27.937  33.634  1.00  0.00     0.037 A 
BRANCH  44  58
ATOM     58  C   UNL A   1      42.766  26.361  27.687  1.00  0.00     0.057 A 
ATOM     59  C   UNL A   1      42.295  25.063  27.448  1.00  0.00     0.134 A 
ATOM     60  C   UNL A   1      43.700  26.882  26.782  1.00  0.00     0.134 A 
ATOM     61  F   UNL A   1      41.426  24.489  28.293  1.00  0.00    -0.206 F 
ATOM     62  C   UNL A   1      42.758  24.304  26.370  1.00  0.00     0.040 A 
ATOM     63  C   UNL A   1      44.149  26.144  25.685  1.00  0.00     0.040 A 
ATOM     64  F   UNL A   1      44.202  28.114  26.955  1.00  0.00    -0.206 F 
ATOM     65  C   UNL A   1      43.685  24.847  25.482  1.00  0.00     0.006 A 
ENDBRANCH  44  58
BRANCH  45  66
ATOM     66  C   UNL A   1      39.318  31.981  35.329  1.00  0.00     0.057 A 
ATOM     67  C   UNL A   1      38.405  31.450  36.247  1.00  0.00     0.134 A 
ATOM     68  C   UNL A   1      39.736  33.303  35.531  1.00  0.00     0.134 A 
ATOM     69  F   UNL A   1      37.951  30.197  36.100  1.00  0.00    -0.206 F 
ATOM     70  C   UNL A   1      37.918  32.206  37.317  1.00  0.00     0.040 A 
ATOM     71  C   UNL A   1      39.277  34.061  36.610  1.00  0.00     0.040 A 
ATOM     72  F   UNL A   1      40.612  33.872  34.690  1.00  0.00    -0.206 F 
ATOM     73  C   UNL A   1      38.360  33.514  37.503  1.00  0.00     0.006 A 
ENDBRANCH  45  66
BRANCH  57  74
ATOM     74  C   UNL A   1      44.603  27.501  34.578  1.00  0.00     0.057 A 
ATOM     75  C   UNL A   1      44.459  26.378  35.400  1.00  0.00     0.134 A 
ATOM     76  C   UNL A   1      45.814  28.203  34.637  1.00  0.00     0.134 A 
ATOM     77  F   UNL A   1      43.319  25.671  35.393  1.00  0.00    -0.206 F 
ATOM     78  C   UNL A   1      45.471  25.987  36.276  1.00  0.00     0.040 A 
ATOM     79  C   UNL A   1      46.843  27.805  35.488  1.00  0.00     0.040 A 
ATOM     80  F   UNL A   1      46.016  29.280  33.862  1.00  0.00    -0.206 F 
ATOM     81  C   UNL A   1      46.669  26.698  36.317  1.00  0.00     0.006 A 
ENDBRANCH  57  74
ENDBRANCH  31  32
ENDBRANCH  24  26
ENDBRANCH  23  24
ENDBRANCH  22  23
ENDBRANCH   1  22
TORSDOF 16
ENDMDL
