MODEL 1
REMARK VINA RESULT:     -12.0      0.000      0.000
REMARK SMILES CCc1ccc2[nH]c(C(=O)c3cc(C)ccn3)c(CC(=O)OCCOC(=O)c3ccc(-c4c5nc(c(-c6c(F)cccc6F)c6ccc([nH]6)c(-c6c(F)cccc6F)c6nc(c(-c7c(F)cccc7F)c7ccc4[nH]7)C=C6)C=C5)cc3)c2c1
REMARK SMILES IDX 23 1 22 2 20 3 21 4 19 5 18 6 3 7 4 8 83 9 5 10 82 11 6 12
REMARK SMILES IDX 7 13 8 14 2 16 1 17 9 18 10 19 11 20 12 21 17 22 13 23 16 24
REMARK SMILES IDX 14 25 15 26 24 27 25 28 26 29 27 30 28 31 29 32 81 33 30 34
REMARK SMILES IDX 80 35 31 36 32 37 33 38 74 39 34 40 79 41 73 42 75 43 35 44
REMARK SMILES IDX 78 45 72 46 71 47 36 49 62 50 45 51 61 52 46 53 49 54 60 55
REMARK SMILES IDX 76 56 47 57 48 58 59 60 77 61 50 62 37 63 38 64 43 65 39 66
REMARK SMILES IDX 40 67 42 68 44 69 41 70 63 71 64 72 69 73 65 74 66 75 68 76
REMARK SMILES IDX 70 77 67 78 51 79 52 80 57 81 53 82 54 83 56 84 58 85 55 86
REMARK H PARENT 7 15 75 48 49 59
REMARK Flexibility Score: inf
ROOT
ATOM      1  C   UNL A   1      37.907  20.357  24.940  1.00  0.00     0.274 C 
ENDROOT
BRANCH   1   2
ATOM      2  O   UNL A   1      37.245  21.593  24.599  1.00  0.00    -0.462 OA
BRANCH   2   3
ATOM      3  C   UNL A   1      36.577  22.199  25.617  1.00  0.00     0.310 C 
ATOM      4  O   UNL A   1      36.869  23.304  26.072  1.00  0.00    -0.252 OA
BRANCH   3   5
ATOM      5  C   UNL A   1      35.377  21.438  26.137  1.00  0.00     0.161 C 
BRANCH   5   6
ATOM      6  C   UNL A   1      34.211  21.287  25.205  1.00  0.00     0.000 A 
ATOM      7  C   UNL A   1      33.814  17.727  23.875  1.00  0.00    -0.048 A 
ATOM      8  C   UNL A   1      32.629  17.986  23.171  1.00  0.00     0.006 A 
ATOM      9  C   UNL A   1      34.481  18.796  24.488  1.00  0.00     0.014 A 
ATOM     10  C   UNL A   1      32.067  19.270  23.109  1.00  0.00     0.027 A 
ATOM     11  C   UNL A   1      33.896  20.078  24.509  1.00  0.00     0.004 A 
ATOM     12  C   UNL A   1      32.712  20.289  23.816  1.00  0.00     0.046 A 
ATOM     13  N   UNL A   1      32.368  21.608  24.007  1.00  0.00    -0.352 N 
ATOM     14  C   UNL A   1      33.143  22.163  25.006  1.00  0.00     0.093 A 
ATOM     15  H   UNL A   1      31.670  22.086  23.504  1.00  0.00     0.167 HD
BRANCH   7  16
ATOM     16  C   UNL A   1      34.347  16.313  23.948  1.00  0.00     0.032 C 
ATOM     17  C   UNL A   1      35.104  15.970  25.230  1.00  0.00     0.009 C 
ENDBRANCH   7  16
BRANCH  14  18
ATOM     18  C   UNL A   1      32.809  23.370  25.747  1.00  0.00     0.227 C 
ATOM     19  O   UNL A   1      32.245  23.350  26.839  1.00  0.00    -0.285 OA
BRANCH  18  20
ATOM     20  C   UNL A   1      33.031  24.702  25.136  1.00  0.00     0.113 A 
ATOM     21  C   UNL A   1      33.298  25.796  25.952  1.00  0.00     0.036 A 
ATOM     22  N   UNL A   1      33.065  24.739  23.785  1.00  0.00    -0.253 NA
ATOM     23  C   UNL A   1      33.621  27.010  25.340  1.00  0.00    -0.047 A 
ATOM     24  C   UNL A   1      33.431  25.905  23.221  1.00  0.00     0.112 A 
ATOM     25  C   UNL A   1      33.919  28.235  26.150  1.00  0.00     0.044 C 
ATOM     26  C   UNL A   1      33.714  27.053  23.946  1.00  0.00     0.023 A 
ENDBRANCH  18  20
ENDBRANCH  14  18
ENDBRANCH   5   6
ENDBRANCH   3   5
ENDBRANCH   2   3
ENDBRANCH   1   2
BRANCH   1  27
ATOM     27  C   UNL A   1      39.188  20.627  25.724  1.00  0.00     0.275 C 
BRANCH  27  28
ATOM     28  O   UNL A   1      39.983  19.431  25.779  1.00  0.00    -0.458 OA
BRANCH  28  29
ATOM     29  C   UNL A   1      41.314  19.635  25.905  1.00  0.00     0.338 C 
ATOM     30  O   UNL A   1      42.203  18.831  25.654  1.00  0.00    -0.246 OA
BRANCH  29  31
ATOM     31  C   UNL A   1      41.580  20.972  26.466  1.00  0.00     0.060 A 
ATOM     32  C   UNL A   1      42.039  22.022  25.671  1.00  0.00     0.016 A 
ATOM     33  C   UNL A   1      41.451  21.148  27.845  1.00  0.00     0.016 A 
ATOM     34  C   UNL A   1      42.455  23.214  26.264  1.00  0.00     0.010 A 
ATOM     35  C   UNL A   1      41.765  22.380  28.422  1.00  0.00     0.010 A 
ATOM     36  C   UNL A   1      42.297  23.420  27.643  1.00  0.00    -0.014 A 
BRANCH  36  37
ATOM     37  C   UNL A   1      42.669  24.716  28.272  1.00  0.00     0.031 A 
ATOM     38  C   UNL A   1      41.633  25.779  28.518  1.00  0.00     0.074 A 
ATOM     39  C   UNL A   1      43.954  24.956  28.603  1.00  0.00     0.049 A 
ATOM     40  N   UNL A   1      41.800  27.029  28.875  1.00  0.00    -0.248 NA
ATOM     41  C   UNL A   1      40.227  25.392  28.326  1.00  0.00     0.031 C 
ATOM     42  C   UNL A   1      45.058  24.006  28.457  1.00  0.00     0.029 A 
ATOM     43  N   UNL A   1      44.547  26.073  29.136  1.00  0.00    -0.354 N 
ATOM     44  C   UNL A   1      40.529  27.591  28.900  1.00  0.00     0.074 A 
ATOM     45  C   UNL A   1      39.600  26.545  28.521  1.00  0.00     0.031 C 
ATOM     46  C   UNL A   1      46.183  24.561  28.933  1.00  0.00     0.029 A 
ATOM     47  C   UNL A   1      45.897  25.934  29.335  1.00  0.00     0.049 A 
ATOM     48  H   UNL A   1      44.050  26.894  29.355  1.00  0.00     0.167 HD
ATOM     49  C   UNL A   1      40.172  28.861  29.210  1.00  0.00     0.037 A 
ATOM     50  C   UNL A   1      46.818  26.819  29.759  1.00  0.00     0.037 A 
ATOM     51  C   UNL A   1      41.088  29.886  29.641  1.00  0.00     0.049 A 
ATOM     52  C   UNL A   1      46.406  28.228  30.055  1.00  0.00     0.074 A 
ATOM     53  C   UNL A   1      40.813  31.193  30.007  1.00  0.00     0.029 A 
ATOM     54  N   UNL A   1      42.458  29.716  29.779  1.00  0.00    -0.354 N 
ATOM     55  N   UNL A   1      45.211  28.763  30.018  1.00  0.00    -0.248 NA
ATOM     56  C   UNL A   1      47.477  29.165  30.423  1.00  0.00     0.031 C 
ATOM     57  C   UNL A   1      42.020  31.822  30.340  1.00  0.00     0.029 A 
ATOM     58  C   UNL A   1      43.041  30.897  30.211  1.00  0.00     0.049 A 
ATOM     59  H   UNL A   1      42.943  28.878  29.599  1.00  0.00     0.167 HD
ATOM     60  C   UNL A   1      45.381  30.096  30.363  1.00  0.00     0.074 A 
ATOM     61  C   UNL A   1      46.795  30.285  30.620  1.00  0.00     0.031 C 
ATOM     62  C   UNL A   1      44.449  31.074  30.455  1.00  0.00     0.037 A 
BRANCH  49  63
ATOM     63  C   UNL A   1      38.724  29.226  29.067  1.00  0.00     0.057 A 
ATOM     64  C   UNL A   1      38.167  29.594  27.837  1.00  0.00     0.134 A 
ATOM     65  C   UNL A   1      37.867  29.166  30.174  1.00  0.00     0.134 A 
ATOM     66  F   UNL A   1      38.935  29.681  26.741  1.00  0.00    -0.206 F 
ATOM     67  C   UNL A   1      36.812  29.909  27.716  1.00  0.00     0.040 A 
ATOM     68  C   UNL A   1      36.507  29.460  30.061  1.00  0.00     0.040 A 
ATOM     69  F   UNL A   1      38.336  28.813  31.380  1.00  0.00    -0.206 F 
ATOM     70  C   UNL A   1      35.976  29.838  28.830  1.00  0.00     0.006 A 
ENDBRANCH  49  63
BRANCH  50  71
ATOM     71  C   UNL A   1      48.231  26.393  29.902  1.00  0.00     0.057 A 
ATOM     72  C   UNL A   1      48.690  25.831  31.097  1.00  0.00     0.134 A 
ATOM     73  C   UNL A   1      49.141  26.508  28.844  1.00  0.00     0.134 A 
ATOM     74  F   UNL A   1      47.867  25.717  32.149  1.00  0.00    -0.206 F 
ATOM     75  C   UNL A   1      50.007  25.393  31.236  1.00  0.00     0.040 A 
ATOM     76  C   UNL A   1      50.454  26.055  28.962  1.00  0.00     0.040 A 
ATOM     77  F   UNL A   1      48.756  27.038  27.674  1.00  0.00    -0.206 F 
ATOM     78  C   UNL A   1      50.891  25.496  30.163  1.00  0.00     0.006 A 
ENDBRANCH  50  71
BRANCH  62  79
ATOM     79  C   UNL A   1      44.933  32.430  30.869  1.00  0.00     0.057 A 
ATOM     80  C   UNL A   1      45.061  32.782  32.218  1.00  0.00     0.134 A 
ATOM     81  C   UNL A   1      45.278  33.390  29.910  1.00  0.00     0.134 A 
ATOM     82  F   UNL A   1      44.728  31.911  33.182  1.00  0.00    -0.206 F 
ATOM     83  C   UNL A   1      45.500  34.051  32.600  1.00  0.00     0.040 A 
ATOM     84  C   UNL A   1      45.734  34.655  30.279  1.00  0.00     0.040 A 
ATOM     85  F   UNL A   1      45.177  33.112  28.602  1.00  0.00    -0.206 F 
ATOM     86  C   UNL A   1      45.841  34.990  31.628  1.00  0.00     0.006 A 
ENDBRANCH  62  79
ENDBRANCH  36  37
ENDBRANCH  29  31
ENDBRANCH  28  29
ENDBRANCH  27  28
ENDBRANCH   1  27
TORSDOF 15
ENDMDL
MODEL 2
REMARK VINA RESULT:     -12.0      3.291      7.694
REMARK SMILES CCc1ccc2[nH]c(C(=O)c3cc(C)ccn3)c(CC(=O)OCCOC(=O)c3ccc(-c4c5nc(c(-c6c(F)cccc6F)c6ccc([nH]6)c(-c6c(F)cccc6F)c6nc(c(-c7c(F)cccc7F)c7ccc4[nH]7)C=C6)C=C5)cc3)c2c1
REMARK SMILES IDX 23 1 22 2 20 3 21 4 19 5 18 6 3 7 4 8 83 9 5 10 82 11 6 12
REMARK SMILES IDX 7 13 8 14 2 16 1 17 9 18 10 19 11 20 12 21 17 22 13 23 16 24
REMARK SMILES IDX 14 25 15 26 24 27 25 28 26 29 27 30 28 31 29 32 81 33 30 34
REMARK SMILES IDX 80 35 31 36 32 37 33 38 74 39 34 40 79 41 73 42 75 43 35 44
REMARK SMILES IDX 78 45 72 46 71 47 36 49 62 50 45 51 61 52 46 53 49 54 60 55
REMARK SMILES IDX 76 56 47 57 48 58 59 60 77 61 50 62 37 63 38 64 43 65 39 66
REMARK SMILES IDX 40 67 42 68 44 69 41 70 63 71 64 72 69 73 65 74 66 75 68 76
REMARK SMILES IDX 70 77 67 78 51 79 52 80 57 81 53 82 54 83 56 84 58 85 55 86
REMARK H PARENT 7 15 75 48 49 59
REMARK Flexibility Score: inf
ROOT
ATOM      1  C   UNL A   1      32.764  29.949  26.649  1.00  0.00     0.274 C 
ENDROOT
BRANCH   1   2
ATOM      2  O   UNL A   1      32.257  28.817  27.387  1.00  0.00    -0.462 OA
BRANCH   2   3
ATOM      3  C   UNL A   1      32.469  27.603  26.813  1.00  0.00     0.310 C 
ATOM      4  O   UNL A   1      31.658  26.677  26.841  1.00  0.00    -0.252 OA
BRANCH   3   5
ATOM      5  C   UNL A   1      33.776  27.467  26.063  1.00  0.00     0.161 C 
BRANCH   5   6
ATOM      6  C   UNL A   1      33.755  26.655  24.803  1.00  0.00     0.000 A 
ATOM      7  C   UNL A   1      34.647  22.983  25.377  1.00  0.00    -0.048 A 
ATOM      8  C   UNL A   1      34.424  22.590  24.050  1.00  0.00     0.006 A 
ATOM      9  C   UNL A   1      34.563  24.345  25.699  1.00  0.00     0.014 A 
ATOM     10  C   UNL A   1      34.070  23.510  23.052  1.00  0.00     0.027 A 
ATOM     11  C   UNL A   1      34.131  25.277  24.734  1.00  0.00     0.004 A 
ATOM     12  C   UNL A   1      33.903  24.843  23.435  1.00  0.00     0.046 A 
ATOM     13  N   UNL A   1      33.492  25.942  22.715  1.00  0.00    -0.352 N 
ATOM     14  C   UNL A   1      33.198  26.988  23.567  1.00  0.00     0.093 A 
ATOM     15  H   UNL A   1      33.418  25.976  21.734  1.00  0.00     0.167 HD
BRANCH   7  16
ATOM     16  C   UNL A   1      34.978  21.941  26.422  1.00  0.00     0.032 C 
ATOM     17  C   UNL A   1      33.986  21.843  27.579  1.00  0.00     0.009 C 
ENDBRANCH   7  16
BRANCH  14  18
ATOM     18  C   UNL A   1      32.374  28.137  23.223  1.00  0.00     0.227 C 
ATOM     19  O   UNL A   1      32.846  29.230  22.912  1.00  0.00    -0.285 OA
BRANCH  18  20
ATOM     20  C   UNL A   1      30.901  28.063  23.363  1.00  0.00     0.113 A 
ATOM     21  C   UNL A   1      30.125  29.177  23.060  1.00  0.00     0.036 A 
ATOM     22  N   UNL A   1      30.393  26.851  23.681  1.00  0.00    -0.253 NA
ATOM     23  C   UNL A   1      28.735  29.037  23.085  1.00  0.00    -0.047 A 
ATOM     24  C   UNL A   1      29.053  26.728  23.646  1.00  0.00     0.112 A 
ATOM     25  C   UNL A   1      27.831  30.191  22.773  1.00  0.00     0.044 C 
ATOM     26  C   UNL A   1      28.194  27.778  23.359  1.00  0.00     0.023 A 
ENDBRANCH  18  20
ENDBRANCH  14  18
ENDBRANCH   5   6
ENDBRANCH   3   5
ENDBRANCH   2   3
ENDBRANCH   1   2
BRANCH   1  27
ATOM     27  C   UNL A   1      33.690  30.792  27.520  1.00  0.00     0.275 C 
BRANCH  27  28
ATOM     28  O   UNL A   1      34.742  29.966  28.049  1.00  0.00    -0.458 OA
BRANCH  28  29
ATOM     29  C   UNL A   1      35.555  30.577  28.940  1.00  0.00     0.338 C 
ATOM     30  O   UNL A   1      35.264  31.518  29.667  1.00  0.00    -0.246 OA
BRANCH  29  31
ATOM     31  C   UNL A   1      36.909  29.998  28.884  1.00  0.00     0.060 A 
ATOM     32  C   UNL A   1      37.569  29.566  30.035  1.00  0.00     0.016 A 
ATOM     33  C   UNL A   1      37.568  29.972  27.654  1.00  0.00     0.016 A 
ATOM     34  C   UNL A   1      38.912  29.197  29.970  1.00  0.00     0.010 A 
ATOM     35  C   UNL A   1      38.879  29.498  27.575  1.00  0.00     0.010 A 
ATOM     36  C   UNL A   1      39.577  29.131  28.737  1.00  0.00    -0.014 A 
BRANCH  36  37
ATOM     37  C   UNL A   1      40.989  28.667  28.650  1.00  0.00     0.031 A 
ATOM     38  C   UNL A   1      42.129  29.617  28.895  1.00  0.00     0.074 A 
ATOM     39  C   UNL A   1      41.254  27.387  28.321  1.00  0.00     0.049 A 
ATOM     40  N   UNL A   1      43.410  29.445  28.680  1.00  0.00    -0.248 NA
ATOM     41  C   UNL A   1      41.786  30.939  29.443  1.00  0.00     0.031 C 
ATOM     42  C   UNL A   1      40.251  26.345  28.091  1.00  0.00     0.029 A 
ATOM     43  N   UNL A   1      42.450  26.743  28.128  1.00  0.00    -0.354 N 
ATOM     44  C   UNL A   1      44.019  30.648  29.015  1.00  0.00     0.074 A 
ATOM     45  C   UNL A   1      42.966  31.545  29.448  1.00  0.00     0.031 C 
ATOM     46  C   UNL A   1      40.872  25.185  27.835  1.00  0.00     0.029 A 
ATOM     47  C   UNL A   1      42.311  25.418  27.797  1.00  0.00     0.049 A 
ATOM     48  H   UNL A   1      43.323  27.189  28.218  1.00  0.00     0.167 HD
ATOM     49  C   UNL A   1      45.334  30.974  28.965  1.00  0.00     0.037 A 
ATOM     50  C   UNL A   1      43.232  24.496  27.462  1.00  0.00     0.037 A 
ATOM     51  C   UNL A   1      46.387  30.066  28.588  1.00  0.00     0.049 A 
ATOM     52  C   UNL A   1      44.674  24.891  27.373  1.00  0.00     0.074 A 
ATOM     53  C   UNL A   1      47.752  30.299  28.537  1.00  0.00     0.029 A 
ATOM     54  N   UNL A   1      46.196  28.746  28.209  1.00  0.00    -0.354 N 
ATOM     55  N   UNL A   1      45.230  26.047  27.635  1.00  0.00    -0.248 NA
ATOM     56  C   UNL A   1      45.613  23.859  26.911  1.00  0.00     0.031 C 
ATOM     57  C   UNL A   1      48.383  29.127  28.103  1.00  0.00     0.029 A 
ATOM     58  C   UNL A   1      47.414  28.156  27.911  1.00  0.00     0.049 A 
ATOM     59  H   UNL A   1      45.322  28.294  28.161  1.00  0.00     0.167 HD
ATOM     60  C   UNL A   1      46.583  25.884  27.377  1.00  0.00     0.074 A 
ATOM     61  C   UNL A   1      46.767  24.511  26.952  1.00  0.00     0.031 C 
ATOM     62  C   UNL A   1      47.582  26.792  27.482  1.00  0.00     0.037 A 
BRANCH  49  63
ATOM     63  C   UNL A   1      45.708  32.387  29.300  1.00  0.00     0.057 A 
ATOM     64  C   UNL A   1      46.064  32.775  30.596  1.00  0.00     0.134 A 
ATOM     65  C   UNL A   1      45.754  33.364  28.296  1.00  0.00     0.134 A 
ATOM     66  F   UNL A   1      46.031  31.892  31.605  1.00  0.00    -0.206 F 
ATOM     67  C   UNL A   1      46.432  34.091  30.888  1.00  0.00     0.040 A 
ATOM     68  C   UNL A   1      46.139  34.677  28.571  1.00  0.00     0.040 A 
ATOM     69  F   UNL A   1      45.432  33.055  27.030  1.00  0.00    -0.206 F 
ATOM     70  C   UNL A   1      46.475  35.045  29.872  1.00  0.00     0.006 A 
ENDBRANCH  49  63
BRANCH  50  71
ATOM     71  C   UNL A   1      42.803  23.109  27.162  1.00  0.00     0.057 A 
ATOM     72  C   UNL A   1      42.584  22.190  28.193  1.00  0.00     0.134 A 
ATOM     73  C   UNL A   1      42.572  22.682  25.849  1.00  0.00     0.134 A 
ATOM     74  F   UNL A   1      42.811  22.538  29.468  1.00  0.00    -0.206 F 
ATOM     75  C   UNL A   1      42.146  20.892  27.929  1.00  0.00     0.040 A 
ATOM     76  C   UNL A   1      42.113  21.394  25.573  1.00  0.00     0.040 A 
ATOM     77  F   UNL A   1      42.763  23.520  24.820  1.00  0.00    -0.206 F 
ATOM     78  C   UNL A   1      41.901  20.494  26.616  1.00  0.00     0.006 A 
ENDBRANCH  50  71
BRANCH  62  79
ATOM     79  C   UNL A   1      48.963  26.318  27.147  1.00  0.00     0.057 A 
ATOM     80  C   UNL A   1      49.457  26.366  25.838  1.00  0.00     0.134 A 
ATOM     81  C   UNL A   1      49.807  25.814  28.143  1.00  0.00     0.134 A 
ATOM     82  F   UNL A   1      48.688  26.823  24.837  1.00  0.00    -0.206 F 
ATOM     83  C   UNL A   1      50.740  25.912  25.527  1.00  0.00     0.040 A 
ATOM     84  C   UNL A   1      51.098  25.372  27.848  1.00  0.00     0.040 A 
ATOM     85  F   UNL A   1      49.391  25.742  29.416  1.00  0.00    -0.206 F 
ATOM     86  C   UNL A   1      51.565  25.416  26.535  1.00  0.00     0.006 A 
ENDBRANCH  62  79
ENDBRANCH  36  37
ENDBRANCH  29  31
ENDBRANCH  28  29
ENDBRANCH  27  28
ENDBRANCH   1  27
TORSDOF 15
ENDMDL
MODEL 3
REMARK VINA RESULT:     -11.9      0.941      4.112
REMARK SMILES CCc1ccc2[nH]c(C(=O)c3cc(C)ccn3)c(CC(=O)OCCOC(=O)c3ccc(-c4c5nc(c(-c6c(F)cccc6F)c6ccc([nH]6)c(-c6c(F)cccc6F)c6nc(c(-c7c(F)cccc7F)c7ccc4[nH]7)C=C6)C=C5)cc3)c2c1
REMARK SMILES IDX 23 1 22 2 20 3 21 4 19 5 18 6 3 7 4 8 83 9 5 10 82 11 6 12
REMARK SMILES IDX 7 13 8 14 2 16 1 17 9 18 10 19 11 20 12 21 17 22 13 23 16 24
REMARK SMILES IDX 14 25 15 26 24 27 25 28 26 29 27 30 28 31 29 32 81 33 30 34
REMARK SMILES IDX 80 35 31 36 32 37 33 38 74 39 34 40 79 41 73 42 75 43 35 44
REMARK SMILES IDX 78 45 72 46 71 47 36 49 62 50 45 51 61 52 46 53 49 54 60 55
REMARK SMILES IDX 76 56 47 57 48 58 59 60 77 61 50 62 37 63 38 64 43 65 39 66
REMARK SMILES IDX 40 67 42 68 44 69 41 70 63 71 64 72 69 73 65 74 66 75 68 76
REMARK SMILES IDX 70 77 67 78 51 79 52 80 57 81 53 82 54 83 56 84 58 85 55 86
REMARK H PARENT 7 15 75 48 49 59
REMARK Flexibility Score: inf
ROOT
ATOM      1  C   UNL A   1      38.176  21.245  25.361  1.00  0.00     0.274 C 
ENDROOT
BRANCH   1   2
ATOM      2  O   UNL A   1      37.090  21.461  24.436  1.00  0.00    -0.462 OA
BRANCH   2   3
ATOM      3  C   UNL A   1      35.894  21.780  25.000  1.00  0.00     0.310 C 
ATOM      4  O   UNL A   1      35.492  21.318  26.067  1.00  0.00    -0.252 OA
BRANCH   3   5
ATOM      5  C   UNL A   1      35.085  22.812  24.247  1.00  0.00     0.161 C 
BRANCH   5   6
ATOM      6  C   UNL A   1      33.691  23.072  24.735  1.00  0.00     0.000 A 
ATOM      7  C   UNL A   1      33.219  26.610  26.100  1.00  0.00    -0.048 A 
ATOM      8  C   UNL A   1      31.844  26.471  26.338  1.00  0.00     0.006 A 
ATOM      9  C   UNL A   1      33.946  25.489  25.675  1.00  0.00     0.014 A 
ATOM     10  C   UNL A   1      31.169  25.262  26.114  1.00  0.00     0.027 A 
ATOM     11  C   UNL A   1      33.278  24.286  25.366  1.00  0.00     0.004 A 
ATOM     12  C   UNL A   1      31.912  24.196  25.598  1.00  0.00     0.046 A 
ATOM     13  N   UNL A   1      31.525  22.934  25.209  1.00  0.00    -0.352 N 
ATOM     14  C   UNL A   1      32.537  22.323  24.496  1.00  0.00     0.093 A 
ATOM     15  H   UNL A   1      30.651  22.527  25.409  1.00  0.00     0.167 HD
BRANCH   7  16
ATOM     16  C   UNL A   1      33.885  27.951  26.313  1.00  0.00     0.032 C 
ATOM     17  C   UNL A   1      33.600  28.996  25.236  1.00  0.00     0.009 C 
ENDBRANCH   7  16
BRANCH  14  18
ATOM     18  C   UNL A   1      32.360  21.189  23.603  1.00  0.00     0.227 C 
ATOM     19  O   UNL A   1      31.922  21.300  22.459  1.00  0.00    -0.285 OA
BRANCH  18  20
ATOM     20  C   UNL A   1      32.590  19.811  24.096  1.00  0.00     0.113 A 
ATOM     21  C   UNL A   1      33.172  18.868  23.256  1.00  0.00     0.036 A 
ATOM     22  N   UNL A   1      32.309  19.591  25.400  1.00  0.00    -0.253 NA
ATOM     23  C   UNL A   1      33.486  17.615  23.789  1.00  0.00    -0.047 A 
ATOM     24  C   UNL A   1      32.670  18.396  25.904  1.00  0.00     0.112 A 
ATOM     25  C   UNL A   1      34.112  16.545  22.947  1.00  0.00     0.044 C 
ATOM     26  C   UNL A   1      33.252  17.389  25.149  1.00  0.00     0.023 A 
ENDBRANCH  18  20
ENDBRANCH  14  18
ENDBRANCH   5   6
ENDBRANCH   3   5
ENDBRANCH   2   3
ENDBRANCH   1   2
BRANCH   1  27
ATOM     27  C   UNL A   1      38.918  19.953  25.033  1.00  0.00     0.275 C 
BRANCH  27  28
ATOM     28  O   UNL A   1      39.772  19.593  26.132  1.00  0.00    -0.458 OA
BRANCH  28  29
ATOM     29  C   UNL A   1      41.095  19.768  25.909  1.00  0.00     0.338 C 
ATOM     30  O   UNL A   1      41.841  19.003  25.313  1.00  0.00    -0.246 OA
BRANCH  29  31
ATOM     31  C   UNL A   1      41.567  21.008  26.553  1.00  0.00     0.060 A 
ATOM     32  C   UNL A   1      41.560  21.161  27.939  1.00  0.00     0.016 A 
ATOM     33  C   UNL A   1      41.940  22.077  25.736  1.00  0.00     0.016 A 
ATOM     34  C   UNL A   1      41.837  22.406  28.503  1.00  0.00     0.010 A 
ATOM     35  C   UNL A   1      42.322  23.291  26.309  1.00  0.00     0.010 A 
ATOM     36  C   UNL A   1      42.248  23.480  27.699  1.00  0.00    -0.014 A 
BRANCH  36  37
ATOM     37  C   UNL A   1      42.617  24.791  28.300  1.00  0.00     0.031 A 
ATOM     38  C   UNL A   1      41.573  25.844  28.552  1.00  0.00     0.074 A 
ATOM     39  C   UNL A   1      43.905  25.052  28.598  1.00  0.00     0.049 A 
ATOM     40  N   UNL A   1      41.730  27.101  28.886  1.00  0.00    -0.248 NA
ATOM     41  C   UNL A   1      40.168  25.437  28.398  1.00  0.00     0.031 C 
ATOM     42  C   UNL A   1      45.019  24.114  28.442  1.00  0.00     0.029 A 
ATOM     43  N   UNL A   1      44.495  26.185  29.101  1.00  0.00    -0.354 N 
ATOM     44  C   UNL A   1      40.454  27.647  28.931  1.00  0.00     0.074 A 
ATOM     45  C   UNL A   1      39.530  26.584  28.589  1.00  0.00     0.031 C 
ATOM     46  C   UNL A   1      46.146  24.692  28.884  1.00  0.00     0.029 A 
ATOM     47  C   UNL A   1      45.851  26.066  29.271  1.00  0.00     0.049 A 
ATOM     48  H   UNL A   1      43.993  27.003  29.317  1.00  0.00     0.167 HD
ATOM     49  C   UNL A   1      40.087  28.918  29.229  1.00  0.00     0.037 A 
ATOM     50  C   UNL A   1      46.770  26.969  29.660  1.00  0.00     0.037 A 
ATOM     51  C   UNL A   1      40.999  29.961  29.624  1.00  0.00     0.049 A 
ATOM     52  C   UNL A   1      46.346  28.378  29.944  1.00  0.00     0.074 A 
ATOM     53  C   UNL A   1      40.715  31.270  29.975  1.00  0.00     0.029 A 
ATOM     54  N   UNL A   1      42.373  29.810  29.733  1.00  0.00    -0.354 N 
ATOM     55  N   UNL A   1      45.143  28.897  29.925  1.00  0.00    -0.248 NA
ATOM     56  C   UNL A   1      47.412  29.335  30.273  1.00  0.00     0.031 C 
ATOM     57  C   UNL A   1      41.920  31.919  30.271  1.00  0.00     0.029 A 
ATOM     58  C   UNL A   1      42.951  31.005  30.133  1.00  0.00     0.049 A 
ATOM     59  H   UNL A   1      42.865  28.977  29.555  1.00  0.00     0.167 HD
ATOM     60  C   UNL A   1      45.304  30.237  30.246  1.00  0.00     0.074 A 
ATOM     61  C   UNL A   1      46.720  30.448  30.468  1.00  0.00     0.031 C 
ATOM     62  C   UNL A   1      44.361  31.205  30.343  1.00  0.00     0.037 A 
BRANCH  49  63
ATOM     63  C   UNL A   1      38.632  29.262  29.113  1.00  0.00     0.057 A 
ATOM     64  C   UNL A   1      37.774  29.256  30.218  1.00  0.00     0.134 A 
ATOM     65  C   UNL A   1      38.093  29.646  27.877  1.00  0.00     0.134 A 
ATOM     66  F   UNL A   1      38.224  28.888  31.427  1.00  0.00    -0.206 F 
ATOM     67  C   UNL A   1      36.425  29.601  30.096  1.00  0.00     0.040 A 
ATOM     68  C   UNL A   1      36.752  30.012  27.747  1.00  0.00     0.040 A 
ATOM     69  F   UNL A   1      38.863  29.681  26.779  1.00  0.00    -0.206 F 
ATOM     70  C   UNL A   1      35.913  29.985  28.858  1.00  0.00     0.006 A 
ENDBRANCH  49  63
BRANCH  50  71
ATOM     71  C   UNL A   1      48.191  26.565  29.778  1.00  0.00     0.057 A 
ATOM     72  C   UNL A   1      49.081  26.765  28.719  1.00  0.00     0.134 A 
ATOM     73  C   UNL A   1      48.696  26.002  30.956  1.00  0.00     0.134 A 
ATOM     74  F   UNL A   1      48.647  27.279  27.560  1.00  0.00    -0.206 F 
ATOM     75  C   UNL A   1      50.429  26.421  28.827  1.00  0.00     0.040 A 
ATOM     76  C   UNL A   1      50.045  25.674  31.086  1.00  0.00     0.040 A 
ATOM     77  F   UNL A   1      47.889  25.788  32.006  1.00  0.00    -0.206 F 
ATOM     78  C   UNL A   1      50.916  25.883  30.017  1.00  0.00     0.006 A 
ENDBRANCH  50  71
BRANCH  62  79
ATOM     79  C   UNL A   1      44.836  32.573  30.725  1.00  0.00     0.057 A 
ATOM     80  C   UNL A   1      45.173  33.528  29.758  1.00  0.00     0.134 A 
ATOM     81  C   UNL A   1      44.953  32.940  32.070  1.00  0.00     0.134 A 
ATOM     82  F   UNL A   1      45.099  33.229  28.452  1.00  0.00    -0.206 F 
ATOM     83  C   UNL A   1      45.627  34.798  30.117  1.00  0.00     0.040 A 
ATOM     84  C   UNL A   1      45.390  34.212  32.442  1.00  0.00     0.040 A 
ATOM     85  F   UNL A   1      44.645  32.069  33.043  1.00  0.00    -0.206 F 
ATOM     86  C   UNL A   1      45.733  35.143  31.463  1.00  0.00     0.006 A 
ENDBRANCH  62  79
ENDBRANCH  36  37
ENDBRANCH  29  31
ENDBRANCH  28  29
ENDBRANCH  27  28
ENDBRANCH   1  27
TORSDOF 15
ENDMDL
