MODEL 1
REMARK VINA RESULT:     -11.8      0.000      0.000
REMARK SMILES COc1cccc([C@@H]2C[N@@H+](Cc3nccn3C)C[C@H]2C(=O)OCCOC(=O)c2ccc(-c3c4nc(c(-c5c(F)cccc5F)c5ccc([nH]5)c(-c5c(F)cccc5F)c5nc(c(-c6c(F)cccc6F)c6ccc3[nH]6)C=C5)C=C4)cc2)c1
REMARK SMILES IDX 23 1 22 2 20 3 21 4 19 5 8 6 9 7 10 8 18 9 7 11 3 12 4 13
REMARK SMILES IDX 82 14 5 15 6 16 2 17 1 18 11 19 12 20 13 21 16 22 14 23
REMARK SMILES IDX 15 24 17 25 24 26 25 27 26 28 27 29 28 30 29 31 81 32 30 33
REMARK SMILES IDX 80 34 31 35 32 36 33 37 74 38 34 39 79 40 73 41 75 42 35 43
REMARK SMILES IDX 78 44 72 45 71 46 36 48 62 49 45 50 61 51 46 52 49 53 60 54
REMARK SMILES IDX 76 55 47 56 48 57 59 59 77 60 50 61 37 62 38 63 43 64 39 65
REMARK SMILES IDX 40 66 42 67 44 68 41 69 63 70 64 71 69 72 65 73 66 74 68 75
REMARK SMILES IDX 70 76 67 77 51 78 52 79 57 80 53 81 54 82 56 83 58 84 55 85
REMARK H PARENT 10 10 75 47 49 58
REMARK Flexibility Score: inf
ROOT
ATOM      1  C   UNL A   1      31.526  28.475  26.559  1.00  0.00     0.274 C 
ENDROOT
BRANCH   1   2
ATOM      2  O   UNL A   1      31.896  27.325  25.762  1.00  0.00    -0.462 OA
BRANCH   2   3
ATOM      3  C   UNL A   1      30.983  26.332  25.652  1.00  0.00     0.315 C 
ATOM      4  O   UNL A   1      30.635  25.615  26.586  1.00  0.00    -0.252 OA
BRANCH   3   5
ATOM      5  C   UNL A   1      30.397  26.146  24.264  1.00  0.00     0.167 C 
ATOM      6  C   UNL A   1      30.692  27.196  23.185  1.00  0.00     0.094 C 
ATOM      7  C   UNL A   1      30.915  26.343  21.927  1.00  0.00     0.272 C 
ATOM      8  N   UNL A   1      31.496  25.073  22.390  1.00  0.00    -0.327 N 
ATOM      9  C   UNL A   1      30.927  24.822  23.711  1.00  0.00     0.278 C 
ATOM     10  H   UNL A   1      31.249  24.317  21.751  1.00  0.00     0.348 HD
BRANCH   6  11
ATOM     11  C   UNL A   1      29.655  28.284  22.944  1.00  0.00    -0.035 A 
ATOM     12  C   UNL A   1      28.974  30.545  22.310  1.00  0.00     0.119 A 
ATOM     13  C   UNL A   1      27.654  30.237  22.642  1.00  0.00     0.046 A 
ATOM     14  C   UNL A   1      29.972  29.572  22.469  1.00  0.00     0.050 A 
ATOM     15  C   UNL A   1      27.324  28.974  23.125  1.00  0.00     0.004 A 
ATOM     16  C   UNL A   1      28.318  28.010  23.278  1.00  0.00     0.004 A 
BRANCH  12  17
ATOM     17  O   UNL A   1      29.151  31.829  21.872  1.00  0.00    -0.497 OA
ATOM     18  C   UNL A   1      28.777  32.880  22.751  1.00  0.00     0.278 C 
ENDBRANCH  12  17
ENDBRANCH   6  11
BRANCH   8  19
ATOM     19  C   UNL A   1      32.969  25.016  22.331  1.00  0.00     0.339 C 
BRANCH  19  20
ATOM     20  C   UNL A   1      33.689  24.635  23.596  1.00  0.00     0.164 A 
ATOM     21  N   UNL A   1      34.288  25.498  24.402  1.00  0.00    -0.236 NA
ATOM     22  N   UNL A   1      33.822  23.358  24.092  1.00  0.00    -0.333 N 
ATOM     23  C   UNL A   1      34.762  24.773  25.459  1.00  0.00     0.131 A 
ATOM     24  C   UNL A   1      34.481  23.442  25.291  1.00  0.00     0.107 A 
ATOM     25  C   UNL A   1      33.361  22.125  23.502  1.00  0.00     0.151 C 
ENDBRANCH  19  20
ENDBRANCH   8  19
ENDBRANCH   3   5
ENDBRANCH   2   3
ENDBRANCH   1   2
BRANCH   1  26
ATOM     26  C   UNL A   1      31.777  29.759  25.778  1.00  0.00     0.275 C 
BRANCH  26  27
ATOM     27  O   UNL A   1      33.130  30.173  26.018  1.00  0.00    -0.458 OA
BRANCH  27  28
ATOM     28  C   UNL A   1      33.258  31.194  26.897  1.00  0.00     0.338 C 
ATOM     29  O   UNL A   1      32.473  32.091  27.124  1.00  0.00    -0.246 OA
BRANCH  28  30
ATOM     30  C   UNL A   1      34.510  30.979  27.627  1.00  0.00     0.060 A 
ATOM     31  C   UNL A   1      34.818  29.693  28.068  1.00  0.00     0.016 A 
ATOM     32  C   UNL A   1      35.366  32.042  27.881  1.00  0.00     0.016 A 
ATOM     33  C   UNL A   1      35.971  29.453  28.796  1.00  0.00     0.010 A 
ATOM     34  C   UNL A   1      36.556  31.794  28.563  1.00  0.00     0.010 A 
ATOM     35  C   UNL A   1      36.861  30.501  29.030  1.00  0.00    -0.014 A 
BRANCH  35  36
ATOM     36  C   UNL A   1      38.113  30.261  29.776  1.00  0.00     0.031 A 
ATOM     37  C   UNL A   1      39.163  29.379  29.178  1.00  0.00     0.074 A 
ATOM     38  C   UNL A   1      38.277  30.807  30.996  1.00  0.00     0.049 A 
ATOM     39  N   UNL A   1      40.214  28.847  29.744  1.00  0.00    -0.248 NA
ATOM     40  C   UNL A   1      39.003  29.042  27.755  1.00  0.00     0.031 C 
ATOM     41  C   UNL A   1      37.352  31.745  31.638  1.00  0.00     0.029 A 
ATOM     42  N   UNL A   1      39.271  30.634  31.923  1.00  0.00    -0.354 N 
ATOM     43  C   UNL A   1      40.821  28.081  28.757  1.00  0.00     0.074 A 
ATOM     44  C   UNL A   1      40.016  28.210  27.562  1.00  0.00     0.031 C 
ATOM     45  C   UNL A   1      37.818  32.056  32.857  1.00  0.00     0.029 A 
ATOM     46  C   UNL A   1      39.023  31.276  33.112  1.00  0.00     0.049 A 
ATOM     47  H   UNL A   1      40.082  30.101  31.755  1.00  0.00     0.167 HD
ATOM     48  C   UNL A   1      41.946  27.334  28.854  1.00  0.00     0.037 A 
ATOM     49  C   UNL A   1      39.659  31.192  34.294  1.00  0.00     0.037 A 
ATOM     50  C   UNL A   1      42.725  27.223  30.060  1.00  0.00     0.049 A 
ATOM     51  C   UNL A   1      40.837  30.268  34.410  1.00  0.00     0.074 A 
ATOM     52  C   UNL A   1      43.880  26.495  30.279  1.00  0.00     0.029 A 
ATOM     53  N   UNL A   1      42.417  27.856  31.257  1.00  0.00    -0.354 N 
ATOM     54  N   UNL A   1      41.395  29.521  33.487  1.00  0.00    -0.248 NA
ATOM     55  C   UNL A   1      41.462  30.157  35.734  1.00  0.00     0.031 C 
ATOM     56  C   UNL A   1      44.241  26.645  31.622  1.00  0.00     0.029 A 
ATOM     57  C   UNL A   1      43.343  27.512  32.227  1.00  0.00     0.049 A 
ATOM     58  H   UNL A   1      41.654  28.462  31.395  1.00  0.00     0.167 HD
ATOM     59  C   UNL A   1      42.450  28.870  34.110  1.00  0.00     0.074 A 
ATOM     60  C   UNL A   1      42.460  29.320  35.488  1.00  0.00     0.031 C 
ATOM     61  C   UNL A   1      43.331  27.979  33.592  1.00  0.00     0.037 A 
BRANCH  48  62
ATOM     62  C   UNL A   1      42.358  26.549  27.645  1.00  0.00     0.057 A 
ATOM     63  C   UNL A   1      43.193  27.085  26.656  1.00  0.00     0.134 A 
ATOM     64  C   UNL A   1      41.910  25.233  27.466  1.00  0.00     0.134 A 
ATOM     65  F   UNL A   1      43.644  28.344  26.756  1.00  0.00    -0.206 F 
ATOM     66  C   UNL A   1      43.541  26.352  25.519  1.00  0.00     0.040 A 
ATOM     67  C   UNL A   1      42.274  24.481  26.348  1.00  0.00     0.040 A 
ATOM     68  F   UNL A   1      41.110  24.656  28.375  1.00  0.00    -0.206 F 
ATOM     69  C   UNL A   1      43.085  25.044  25.365  1.00  0.00     0.006 A 
ENDBRANCH  48  62
BRANCH  49  70
ATOM     70  C   UNL A   1      39.166  31.966  35.461  1.00  0.00     0.057 A 
ATOM     71  C   UNL A   1      39.576  33.286  35.674  1.00  0.00     0.134 A 
ATOM     72  C   UNL A   1      38.266  31.415  36.383  1.00  0.00     0.134 A 
ATOM     73  F   UNL A   1      40.450  33.864  34.837  1.00  0.00    -0.206 F 
ATOM     74  C   UNL A   1      39.118  34.028  36.765  1.00  0.00     0.040 A 
ATOM     75  C   UNL A   1      37.778  32.153  37.463  1.00  0.00     0.040 A 
ATOM     76  F   UNL A   1      37.829  30.155  36.236  1.00  0.00    -0.206 F 
ATOM     77  C   UNL A   1      38.210  33.463  37.659  1.00  0.00     0.006 A 
ENDBRANCH  49  70
BRANCH  61  78
ATOM     78  C   UNL A   1      44.397  27.463  34.510  1.00  0.00     0.057 A 
ATOM     79  C   UNL A   1      45.605  28.146  34.700  1.00  0.00     0.134 A 
ATOM     80  C   UNL A   1      44.189  26.293  35.252  1.00  0.00     0.134 A 
ATOM     81  F   UNL A   1      45.871  29.263  34.006  1.00  0.00    -0.206 F 
ATOM     82  C   UNL A   1      46.576  27.673  35.584  1.00  0.00     0.040 A 
ATOM     83  C   UNL A   1      45.140  25.827  36.160  1.00  0.00     0.040 A 
ATOM     84  F   UNL A   1      43.051  25.596  35.120  1.00  0.00    -0.206 F 
ATOM     85  C   UNL A   1      46.339  26.516  36.324  1.00  0.00     0.006 A 
ENDBRANCH  61  78
ENDBRANCH  35  36
ENDBRANCH  28  30
ENDBRANCH  27  28
ENDBRANCH  26  27
ENDBRANCH   1  26
TORSDOF 15
ENDMDL
MODEL 2
REMARK VINA RESULT:     -11.5      1.041      2.102
REMARK SMILES COc1cccc([C@@H]2C[N@@H+](Cc3nccn3C)C[C@H]2C(=O)OCCOC(=O)c2ccc(-c3c4nc(c(-c5c(F)cccc5F)c5ccc([nH]5)c(-c5c(F)cccc5F)c5nc(c(-c6c(F)cccc6F)c6ccc3[nH]6)C=C5)C=C4)cc2)c1
REMARK SMILES IDX 23 1 22 2 20 3 21 4 19 5 8 6 9 7 10 8 18 9 7 11 3 12 4 13
REMARK SMILES IDX 82 14 5 15 6 16 2 17 1 18 11 19 12 20 13 21 16 22 14 23
REMARK SMILES IDX 15 24 17 25 24 26 25 27 26 28 27 29 28 30 29 31 81 32 30 33
REMARK SMILES IDX 80 34 31 35 32 36 33 37 74 38 34 39 79 40 73 41 75 42 35 43
REMARK SMILES IDX 78 44 72 45 71 46 36 48 62 49 45 50 61 51 46 52 49 53 60 54
REMARK SMILES IDX 76 55 47 56 48 57 59 59 77 60 50 61 37 62 38 63 43 64 39 65
REMARK SMILES IDX 40 66 42 67 44 68 41 69 63 70 64 71 69 72 65 73 66 74 68 75
REMARK SMILES IDX 70 76 67 77 51 78 52 79 57 80 53 81 54 82 56 83 58 84 55 85
REMARK H PARENT 10 10 75 47 49 58
REMARK Flexibility Score: inf
ROOT
ATOM      1  C   UNL A   1      31.821  28.250  26.272  1.00  0.00     0.274 C 
ENDROOT
BRANCH   1   2
ATOM      2  O   UNL A   1      32.950  27.578  25.667  1.00  0.00    -0.462 OA
BRANCH   2   3
ATOM      3  C   UNL A   1      32.945  26.225  25.687  1.00  0.00     0.315 C 
ATOM      4  O   UNL A   1      33.909  25.541  26.019  1.00  0.00    -0.252 OA
BRANCH   3   5
ATOM      5  C   UNL A   1      31.640  25.578  25.257  1.00  0.00     0.167 C 
ATOM      6  C   UNL A   1      31.220  25.659  23.784  1.00  0.00     0.094 C 
ATOM      7  C   UNL A   1      30.642  24.262  23.514  1.00  0.00     0.272 C 
ATOM      8  N   UNL A   1      31.389  23.334  24.376  1.00  0.00    -0.327 N 
ATOM      9  C   UNL A   1      31.734  24.086  25.580  1.00  0.00     0.278 C 
ATOM     10  H   UNL A   1      30.809  22.531  24.617  1.00  0.00     0.348 HD
BRANCH   6  11
ATOM     11  C   UNL A   1      30.243  26.755  23.379  1.00  0.00    -0.035 A 
ATOM     12  C   UNL A   1      29.673  28.887  22.328  1.00  0.00     0.119 A 
ATOM     13  C   UNL A   1      28.361  28.758  22.787  1.00  0.00     0.046 A 
ATOM     14  C   UNL A   1      30.611  27.891  22.631  1.00  0.00     0.050 A 
ATOM     15  C   UNL A   1      27.982  27.650  23.537  1.00  0.00     0.004 A 
ATOM     16  C   UNL A   1      28.917  26.660  23.833  1.00  0.00     0.004 A 
BRANCH  12  17
ATOM     17  O   UNL A   1      29.903  30.038  21.625  1.00  0.00    -0.497 OA
ATOM     18  C   UNL A   1      28.779  30.831  21.274  1.00  0.00     0.278 C 
ENDBRANCH  12  17
ENDBRANCH   6  11
BRANCH   8  19
ATOM     19  C   UNL A   1      32.528  22.668  23.717  1.00  0.00     0.339 C 
BRANCH  19  20
ATOM     20  C   UNL A   1      32.638  21.177  23.885  1.00  0.00     0.164 A 
ATOM     21  N   UNL A   1      32.157  20.292  23.026  1.00  0.00    -0.236 NA
ATOM     22  N   UNL A   1      33.248  20.529  24.935  1.00  0.00    -0.333 N 
ATOM     23  C   UNL A   1      32.513  19.061  23.501  1.00  0.00     0.131 A 
ATOM     24  C   UNL A   1      33.195  19.183  24.683  1.00  0.00     0.107 A 
ATOM     25  C   UNL A   1      33.856  21.115  26.105  1.00  0.00     0.151 C 
ENDBRANCH  19  20
ENDBRANCH   8  19
ENDBRANCH   3   5
ENDBRANCH   2   3
ENDBRANCH   1   2
BRANCH   1  26
ATOM     26  C   UNL A   1      31.759  29.699  25.805  1.00  0.00     0.275 C 
BRANCH  26  27
ATOM     27  O   UNL A   1      33.068  30.271  25.938  1.00  0.00    -0.458 OA
BRANCH  27  28
ATOM     28  C   UNL A   1      33.168  31.233  26.884  1.00  0.00     0.338 C 
ATOM     29  O   UNL A   1      32.370  32.107  27.152  1.00  0.00    -0.246 OA
BRANCH  28  30
ATOM     30  C   UNL A   1      34.405  30.981  27.626  1.00  0.00     0.060 A 
ATOM     31  C   UNL A   1      35.251  32.053  27.907  1.00  0.00     0.016 A 
ATOM     32  C   UNL A   1      34.731  29.693  28.032  1.00  0.00     0.016 A 
ATOM     33  C   UNL A   1      36.449  31.852  28.570  1.00  0.00     0.010 A 
ATOM     34  C   UNL A   1      35.909  29.496  28.751  1.00  0.00     0.010 A 
ATOM     35  C   UNL A   1      36.777  30.573  29.017  1.00  0.00    -0.014 A 
BRANCH  35  36
ATOM     36  C   UNL A   1      38.035  30.342  29.756  1.00  0.00     0.031 A 
ATOM     37  C   UNL A   1      39.081  29.453  29.160  1.00  0.00     0.074 A 
ATOM     38  C   UNL A   1      38.208  30.902  30.968  1.00  0.00     0.049 A 
ATOM     39  N   UNL A   1      40.137  28.929  29.723  1.00  0.00    -0.248 NA
ATOM     40  C   UNL A   1      38.910  29.101  27.742  1.00  0.00     0.031 C 
ATOM     41  C   UNL A   1      37.288  31.846  31.607  1.00  0.00     0.029 A 
ATOM     42  N   UNL A   1      39.209  30.739  31.890  1.00  0.00    -0.354 N 
ATOM     43  C   UNL A   1      40.736  28.152  28.740  1.00  0.00     0.074 A 
ATOM     44  C   UNL A   1      39.922  28.267  27.550  1.00  0.00     0.031 C 
ATOM     45  C   UNL A   1      37.763  32.171  32.818  1.00  0.00     0.029 A 
ATOM     46  C   UNL A   1      38.970  31.394  33.073  1.00  0.00     0.049 A 
ATOM     47  H   UNL A   1      40.019  30.206  31.721  1.00  0.00     0.167 HD
ATOM     48  C   UNL A   1      41.862  27.407  28.837  1.00  0.00     0.037 A 
ATOM     49  C   UNL A   1      39.616  31.324  34.251  1.00  0.00     0.037 A 
ATOM     50  C   UNL A   1      42.651  27.310  30.038  1.00  0.00     0.049 A 
ATOM     51  C   UNL A   1      40.795  30.402  34.368  1.00  0.00     0.074 A 
ATOM     52  C   UNL A   1      43.808  26.585  30.255  1.00  0.00     0.029 A 
ATOM     53  N   UNL A   1      42.352  27.956  31.230  1.00  0.00    -0.354 N 
ATOM     54  N   UNL A   1      41.347  29.646  33.449  1.00  0.00    -0.248 NA
ATOM     55  C   UNL A   1      41.430  30.306  35.688  1.00  0.00     0.031 C 
ATOM     56  C   UNL A   1      44.180  26.750  31.594  1.00  0.00     0.029 A 
ATOM     57  C   UNL A   1      43.286  27.623  32.196  1.00  0.00     0.049 A 
ATOM     58  H   UNL A   1      41.590  28.563  31.367  1.00  0.00     0.167 HD
ATOM     59  C   UNL A   1      42.406  29.002  34.071  1.00  0.00     0.074 A 
ATOM     60  C   UNL A   1      42.428  29.467  35.444  1.00  0.00     0.031 C 
ATOM     61  C   UNL A   1      43.285  28.106  33.556  1.00  0.00     0.037 A 
BRANCH  48  62
ATOM     62  C   UNL A   1      42.265  26.608  27.633  1.00  0.00     0.057 A 
ATOM     63  C   UNL A   1      41.867  25.277  27.454  1.00  0.00     0.134 A 
ATOM     64  C   UNL A   1      43.066  27.181  26.636  1.00  0.00     0.134 A 
ATOM     65  F   UNL A   1      41.114  24.662  28.379  1.00  0.00    -0.206 F 
ATOM     66  C   UNL A   1      42.278  24.535  26.344  1.00  0.00     0.040 A 
ATOM     67  C   UNL A   1      43.459  26.459  25.508  1.00  0.00     0.040 A 
ATOM     68  F   UNL A   1      43.480  28.452  26.742  1.00  0.00    -0.206 F 
ATOM     69  C   UNL A   1      43.072  25.128  25.364  1.00  0.00     0.006 A 
ENDBRANCH  48  62
BRANCH  49  70
ATOM     70  C   UNL A   1      39.131  32.111  35.413  1.00  0.00     0.057 A 
ATOM     71  C   UNL A   1      39.526  33.441  35.597  1.00  0.00     0.134 A 
ATOM     72  C   UNL A   1      38.255  31.563  36.359  1.00  0.00     0.134 A 
ATOM     73  F   UNL A   1      40.378  34.016  34.735  1.00  0.00    -0.206 F 
ATOM     74  C   UNL A   1      39.077  34.194  36.682  1.00  0.00     0.040 A 
ATOM     75  C   UNL A   1      37.775  32.313  37.434  1.00  0.00     0.040 A 
ATOM     76  F   UNL A   1      37.834  30.296  36.241  1.00  0.00    -0.206 F 
ATOM     77  C   UNL A   1      38.191  33.632  37.601  1.00  0.00     0.006 A 
ENDBRANCH  49  70
BRANCH  61  78
ATOM     78  C   UNL A   1      44.358  27.601  34.472  1.00  0.00     0.057 A 
ATOM     79  C   UNL A   1      44.213  26.412  35.197  1.00  0.00     0.134 A 
ATOM     80  C   UNL A   1      45.573  28.289  34.589  1.00  0.00     0.134 A 
ATOM     81  F   UNL A   1      43.067  25.717  35.140  1.00  0.00    -0.206 F 
ATOM     82  C   UNL A   1      45.233  25.934  36.020  1.00  0.00     0.040 A 
ATOM     83  C   UNL A   1      46.610  27.806  35.386  1.00  0.00     0.040 A 
ATOM     84  F   UNL A   1      45.776  29.431  33.916  1.00  0.00    -0.206 F 
ATOM     85  C   UNL A   1      46.439  26.627  36.108  1.00  0.00     0.006 A 
ENDBRANCH  61  78
ENDBRANCH  35  36
ENDBRANCH  28  30
ENDBRANCH  27  28
ENDBRANCH  26  27
ENDBRANCH   1  26
TORSDOF 15
ENDMDL
MODEL 3
REMARK VINA RESULT:     -11.5      1.273      4.176
REMARK SMILES COc1cccc([C@@H]2C[N@@H+](Cc3nccn3C)C[C@H]2C(=O)OCCOC(=O)c2ccc(-c3c4nc(c(-c5c(F)cccc5F)c5ccc([nH]5)c(-c5c(F)cccc5F)c5nc(c(-c6c(F)cccc6F)c6ccc3[nH]6)C=C5)C=C4)cc2)c1
REMARK SMILES IDX 23 1 22 2 20 3 21 4 19 5 8 6 9 7 10 8 18 9 7 11 3 12 4 13
REMARK SMILES IDX 82 14 5 15 6 16 2 17 1 18 11 19 12 20 13 21 16 22 14 23
REMARK SMILES IDX 15 24 17 25 24 26 25 27 26 28 27 29 28 30 29 31 81 32 30 33
REMARK SMILES IDX 80 34 31 35 32 36 33 37 74 38 34 39 79 40 73 41 75 42 35 43
REMARK SMILES IDX 78 44 72 45 71 46 36 48 62 49 45 50 61 51 46 52 49 53 60 54
REMARK SMILES IDX 76 55 47 56 48 57 59 59 77 60 50 61 37 62 38 63 43 64 39 65
REMARK SMILES IDX 40 66 42 67 44 68 41 69 63 70 64 71 69 72 65 73 66 74 68 75
REMARK SMILES IDX 70 76 67 77 51 78 52 79 57 80 53 81 54 82 56 83 58 84 55 85
REMARK H PARENT 10 10 75 47 49 58
REMARK Flexibility Score: inf
ROOT
ATOM      1  C   UNL A   1      31.658  28.557  26.312  1.00  0.00     0.274 C 
ENDROOT
BRANCH   1   2
ATOM      2  O   UNL A   1      32.919  27.942  25.961  1.00  0.00    -0.462 OA
BRANCH   2   3
ATOM      3  C   UNL A   1      32.914  26.608  25.737  1.00  0.00     0.315 C 
ATOM      4  O   UNL A   1      32.284  25.802  26.417  1.00  0.00    -0.252 OA
BRANCH   3   5
ATOM      5  C   UNL A   1      33.760  26.147  24.564  1.00  0.00     0.167 C 
ATOM      6  C   UNL A   1      33.602  24.709  24.052  1.00  0.00     0.094 C 
ATOM      7  C   UNL A   1      33.675  24.877  22.527  1.00  0.00     0.272 C 
ATOM      8  N   UNL A   1      33.104  26.200  22.231  1.00  0.00    -0.327 N 
ATOM      9  C   UNL A   1      33.432  27.050  23.373  1.00  0.00     0.278 C 
ATOM     10  H   UNL A   1      33.517  26.581  21.380  1.00  0.00     0.348 HD
BRANCH   6  11
ATOM     11  C   UNL A   1      34.590  23.662  24.546  1.00  0.00    -0.035 A 
ATOM     12  C   UNL A   1      35.297  21.361  24.973  1.00  0.00     0.119 A 
ATOM     13  C   UNL A   1      36.454  21.835  25.593  1.00  0.00     0.046 A 
ATOM     14  C   UNL A   1      34.365  22.274  24.459  1.00  0.00     0.050 A 
ATOM     15  C   UNL A   1      36.687  23.202  25.700  1.00  0.00     0.004 A 
ATOM     16  C   UNL A   1      35.760  24.106  25.184  1.00  0.00     0.004 A 
BRANCH  12  17
ATOM     17  O   UNL A   1      35.192  19.997  24.963  1.00  0.00    -0.497 OA
ATOM     18  C   UNL A   1      33.914  19.437  24.703  1.00  0.00     0.278 C 
ENDBRANCH  12  17
ENDBRANCH   6  11
BRANCH   8  19
ATOM     19  C   UNL A   1      31.675  26.183  21.865  1.00  0.00     0.339 C 
BRANCH  19  20
ATOM     20  C   UNL A   1      30.834  27.334  22.344  1.00  0.00     0.164 A 
ATOM     21  N   UNL A   1      30.896  28.561  21.851  1.00  0.00    -0.236 NA
ATOM     22  N   UNL A   1      29.889  27.278  23.345  1.00  0.00    -0.333 N 
ATOM     23  C   UNL A   1      29.940  29.288  22.502  1.00  0.00     0.131 A 
ATOM     24  C   UNL A   1      29.298  28.510  23.432  1.00  0.00     0.107 A 
ATOM     25  C   UNL A   1      29.541  26.148  24.171  1.00  0.00     0.151 C 
ENDBRANCH  19  20
ENDBRANCH   8  19
ENDBRANCH   3   5
ENDBRANCH   2   3
ENDBRANCH   1   2
BRANCH   1  26
ATOM     26  C   UNL A   1      31.707  30.054  26.036  1.00  0.00     0.275 C 
BRANCH  26  27
ATOM     27  O   UNL A   1      33.068  30.490  26.163  1.00  0.00    -0.458 OA
BRANCH  27  28
ATOM     28  C   UNL A   1      33.251  31.521  27.021  1.00  0.00     0.338 C 
ATOM     29  O   UNL A   1      32.503  32.449  27.248  1.00  0.00    -0.246 OA
BRANCH  28  30
ATOM     30  C   UNL A   1      34.510  31.274  27.727  1.00  0.00     0.060 A 
ATOM     31  C   UNL A   1      34.790  29.983  28.170  1.00  0.00     0.016 A 
ATOM     32  C   UNL A   1      35.402  32.314  27.958  1.00  0.00     0.016 A 
ATOM     33  C   UNL A   1      35.950  29.714  28.878  1.00  0.00     0.010 A 
ATOM     34  C   UNL A   1      36.597  32.036  28.619  1.00  0.00     0.010 A 
ATOM     35  C   UNL A   1      36.874  30.738  29.088  1.00  0.00    -0.014 A 
BRANCH  35  36
ATOM     36  C   UNL A   1      38.133  30.466  29.811  1.00  0.00     0.031 A 
ATOM     37  C   UNL A   1      39.159  29.575  29.185  1.00  0.00     0.074 A 
ATOM     38  C   UNL A   1      38.324  30.993  31.035  1.00  0.00     0.049 A 
ATOM     39  N   UNL A   1      40.208  29.017  29.728  1.00  0.00    -0.248 NA
ATOM     40  C   UNL A   1      38.971  29.261  27.760  1.00  0.00     0.031 C 
ATOM     41  C   UNL A   1      37.426  31.937  31.704  1.00  0.00     0.029 A 
ATOM     42  N   UNL A   1      39.330  30.790  31.945  1.00  0.00    -0.354 N 
ATOM     43  C   UNL A   1      40.787  28.255  28.721  1.00  0.00     0.074 A 
ATOM     44  C   UNL A   1      39.966  28.414  27.540  1.00  0.00     0.031 C 
ATOM     45  C   UNL A   1      37.916  32.224  32.920  1.00  0.00     0.029 A 
ATOM     46  C   UNL A   1      39.110  31.420  33.146  1.00  0.00     0.049 A 
ATOM     47  H   UNL A   1      40.128  30.246  31.757  1.00  0.00     0.167 HD
ATOM     48  C   UNL A   1      41.900  27.488  28.791  1.00  0.00     0.037 A 
ATOM     49  C   UNL A   1      39.763  31.309  34.317  1.00  0.00     0.037 A 
ATOM     50  C   UNL A   1      42.696  27.347  29.983  1.00  0.00     0.049 A 
ATOM     51  C   UNL A   1      40.927  30.364  34.403  1.00  0.00     0.074 A 
ATOM     52  C   UNL A   1      43.842  26.597  30.174  1.00  0.00     0.029 A 
ATOM     53  N   UNL A   1      42.417  27.969  31.193  1.00  0.00    -0.354 N 
ATOM     54  N   UNL A   1      41.458  29.621  33.461  1.00  0.00    -0.248 NA
ATOM     55  C   UNL A   1      41.570  30.224  35.715  1.00  0.00     0.031 C 
ATOM     56  C   UNL A   1      44.225  26.722  31.513  1.00  0.00     0.029 A 
ATOM     57  C   UNL A   1      43.352  27.596  32.144  1.00  0.00     0.049 A 
ATOM     58  H   UNL A   1      41.667  28.586  31.351  1.00  0.00     0.167 HD
ATOM     59  C   UNL A   1      42.511  28.943  34.058  1.00  0.00     0.074 A 
ATOM     60  C   UNL A   1      42.550  29.373  35.442  1.00  0.00     0.031 C 
ATOM     61  C   UNL A   1      43.369  28.045  33.515  1.00  0.00     0.037 A 
BRANCH  48  62
ATOM     62  C   UNL A   1      42.280  26.712  27.565  1.00  0.00     0.057 A 
ATOM     63  C   UNL A   1      41.870  25.388  27.363  1.00  0.00     0.134 A 
ATOM     64  C   UNL A   1      43.071  27.300  26.569  1.00  0.00     0.134 A 
ATOM     65  F   UNL A   1      41.125  24.759  28.285  1.00  0.00    -0.206 F 
ATOM     66  C   UNL A   1      42.259  24.667  26.232  1.00  0.00     0.040 A 
ATOM     67  C   UNL A   1      43.442  26.600  25.420  1.00  0.00     0.040 A 
ATOM     68  F   UNL A   1      43.497  28.566  26.696  1.00  0.00    -0.206 F 
ATOM     69  C   UNL A   1      43.044  25.275  25.254  1.00  0.00     0.006 A 
ENDBRANCH  48  62
BRANCH  49  70
ATOM     70  C   UNL A   1      39.301  32.075  35.501  1.00  0.00     0.057 A 
ATOM     71  C   UNL A   1      39.755  33.377  35.738  1.00  0.00     0.134 A 
ATOM     72  C   UNL A   1      38.389  31.535  36.418  1.00  0.00     0.134 A 
ATOM     73  F   UNL A   1      40.643  33.943  34.907  1.00  0.00    -0.206 F 
ATOM     74  C   UNL A   1      39.327  34.111  36.845  1.00  0.00     0.040 A 
ATOM     75  C   UNL A   1      37.931  32.267  37.515  1.00  0.00     0.040 A 
ATOM     76  F   UNL A   1      37.911  30.293  36.249  1.00  0.00    -0.206 F 
ATOM     77  C   UNL A   1      38.406  33.558  37.733  1.00  0.00     0.006 A 
ENDBRANCH  49  70
BRANCH  61  78
ATOM     78  C   UNL A   1      44.440  27.498  34.410  1.00  0.00     0.057 A 
ATOM     79  C   UNL A   1      44.253  26.329  35.157  1.00  0.00     0.134 A 
ATOM     80  C   UNL A   1      45.691  28.124  34.483  1.00  0.00     0.134 A 
ATOM     81  F   UNL A   1      43.072  25.694  35.143  1.00  0.00    -0.206 F 
ATOM     82  C   UNL A   1      45.270  25.811  35.961  1.00  0.00     0.040 A 
ATOM     83  C   UNL A   1      46.724  27.599  35.260  1.00  0.00     0.040 A 
ATOM     84  F   UNL A   1      45.934  29.243  33.786  1.00  0.00    -0.206 F 
ATOM     85  C   UNL A   1      46.512  26.441  36.005  1.00  0.00     0.006 A 
ENDBRANCH  61  78
ENDBRANCH  35  36
ENDBRANCH  28  30
ENDBRANCH  27  28
ENDBRANCH  26  27
ENDBRANCH   1  26
TORSDOF 15
ENDMDL
