MODEL 1
REMARK VINA RESULT:     -11.5      0.000      0.000
REMARK SMILES C[C@H]([NH2+][C@@H](C)[C@]12C[C@H]3C[C@H](C[C@H](C3)C1)C2)[C@@H](C)C(=O)OCCOC(=O)c1ccc(-c2c3nc(c(-c4c(F)cccc4F)c4ccc([nH]4)c(-c4c(F)cccc4F)c4nc(c(-c5c(F)cccc5F)c5ccc2[nH]5)C=C4)C=C3)cc1
REMARK SMILES IDX 21 1 20 2 18 3 19 4 16 5 17 6 2 7 1 8 3 9 4 12 5 13 6 14
REMARK SMILES IDX 7 15 14 16 15 17 8 18 12 19 10 20 9 21 13 22 11 23 22 24
REMARK SMILES IDX 23 25 24 26 25 27 26 28 27 29 79 30 28 31 78 32 29 33 30 34
REMARK SMILES IDX 31 35 72 36 32 37 77 38 71 39 73 40 33 41 76 42 70 43 69 44
REMARK SMILES IDX 34 46 60 47 43 48 59 49 44 50 47 51 58 52 74 53 45 54 46 55
REMARK SMILES IDX 57 57 75 58 48 59 35 60 36 61 41 62 37 63 38 64 40 65 42 66
REMARK SMILES IDX 39 67 61 68 62 69 67 70 63 71 64 72 66 73 68 74 65 75 49 76
REMARK SMILES IDX 50 77 55 78 51 79 52 80 54 81 56 82 53 83
REMARK H PARENT 3 10 3 11 73 45 47 56
REMARK Flexibility Score: inf
ROOT
ATOM      1  C   UNL A   1      42.272  20.849  26.089  1.00  0.00     0.274 C 
ENDROOT
BRANCH   1   2
ATOM      2  O   UNL A   1      40.962  21.176  25.584  1.00  0.00    -0.462 OA
BRANCH   2   3
ATOM      3  C   UNL A   1      40.078  21.459  26.566  1.00  0.00     0.314 C 
ATOM      4  O   UNL A   1      40.356  21.476  27.765  1.00  0.00    -0.252 OA
BRANCH   3   5
ATOM      5  C   UNL A   1      38.645  21.634  26.130  1.00  0.00     0.154 C 
ATOM      6  C   UNL A   1      38.359  20.489  25.151  1.00  0.00     0.026 C 
BRANCH   5   7
ATOM      7  C   UNL A   1      38.070  22.972  25.647  1.00  0.00     0.193 C 
ATOM      8  C   UNL A   1      38.600  24.202  26.387  1.00  0.00     0.076 C 
BRANCH   7   9
ATOM      9  N   UNL A   1      36.588  22.945  25.620  1.00  0.00    -0.341 N 
ATOM     10  H   UNL A   1      36.281  23.518  26.406  1.00  0.00     0.346 HD
ATOM     11  H   UNL A   1      36.400  21.942  25.620  1.00  0.00     0.346 HD
BRANCH   9  12
ATOM     12  C   UNL A   1      35.801  23.394  24.458  1.00  0.00     0.185 C 
ATOM     13  C   UNL A   1      36.664  22.973  23.250  1.00  0.00     0.076 C 
BRANCH  12  14
ATOM     14  C   UNL A   1      34.292  22.880  24.322  1.00  0.00     0.023 C 
ATOM     15  C   UNL A   1      33.769  23.052  22.871  1.00  0.00     0.016 C 
ATOM     16  C   UNL A   1      33.290  23.615  25.256  1.00  0.00     0.016 C 
ATOM     17  C   UNL A   1      34.192  21.354  24.654  1.00  0.00     0.016 C 
ATOM     18  C   UNL A   1      32.358  22.494  22.663  1.00  0.00    -0.010 C 
ATOM     19  C   UNL A   1      31.850  23.089  25.051  1.00  0.00    -0.010 C 
ATOM     20  C   UNL A   1      32.761  20.816  24.468  1.00  0.00    -0.010 C 
ATOM     21  C   UNL A   1      32.336  21.005  23.008  1.00  0.00     0.007 C 
ATOM     22  C   UNL A   1      31.413  23.274  23.588  1.00  0.00     0.007 C 
ATOM     23  C   UNL A   1      31.801  21.592  25.387  1.00  0.00     0.007 C 
ENDBRANCH  12  14
ENDBRANCH   9  12
ENDBRANCH   7   9
ENDBRANCH   5   7
ENDBRANCH   3   5
ENDBRANCH   2   3
ENDBRANCH   1   2
BRANCH   1  24
ATOM     24  C   UNL A   1      43.397  21.679  25.462  1.00  0.00     0.275 C 
BRANCH  24  25
ATOM     25  O   UNL A   1      42.916  22.869  24.808  1.00  0.00    -0.458 OA
BRANCH  25  26
ATOM     26  C   UNL A   1      43.675  23.973  24.994  1.00  0.00     0.338 C 
ATOM     27  O   UNL A   1      44.769  24.209  24.508  1.00  0.00    -0.246 OA
BRANCH  26  28
ATOM     28  C   UNL A   1      43.008  24.920  25.901  1.00  0.00     0.060 A 
ATOM     29  C   UNL A   1      43.285  26.285  25.808  1.00  0.00     0.016 A 
ATOM     30  C   UNL A   1      42.257  24.424  26.968  1.00  0.00     0.016 A 
ATOM     31  C   UNL A   1      42.864  27.153  26.817  1.00  0.00     0.010 A 
ATOM     32  C   UNL A   1      41.794  25.303  27.952  1.00  0.00     0.010 A 
ATOM     33  C   UNL A   1      42.124  26.668  27.905  1.00  0.00    -0.014 A 
BRANCH  33  34
ATOM     34  C   UNL A   1      41.739  27.568  29.023  1.00  0.00     0.031 A 
ATOM     35  C   UNL A   1      42.515  27.545  30.313  1.00  0.00     0.074 A 
ATOM     36  C   UNL A   1      40.692  28.403  28.895  1.00  0.00     0.049 A 
ATOM     37  N   UNL A   1      42.251  28.139  31.450  1.00  0.00    -0.248 NA
ATOM     38  C   UNL A   1      43.749  26.743  30.325  1.00  0.00     0.031 C 
ATOM     39  C   UNL A   1      39.876  28.560  27.690  1.00  0.00     0.029 A 
ATOM     40  N   UNL A   1      40.129  29.273  29.797  1.00  0.00    -0.354 N 
ATOM     41  C   UNL A   1      43.263  27.756  32.322  1.00  0.00     0.074 A 
ATOM     42  C   UNL A   1      44.145  26.876  31.583  1.00  0.00     0.031 C 
ATOM     43  C   UNL A   1      38.920  29.473  27.928  1.00  0.00     0.029 A 
ATOM     44  C   UNL A   1      39.024  29.926  29.312  1.00  0.00     0.049 A 
ATOM     45  H   UNL A   1      40.485  29.414  30.704  1.00  0.00     0.167 HD
ATOM     46  C   UNL A   1      43.443  28.106  33.618  1.00  0.00     0.037 A 
ATOM     47  C   UNL A   1      38.170  30.768  29.921  1.00  0.00     0.037 A 
ATOM     48  C   UNL A   1      42.589  29.005  34.350  1.00  0.00     0.049 A 
ATOM     49  C   UNL A   1      38.369  31.114  31.370  1.00  0.00     0.074 A 
ATOM     50  C   UNL A   1      42.700  29.425  35.665  1.00  0.00     0.029 A 
ATOM     51  N   UNL A   1      41.471  29.632  33.824  1.00  0.00    -0.354 N 
ATOM     52  N   UNL A   1      39.307  30.717  32.193  1.00  0.00    -0.248 NA
ATOM     53  C   UNL A   1      37.379  32.017  31.977  1.00  0.00     0.031 C 
ATOM     54  C   UNL A   1      41.634  30.288  35.943  1.00  0.00     0.029 A 
ATOM     55  C   UNL A   1      40.877  30.429  34.791  1.00  0.00     0.049 A 
ATOM     56  H   UNL A   1      41.146  29.528  32.901  1.00  0.00     0.167 HD
ATOM     57  C   UNL A   1      39.031  31.329  33.407  1.00  0.00     0.074 A 
ATOM     58  C   UNL A   1      37.845  32.138  33.211  1.00  0.00     0.031 C 
ATOM     59  C   UNL A   1      39.698  31.228  34.582  1.00  0.00     0.037 A 
BRANCH  46  60
ATOM     60  C   UNL A   1      44.602  27.492  34.343  1.00  0.00     0.057 A 
ATOM     61  C   UNL A   1      45.868  28.090  34.356  1.00  0.00     0.134 A 
ATOM     62  C   UNL A   1      44.439  26.304  35.067  1.00  0.00     0.134 A 
ATOM     63  F   UNL A   1      46.091  29.222  33.671  1.00  0.00    -0.206 F 
ATOM     64  C   UNL A   1      46.935  27.521  35.052  1.00  0.00     0.040 A 
ATOM     65  C   UNL A   1      45.494  25.735  35.782  1.00  0.00     0.040 A 
ATOM     66  F   UNL A   1      43.250  25.684  35.099  1.00  0.00    -0.206 F 
ATOM     67  C   UNL A   1      46.747  26.342  35.773  1.00  0.00     0.006 A 
ENDBRANCH  46  60
BRANCH  47  68
ATOM     68  C   UNL A   1      37.024  31.328  29.166  1.00  0.00     0.057 A 
ATOM     69  C   UNL A   1      35.885  30.559  28.908  1.00  0.00     0.134 A 
ATOM     70  C   UNL A   1      37.044  32.641  28.683  1.00  0.00     0.134 A 
ATOM     71  F   UNL A   1      35.823  29.286  29.327  1.00  0.00    -0.206 F 
ATOM     72  C   UNL A   1      34.806  31.073  28.189  1.00  0.00     0.040 A 
ATOM     73  C   UNL A   1      35.963  33.175  27.980  1.00  0.00     0.040 A 
ATOM     74  F   UNL A   1      38.109  33.427  28.897  1.00  0.00    -0.206 F 
ATOM     75  C   UNL A   1      34.842  32.388  27.728  1.00  0.00     0.006 A 
ENDBRANCH  47  68
BRANCH  59  76
ATOM     76  C   UNL A   1      39.174  32.030  35.734  1.00  0.00     0.057 A 
ATOM     77  C   UNL A   1      38.297  31.476  36.675  1.00  0.00     0.134 A 
ATOM     78  C   UNL A   1      39.563  33.363  35.913  1.00  0.00     0.134 A 
ATOM     79  F   UNL A   1      37.876  30.209  36.550  1.00  0.00    -0.206 F 
ATOM     80  C   UNL A   1      37.809  32.229  37.745  1.00  0.00     0.040 A 
ATOM     81  C   UNL A   1      39.097  34.119  36.989  1.00  0.00     0.040 A 
ATOM     82  F   UNL A   1      40.404  33.949  35.049  1.00  0.00    -0.206 F 
ATOM     83  C   UNL A   1      38.213  33.554  37.905  1.00  0.00     0.006 A 
ENDBRANCH  59  76
ENDBRANCH  33  34
ENDBRANCH  26  28
ENDBRANCH  25  26
ENDBRANCH  24  25
ENDBRANCH   1  24
TORSDOF 15
ENDMDL
MODEL 2
REMARK VINA RESULT:     -11.3      4.999      9.734
REMARK SMILES C[C@H]([NH2+][C@@H](C)[C@]12C[C@H]3C[C@H](C[C@H](C3)C1)C2)[C@@H](C)C(=O)OCCOC(=O)c1ccc(-c2c3nc(c(-c4c(F)cccc4F)c4ccc([nH]4)c(-c4c(F)cccc4F)c4nc(c(-c5c(F)cccc5F)c5ccc2[nH]5)C=C4)C=C3)cc1
REMARK SMILES IDX 21 1 20 2 18 3 19 4 16 5 17 6 2 7 1 8 3 9 4 12 5 13 6 14
REMARK SMILES IDX 7 15 14 16 15 17 8 18 12 19 10 20 9 21 13 22 11 23 22 24
REMARK SMILES IDX 23 25 24 26 25 27 26 28 27 29 79 30 28 31 78 32 29 33 30 34
REMARK SMILES IDX 31 35 72 36 32 37 77 38 71 39 73 40 33 41 76 42 70 43 69 44
REMARK SMILES IDX 34 46 60 47 43 48 59 49 44 50 47 51 58 52 74 53 45 54 46 55
REMARK SMILES IDX 57 57 75 58 48 59 35 60 36 61 41 62 37 63 38 64 40 65 42 66
REMARK SMILES IDX 39 67 61 68 62 69 67 70 63 71 64 72 66 73 68 74 65 75 49 76
REMARK SMILES IDX 50 77 55 78 51 79 52 80 54 81 56 82 53 83
REMARK H PARENT 3 10 3 11 73 45 47 56
REMARK Flexibility Score: inf
ROOT
ATOM      1  C   UNL A   1      34.306  33.745  29.476  1.00  0.00     0.274 C 
ENDROOT
BRANCH   1   2
ATOM      2  O   UNL A   1      33.756  32.533  28.922  1.00  0.00    -0.462 OA
BRANCH   2   3
ATOM      3  C   UNL A   1      34.545  31.987  27.971  1.00  0.00     0.314 C 
ATOM      4  O   UNL A   1      35.412  32.604  27.352  1.00  0.00    -0.252 OA
BRANCH   3   5
ATOM      5  C   UNL A   1      34.222  30.566  27.586  1.00  0.00     0.154 C 
ATOM      6  C   UNL A   1      35.571  29.861  27.400  1.00  0.00     0.026 C 
BRANCH   5   7
ATOM      7  C   UNL A   1      33.217  30.200  26.485  1.00  0.00     0.193 C 
ATOM      8  C   UNL A   1      31.921  29.559  26.989  1.00  0.00     0.076 C 
BRANCH   7   9
ATOM      9  N   UNL A   1      33.853  29.388  25.421  1.00  0.00    -0.341 N 
ATOM     10  H   UNL A   1      34.457  28.719  25.900  1.00  0.00     0.346 HD
ATOM     11  H   UNL A   1      34.266  30.109  24.829  1.00  0.00     0.346 HD
BRANCH   9  12
ATOM     12  C   UNL A   1      33.079  28.607  24.440  1.00  0.00     0.185 C 
ATOM     13  C   UNL A   1      33.665  29.046  23.082  1.00  0.00     0.076 C 
BRANCH  12  14
ATOM     14  C   UNL A   1      33.053  27.015  24.592  1.00  0.00     0.023 C 
ATOM     15  C   UNL A   1      31.623  26.506  24.921  1.00  0.00     0.016 C 
ATOM     16  C   UNL A   1      33.994  26.473  25.705  1.00  0.00     0.016 C 
ATOM     17  C   UNL A   1      33.478  26.321  23.257  1.00  0.00     0.016 C 
ATOM     18  C   UNL A   1      31.523  24.980  24.990  1.00  0.00    -0.010 C 
ATOM     19  C   UNL A   1      33.896  24.934  25.817  1.00  0.00    -0.010 C 
ATOM     20  C   UNL A   1      33.398  24.786  23.353  1.00  0.00    -0.010 C 
ATOM     21  C   UNL A   1      31.955  24.372  23.656  1.00  0.00     0.007 C 
ATOM     22  C   UNL A   1      32.449  24.508  26.120  1.00  0.00     0.007 C 
ATOM     23  C   UNL A   1      34.320  24.298  24.485  1.00  0.00     0.007 C 
ENDBRANCH  12  14
ENDBRANCH   9  12
ENDBRANCH   7   9
ENDBRANCH   5   7
ENDBRANCH   3   5
ENDBRANCH   2   3
ENDBRANCH   1   2
BRANCH   1  24
ATOM     24  C   UNL A   1      34.485  33.701  30.997  1.00  0.00     0.275 C 
BRANCH  24  25
ATOM     25  O   UNL A   1      34.627  32.360  31.504  1.00  0.00    -0.458 OA
BRANCH  25  26
ATOM     26  C   UNL A   1      35.673  32.168  32.339  1.00  0.00     0.338 C 
ATOM     27  O   UNL A   1      35.786  32.565  33.487  1.00  0.00    -0.246 OA
BRANCH  26  28
ATOM     28  C   UNL A   1      36.731  31.386  31.680  1.00  0.00     0.060 A 
ATOM     29  C   UNL A   1      37.582  30.585  32.444  1.00  0.00     0.016 A 
ATOM     30  C   UNL A   1      36.994  31.603  30.327  1.00  0.00     0.016 A 
ATOM     31  C   UNL A   1      38.737  30.048  31.871  1.00  0.00     0.010 A 
ATOM     32  C   UNL A   1      38.125  31.024  29.742  1.00  0.00     0.010 A 
ATOM     33  C   UNL A   1      39.025  30.273  30.517  1.00  0.00    -0.014 A 
BRANCH  33  34
ATOM     34  C   UNL A   1      40.290  29.774  29.917  1.00  0.00     0.031 A 
ATOM     35  C   UNL A   1      41.471  30.696  29.766  1.00  0.00     0.074 A 
ATOM     36  C   UNL A   1      40.387  28.499  29.498  1.00  0.00     0.049 A 
ATOM     37  N   UNL A   1      42.602  30.497  29.139  1.00  0.00    -0.248 NA
ATOM     38  C   UNL A   1      41.358  32.018  30.402  1.00  0.00     0.031 C 
ATOM     39  C   UNL A   1      39.339  27.485  29.617  1.00  0.00     0.029 A 
ATOM     40  N   UNL A   1      41.420  27.842  28.875  1.00  0.00    -0.354 N 
ATOM     41  C   UNL A   1      43.323  31.678  29.274  1.00  0.00     0.074 A 
ATOM     42  C   UNL A   1      42.498  32.589  30.040  1.00  0.00     0.031 C 
ATOM     43  C   UNL A   1      39.784  26.334  29.089  1.00  0.00     0.029 A 
ATOM     44  C   UNL A   1      41.124  26.542  28.548  1.00  0.00     0.049 A 
ATOM     45  H   UNL A   1      42.289  28.262  28.683  1.00  0.00     0.167 HD
ATOM     46  C   UNL A   1      44.558  31.976  28.804  1.00  0.00     0.037 A 
ATOM     47  C   UNL A   1      41.837  25.630  27.862  1.00  0.00     0.037 A 
ATOM     48  C   UNL A   1      45.396  31.064  28.069  1.00  0.00     0.049 A 
ATOM     49  C   UNL A   1      43.190  25.994  27.319  1.00  0.00     0.074 A 
ATOM     50  C   UNL A   1      46.668  31.277  27.561  1.00  0.00     0.029 A 
ATOM     51  N   UNL A   1      45.051  29.762  27.746  1.00  0.00    -0.354 N 
ATOM     52  N   UNL A   1      43.844  27.124  27.422  1.00  0.00    -0.248 NA
ATOM     53  C   UNL A   1      43.898  24.957  26.555  1.00  0.00     0.031 C 
ATOM     54  C   UNL A   1      47.082  30.110  26.909  1.00  0.00     0.029 A 
ATOM     55  C   UNL A   1      46.081  29.161  27.039  1.00  0.00     0.049 A 
ATOM     56  H   UNL A   1      44.201  29.327  27.984  1.00  0.00     0.167 HD
ATOM     57  C   UNL A   1      45.042  26.932  26.748  1.00  0.00     0.074 A 
ATOM     58  C   UNL A   1      45.033  25.571  26.253  1.00  0.00     0.031 C 
ATOM     59  C   UNL A   1      46.059  27.806  26.553  1.00  0.00     0.037 A 
BRANCH  46  60
ATOM     60  C   UNL A   1      45.073  33.362  29.049  1.00  0.00     0.057 A 
ATOM     61  C   UNL A   1      45.865  33.670  30.162  1.00  0.00     0.134 A 
ATOM     62  C   UNL A   1      44.802  34.392  28.141  1.00  0.00     0.134 A 
ATOM     63  F   UNL A   1      46.149  32.729  31.075  1.00  0.00    -0.206 F 
ATOM     64  C   UNL A   1      46.357  34.960  30.370  1.00  0.00     0.040 A 
ATOM     65  C   UNL A   1      45.303  35.681  28.329  1.00  0.00     0.040 A 
ATOM     66  F   UNL A   1      44.053  34.161  27.052  1.00  0.00    -0.206 F 
ATOM     67  C   UNL A   1      46.081  35.968  29.448  1.00  0.00     0.006 A 
ENDBRANCH  46  60
BRANCH  47  68
ATOM     68  C   UNL A   1      41.271  24.281  27.624  1.00  0.00     0.057 A 
ATOM     69  C   UNL A   1      40.268  24.078  26.671  1.00  0.00     0.134 A 
ATOM     70  C   UNL A   1      41.717  23.167  28.345  1.00  0.00     0.134 A 
ATOM     71  F   UNL A   1      39.786  25.114  25.968  1.00  0.00    -0.206 F 
ATOM     72  C   UNL A   1      39.721  22.814  26.448  1.00  0.00     0.040 A 
ATOM     73  C   UNL A   1      41.193  21.894  28.118  1.00  0.00     0.040 A 
ATOM     74  F   UNL A   1      42.675  23.300  29.274  1.00  0.00    -0.206 F 
ATOM     75  C   UNL A   1      40.189  21.717  27.168  1.00  0.00     0.006 A 
ENDBRANCH  47  68
BRANCH  59  76
ATOM     76  C   UNL A   1      47.250  27.307  25.795  1.00  0.00     0.057 A 
ATOM     77  C   UNL A   1      48.287  26.614  26.432  1.00  0.00     0.134 A 
ATOM     78  C   UNL A   1      47.354  27.507  24.413  1.00  0.00     0.134 A 
ATOM     79  F   UNL A   1      48.253  26.404  27.756  1.00  0.00    -0.206 F 
ATOM     80  C   UNL A   1      49.397  26.153  25.721  1.00  0.00     0.040 A 
ATOM     81  C   UNL A   1      48.449  27.035  23.689  1.00  0.00     0.040 A 
ATOM     82  F   UNL A   1      46.391  28.160  23.745  1.00  0.00    -0.206 F 
ATOM     83  C   UNL A   1      49.478  26.361  24.344  1.00  0.00     0.006 A 
ENDBRANCH  59  76
ENDBRANCH  33  34
ENDBRANCH  26  28
ENDBRANCH  25  26
ENDBRANCH  24  25
ENDBRANCH   1  24
TORSDOF 15
ENDMDL
MODEL 3
REMARK VINA RESULT:     -11.2      4.942      7.224
REMARK SMILES C[C@H]([NH2+][C@@H](C)[C@]12C[C@H]3C[C@H](C[C@H](C3)C1)C2)[C@@H](C)C(=O)OCCOC(=O)c1ccc(-c2c3nc(c(-c4c(F)cccc4F)c4ccc([nH]4)c(-c4c(F)cccc4F)c4nc(c(-c5c(F)cccc5F)c5ccc2[nH]5)C=C4)C=C3)cc1
REMARK SMILES IDX 21 1 20 2 18 3 19 4 16 5 17 6 2 7 1 8 3 9 4 12 5 13 6 14
REMARK SMILES IDX 7 15 14 16 15 17 8 18 12 19 10 20 9 21 13 22 11 23 22 24
REMARK SMILES IDX 23 25 24 26 25 27 26 28 27 29 79 30 28 31 78 32 29 33 30 34
REMARK SMILES IDX 31 35 72 36 32 37 77 38 71 39 73 40 33 41 76 42 70 43 69 44
REMARK SMILES IDX 34 46 60 47 43 48 59 49 44 50 47 51 58 52 74 53 45 54 46 55
REMARK SMILES IDX 57 57 75 58 48 59 35 60 36 61 41 62 37 63 38 64 40 65 42 66
REMARK SMILES IDX 39 67 61 68 62 69 67 70 63 71 64 72 66 73 68 74 65 75 49 76
REMARK SMILES IDX 50 77 55 78 51 79 52 80 54 81 56 82 53 83
REMARK H PARENT 3 10 3 11 73 45 47 56
REMARK Flexibility Score: inf
ROOT
ATOM      1  C   UNL A   1      42.489  19.094  26.590  1.00  0.00     0.274 C 
ENDROOT
BRANCH   1   2
ATOM      2  O   UNL A   1      41.949  20.361  26.165  1.00  0.00    -0.462 OA
BRANCH   2   3
ATOM      3  C   UNL A   1      41.125  20.914  27.082  1.00  0.00     0.314 C 
ATOM      4  O   UNL A   1      40.413  20.268  27.851  1.00  0.00    -0.252 OA
BRANCH   3   5
ATOM      5  C   UNL A   1      41.008  22.416  27.040  1.00  0.00     0.154 C 
ATOM      6  C   UNL A   1      41.622  22.925  28.350  1.00  0.00     0.026 C 
BRANCH   5   7
ATOM      7  C   UNL A   1      39.708  23.149  26.682  1.00  0.00     0.193 C 
ATOM      8  C   UNL A   1      39.338  24.293  27.629  1.00  0.00     0.076 C 
BRANCH   7   9
ATOM      9  N   UNL A   1      38.584  22.200  26.502  1.00  0.00    -0.341 N 
ATOM     10  H   UNL A   1      37.855  22.501  27.149  1.00  0.00     0.346 HD
ATOM     11  H   UNL A   1      39.048  21.302  26.642  1.00  0.00     0.346 HD
BRANCH   9  12
ATOM     12  C   UNL A   1      37.916  21.989  25.205  1.00  0.00     0.185 C 
ATOM     13  C   UNL A   1      37.981  20.460  25.008  1.00  0.00     0.076 C 
BRANCH  12  14
ATOM     14  C   UNL A   1      36.431  22.552  25.020  1.00  0.00     0.023 C 
ATOM     15  C   UNL A   1      36.098  22.773  23.520  1.00  0.00     0.016 C 
ATOM     16  C   UNL A   1      36.175  23.903  25.745  1.00  0.00     0.016 C 
ATOM     17  C   UNL A   1      35.377  21.534  25.566  1.00  0.00     0.016 C 
ATOM     18  C   UNL A   1      34.656  23.229  23.279  1.00  0.00    -0.010 C 
ATOM     19  C   UNL A   1      34.733  24.403  25.499  1.00  0.00    -0.010 C 
ATOM     20  C   UNL A   1      33.933  22.021  25.341  1.00  0.00    -0.010 C 
ATOM     21  C   UNL A   1      33.685  22.190  23.838  1.00  0.00     0.007 C 
ATOM     22  C   UNL A   1      34.473  24.576  23.993  1.00  0.00     0.007 C 
ATOM     23  C   UNL A   1      33.736  23.373  26.049  1.00  0.00     0.007 C 
ENDBRANCH  12  14
ENDBRANCH   9  12
ENDBRANCH   7   9
ENDBRANCH   5   7
ENDBRANCH   3   5
ENDBRANCH   2   3
ENDBRANCH   1   2
BRANCH   1  24
ATOM     24  C   UNL A   1      43.249  18.349  25.487  1.00  0.00     0.275 C 
BRANCH  24  25
ATOM     25  O   UNL A   1      44.571  18.875  25.266  1.00  0.00    -0.458 OA
BRANCH  25  26
ATOM     26  C   UNL A   1      44.716  19.616  24.144  1.00  0.00     0.338 C 
ATOM     27  O   UNL A   1      44.526  19.261  22.993  1.00  0.00    -0.246 OA
BRANCH  26  28
ATOM     28  C   UNL A   1      45.158  20.980  24.472  1.00  0.00     0.060 A 
ATOM     29  C   UNL A   1      45.646  21.266  25.748  1.00  0.00     0.016 A 
ATOM     30  C   UNL A   1      44.903  22.013  23.568  1.00  0.00     0.016 A 
ATOM     31  C   UNL A   1      45.822  22.592  26.149  1.00  0.00     0.010 A 
ATOM     32  C   UNL A   1      45.126  23.339  23.954  1.00  0.00     0.010 A 
ATOM     33  C   UNL A   1      45.553  23.641  25.258  1.00  0.00    -0.014 A 
BRANCH  33  34
ATOM     34  C   UNL A   1      45.661  25.057  25.698  1.00  0.00     0.031 A 
ATOM     35  C   UNL A   1      46.990  25.761  25.662  1.00  0.00     0.074 A 
ATOM     36  C   UNL A   1      44.573  25.716  26.139  1.00  0.00     0.049 A 
ATOM     37  N   UNL A   1      47.320  26.936  26.137  1.00  0.00    -0.248 NA
ATOM     38  C   UNL A   1      48.096  25.045  25.006  1.00  0.00     0.031 C 
ATOM     39  C   UNL A   1      43.216  25.173  26.192  1.00  0.00     0.029 A 
ATOM     40  N   UNL A   1      44.445  26.990  26.637  1.00  0.00    -0.354 N 
ATOM     41  C   UNL A   1      48.675  27.086  25.871  1.00  0.00     0.074 A 
ATOM     42  C   UNL A   1      49.108  25.880  25.195  1.00  0.00     0.031 C 
ATOM     43  C   UNL A   1      42.391  26.108  26.691  1.00  0.00     0.029 A 
ATOM     44  C   UNL A   1      43.168  27.293  27.040  1.00  0.00     0.049 A 
ATOM     45  H   UNL A   1      45.195  27.624  26.699  1.00  0.00     0.167 HD
ATOM     46  C   UNL A   1      49.486  28.132  26.162  1.00  0.00     0.037 A 
ATOM     47  C   UNL A   1      42.683  28.390  27.652  1.00  0.00     0.037 A 
ATOM     48  C   UNL A   1      49.056  29.347  26.805  1.00  0.00     0.049 A 
ATOM     49  C   UNL A   1      43.608  29.522  27.997  1.00  0.00     0.074 A 
ATOM     50  C   UNL A   1      49.806  30.465  27.131  1.00  0.00     0.029 A 
ATOM     51  N   UNL A   1      47.757  29.607  27.210  1.00  0.00    -0.354 N 
ATOM     52  N   UNL A   1      44.893  29.637  27.774  1.00  0.00    -0.248 NA
ATOM     53  C   UNL A   1      43.013  30.674  28.691  1.00  0.00     0.031 C 
ATOM     54  C   UNL A   1      48.965  31.392  27.756  1.00  0.00     0.029 A 
ATOM     55  C   UNL A   1      47.685  30.863  27.791  1.00  0.00     0.049 A 
ATOM     56  H   UNL A   1      46.997  28.991  27.102  1.00  0.00     0.167 HD
ATOM     57  C   UNL A   1      45.258  30.874  28.286  1.00  0.00     0.074 A 
ATOM     58  C   UNL A   1      44.056  31.481  28.819  1.00  0.00     0.031 C 
ATOM     59  C   UNL A   1      46.483  31.455  28.316  1.00  0.00     0.037 A 
BRANCH  46  60
ATOM     60  C   UNL A   1      50.936  28.000  25.807  1.00  0.00     0.057 A 
ATOM     61  C   UNL A   1      51.899  27.636  26.756  1.00  0.00     0.134 A 
ATOM     62  C   UNL A   1      51.368  28.206  24.491  1.00  0.00     0.134 A 
ATOM     63  F   UNL A   1      51.551  27.439  28.036  1.00  0.00    -0.206 F 
ATOM     64  C   UNL A   1      53.244  27.496  26.410  1.00  0.00     0.040 A 
ATOM     65  C   UNL A   1      52.707  28.050  24.129  1.00  0.00     0.040 A 
ATOM     66  F   UNL A   1      50.493  28.552  23.534  1.00  0.00    -0.206 F 
ATOM     67  C   UNL A   1      53.649  27.697  25.092  1.00  0.00     0.006 A 
ENDBRANCH  46  60
BRANCH  47  68
ATOM     68  C   UNL A   1      41.245  28.460  28.004  1.00  0.00     0.057 A 
ATOM     69  C   UNL A   1      40.791  28.056  29.264  1.00  0.00     0.134 A 
ATOM     70  C   UNL A   1      40.294  28.928  27.091  1.00  0.00     0.134 A 
ATOM     71  F   UNL A   1      41.656  27.576  30.170  1.00  0.00    -0.206 F 
ATOM     72  C   UNL A   1      39.438  28.108  29.602  1.00  0.00     0.040 A 
ATOM     73  C   UNL A   1      38.941  29.004  27.422  1.00  0.00     0.040 A 
ATOM     74  F   UNL A   1      40.669  29.327  25.867  1.00  0.00    -0.206 F 
ATOM     75  C   UNL A   1      38.510  28.589  28.680  1.00  0.00     0.006 A 
ENDBRANCH  47  68
BRANCH  59  76
ATOM     76  C   UNL A   1      46.573  32.822  28.922  1.00  0.00     0.057 A 
ATOM     77  C   UNL A   1      46.857  33.005  30.281  1.00  0.00     0.134 A 
ATOM     78  C   UNL A   1      46.391  33.966  28.136  1.00  0.00     0.134 A 
ATOM     79  F   UNL A   1      47.027  31.948  31.090  1.00  0.00    -0.206 F 
ATOM     80  C   UNL A   1      46.937  34.282  30.841  1.00  0.00     0.040 A 
ATOM     81  C   UNL A   1      46.487  35.247  28.681  1.00  0.00     0.040 A 
ATOM     82  F   UNL A   1      46.121  33.856  26.827  1.00  0.00    -0.206 F 
ATOM     83  C   UNL A   1      46.755  35.407  30.038  1.00  0.00     0.006 A 
ENDBRANCH  59  76
ENDBRANCH  33  34
ENDBRANCH  26  28
ENDBRANCH  25  26
ENDBRANCH  24  25
ENDBRANCH   1  24
TORSDOF 15
ENDMDL
