MODEL 1
REMARK VINA RESULT:     -10.5      0.000      0.000
REMARK SMILES C[C@H](O)[C@@H](NC(=O)c1ccc(Cl)c(S(C)(=O)=O)c1)C(=O)OCCOC(=O)c1ccc(-c2c3nc(c(-c4c(F)cccc4F)c4ccc([nH]4)c(-c4c(F)cccc4F)c4nc(c(-c5c(F)cccc5F)c5ccc2[nH]5)C=C4)C=C3)cc1
REMARK SMILES IDX 22 1 21 2 19 3 20 4 4 5 2 6 1 7 3 8 5 10 6 11 7 13 8 14 9 15
REMARK SMILES IDX 18 16 10 17 13 18 11 19 12 20 14 21 15 22 16 23 17 24 23 25
REMARK SMILES IDX 24 26 25 27 26 28 27 29 28 30 80 31 29 32 79 33 30 34 31 35
REMARK SMILES IDX 32 36 73 37 33 38 78 39 72 40 74 41 34 42 77 43 71 44 70 45
REMARK SMILES IDX 35 47 61 48 44 49 60 50 45 51 48 52 59 53 75 54 46 55 47 56
REMARK SMILES IDX 58 58 76 59 49 60 36 61 37 62 42 63 38 64 39 65 41 66 43 67
REMARK SMILES IDX 40 68 62 69 63 70 68 71 64 72 65 73 67 74 69 75 66 76 50 77
REMARK SMILES IDX 51 78 56 79 52 80 53 81 55 82 57 83 54 84
REMARK H PARENT 3 9 5 12 74 46 48 57
REMARK Flexibility Score: inf
ROOT
ATOM      1  C   UNL A   1      33.970  34.592  28.270  1.00  0.00     0.274 C 
ENDROOT
BRANCH   1   2
ATOM      2  O   UNL A   1      32.843  35.303  28.833  1.00  0.00    -0.460 OA
BRANCH   2   3
ATOM      3  C   UNL A   1      33.180  36.221  29.770  1.00  0.00     0.331 C 
ATOM      4  O   UNL A   1      33.246  37.428  29.547  1.00  0.00    -0.250 OA
BRANCH   3   5
ATOM      5  C   UNL A   1      33.628  35.658  31.117  1.00  0.00     0.221 C 
BRANCH   5   6
ATOM      6  C   UNL A   1      32.857  36.214  32.338  1.00  0.00     0.145 C 
ATOM      7  C   UNL A   1      33.723  36.628  33.521  1.00  0.00     0.041 C 
BRANCH   6   8
ATOM      8  O   UNL A   1      31.996  35.164  32.822  1.00  0.00    -0.391 OA
ATOM      9  H   UNL A   1      31.911  35.235  33.787  1.00  0.00     0.211 HD
ENDBRANCH   6   8
ENDBRANCH   5   6
BRANCH   5  10
ATOM     10  N   UNL A   1      33.721  34.177  31.207  1.00  0.00    -0.336 N 
ATOM     11  C   UNL A   1      34.615  33.390  31.889  1.00  0.00     0.252 C 
ATOM     12  H   UNL A   1      33.036  33.684  30.700  1.00  0.00     0.164 HD
ATOM     13  O   UNL A   1      34.278  32.305  32.347  1.00  0.00    -0.269 OA
BRANCH  11  14
ATOM     14  C   UNL A   1      36.038  33.750  31.915  1.00  0.00     0.041 A 
ATOM     15  C   UNL A   1      36.750  33.974  30.740  1.00  0.00     0.015 A 
ATOM     16  C   UNL A   1      36.661  33.875  33.158  1.00  0.00     0.035 A 
ATOM     17  C   UNL A   1      38.124  34.231  30.816  1.00  0.00     0.023 A 
ATOM     18  C   UNL A   1      38.030  34.177  33.231  1.00  0.00     0.086 A 
ATOM     19  C   UNL A   1      38.774  34.332  32.056  1.00  0.00     0.059 A 
ATOM     20  Cl  UNL A   1      40.465  34.654  31.998  1.00  0.00    -0.083 Cl
BRANCH  18  21
ATOM     21  S   UNL A   1      38.731  34.271  34.861  1.00  0.00     0.177 S 
ATOM     22  C   UNL A   1      37.378  33.789  35.903  1.00  0.00     0.164 C 
ATOM     23  O   UNL A   1      39.743  33.226  34.939  1.00  0.00    -0.224 OA
ATOM     24  O   UNL A   1      39.103  35.633  35.161  1.00  0.00    -0.224 OA
ENDBRANCH  18  21
ENDBRANCH  11  14
ENDBRANCH   5  10
ENDBRANCH   3   5
ENDBRANCH   2   3
ENDBRANCH   1   2
BRANCH   1  25
ATOM     25  C   UNL A   1      33.744  33.109  27.938  1.00  0.00     0.275 C 
BRANCH  25  26
ATOM     26  O   UNL A   1      34.689  32.225  28.570  1.00  0.00    -0.458 OA
BRANCH  26  27
ATOM     27  C   UNL A   1      34.533  30.921  28.247  1.00  0.00     0.338 C 
ATOM     28  O   UNL A   1      33.519  30.389  27.824  1.00  0.00    -0.246 OA
BRANCH  27  29
ATOM     29  C   UNL A   1      35.801  30.183  28.353  1.00  0.00     0.060 A 
ATOM     30  C   UNL A   1      36.214  29.746  29.617  1.00  0.00     0.016 A 
ATOM     31  C   UNL A   1      36.664  30.098  27.264  1.00  0.00     0.016 A 
ATOM     32  C   UNL A   1      37.503  29.270  29.817  1.00  0.00     0.010 A 
ATOM     33  C   UNL A   1      37.958  29.605  27.460  1.00  0.00     0.010 A 
ATOM     34  C   UNL A   1      38.393  29.221  28.744  1.00  0.00    -0.014 A 
BRANCH  34  35
ATOM     35  C   UNL A   1      39.810  28.873  28.983  1.00  0.00     0.031 A 
ATOM     36  C   UNL A   1      40.731  29.908  29.559  1.00  0.00     0.074 A 
ATOM     37  C   UNL A   1      40.261  27.638  28.699  1.00  0.00     0.049 A 
ATOM     38  N   UNL A   1      42.031  29.877  29.699  1.00  0.00    -0.248 NA
ATOM     39  C   UNL A   1      40.102  31.149  30.039  1.00  0.00     0.031 C 
ATOM     40  C   UNL A   1      39.440  26.530  28.212  1.00  0.00     0.029 A 
ATOM     41  N   UNL A   1      41.527  27.117  28.766  1.00  0.00    -0.354 N 
ATOM     42  C   UNL A   1      42.379  31.105  30.246  1.00  0.00     0.074 A 
ATOM     43  C   UNL A   1      41.157  31.863  30.404  1.00  0.00     0.031 C 
ATOM     44  C   UNL A   1      40.229  25.464  28.002  1.00  0.00     0.029 A 
ATOM     45  C   UNL A   1      41.612  25.834  28.284  1.00  0.00     0.049 A 
ATOM     46  H   UNL A   1      42.298  27.613  29.124  1.00  0.00     0.167 HD
ATOM     47  C   UNL A   1      43.612  31.555  30.582  1.00  0.00     0.037 A 
ATOM     48  C   UNL A   1      42.692  25.066  28.052  1.00  0.00     0.037 A 
ATOM     49  C   UNL A   1      44.817  30.781  30.432  1.00  0.00     0.049 A 
ATOM     50  C   UNL A   1      44.058  25.617  28.357  1.00  0.00     0.074 A 
ATOM     51  C   UNL A   1      46.116  31.135  30.750  1.00  0.00     0.029 A 
ATOM     52  N   UNL A   1      44.867  29.492  29.918  1.00  0.00    -0.354 N 
ATOM     53  N   UNL A   1      44.388  26.785  28.855  1.00  0.00    -0.248 NA
ATOM     54  C   UNL A   1      45.204  24.745  28.063  1.00  0.00     0.031 C 
ATOM     55  C   UNL A   1      46.958  30.082  30.378  1.00  0.00     0.029 A 
ATOM     56  C   UNL A   1      46.178  29.047  29.885  1.00  0.00     0.049 A 
ATOM     57  H   UNL A   1      44.086  28.972  29.619  1.00  0.00     0.167 HD
ATOM     58  C   UNL A   1      45.773  26.776  28.963  1.00  0.00     0.074 A 
ATOM     59  C   UNL A   1      46.220  25.483  28.488  1.00  0.00     0.031 C 
ATOM     60  C   UNL A   1      46.600  27.750  29.416  1.00  0.00     0.037 A 
BRANCH  47  61
ATOM     61  C   UNL A   1      43.722  32.960  31.098  1.00  0.00     0.057 A 
ATOM     62  C   UNL A   1      43.763  33.254  32.468  1.00  0.00     0.134 A 
ATOM     63  C   UNL A   1      43.810  34.037  30.206  1.00  0.00     0.134 A 
ATOM     64  F   UNL A   1      43.668  32.272  33.377  1.00  0.00    -0.206 F 
ATOM     65  C   UNL A   1      43.862  34.568  32.929  1.00  0.00     0.040 A 
ATOM     66  C   UNL A   1      43.938  35.353  30.656  1.00  0.00     0.040 A 
ATOM     67  F   UNL A   1      43.780  33.829  28.881  1.00  0.00    -0.206 F 
ATOM     68  C   UNL A   1      43.957  35.621  32.022  1.00  0.00     0.006 A 
ENDBRANCH  47  61
BRANCH  48  69
ATOM     69  C   UNL A   1      42.527  23.711  27.467  1.00  0.00     0.057 A 
ATOM     70  C   UNL A   1      42.313  22.593  28.281  1.00  0.00     0.134 A 
ATOM     71  C   UNL A   1      42.585  23.501  26.083  1.00  0.00     0.134 A 
ATOM     72  F   UNL A   1      42.269  22.727  29.614  1.00  0.00    -0.206 F 
ATOM     73  C   UNL A   1      42.180  21.312  27.741  1.00  0.00     0.040 A 
ATOM     74  C   UNL A   1      42.424  22.231  25.529  1.00  0.00     0.040 A 
ATOM     75  F   UNL A   1      42.783  24.531  25.248  1.00  0.00    -0.206 F 
ATOM     76  C   UNL A   1      42.228  21.130  26.360  1.00  0.00     0.006 A 
ENDBRANCH  48  69
BRANCH  60  77
ATOM     77  C   UNL A   1      48.067  27.436  29.466  1.00  0.00     0.057 A 
ATOM     78  C   UNL A   1      48.650  26.777  30.555  1.00  0.00     0.134 A 
ATOM     79  C   UNL A   1      48.899  27.764  28.387  1.00  0.00     0.134 A 
ATOM     80  F   UNL A   1      47.912  26.447  31.626  1.00  0.00    -0.206 F 
ATOM     81  C   UNL A   1      50.014  26.477  30.580  1.00  0.00     0.040 A 
ATOM     82  C   UNL A   1      50.257  27.443  28.388  1.00  0.00     0.040 A 
ATOM     83  F   UNL A   1      48.403  28.388  27.309  1.00  0.00    -0.206 F 
ATOM     84  C   UNL A   1      50.819  26.803  29.491  1.00  0.00     0.006 A 
ENDBRANCH  60  77
ENDBRANCH  34  35
ENDBRANCH  27  29
ENDBRANCH  26  27
ENDBRANCH  25  26
ENDBRANCH   1  25
TORSDOF 16
ENDMDL
MODEL 2
REMARK VINA RESULT:     -10.4      5.281      9.570
REMARK SMILES C[C@H](O)[C@@H](NC(=O)c1ccc(Cl)c(S(C)(=O)=O)c1)C(=O)OCCOC(=O)c1ccc(-c2c3nc(c(-c4c(F)cccc4F)c4ccc([nH]4)c(-c4c(F)cccc4F)c4nc(c(-c5c(F)cccc5F)c5ccc2[nH]5)C=C4)C=C3)cc1
REMARK SMILES IDX 22 1 21 2 19 3 20 4 4 5 2 6 1 7 3 8 5 10 6 11 7 13 8 14 9 15
REMARK SMILES IDX 18 16 10 17 13 18 11 19 12 20 14 21 15 22 16 23 17 24 23 25
REMARK SMILES IDX 24 26 25 27 26 28 27 29 28 30 80 31 29 32 79 33 30 34 31 35
REMARK SMILES IDX 32 36 73 37 33 38 78 39 72 40 74 41 34 42 77 43 71 44 70 45
REMARK SMILES IDX 35 47 61 48 44 49 60 50 45 51 48 52 59 53 75 54 46 55 47 56
REMARK SMILES IDX 58 58 76 59 49 60 36 61 37 62 42 63 38 64 39 65 41 66 43 67
REMARK SMILES IDX 40 68 62 69 63 70 68 71 64 72 65 73 67 74 69 75 66 76 50 77
REMARK SMILES IDX 51 78 56 79 52 80 53 81 55 82 57 83 54 84
REMARK H PARENT 3 9 5 12 74 46 48 57
REMARK Flexibility Score: inf
ROOT
ATOM      1  C   UNL A   1      36.055  20.053  24.949  1.00  0.00     0.274 C 
ENDROOT
BRANCH   1   2
ATOM      2  O   UNL A   1      35.552  21.396  24.764  1.00  0.00    -0.460 OA
BRANCH   2   3
ATOM      3  C   UNL A   1      34.784  21.845  25.785  1.00  0.00     0.331 C 
ATOM      4  O   UNL A   1      35.138  21.822  26.962  1.00  0.00    -0.250 OA
BRANCH   3   5
ATOM      5  C   UNL A   1      33.363  22.260  25.413  1.00  0.00     0.221 C 
BRANCH   5   6
ATOM      6  C   UNL A   1      32.561  21.188  24.636  1.00  0.00     0.145 C 
ATOM      7  C   UNL A   1      32.015  21.637  23.286  1.00  0.00     0.041 C 
BRANCH   6   8
ATOM      8  O   UNL A   1      31.412  20.842  25.435  1.00  0.00    -0.391 OA
ATOM      9  H   UNL A   1      31.481  21.270  26.303  1.00  0.00     0.211 HD
ENDBRANCH   6   8
ENDBRANCH   5   6
BRANCH   5  10
ATOM     10  N   UNL A   1      32.534  22.814  26.516  1.00  0.00    -0.336 N 
ATOM     11  C   UNL A   1      31.711  23.912  26.533  1.00  0.00     0.252 C 
ATOM     12  H   UNL A   1      32.582  22.317  27.364  1.00  0.00     0.164 HD
ATOM     13  O   UNL A   1      30.706  23.934  27.233  1.00  0.00    -0.269 OA
BRANCH  11  14
ATOM     14  C   UNL A   1      32.125  25.150  25.862  1.00  0.00     0.041 A 
ATOM     15  C   UNL A   1      33.388  25.697  26.066  1.00  0.00     0.015 A 
ATOM     16  C   UNL A   1      31.217  25.762  24.996  1.00  0.00     0.035 A 
ATOM     17  C   UNL A   1      33.703  26.923  25.468  1.00  0.00     0.023 A 
ATOM     18  C   UNL A   1      31.553  26.969  24.363  1.00  0.00     0.086 A 
ATOM     19  C   UNL A   1      32.791  27.569  24.617  1.00  0.00     0.059 A 
ATOM     20  Cl  UNL A   1      33.313  29.069  23.951  1.00  0.00    -0.083 Cl
BRANCH  18  21
ATOM     21  S   UNL A   1      30.308  27.684  23.316  1.00  0.00     0.177 S 
ATOM     22  C   UNL A   1      28.859  26.745  23.723  1.00  0.00     0.164 C 
ATOM     23  O   UNL A   1      30.100  29.046  23.789  1.00  0.00    -0.224 OA
ATOM     24  O   UNL A   1      30.645  27.466  21.929  1.00  0.00    -0.224 OA
ENDBRANCH  18  21
ENDBRANCH  11  14
ENDBRANCH   5  10
ENDBRANCH   3   5
ENDBRANCH   2   3
ENDBRANCH   1   2
BRANCH   1  25
ATOM     25  C   UNL A   1      37.583  19.898  24.998  1.00  0.00     0.275 C 
BRANCH  25  26
ATOM     26  O   UNL A   1      38.275  21.107  25.362  1.00  0.00    -0.458 OA
BRANCH  26  27
ATOM     27  C   UNL A   1      39.389  20.910  26.103  1.00  0.00     0.338 C 
ATOM     28  O   UNL A   1      40.050  19.885  26.170  1.00  0.00    -0.246 OA
BRANCH  27  29
ATOM     29  C   UNL A   1      39.819  22.147  26.770  1.00  0.00     0.060 A 
ATOM     30  C   UNL A   1      39.303  23.365  26.313  1.00  0.00     0.016 A 
ATOM     31  C   UNL A   1      40.861  22.129  27.693  1.00  0.00     0.016 A 
ATOM     32  C   UNL A   1      39.852  24.571  26.731  1.00  0.00     0.010 A 
ATOM     33  C   UNL A   1      41.406  23.342  28.127  1.00  0.00     0.010 A 
ATOM     34  C   UNL A   1      40.926  24.565  27.622  1.00  0.00    -0.014 A 
BRANCH  34  35
ATOM     35  C   UNL A   1      41.619  25.833  27.940  1.00  0.00     0.031 A 
ATOM     36  C   UNL A   1      40.888  26.893  28.708  1.00  0.00     0.074 A 
ATOM     37  C   UNL A   1      42.894  26.022  27.555  1.00  0.00     0.049 A 
ATOM     38  N   UNL A   1      41.237  28.130  28.954  1.00  0.00    -0.248 NA
ATOM     39  C   UNL A   1      39.583  26.511  29.273  1.00  0.00     0.031 C 
ATOM     40  C   UNL A   1      43.727  25.031  26.874  1.00  0.00     0.029 A 
ATOM     41  N   UNL A   1      43.702  27.123  27.669  1.00  0.00    -0.354 N 
ATOM     42  C   UNL A   1      40.181  28.683  29.667  1.00  0.00     0.074 A 
ATOM     43  C   UNL A   1      39.175  27.653  29.806  1.00  0.00     0.031 C 
ATOM     44  C   UNL A   1      44.925  25.578  26.611  1.00  0.00     0.029 A 
ATOM     45  C   UNL A   1      44.919  26.969  27.051  1.00  0.00     0.049 A 
ATOM     46  H   UNL A   1      43.437  27.942  28.147  1.00  0.00     0.167 HD
ATOM     47  C   UNL A   1      40.067  29.941  30.157  1.00  0.00     0.037 A 
ATOM     48  C   UNL A   1      45.895  27.868  26.825  1.00  0.00     0.037 A 
ATOM     49  C   UNL A   1      41.087  30.949  30.022  1.00  0.00     0.049 A 
ATOM     50  C   UNL A   1      45.712  29.280  27.308  1.00  0.00     0.074 A 
ATOM     51  C   UNL A   1      41.080  32.252  30.489  1.00  0.00     0.029 A 
ATOM     52  N   UNL A   1      42.297  30.764  29.368  1.00  0.00    -0.354 N 
ATOM     53  N   UNL A   1      44.706  29.808  27.963  1.00  0.00    -0.248 NA
ATOM     54  C   UNL A   1      46.798  30.226  27.014  1.00  0.00     0.031 C 
ATOM     55  C   UNL A   1      42.262  32.871  30.071  1.00  0.00     0.029 A 
ATOM     56  C   UNL A   1      43.034  31.937  29.397  1.00  0.00     0.049 A 
ATOM     57  H   UNL A   1      42.589  29.924  28.946  1.00  0.00     0.167 HD
ATOM     58  C   UNL A   1      45.050  31.135  28.188  1.00  0.00     0.074 A 
ATOM     59  C   UNL A   1      46.363  31.328  27.607  1.00  0.00     0.031 C 
ATOM     60  C   UNL A   1      44.345  32.105  28.820  1.00  0.00     0.037 A 
BRANCH  47  61
ATOM     61  C   UNL A   1      38.782  30.307  30.840  1.00  0.00     0.057 A 
ATOM     62  C   UNL A   1      37.703  30.876  30.150  1.00  0.00     0.134 A 
ATOM     63  C   UNL A   1      38.614  30.063  32.209  1.00  0.00     0.134 A 
ATOM     64  F   UNL A   1      37.802  31.149  28.840  1.00  0.00    -0.206 F 
ATOM     65  C   UNL A   1      36.515  31.213  30.803  1.00  0.00     0.040 A 
ATOM     66  C   UNL A   1      37.421  30.370  32.867  1.00  0.00     0.040 A 
ATOM     67  F   UNL A   1      39.604  29.518  32.931  1.00  0.00    -0.206 F 
ATOM     68  C   UNL A   1      36.370  30.954  32.164  1.00  0.00     0.006 A 
ENDBRANCH  47  61
BRANCH  48  69
ATOM     69  C   UNL A   1      47.112  27.467  26.076  1.00  0.00     0.057 A 
ATOM     70  C   UNL A   1      48.268  27.049  26.744  1.00  0.00     0.134 A 
ATOM     71  C   UNL A   1      47.152  27.498  24.676  1.00  0.00     0.134 A 
ATOM     72  F   UNL A   1      48.300  27.018  28.084  1.00  0.00    -0.206 F 
ATOM     73  C   UNL A   1      49.425  26.692  26.048  1.00  0.00     0.040 A 
ATOM     74  C   UNL A   1      48.292  27.116  23.968  1.00  0.00     0.040 A 
ATOM     75  F   UNL A   1      46.076  27.885  23.975  1.00  0.00    -0.206 F 
ATOM     76  C   UNL A   1      49.436  26.719  24.655  1.00  0.00     0.006 A 
ENDBRANCH  48  69
BRANCH  60  77
ATOM     77  C   UNL A   1      44.999  33.449  28.958  1.00  0.00     0.057 A 
ATOM     78  C   UNL A   1      44.801  34.472  28.023  1.00  0.00     0.134 A 
ATOM     79  C   UNL A   1      45.808  33.733  30.067  1.00  0.00     0.134 A 
ATOM     80  F   UNL A   1      44.050  34.262  26.932  1.00  0.00    -0.206 F 
ATOM     81  C   UNL A   1      45.404  35.723  28.174  1.00  0.00     0.040 A 
ATOM     82  C   UNL A   1      46.390  34.989  30.243  1.00  0.00     0.040 A 
ATOM     83  F   UNL A   1      46.031  32.800  31.004  1.00  0.00    -0.206 F 
ATOM     84  C   UNL A   1      46.194  35.986  29.291  1.00  0.00     0.006 A 
ENDBRANCH  60  77
ENDBRANCH  34  35
ENDBRANCH  27  29
ENDBRANCH  26  27
ENDBRANCH  25  26
ENDBRANCH   1  25
TORSDOF 16
ENDMDL
MODEL 3
REMARK VINA RESULT:     -10.3      5.480      9.849
REMARK SMILES C[C@H](O)[C@@H](NC(=O)c1ccc(Cl)c(S(C)(=O)=O)c1)C(=O)OCCOC(=O)c1ccc(-c2c3nc(c(-c4c(F)cccc4F)c4ccc([nH]4)c(-c4c(F)cccc4F)c4nc(c(-c5c(F)cccc5F)c5ccc2[nH]5)C=C4)C=C3)cc1
REMARK SMILES IDX 22 1 21 2 19 3 20 4 4 5 2 6 1 7 3 8 5 10 6 11 7 13 8 14 9 15
REMARK SMILES IDX 18 16 10 17 13 18 11 19 12 20 14 21 15 22 16 23 17 24 23 25
REMARK SMILES IDX 24 26 25 27 26 28 27 29 28 30 80 31 29 32 79 33 30 34 31 35
REMARK SMILES IDX 32 36 73 37 33 38 78 39 72 40 74 41 34 42 77 43 71 44 70 45
REMARK SMILES IDX 35 47 61 48 44 49 60 50 45 51 48 52 59 53 75 54 46 55 47 56
REMARK SMILES IDX 58 58 76 59 49 60 36 61 37 62 42 63 38 64 39 65 41 66 43 67
REMARK SMILES IDX 40 68 62 69 63 70 68 71 64 72 65 73 67 74 69 75 66 76 50 77
REMARK SMILES IDX 51 78 56 79 52 80 53 81 55 82 57 83 54 84
REMARK H PARENT 3 9 5 12 74 46 48 57
REMARK Flexibility Score: inf
ROOT
ATOM      1  C   UNL A   1      31.445  29.701  25.012  1.00  0.00     0.274 C 
ENDROOT
BRANCH   1   2
ATOM      2  O   UNL A   1      32.298  28.571  25.311  1.00  0.00    -0.460 OA
BRANCH   2   3
ATOM      3  C   UNL A   1      31.626  27.425  25.574  1.00  0.00     0.331 C 
ATOM      4  O   UNL A   1      31.052  27.203  26.639  1.00  0.00    -0.250 OA
BRANCH   3   5
ATOM      5  C   UNL A   1      31.739  26.332  24.514  1.00  0.00     0.221 C 
BRANCH   5   6
ATOM      6  C   UNL A   1      30.471  26.137  23.650  1.00  0.00     0.145 C 
ATOM      7  C   UNL A   1      29.443  27.257  23.741  1.00  0.00     0.041 C 
BRANCH   6   8
ATOM      8  O   UNL A   1      29.806  24.946  24.118  1.00  0.00    -0.391 OA
ATOM      9  H   UNL A   1      30.466  24.314  24.442  1.00  0.00     0.211 HD
ENDBRANCH   6   8
ENDBRANCH   5   6
BRANCH   5  10
ATOM     10  N   UNL A   1      32.943  26.391  23.643  1.00  0.00    -0.336 N 
ATOM     11  C   UNL A   1      33.433  25.467  22.754  1.00  0.00     0.252 C 
ATOM     12  H   UNL A   1      33.469  27.220  23.713  1.00  0.00     0.164 HD
ATOM     13  O   UNL A   1      34.028  25.820  21.743  1.00  0.00    -0.269 OA
BRANCH  11  14
ATOM     14  C   UNL A   1      33.421  24.040  23.099  1.00  0.00     0.041 A 
ATOM     15  C   UNL A   1      32.527  23.157  22.499  1.00  0.00     0.015 A 
ATOM     16  C   UNL A   1      34.345  23.585  24.041  1.00  0.00     0.035 A 
ATOM     17  C   UNL A   1      32.500  21.824  22.924  1.00  0.00     0.023 A 
ATOM     18  C   UNL A   1      34.344  22.236  24.433  1.00  0.00     0.086 A 
ATOM     19  C   UNL A   1      33.402  21.354  23.891  1.00  0.00     0.059 A 
ATOM     20  Cl  UNL A   1      33.255  19.691  24.317  1.00  0.00    -0.083 Cl
BRANCH  18  21
ATOM     21  S   UNL A   1      35.533  21.773  25.669  1.00  0.00     0.177 S 
ATOM     22  C   UNL A   1      36.418  23.284  25.954  1.00  0.00     0.164 C 
ATOM     23  O   UNL A   1      34.778  21.468  26.877  1.00  0.00    -0.224 OA
ATOM     24  O   UNL A   1      36.438  20.782  25.137  1.00  0.00    -0.224 OA
ENDBRANCH  18  21
ENDBRANCH  11  14
ENDBRANCH   5  10
ENDBRANCH   3   5
ENDBRANCH   2   3
ENDBRANCH   1   2
BRANCH   1  25
ATOM     25  C   UNL A   1      31.426  30.834  26.048  1.00  0.00     0.275 C 
BRANCH  25  26
ATOM     26  O   UNL A   1      32.399  30.674  27.098  1.00  0.00    -0.458 OA
BRANCH  26  27
ATOM     27  C   UNL A   1      33.152  31.773  27.332  1.00  0.00     0.338 C 
ATOM     28  O   UNL A   1      32.772  32.933  27.324  1.00  0.00    -0.246 OA
BRANCH  27  29
ATOM     29  C   UNL A   1      34.521  31.415  27.730  1.00  0.00     0.060 A 
ATOM     30  C   UNL A   1      34.800  30.077  28.031  1.00  0.00     0.016 A 
ATOM     31  C   UNL A   1      35.463  32.405  27.997  1.00  0.00     0.016 A 
ATOM     32  C   UNL A   1      35.993  29.720  28.645  1.00  0.00     0.010 A 
ATOM     33  C   UNL A   1      36.672  32.046  28.602  1.00  0.00     0.010 A 
ATOM     34  C   UNL A   1      36.927  30.708  28.959  1.00  0.00    -0.014 A 
BRANCH  34  35
ATOM     35  C   UNL A   1      38.121  30.358  29.758  1.00  0.00     0.031 A 
ATOM     36  C   UNL A   1      39.153  29.442  29.170  1.00  0.00     0.074 A 
ATOM     37  C   UNL A   1      38.283  30.869  30.992  1.00  0.00     0.049 A 
ATOM     38  N   UNL A   1      40.184  28.877  29.742  1.00  0.00    -0.248 NA
ATOM     39  C   UNL A   1      39.000  29.113  27.743  1.00  0.00     0.031 C 
ATOM     40  C   UNL A   1      37.386  31.830  31.633  1.00  0.00     0.029 A 
ATOM     41  N   UNL A   1      39.253  30.633  31.931  1.00  0.00    -0.354 N 
ATOM     42  C   UNL A   1      40.780  28.098  28.758  1.00  0.00     0.074 A 
ATOM     43  C   UNL A   1      39.991  28.254  27.557  1.00  0.00     0.031 C 
ATOM     44  C   UNL A   1      37.837  32.087  32.871  1.00  0.00     0.029 A 
ATOM     45  C   UNL A   1      39.016  31.265  33.126  1.00  0.00     0.049 A 
ATOM     46  H   UNL A   1      40.042  30.068  31.764  1.00  0.00     0.167 HD
ATOM     47  C   UNL A   1      41.886  27.322  28.857  1.00  0.00     0.037 A 
ATOM     48  C   UNL A   1      39.652  31.151  34.307  1.00  0.00     0.037 A 
ATOM     49  C   UNL A   1      42.668  27.191  30.059  1.00  0.00     0.049 A 
ATOM     50  C   UNL A   1      40.828  30.222  34.415  1.00  0.00     0.074 A 
ATOM     51  C   UNL A   1      43.812  26.440  30.267  1.00  0.00     0.029 A 
ATOM     52  N   UNL A   1      42.384  27.828  31.259  1.00  0.00    -0.354 N 
ATOM     53  N   UNL A   1      41.378  29.471  33.491  1.00  0.00    -0.248 NA
ATOM     54  C   UNL A   1      41.472  30.119  35.732  1.00  0.00     0.031 C 
ATOM     55  C   UNL A   1      44.188  26.581  31.607  1.00  0.00     0.029 A 
ATOM     56  C   UNL A   1      43.315  27.467  32.218  1.00  0.00     0.049 A 
ATOM     57  H   UNL A   1      41.631  28.444  31.407  1.00  0.00     0.167 HD
ATOM     58  C   UNL A   1      42.448  28.831  34.105  1.00  0.00     0.074 A 
ATOM     59  C   UNL A   1      42.475  29.291  35.478  1.00  0.00     0.031 C 
ATOM     60  C   UNL A   1      43.329  27.945  33.579  1.00  0.00     0.037 A 
BRANCH  47  61
ATOM     61  C   UNL A   1      42.284  26.522  27.651  1.00  0.00     0.057 A 
ATOM     62  C   UNL A   1      41.838  25.210  27.442  1.00  0.00     0.134 A 
ATOM     63  C   UNL A   1      43.111  27.085  26.670  1.00  0.00     0.134 A 
ATOM     64  F   UNL A   1      41.056  24.605  28.348  1.00  0.00    -0.206 F 
ATOM     65  C   UNL A   1      42.221  24.481  26.315  1.00  0.00     0.040 A 
ATOM     66  C   UNL A   1      43.478  26.375  25.525  1.00  0.00     0.040 A 
ATOM     67  F   UNL A   1      43.572  28.338  26.804  1.00  0.00    -0.206 F 
ATOM     68  C   UNL A   1      43.038  25.066  25.349  1.00  0.00     0.006 A 
ENDBRANCH  47  61
BRANCH  48  69
ATOM     69  C   UNL A   1      39.165  31.910  35.487  1.00  0.00     0.057 A 
ATOM     70  C   UNL A   1      38.258  31.342  36.389  1.00  0.00     0.134 A 
ATOM     71  C   UNL A   1      39.589  33.221  35.738  1.00  0.00     0.134 A 
ATOM     72  F   UNL A   1      37.799  30.098  36.192  1.00  0.00    -0.206 F 
ATOM     73  C   UNL A   1      37.778  32.056  37.489  1.00  0.00     0.040 A 
ATOM     74  C   UNL A   1      39.139  33.935  36.849  1.00  0.00     0.040 A 
ATOM     75  F   UNL A   1      40.460  33.822  34.915  1.00  0.00    -0.206 F 
ATOM     76  C   UNL A   1      38.224  33.355  37.725  1.00  0.00     0.006 A 
ENDBRANCH  48  69
BRANCH  60  77
ATOM     77  C   UNL A   1      44.426  27.453  34.478  1.00  0.00     0.057 A 
ATOM     78  C   UNL A   1      44.303  26.276  35.226  1.00  0.00     0.134 A 
ATOM     79  C   UNL A   1      45.639  28.151  34.564  1.00  0.00     0.134 A 
ATOM     80  F   UNL A   1      43.164  25.568  35.199  1.00  0.00    -0.206 F 
ATOM     81  C   UNL A   1      45.338  25.822  36.046  1.00  0.00     0.040 A 
ATOM     82  C   UNL A   1      46.691  27.690  35.357  1.00  0.00     0.040 A 
ATOM     83  F   UNL A   1      45.826  29.281  33.867  1.00  0.00    -0.206 F 
ATOM     84  C   UNL A   1      46.539  26.526  36.106  1.00  0.00     0.006 A 
ENDBRANCH  60  77
ENDBRANCH  34  35
ENDBRANCH  27  29
ENDBRANCH  26  27
ENDBRANCH  25  26
ENDBRANCH   1  25
TORSDOF 16
ENDMDL
