MODEL 1
REMARK VINA RESULT:     -10.2      0.000      0.000
REMARK SMILES CCC(CC)C[N@H+]1[C@@H]2CC[C@H]1C[C@H](CC(=O)OCCOC(=O)c1ccc(-c3c4nc(c(-c5c(F)cccc5F)c5ccc([nH]5)c(-c5c(F)cccc5F)c5nc(c(-c6c(F)cccc6F)c6ccc3[nH]6)C=C5)C=C4)cc1)C2
REMARK SMILES IDX 18 1 17 2 15 3 16 4 14 5 13 6 7 7 8 8 11 9 9 11 77 12 10 13
REMARK SMILES IDX 12 14 6 15 3 16 2 17 1 18 4 19 5 20 19 21 20 22 21 23 22 24
REMARK SMILES IDX 23 25 24 26 76 27 25 28 75 29 26 30 27 31 28 32 69 33 29 34
REMARK SMILES IDX 74 35 68 36 70 37 30 38 73 39 67 40 66 41 31 43 57 44 40 45
REMARK SMILES IDX 56 46 41 47 44 48 55 49 71 50 42 51 43 52 54 54 72 55 45 56
REMARK SMILES IDX 32 57 33 58 38 59 34 60 35 61 37 62 39 63 36 64 58 65 59 66
REMARK SMILES IDX 64 67 60 68 61 69 63 70 65 71 62 72 46 73 47 74 52 75 48 76
REMARK SMILES IDX 49 77 51 78 53 79 50 80
REMARK H PARENT 7 10 70 42 44 53
REMARK Flexibility Score: inf
ROOT
ATOM      1  C   UNL A   1      31.772  31.464  26.547  1.00  0.00     0.274 C 
ENDROOT
BRANCH   1   2
ATOM      2  O   UNL A   1      32.980  30.799  26.954  1.00  0.00    -0.462 OA
BRANCH   2   3
ATOM      3  C   UNL A   1      32.964  29.444  26.947  1.00  0.00     0.306 C 
ATOM      4  O   UNL A   1      33.836  28.727  27.419  1.00  0.00    -0.252 OA
BRANCH   3   5
ATOM      5  C   UNL A   1      31.750  28.892  26.234  1.00  0.00     0.126 C 
BRANCH   5   6
ATOM      6  C   UNL A   1      32.037  27.971  25.028  1.00  0.00     0.012 C 
ATOM      7  N   UNL A   1      31.165  28.413  22.237  1.00  0.00    -0.330 N 
ATOM      8  C   UNL A   1      32.608  28.425  22.523  1.00  0.00     0.184 C 
ATOM      9  C   UNL A   1      30.715  27.200  22.932  1.00  0.00     0.184 C 
ATOM     10  H   UNL A   1      30.973  28.402  21.235  1.00  0.00     0.348 HD
ATOM     11  C   UNL A   1      32.997  26.986  22.173  1.00  0.00     0.071 C 
ATOM     12  C   UNL A   1      32.916  28.732  24.000  1.00  0.00     0.069 C 
ATOM     13  C   UNL A   1      31.748  26.167  22.481  1.00  0.00     0.071 C 
ATOM     14  C   UNL A   1      30.725  27.391  24.451  1.00  0.00     0.069 C 
BRANCH   7  15
ATOM     15  C   UNL A   1      30.435  29.628  22.616  1.00  0.00     0.266 C 
BRANCH  15  16
ATOM     16  C   UNL A   1      28.961  29.607  22.158  1.00  0.00     0.044 C 
BRANCH  16  17
ATOM     17  C   UNL A   1      28.042  29.508  23.395  1.00  0.00     0.006 C 
ATOM     18  C   UNL A   1      26.873  28.552  23.236  1.00  0.00     0.004 C 
ENDBRANCH  16  17
BRANCH  16  19
ATOM     19  C   UNL A   1      28.670  30.830  21.256  1.00  0.00     0.006 C 
ATOM     20  C   UNL A   1      28.716  32.182  21.958  1.00  0.00     0.004 C 
ENDBRANCH  16  19
ENDBRANCH  15  16
ENDBRANCH   7  15
ENDBRANCH   5   6
ENDBRANCH   3   5
ENDBRANCH   2   3
ENDBRANCH   1   2
BRANCH   1  21
ATOM     21  C   UNL A   1      31.663  32.832  27.220  1.00  0.00     0.275 C 
BRANCH  21  22
ATOM     22  O   UNL A   1      32.932  33.512  27.193  1.00  0.00    -0.458 OA
BRANCH  22  23
ATOM     23  C   UNL A   1      33.247  34.226  28.297  1.00  0.00     0.338 C 
ATOM     24  O   UNL A   1      32.631  35.152  28.792  1.00  0.00    -0.246 OA
BRANCH  23  25
ATOM     25  C   UNL A   1      34.450  33.639  28.905  1.00  0.00     0.060 A 
ATOM     26  C   UNL A   1      34.313  32.525  29.738  1.00  0.00     0.016 A 
ATOM     27  C   UNL A   1      35.703  34.211  28.683  1.00  0.00     0.016 A 
ATOM     28  C   UNL A   1      35.435  31.964  30.342  1.00  0.00     0.010 A 
ATOM     29  C   UNL A   1      36.829  33.643  29.284  1.00  0.00     0.010 A 
ATOM     30  C   UNL A   1      36.702  32.515  30.114  1.00  0.00    -0.014 A 
BRANCH  30  31
ATOM     31  C   UNL A   1      37.900  31.914  30.746  1.00  0.00     0.031 A 
ATOM     32  C   UNL A   1      38.670  30.843  30.032  1.00  0.00     0.074 A 
ATOM     33  C   UNL A   1      38.281  32.323  31.970  1.00  0.00     0.049 A 
ATOM     34  N   UNL A   1      39.668  30.117  30.464  1.00  0.00    -0.248 NA
ATOM     35  C   UNL A   1      38.259  30.548  28.651  1.00  0.00     0.031 C 
ATOM     36  C   UNL A   1      37.631  33.378  32.749  1.00  0.00     0.029 A 
ATOM     37  N   UNL A   1      39.299  31.886  32.780  1.00  0.00    -0.354 N 
ATOM     38  C   UNL A   1      39.995  29.265  29.417  1.00  0.00     0.074 A 
ATOM     39  C   UNL A   1      39.078  29.555  28.334  1.00  0.00     0.031 C 
ATOM     40  C   UNL A   1      38.261  33.500  33.929  1.00  0.00     0.029 A 
ATOM     41  C   UNL A   1      39.324  32.502  34.007  1.00  0.00     0.049 A 
ATOM     42  H   UNL A   1      39.949  31.199  32.507  1.00  0.00     0.167 HD
ATOM     43  C   UNL A   1      40.971  28.328  29.369  1.00  0.00     0.037 A 
ATOM     44  C   UNL A   1      40.093  32.264  35.086  1.00  0.00     0.037 A 
ATOM     45  C   UNL A   1      41.887  28.053  30.444  1.00  0.00     0.049 A 
ATOM     46  C   UNL A   1      41.126  31.174  35.027  1.00  0.00     0.074 A 
ATOM     47  C   UNL A   1      42.936  27.150  30.473  1.00  0.00     0.029 A 
ATOM     48  N   UNL A   1      41.860  28.675  31.683  1.00  0.00    -0.354 N 
ATOM     49  N   UNL A   1      41.435  30.382  34.030  1.00  0.00    -0.248 NA
ATOM     50  C   UNL A   1      41.906  30.934  36.249  1.00  0.00     0.031 C 
ATOM     51  C   UNL A   1      43.516  27.196  31.746  1.00  0.00     0.029 A 
ATOM     52  C   UNL A   1      42.854  28.154  32.495  1.00  0.00     0.049 A 
ATOM     53  H   UNL A   1      41.229  29.383  31.946  1.00  0.00     0.167 HD
ATOM     54  C   UNL A   1      42.450  29.559  34.498  1.00  0.00     0.074 A 
ATOM     55  C   UNL A   1      42.719  29.961  35.864  1.00  0.00     0.031 C 
ATOM     56  C   UNL A   1      43.100  28.558  33.855  1.00  0.00     0.037 A 
BRANCH  43  57
ATOM     57  C   UNL A   1      41.081  27.510  28.117  1.00  0.00     0.057 A 
ATOM     58  C   UNL A   1      40.370  26.315  27.950  1.00  0.00     0.134 A 
ATOM     59  C   UNL A   1      41.878  27.944  27.051  1.00  0.00     0.134 A 
ATOM     60  F   UNL A   1      39.598  25.838  28.938  1.00  0.00    -0.206 F 
ATOM     61  C   UNL A   1      40.461  25.572  26.771  1.00  0.00     0.040 A 
ATOM     62  C   UNL A   1      41.962  27.221  25.861  1.00  0.00     0.040 A 
ATOM     63  F   UNL A   1      42.581  29.082  27.147  1.00  0.00    -0.206 F 
ATOM     64  C   UNL A   1      41.255  26.029  25.720  1.00  0.00     0.006 A 
ENDBRANCH  43  57
BRANCH  44  65
ATOM     65  C   UNL A   1      39.889  33.050  36.327  1.00  0.00     0.057 A 
ATOM     66  C   UNL A   1      40.658  34.185  36.601  1.00  0.00     0.134 A 
ATOM     67  C   UNL A   1      38.921  32.680  37.271  1.00  0.00     0.134 A 
ATOM     68  F   UNL A   1      41.615  34.575  35.747  1.00  0.00    -0.206 F 
ATOM     69  C   UNL A   1      40.479  34.922  37.773  1.00  0.00     0.040 A 
ATOM     70  C   UNL A   1      38.717  33.420  38.435  1.00  0.00     0.040 A 
ATOM     71  F   UNL A   1      38.153  31.599  37.065  1.00  0.00    -0.206 F 
ATOM     72  C   UNL A   1      39.502  34.542  38.691  1.00  0.00     0.006 A 
ENDBRANCH  44  65
BRANCH  56  73
ATOM     73  C   UNL A   1      44.166  27.835  34.623  1.00  0.00     0.057 A 
ATOM     74  C   UNL A   1      45.484  28.304  34.665  1.00  0.00     0.134 A 
ATOM     75  C   UNL A   1      43.862  26.680  35.355  1.00  0.00     0.134 A 
ATOM     76  F   UNL A   1      45.841  29.396  33.972  1.00  0.00    -0.206 F 
ATOM     77  C   UNL A   1      46.470  27.639  35.396  1.00  0.00     0.040 A 
ATOM     78  C   UNL A   1      44.834  26.019  36.107  1.00  0.00     0.040 A 
ATOM     79  F   UNL A   1      42.616  26.184  35.360  1.00  0.00    -0.206 F 
ATOM     80  C   UNL A   1      46.143  26.496  36.125  1.00  0.00     0.006 A 
ENDBRANCH  56  73
ENDBRANCH  30  31
ENDBRANCH  23  25
ENDBRANCH  22  23
ENDBRANCH  21  22
ENDBRANCH   1  21
TORSDOF 16
ENDMDL
MODEL 2
REMARK VINA RESULT:     -10.1      5.700     10.147
REMARK SMILES CCC(CC)C[N@H+]1[C@@H]2CC[C@H]1C[C@H](CC(=O)OCCOC(=O)c1ccc(-c3c4nc(c(-c5c(F)cccc5F)c5ccc([nH]5)c(-c5c(F)cccc5F)c5nc(c(-c6c(F)cccc6F)c6ccc3[nH]6)C=C5)C=C4)cc1)C2
REMARK SMILES IDX 18 1 17 2 15 3 16 4 14 5 13 6 7 7 8 8 11 9 9 11 77 12 10 13
REMARK SMILES IDX 12 14 6 15 3 16 2 17 1 18 4 19 5 20 19 21 20 22 21 23 22 24
REMARK SMILES IDX 23 25 24 26 76 27 25 28 75 29 26 30 27 31 28 32 69 33 29 34
REMARK SMILES IDX 74 35 68 36 70 37 30 38 73 39 67 40 66 41 31 43 57 44 40 45
REMARK SMILES IDX 56 46 41 47 44 48 55 49 71 50 42 51 43 52 54 54 72 55 45 56
REMARK SMILES IDX 32 57 33 58 38 59 34 60 35 61 37 62 39 63 36 64 58 65 59 66
REMARK SMILES IDX 64 67 60 68 61 69 63 70 65 71 62 72 46 73 47 74 52 75 48 76
REMARK SMILES IDX 49 77 51 78 53 79 50 80
REMARK H PARENT 7 10 70 42 44 53
REMARK Flexibility Score: inf
ROOT
ATOM      1  C   UNL A   1      37.775  20.201  24.926  1.00  0.00     0.274 C 
ENDROOT
BRANCH   1   2
ATOM      2  O   UNL A   1      38.062  21.480  25.516  1.00  0.00    -0.462 OA
BRANCH   2   3
ATOM      3  C   UNL A   1      37.306  22.526  25.103  1.00  0.00     0.306 C 
ATOM      4  O   UNL A   1      37.484  23.694  25.426  1.00  0.00    -0.252 OA
BRANCH   3   5
ATOM      5  C   UNL A   1      36.161  22.088  24.219  1.00  0.00     0.126 C 
BRANCH   5   6
ATOM      6  C   UNL A   1      34.743  22.376  24.760  1.00  0.00     0.012 C 
ATOM      7  N   UNL A   1      32.712  20.363  25.515  1.00  0.00    -0.330 N 
ATOM      8  C   UNL A   1      33.251  21.235  26.571  1.00  0.00     0.184 C 
ATOM      9  C   UNL A   1      32.393  21.320  24.447  1.00  0.00     0.184 C 
ATOM     10  H   UNL A   1      31.905  19.828  25.836  1.00  0.00     0.348 HD
ATOM     11  C   UNL A   1      32.184  22.332  26.629  1.00  0.00     0.071 C 
ATOM     12  C   UNL A   1      34.625  21.826  26.207  1.00  0.00     0.069 C 
ATOM     13  C   UNL A   1      31.640  22.413  25.207  1.00  0.00     0.071 C 
ATOM     14  C   UNL A   1      33.663  21.858  23.782  1.00  0.00     0.069 C 
BRANCH   7  15
ATOM     15  C   UNL A   1      33.588  19.264  25.095  1.00  0.00     0.266 C 
BRANCH  15  16
ATOM     16  C   UNL A   1      32.806  17.990  24.711  1.00  0.00     0.044 C 
BRANCH  16  17
ATOM     17  C   UNL A   1      33.161  17.589  23.262  1.00  0.00     0.006 C 
ATOM     18  C   UNL A   1      32.314  18.265  22.197  1.00  0.00     0.004 C 
ENDBRANCH  16  17
BRANCH  16  19
ATOM     19  C   UNL A   1      33.067  16.875  25.752  1.00  0.00     0.006 C 
ATOM     20  C   UNL A   1      32.521  15.501  25.384  1.00  0.00     0.004 C 
ENDBRANCH  16  19
ENDBRANCH  15  16
ENDBRANCH   7  15
ENDBRANCH   5   6
ENDBRANCH   3   5
ENDBRANCH   2   3
ENDBRANCH   1   2
BRANCH   1  21
ATOM     21  C   UNL A   1      38.971  19.262  25.081  1.00  0.00     0.275 C 
BRANCH  21  22
ATOM     22  O   UNL A   1      39.732  19.601  26.255  1.00  0.00    -0.458 OA
BRANCH  22  23
ATOM     23  C   UNL A   1      41.070  19.707  26.086  1.00  0.00     0.338 C 
ATOM     24  O   UNL A   1      41.821  18.924  25.535  1.00  0.00    -0.246 OA
BRANCH  23  25
ATOM     25  C   UNL A   1      41.502  21.015  26.603  1.00  0.00     0.060 A 
ATOM     26  C   UNL A   1      41.663  21.178  27.980  1.00  0.00     0.016 A 
ATOM     27  C   UNL A   1      41.710  22.083  25.730  1.00  0.00     0.016 A 
ATOM     28  C   UNL A   1      42.051  22.413  28.496  1.00  0.00     0.010 A 
ATOM     29  C   UNL A   1      42.106  23.319  26.247  1.00  0.00     0.010 A 
ATOM     30  C   UNL A   1      42.281  23.490  27.632  1.00  0.00    -0.014 A 
BRANCH  30  31
ATOM     31  C   UNL A   1      42.706  24.801  28.175  1.00  0.00     0.031 A 
ATOM     32  C   UNL A   1      41.686  25.861  28.469  1.00  0.00     0.074 A 
ATOM     33  C   UNL A   1      44.013  25.042  28.385  1.00  0.00     0.049 A 
ATOM     34  N   UNL A   1      41.867  27.103  28.834  1.00  0.00    -0.248 NA
ATOM     35  C   UNL A   1      40.274  25.469  28.330  1.00  0.00     0.031 C 
ATOM     36  C   UNL A   1      45.095  24.080  28.166  1.00  0.00     0.029 A 
ATOM     37  N   UNL A   1      44.654  26.177  28.813  1.00  0.00    -0.354 N 
ATOM     38  C   UNL A   1      40.596  27.650  28.951  1.00  0.00     0.074 A 
ATOM     39  C   UNL A   1      39.653  26.608  28.604  1.00  0.00     0.031 C 
ATOM     40  C   UNL A   1      46.267  24.669  28.453  1.00  0.00     0.029 A 
ATOM     41  C   UNL A   1      46.023  26.059  28.828  1.00  0.00     0.049 A 
ATOM     42  H   UNL A   1      44.180  26.995  29.085  1.00  0.00     0.167 HD
ATOM     43  C   UNL A   1      40.252  28.908  29.315  1.00  0.00     0.037 A 
ATOM     44  C   UNL A   1      46.973  26.978  29.079  1.00  0.00     0.037 A 
ATOM     45  C   UNL A   1      41.194  29.937  29.672  1.00  0.00     0.049 A 
ATOM     46  C   UNL A   1      46.566  28.385  29.417  1.00  0.00     0.074 A 
ATOM     47  C   UNL A   1      40.939  31.230  30.094  1.00  0.00     0.029 A 
ATOM     48  N   UNL A   1      42.573  29.790  29.643  1.00  0.00    -0.354 N 
ATOM     49  N   UNL A   1      45.362  28.890  29.537  1.00  0.00    -0.248 NA
ATOM     50  C   UNL A   1      47.649  29.353  29.641  1.00  0.00     0.031 C 
ATOM     51  C   UNL A   1      42.166  31.879  30.278  1.00  0.00     0.029 A 
ATOM     52  C   UNL A   1      43.183  30.978  30.010  1.00  0.00     0.049 A 
ATOM     53  H   UNL A   1      43.048  28.963  29.399  1.00  0.00     0.167 HD
ATOM     54  C   UNL A   1      45.541  30.228  29.860  1.00  0.00     0.074 A 
ATOM     55  C   UNL A   1      46.971  30.453  29.936  1.00  0.00     0.031 C 
ATOM     56  C   UNL A   1      44.606  31.186  30.070  1.00  0.00     0.037 A 
BRANCH  43  57
ATOM     57  C   UNL A   1      38.793  29.252  29.319  1.00  0.00     0.057 A 
ATOM     58  C   UNL A   1      38.022  29.189  30.486  1.00  0.00     0.134 A 
ATOM     59  C   UNL A   1      38.163  29.689  28.148  1.00  0.00     0.134 A 
ATOM     60  F   UNL A   1      38.563  28.766  31.638  1.00  0.00    -0.206 F 
ATOM     61  C   UNL A   1      36.668  29.534  30.484  1.00  0.00     0.040 A 
ATOM     62  C   UNL A   1      36.816  30.056  28.138  1.00  0.00     0.040 A 
ATOM     63  F   UNL A   1      38.848  29.776  26.998  1.00  0.00    -0.206 F 
ATOM     64  C   UNL A   1      36.064  29.975  29.308  1.00  0.00     0.006 A 
ENDBRANCH  43  57
BRANCH  44  65
ATOM     65  C   UNL A   1      48.406  26.606  28.982  1.00  0.00     0.057 A 
ATOM     66  C   UNL A   1      49.106  26.126  30.093  1.00  0.00     0.134 A 
ATOM     67  C   UNL A   1      49.108  26.726  27.776  1.00  0.00     0.134 A 
ATOM     68  F   UNL A   1      48.494  26.013  31.281  1.00  0.00    -0.206 F 
ATOM     69  C   UNL A   1      50.457  25.786  30.012  1.00  0.00     0.040 A 
ATOM     70  C   UNL A   1      50.452  26.368  27.675  1.00  0.00     0.040 A 
ATOM     71  F   UNL A   1      48.491  27.181  26.675  1.00  0.00    -0.206 F 
ATOM     72  C   UNL A   1      51.132  25.901  28.798  1.00  0.00     0.006 A 
ENDBRANCH  44  65
BRANCH  56  73
ATOM     73  C   UNL A   1      45.103  32.560  30.408  1.00  0.00     0.057 A 
ATOM     74  C   UNL A   1      45.387  32.933  31.728  1.00  0.00     0.134 A 
ATOM     75  C   UNL A   1      45.333  33.506  29.402  1.00  0.00     0.134 A 
ATOM     76  F   UNL A   1      45.172  32.076  32.738  1.00  0.00    -0.206 F 
ATOM     77  C   UNL A   1      45.867  34.206  32.037  1.00  0.00     0.040 A 
ATOM     78  C   UNL A   1      45.833  34.775  29.696  1.00  0.00     0.040 A 
ATOM     79  F   UNL A   1      45.086  33.209  28.117  1.00  0.00    -0.206 F 
ATOM     80  C   UNL A   1      46.097  35.129  31.018  1.00  0.00     0.006 A 
ENDBRANCH  56  73
ENDBRANCH  30  31
ENDBRANCH  23  25
ENDBRANCH  22  23
ENDBRANCH  21  22
ENDBRANCH   1  21
TORSDOF 16
ENDMDL
MODEL 3
REMARK VINA RESULT:     -10.0      6.027      9.834
REMARK SMILES CCC(CC)C[N@H+]1[C@@H]2CC[C@H]1C[C@H](CC(=O)OCCOC(=O)c1ccc(-c3c4nc(c(-c5c(F)cccc5F)c5ccc([nH]5)c(-c5c(F)cccc5F)c5nc(c(-c6c(F)cccc6F)c6ccc3[nH]6)C=C5)C=C4)cc1)C2
REMARK SMILES IDX 18 1 17 2 15 3 16 4 14 5 13 6 7 7 8 8 11 9 9 11 77 12 10 13
REMARK SMILES IDX 12 14 6 15 3 16 2 17 1 18 4 19 5 20 19 21 20 22 21 23 22 24
REMARK SMILES IDX 23 25 24 26 76 27 25 28 75 29 26 30 27 31 28 32 69 33 29 34
REMARK SMILES IDX 74 35 68 36 70 37 30 38 73 39 67 40 66 41 31 43 57 44 40 45
REMARK SMILES IDX 56 46 41 47 44 48 55 49 71 50 42 51 43 52 54 54 72 55 45 56
REMARK SMILES IDX 32 57 33 58 38 59 34 60 35 61 37 62 39 63 36 64 58 65 59 66
REMARK SMILES IDX 64 67 60 68 61 69 63 70 65 71 62 72 46 73 47 74 52 75 48 76
REMARK SMILES IDX 49 77 51 78 53 79 50 80
REMARK H PARENT 7 10 70 42 44 53
REMARK Flexibility Score: inf
ROOT
ATOM      1  C   UNL A   1      38.810  20.624  25.376  1.00  0.00     0.274 C 
ENDROOT
BRANCH   1   2
ATOM      2  O   UNL A   1      38.764  21.829  26.158  1.00  0.00    -0.462 OA
BRANCH   2   3
ATOM      3  C   UNL A   1      37.931  22.806  25.726  1.00  0.00     0.306 C 
ATOM      4  O   UNL A   1      37.913  23.955  26.149  1.00  0.00    -0.252 OA
BRANCH   3   5
ATOM      5  C   UNL A   1      36.966  22.308  24.673  1.00  0.00     0.126 C 
BRANCH   5   6
ATOM      6  C   UNL A   1      35.467  22.412  25.031  1.00  0.00     0.012 C 
ATOM      7  N   UNL A   1      33.522  20.185  25.094  1.00  0.00    -0.330 N 
ATOM      8  C   UNL A   1      33.831  20.872  26.357  1.00  0.00     0.184 C 
ATOM      9  C   UNL A   1      33.281  21.306  24.175  1.00  0.00     0.184 C 
ATOM     10  H   UNL A   1      32.723  19.556  25.185  1.00  0.00     0.348 HD
ATOM     11  C   UNL A   1      32.680  21.879  26.443  1.00  0.00     0.071 C 
ATOM     12  C   UNL A   1      35.189  21.595  26.321  1.00  0.00     0.069 C 
ATOM     13  C   UNL A   1      32.340  22.195  24.990  1.00  0.00     0.071 C 
ATOM     14  C   UNL A   1      34.583  22.028  23.821  1.00  0.00     0.069 C 
BRANCH   7  15
ATOM     15  C   UNL A   1      34.535  19.234  24.626  1.00  0.00     0.266 C 
BRANCH  15  16
ATOM     16  C   UNL A   1      33.971  17.812  24.420  1.00  0.00     0.044 C 
BRANCH  16  17
ATOM     17  C   UNL A   1      32.772  17.595  25.370  1.00  0.00     0.006 C 
ATOM     18  C   UNL A   1      32.527  16.145  25.751  1.00  0.00     0.004 C 
ENDBRANCH  16  17
BRANCH  16  19
ATOM     19  C   UNL A   1      33.637  17.587  22.926  1.00  0.00     0.006 C 
ATOM     20  C   UNL A   1      32.263  18.078  22.486  1.00  0.00     0.004 C 
ENDBRANCH  16  19
ENDBRANCH  15  16
ENDBRANCH   7  15
ENDBRANCH   5   6
ENDBRANCH   3   5
ENDBRANCH   2   3
ENDBRANCH   1   2
BRANCH   1  21
ATOM     21  C   UNL A   1      39.568  19.529  26.126  1.00  0.00     0.275 C 
BRANCH  21  22
ATOM     22  O   UNL A   1      40.827  19.253  25.483  1.00  0.00    -0.458 OA
BRANCH  22  23
ATOM     23  C   UNL A   1      41.927  19.353  26.263  1.00  0.00     0.338 C 
ATOM     24  O   UNL A   1      42.635  18.455  26.681  1.00  0.00    -0.246 OA
BRANCH  23  25
ATOM     25  C   UNL A   1      42.224  20.779  26.469  1.00  0.00     0.060 A 
ATOM     26  C   UNL A   1      42.309  21.270  27.774  1.00  0.00     0.016 A 
ATOM     27  C   UNL A   1      42.378  21.631  25.376  1.00  0.00     0.016 A 
ATOM     28  C   UNL A   1      42.568  22.620  27.995  1.00  0.00     0.010 A 
ATOM     29  C   UNL A   1      42.644  22.985  25.599  1.00  0.00     0.010 A 
ATOM     30  C   UNL A   1      42.743  23.486  26.909  1.00  0.00    -0.014 A 
BRANCH  30  31
ATOM     31  C   UNL A   1      43.030  24.921  27.140  1.00  0.00     0.031 A 
ATOM     32  C   UNL A   1      44.398  25.470  26.864  1.00  0.00     0.074 A 
ATOM     33  C   UNL A   1      42.060  25.724  27.615  1.00  0.00     0.049 A 
ATOM     34  N   UNL A   1      44.875  26.662  27.111  1.00  0.00    -0.248 NA
ATOM     35  C   UNL A   1      45.357  24.553  26.229  1.00  0.00     0.031 C 
ATOM     36  C   UNL A   1      40.683  25.314  27.891  1.00  0.00     0.029 A 
ATOM     37  N   UNL A   1      42.092  27.050  27.965  1.00  0.00    -0.354 N 
ATOM     38  C   UNL A   1      46.195  26.636  26.681  1.00  0.00     0.074 A 
ATOM     39  C   UNL A   1      46.448  25.305  26.170  1.00  0.00     0.031 C 
ATOM     40  C   UNL A   1      40.003  26.365  28.378  1.00  0.00     0.029 A 
ATOM     41  C   UNL A   1      40.907  27.505  28.491  1.00  0.00     0.049 A 
ATOM     42  H   UNL A   1      42.885  27.621  27.849  1.00  0.00     0.167 HD
ATOM     43  C   UNL A   1      47.109  27.634  26.711  1.00  0.00     0.037 A 
ATOM     44  C   UNL A   1      40.597  28.696  29.037  1.00  0.00     0.037 A 
ATOM     45  C   UNL A   1      46.849  28.960  27.208  1.00  0.00     0.049 A 
ATOM     46  C   UNL A   1      41.650  29.766  29.118  1.00  0.00     0.074 A 
ATOM     47  C   UNL A   1      47.700  30.051  27.242  1.00  0.00     0.029 A 
ATOM     48  N   UNL A   1      45.647  29.373  27.763  1.00  0.00    -0.354 N 
ATOM     49  N   UNL A   1      42.890  29.736  28.698  1.00  0.00    -0.248 NA
ATOM     50  C   UNL A   1      41.263  31.029  29.761  1.00  0.00     0.031 C 
ATOM     51  C   UNL A   1      47.026  31.112  27.858  1.00  0.00     0.029 A 
ATOM     52  C   UNL A   1      45.744  30.693  28.171  1.00  0.00     0.049 A 
ATOM     53  H   UNL A   1      44.844  28.811  27.853  1.00  0.00     0.167 HD
ATOM     54  C   UNL A   1      43.429  30.976  29.015  1.00  0.00     0.074 A 
ATOM     55  C   UNL A   1      42.374  31.742  29.646  1.00  0.00     0.031 C 
ATOM     56  C   UNL A   1      44.687  31.437  28.806  1.00  0.00     0.037 A 
BRANCH  43  57
ATOM     57  C   UNL A   1      48.490  27.322  26.216  1.00  0.00     0.057 A 
ATOM     58  C   UNL A   1      48.837  27.447  24.866  1.00  0.00     0.134 A 
ATOM     59  C   UNL A   1      49.493  26.930  27.111  1.00  0.00     0.134 A 
ATOM     60  F   UNL A   1      47.918  27.806  23.957  1.00  0.00    -0.206 F 
ATOM     61  C   UNL A   1      50.132  27.176  24.419  1.00  0.00     0.040 A 
ATOM     62  C   UNL A   1      50.796  26.676  26.679  1.00  0.00     0.040 A 
ATOM     63  F   UNL A   1      49.226  26.796  28.417  1.00  0.00    -0.206 F 
ATOM     64  C   UNL A   1      51.117  26.796  25.328  1.00  0.00     0.006 A 
ENDBRANCH  43  57
BRANCH  44  65
ATOM     65  C   UNL A   1      39.238  28.926  29.586  1.00  0.00     0.057 A 
ATOM     66  C   UNL A   1      38.205  29.417  28.781  1.00  0.00     0.134 A 
ATOM     67  C   UNL A   1      38.943  28.663  30.930  1.00  0.00     0.134 A 
ATOM     68  F   UNL A   1      38.434  29.710  27.493  1.00  0.00    -0.206 F 
ATOM     69  C   UNL A   1      36.928  29.647  29.294  1.00  0.00     0.040 A 
ATOM     70  C   UNL A   1      37.665  28.868  31.450  1.00  0.00     0.040 A 
ATOM     71  F   UNL A   1      39.892  28.192  31.753  1.00  0.00    -0.206 F 
ATOM     72  C   UNL A   1      36.654  29.366  30.631  1.00  0.00     0.006 A 
ENDBRANCH  44  65
BRANCH  56  73
ATOM     73  C   UNL A   1      44.984  32.835  29.259  1.00  0.00     0.057 A 
ATOM     74  C   UNL A   1      45.540  33.095  30.517  1.00  0.00     0.134 A 
ATOM     75  C   UNL A   1      44.744  33.927  28.415  1.00  0.00     0.134 A 
ATOM     76  F   UNL A   1      45.777  32.093  31.377  1.00  0.00    -0.206 F 
ATOM     77  C   UNL A   1      45.832  34.397  30.928  1.00  0.00     0.040 A 
ATOM     78  C   UNL A   1      45.053  35.230  28.806  1.00  0.00     0.040 A 
ATOM     79  F   UNL A   1      44.219  33.743  27.195  1.00  0.00    -0.206 F 
ATOM     80  C   UNL A   1      45.595  35.468  30.068  1.00  0.00     0.006 A 
ENDBRANCH  56  73
ENDBRANCH  30  31
ENDBRANCH  23  25
ENDBRANCH  22  23
ENDBRANCH  21  22
ENDBRANCH   1  21
TORSDOF 16
ENDMDL
