MODEL 1
REMARK VINA RESULT:     -10.7      0.000      0.000
REMARK SMILES CC(C)c1cccc2c1N[C@H](c1ccc(C(=O)OCCOC(=O)c3ccc(-c4c5nc(c(-c6c(F)cccc6F)c6ccc([nH]6)c(-c6c(F)cccc6F)c6nc(c(-c7c(F)cccc7F)c7ccc4[nH]7)C=C6)C=C5)cc3)cc1)[C@H]1CC=C[C@H]21
REMARK SMILES IDX 19 1 18 2 16 3 17 4 15 5 12 6 13 7 79 8 14 9 78 10 11 11
REMARK SMILES IDX 4 12 5 13 9 14 6 15 8 16 10 17 7 18 84 19 80 21 83 22 81 23
REMARK SMILES IDX 82 24 2 25 1 26 3 27 20 28 21 29 22 30 23 31 24 32 25 33
REMARK SMILES IDX 77 34 26 35 76 36 27 37 28 38 29 39 70 40 30 41 75 42 69 43
REMARK SMILES IDX 71 44 31 45 74 46 68 47 67 48 32 50 58 51 41 52 57 53 42 54
REMARK SMILES IDX 45 55 56 56 72 57 43 58 44 59 55 61 73 62 46 63 33 64 34 65
REMARK SMILES IDX 39 66 35 67 36 68 38 69 40 70 37 71 59 72 60 73 65 74 61 75
REMARK SMILES IDX 62 76 64 77 66 78 63 79 47 80 48 81 53 82 49 83 50 84 52 85
REMARK SMILES IDX 54 86 51 87
REMARK H PARENT 10 20 71 49 45 60
REMARK Flexibility Score: inf
ROOT
ATOM      1  C   UNL A   1      33.040  36.772  30.713  1.00  0.00     0.275 C 
ENDROOT
BRANCH   1   2
ATOM      2  O   UNL A   1      33.726  35.894  31.623  1.00  0.00    -0.458 OA
BRANCH   2   3
ATOM      3  C   UNL A   1      34.136  36.407  32.808  1.00  0.00     0.338 C 
ATOM      4  O   UNL A   1      33.738  37.439  33.329  1.00  0.00    -0.246 OA
BRANCH   3   5
ATOM      5  C   UNL A   1      35.091  35.470  33.464  1.00  0.00     0.060 A 
ATOM      6  C   UNL A   1      36.770  33.542  34.679  1.00  0.00    -0.025 A 
ATOM      7  C   UNL A   1      35.645  34.041  35.356  1.00  0.00     0.007 A 
ATOM      8  C   UNL A   1      37.018  34.012  33.378  1.00  0.00     0.007 A 
ATOM      9  C   UNL A   1      34.821  35.006  34.759  1.00  0.00     0.016 A 
ATOM     10  C   UNL A   1      36.203  34.974  32.784  1.00  0.00     0.016 A 
BRANCH   6  11
ATOM     11  C   UNL A   1      37.682  32.519  35.350  1.00  0.00     0.114 C 
ATOM     12  C   UNL A   1      39.746  29.848  33.530  1.00  0.00    -0.022 A 
ATOM     13  C   UNL A   1      41.021  29.243  33.711  1.00  0.00     0.006 A 
ATOM     14  C   UNL A   1      39.359  30.857  34.450  1.00  0.00     0.042 A 
ATOM     15  C   UNL A   1      41.888  29.598  34.739  1.00  0.00     0.001 A 
ATOM     16  C   UNL A   1      40.233  31.147  35.551  1.00  0.00    -0.017 A 
ATOM     17  N   UNL A   1      38.139  31.535  34.361  1.00  0.00    -0.377 N 
ATOM     18  C   UNL A   1      41.485  30.531  35.673  1.00  0.00     0.006 A 
ATOM     19  C   UNL A   1      39.726  32.047  36.648  1.00  0.00     0.049 C 
ATOM     20  H   UNL A   1      37.555  31.342  33.593  1.00  0.00     0.161 HD
ATOM     21  C   UNL A   1      38.899  33.152  36.006  1.00  0.00     0.031 C 
ATOM     22  C   UNL A   1      40.641  32.896  37.485  1.00  0.00    -0.023 C 
ATOM     23  C   UNL A   1      38.700  34.166  37.127  1.00  0.00     0.034 C 
ATOM     24  C   UNL A   1      40.046  34.062  37.787  1.00  0.00    -0.030 C 
BRANCH  12  25
ATOM     25  C   UNL A   1      38.925  29.235  32.381  1.00  0.00     0.015 C 
ATOM     26  C   UNL A   1      38.992  27.732  32.097  1.00  0.00     0.012 C 
ATOM     27  C   UNL A   1      37.436  29.629  32.471  1.00  0.00     0.012 C 
ENDBRANCH  12  25
ENDBRANCH   6  11
ENDBRANCH   3   5
ENDBRANCH   2   3
ENDBRANCH   1   2
BRANCH   1  28
ATOM     28  C   UNL A   1      32.901  36.106  29.340  1.00  0.00     0.275 C 
BRANCH  28  29
ATOM     29  O   UNL A   1      32.551  34.716  29.481  1.00  0.00    -0.458 OA
BRANCH  29  30
ATOM     30  C   UNL A   1      33.000  33.899  28.499  1.00  0.00     0.338 C 
ATOM     31  O   UNL A   1      32.479  33.687  27.418  1.00  0.00    -0.246 OA
BRANCH  30  32
ATOM     32  C   UNL A   1      34.347  33.420  28.857  1.00  0.00     0.060 A 
ATOM     33  C   UNL A   1      34.593  32.707  30.031  1.00  0.00     0.016 A 
ATOM     34  C   UNL A   1      35.386  33.684  27.962  1.00  0.00     0.016 A 
ATOM     35  C   UNL A   1      35.896  32.280  30.309  1.00  0.00     0.010 A 
ATOM     36  C   UNL A   1      36.684  33.264  28.241  1.00  0.00     0.010 A 
ATOM     37  C   UNL A   1      36.952  32.558  29.418  1.00  0.00    -0.014 A 
BRANCH  37  38
ATOM     38  C   UNL A   1      38.311  32.022  29.671  1.00  0.00     0.031 A 
ATOM     39  C   UNL A   1      39.336  32.802  30.444  1.00  0.00     0.074 A 
ATOM     40  C   UNL A   1      38.636  30.827  29.144  1.00  0.00     0.049 A 
ATOM     41  N   UNL A   1      40.523  32.424  30.850  1.00  0.00    -0.248 NA
ATOM     42  C   UNL A   1      39.002  34.194  30.778  1.00  0.00     0.031 C 
ATOM     43  C   UNL A   1      37.771  30.029  28.273  1.00  0.00     0.029 A 
ATOM     44  N   UNL A   1      39.775  30.074  29.266  1.00  0.00    -0.354 N 
ATOM     45  C   UNL A   1      41.074  33.523  31.495  1.00  0.00     0.074 A 
ATOM     46  C   UNL A   1      40.115  34.602  31.374  1.00  0.00     0.031 C 
ATOM     47  C   UNL A   1      38.391  28.875  27.980  1.00  0.00     0.029 A 
ATOM     48  C   UNL A   1      39.694  28.858  28.635  1.00  0.00     0.049 A 
ATOM     49  H   UNL A   1      40.572  30.376  29.758  1.00  0.00     0.167 HD
ATOM     50  C   UNL A   1      42.258  33.615  32.151  1.00  0.00     0.037 A 
ATOM     51  C   UNL A   1      40.561  27.830  28.616  1.00  0.00     0.037 A 
ATOM     52  C   UNL A   1      43.207  32.536  32.267  1.00  0.00     0.049 A 
ATOM     53  C   UNL A   1      41.839  27.933  29.399  1.00  0.00     0.074 A 
ATOM     54  C   UNL A   1      44.394  32.497  32.980  1.00  0.00     0.029 A 
ATOM     55  N   UNL A   1      43.081  31.304  31.640  1.00  0.00    -0.354 N 
ATOM     56  N   UNL A   1      42.287  28.928  30.125  1.00  0.00    -0.248 NA
ATOM     57  C   UNL A   1      42.719  26.757  29.377  1.00  0.00     0.031 C 
ATOM     58  C   UNL A   1      45.004  31.258  32.753  1.00  0.00     0.029 A 
ATOM     59  C   UNL A   1      44.176  30.507  31.934  1.00  0.00     0.049 A 
ATOM     60  H   UNL A   1      42.324  31.035  31.071  1.00  0.00     0.167 HD
ATOM     61  C   UNL A   1      43.493  28.493  30.660  1.00  0.00     0.074 A 
ATOM     62  C   UNL A   1      43.686  27.133  30.200  1.00  0.00     0.031 C 
ATOM     63  C   UNL A   1      44.364  29.160  31.456  1.00  0.00     0.037 A 
BRANCH  50  64
ATOM     64  C   UNL A   1      42.585  34.924  32.813  1.00  0.00     0.057 A 
ATOM     65  C   UNL A   1      42.102  35.230  34.091  1.00  0.00     0.134 A 
ATOM     66  C   UNL A   1      43.346  35.904  32.160  1.00  0.00     0.134 A 
ATOM     67  F   UNL A   1      41.357  34.344  34.769  1.00  0.00    -0.206 F 
ATOM     68  C   UNL A   1      42.364  36.461  34.696  1.00  0.00     0.040 A 
ATOM     69  C   UNL A   1      43.638  37.129  32.766  1.00  0.00     0.040 A 
ATOM     70  F   UNL A   1      43.842  35.677  30.935  1.00  0.00    -0.206 F 
ATOM     71  C   UNL A   1      43.140  37.412  34.037  1.00  0.00     0.006 A 
ENDBRANCH  50  64
BRANCH  51  72
ATOM     72  C   UNL A   1      40.218  26.583  27.890  1.00  0.00     0.057 A 
ATOM     73  C   UNL A   1      40.701  26.328  26.602  1.00  0.00     0.134 A 
ATOM     74  C   UNL A   1      39.400  25.611  28.480  1.00  0.00     0.134 A 
ATOM     75  F   UNL A   1      41.478  27.227  25.979  1.00  0.00    -0.206 F 
ATOM     76  C   UNL A   1      40.386  25.148  25.927  1.00  0.00     0.040 A 
ATOM     77  C   UNL A   1      39.098  24.417  27.825  1.00  0.00     0.040 A 
ATOM     78  F   UNL A   1      38.920  25.796  29.718  1.00  0.00    -0.206 F 
ATOM     79  C   UNL A   1      39.590  24.184  26.543  1.00  0.00     0.006 A 
ENDBRANCH  51  72
BRANCH  63  80
ATOM     80  C   UNL A   1      45.596  28.413  31.878  1.00  0.00     0.057 A 
ATOM     81  C   UNL A   1      46.770  28.482  31.119  1.00  0.00     0.134 A 
ATOM     82  C   UNL A   1      45.625  27.641  33.048  1.00  0.00     0.134 A 
ATOM     83  F   UNL A   1      46.809  29.196  29.985  1.00  0.00    -0.206 F 
ATOM     84  C   UNL A   1      47.934  27.821  31.516  1.00  0.00     0.040 A 
ATOM     85  C   UNL A   1      46.791  26.999  33.469  1.00  0.00     0.040 A 
ATOM     86  F   UNL A   1      44.538  27.547  33.827  1.00  0.00    -0.206 F 
ATOM     87  C   UNL A   1      47.950  27.087  32.701  1.00  0.00     0.006 A 
ENDBRANCH  63  80
ENDBRANCH  37  38
ENDBRANCH  30  32
ENDBRANCH  29  30
ENDBRANCH  28  29
ENDBRANCH   1  28
TORSDOF 13
ENDMDL
MODEL 2
REMARK VINA RESULT:      -9.7      5.246     11.701
REMARK SMILES CC(C)c1cccc2c1N[C@H](c1ccc(C(=O)OCCOC(=O)c3ccc(-c4c5nc(c(-c6c(F)cccc6F)c6ccc([nH]6)c(-c6c(F)cccc6F)c6nc(c(-c7c(F)cccc7F)c7ccc4[nH]7)C=C6)C=C5)cc3)cc1)[C@H]1CC=C[C@H]21
REMARK SMILES IDX 19 1 18 2 16 3 17 4 15 5 12 6 13 7 79 8 14 9 78 10 11 11
REMARK SMILES IDX 4 12 5 13 9 14 6 15 8 16 10 17 7 18 84 19 80 21 83 22 81 23
REMARK SMILES IDX 82 24 2 25 1 26 3 27 20 28 21 29 22 30 23 31 24 32 25 33
REMARK SMILES IDX 77 34 26 35 76 36 27 37 28 38 29 39 70 40 30 41 75 42 69 43
REMARK SMILES IDX 71 44 31 45 74 46 68 47 67 48 32 50 58 51 41 52 57 53 42 54
REMARK SMILES IDX 45 55 56 56 72 57 43 58 44 59 55 61 73 62 46 63 33 64 34 65
REMARK SMILES IDX 39 66 35 67 36 68 38 69 40 70 37 71 59 72 60 73 65 74 61 75
REMARK SMILES IDX 62 76 64 77 66 78 63 79 47 80 48 81 53 82 49 83 50 84 52 85
REMARK SMILES IDX 54 86 51 87
REMARK H PARENT 10 20 71 49 45 60
REMARK Flexibility Score: inf
ROOT
ATOM      1  C   UNL A   1      44.181  21.710  25.827  1.00  0.00     0.275 C 
ENDROOT
BRANCH   1   2
ATOM      2  O   UNL A   1      43.048  20.850  26.038  1.00  0.00    -0.458 OA
BRANCH   2   3
ATOM      3  C   UNL A   1      42.191  21.168  27.039  1.00  0.00     0.338 C 
ATOM      4  O   UNL A   1      42.492  21.458  28.187  1.00  0.00    -0.246 OA
BRANCH   3   5
ATOM      5  C   UNL A   1      40.797  21.218  26.516  1.00  0.00     0.060 A 
ATOM      6  C   UNL A   1      38.220  21.411  25.360  1.00  0.00    -0.025 A 
ATOM      7  C   UNL A   1      38.825  22.531  25.952  1.00  0.00     0.007 A 
ATOM      8  C   UNL A   1      38.941  20.205  25.341  1.00  0.00     0.007 A 
ATOM      9  C   UNL A   1      40.097  22.432  26.536  1.00  0.00     0.016 A 
ATOM     10  C   UNL A   1      40.203  20.102  25.924  1.00  0.00     0.016 A 
BRANCH   6  11
ATOM     11  C   UNL A   1      36.821  21.519  24.760  1.00  0.00     0.114 C 
ATOM     12  C   UNL A   1      34.227  18.697  24.646  1.00  0.00    -0.022 A 
ATOM     13  C   UNL A   1      32.812  18.605  24.758  1.00  0.00     0.006 A 
ATOM     14  C   UNL A   1      34.816  19.980  24.781  1.00  0.00     0.042 A 
ATOM     15  C   UNL A   1      31.998  19.709  24.990  1.00  0.00     0.001 A 
ATOM     16  C   UNL A   1      33.951  21.115  24.936  1.00  0.00    -0.017 A 
ATOM     17  N   UNL A   1      36.197  20.191  24.710  1.00  0.00    -0.377 N 
ATOM     18  C   UNL A   1      32.564  20.966  25.054  1.00  0.00     0.006 A 
ATOM     19  C   UNL A   1      34.557  22.492  24.849  1.00  0.00     0.049 C 
ATOM     20  H   UNL A   1      36.783  19.405  24.622  1.00  0.00     0.161 HD
ATOM     21  C   UNL A   1      35.913  22.454  25.540  1.00  0.00     0.031 C 
ATOM     22  C   UNL A   1      33.967  23.680  25.557  1.00  0.00    -0.023 C 
ATOM     23  C   UNL A   1      36.298  23.923  25.682  1.00  0.00     0.034 C 
ATOM     24  C   UNL A   1      34.943  24.499  25.982  1.00  0.00    -0.030 C 
BRANCH  12  25
ATOM     25  C   UNL A   1      34.911  17.361  24.301  1.00  0.00     0.015 C 
ATOM     26  C   UNL A   1      35.279  16.372  25.410  1.00  0.00     0.012 C 
ATOM     27  C   UNL A   1      34.134  16.585  23.219  1.00  0.00     0.012 C 
ENDBRANCH  12  25
ENDBRANCH   6  11
ENDBRANCH   3   5
ENDBRANCH   2   3
ENDBRANCH   1   2
BRANCH   1  28
ATOM     28  C   UNL A   1      44.028  22.471  24.505  1.00  0.00     0.275 C 
BRANCH  28  29
ATOM     29  O   UNL A   1      43.455  23.773  24.731  1.00  0.00    -0.458 OA
BRANCH  29  30
ATOM     30  C   UNL A   1      44.310  24.713  25.197  1.00  0.00     0.338 C 
ATOM     31  O   UNL A   1      45.375  25.050  24.711  1.00  0.00    -0.246 OA
BRANCH  30  32
ATOM     32  C   UNL A   1      43.669  25.426  26.317  1.00  0.00     0.060 A 
ATOM     33  C   UNL A   1      42.625  24.865  27.053  1.00  0.00     0.016 A 
ATOM     34  C   UNL A   1      44.159  26.693  26.641  1.00  0.00     0.016 A 
ATOM     35  C   UNL A   1      42.063  25.595  28.105  1.00  0.00     0.010 A 
ATOM     36  C   UNL A   1      43.595  27.423  27.684  1.00  0.00     0.010 A 
ATOM     37  C   UNL A   1      42.541  26.882  28.426  1.00  0.00    -0.014 A 
BRANCH  37  38
ATOM     38  C   UNL A   1      42.006  27.613  29.600  1.00  0.00     0.031 A 
ATOM     39  C   UNL A   1      42.650  27.513  30.953  1.00  0.00     0.074 A 
ATOM     40  C   UNL A   1      40.884  28.340  29.444  1.00  0.00     0.049 A 
ATOM     41  N   UNL A   1      42.376  28.181  32.047  1.00  0.00    -0.248 NA
ATOM     42  C   UNL A   1      43.719  26.515  31.111  1.00  0.00     0.031 C 
ATOM     43  C   UNL A   1      40.097  28.419  28.212  1.00  0.00     0.029 A 
ATOM     44  N   UNL A   1      40.216  29.154  30.322  1.00  0.00    -0.354 N 
ATOM     45  C   UNL A   1      43.241  27.695  33.018  1.00  0.00     0.074 A 
ATOM     46  C   UNL A   1      44.008  26.633  32.401  1.00  0.00     0.031 C 
ATOM     47  C   UNL A   1      39.080  29.273  28.397  1.00  0.00     0.029 A 
ATOM     48  C   UNL A   1      39.141  29.796  29.758  1.00  0.00     0.049 A 
ATOM     49  H   UNL A   1      40.479  29.267  31.263  1.00  0.00     0.167 HD
ATOM     50  C   UNL A   1      43.397  28.114  34.299  1.00  0.00     0.037 A 
ATOM     51  C   UNL A   1      38.318  30.728  30.272  1.00  0.00     0.037 A 
ATOM     52  C   UNL A   1      42.628  29.172  34.906  1.00  0.00     0.049 A 
ATOM     53  C   UNL A   1      38.550  31.219  31.672  1.00  0.00     0.074 A 
ATOM     54  C   UNL A   1      42.766  29.731  36.166  1.00  0.00     0.029 A 
ATOM     55  N   UNL A   1      41.566  29.825  34.297  1.00  0.00    -0.354 N 
ATOM     56  N   UNL A   1      39.464  30.852  32.538  1.00  0.00    -0.248 NA
ATOM     57  C   UNL A   1      37.648  32.272  32.156  1.00  0.00     0.031 C 
ATOM     58  C   UNL A   1      41.763  30.693  36.333  1.00  0.00     0.029 A 
ATOM     59  C   UNL A   1      41.027  30.766  35.161  1.00  0.00     0.049 A 
ATOM     60  H   UNL A   1      41.242  29.646  33.385  1.00  0.00     0.167 HD
ATOM     61  C   UNL A   1      39.257  31.640  33.663  1.00  0.00     0.074 A 
ATOM     62  C   UNL A   1      38.153  32.527  33.353  1.00  0.00     0.031 C 
ATOM     63  C   UNL A   1      39.918  31.629  34.846  1.00  0.00     0.037 A 
BRANCH  50  64
ATOM     64  C   UNL A   1      44.456  27.440  35.126  1.00  0.00     0.057 A 
ATOM     65  C   UNL A   1      44.160  26.312  35.901  1.00  0.00     0.134 A 
ATOM     66  C   UNL A   1      45.764  27.940  35.190  1.00  0.00     0.134 A 
ATOM     67  F   UNL A   1      42.926  25.786  35.897  1.00  0.00    -0.206 F 
ATOM     68  C   UNL A   1      45.126  25.705  36.706  1.00  0.00     0.040 A 
ATOM     69  C   UNL A   1      46.745  27.326  35.971  1.00  0.00     0.040 A 
ATOM     70  F   UNL A   1      46.117  29.017  34.472  1.00  0.00    -0.206 F 
ATOM     71  C   UNL A   1      46.425  26.207  36.738  1.00  0.00     0.006 A 
ENDBRANCH  50  64
BRANCH  51  72
ATOM     72  C   UNL A   1      37.244  31.313  29.433  1.00  0.00     0.057 A 
ATOM     73  C   UNL A   1      36.057  30.621  29.175  1.00  0.00     0.134 A 
ATOM     74  C   UNL A   1      37.385  32.590  28.877  1.00  0.00     0.134 A 
ATOM     75  F   UNL A   1      35.870  29.388  29.669  1.00  0.00    -0.206 F 
ATOM     76  C   UNL A   1      35.043  31.180  28.396  1.00  0.00     0.040 A 
ATOM     77  C   UNL A   1      36.369  33.171  28.117  1.00  0.00     0.040 A 
ATOM     78  F   UNL A   1      38.496  33.305  29.102  1.00  0.00    -0.206 F 
ATOM     79  C   UNL A   1      35.194  32.463  27.872  1.00  0.00     0.006 A 
ENDBRANCH  51  72
BRANCH  63  80
ATOM     80  C   UNL A   1      39.458  32.615  35.881  1.00  0.00     0.057 A 
ATOM     81  C   UNL A   1      38.469  32.271  36.810  1.00  0.00     0.134 A 
ATOM     82  C   UNL A   1      40.011  33.901  35.971  1.00  0.00     0.134 A 
ATOM     83  F   UNL A   1      37.894  31.060  36.775  1.00  0.00    -0.206 F 
ATOM     84  C   UNL A   1      38.056  33.164  37.800  1.00  0.00     0.040 A 
ATOM     85  C   UNL A   1      39.625  34.791  36.974  1.00  0.00     0.040 A 
ATOM     86  F   UNL A   1      40.974  34.287  35.121  1.00  0.00    -0.206 F 
ATOM     87  C   UNL A   1      38.643  34.424  37.891  1.00  0.00     0.006 A 
ENDBRANCH  63  80
ENDBRANCH  37  38
ENDBRANCH  30  32
ENDBRANCH  29  30
ENDBRANCH  28  29
ENDBRANCH   1  28
TORSDOF 13
ENDMDL
MODEL 3
REMARK VINA RESULT:      -9.6      5.293     11.989
REMARK SMILES CC(C)c1cccc2c1N[C@H](c1ccc(C(=O)OCCOC(=O)c3ccc(-c4c5nc(c(-c6c(F)cccc6F)c6ccc([nH]6)c(-c6c(F)cccc6F)c6nc(c(-c7c(F)cccc7F)c7ccc4[nH]7)C=C6)C=C5)cc3)cc1)[C@H]1CC=C[C@H]21
REMARK SMILES IDX 19 1 18 2 16 3 17 4 15 5 12 6 13 7 79 8 14 9 78 10 11 11
REMARK SMILES IDX 4 12 5 13 9 14 6 15 8 16 10 17 7 18 84 19 80 21 83 22 81 23
REMARK SMILES IDX 82 24 2 25 1 26 3 27 20 28 21 29 22 30 23 31 24 32 25 33
REMARK SMILES IDX 77 34 26 35 76 36 27 37 28 38 29 39 70 40 30 41 75 42 69 43
REMARK SMILES IDX 71 44 31 45 74 46 68 47 67 48 32 50 58 51 41 52 57 53 42 54
REMARK SMILES IDX 45 55 56 56 72 57 43 58 44 59 55 61 73 62 46 63 33 64 34 65
REMARK SMILES IDX 39 66 35 67 36 68 38 69 40 70 37 71 59 72 60 73 65 74 61 75
REMARK SMILES IDX 62 76 64 77 66 78 63 79 47 80 48 81 53 82 49 83 50 84 52 85
REMARK SMILES IDX 54 86 51 87
REMARK H PARENT 10 20 71 49 45 60
REMARK Flexibility Score: inf
ROOT
ATOM      1  C   UNL A   1      43.860  21.790  26.696  1.00  0.00     0.275 C 
ENDROOT
BRANCH   1   2
ATOM      2  O   UNL A   1      42.670  21.513  27.455  1.00  0.00    -0.458 OA
BRANCH   2   3
ATOM      3  C   UNL A   1      42.073  20.309  27.278  1.00  0.00     0.338 C 
ATOM      4  O   UNL A   1      42.512  19.223  27.625  1.00  0.00    -0.246 OA
BRANCH   3   5
ATOM      5  C   UNL A   1      40.724  20.497  26.676  1.00  0.00     0.060 A 
ATOM      6  C   UNL A   1      38.248  20.955  25.381  1.00  0.00    -0.025 A 
ATOM      7  C   UNL A   1      38.893  21.988  26.080  1.00  0.00     0.007 A 
ATOM      8  C   UNL A   1      38.880  19.701  25.328  1.00  0.00     0.007 A 
ATOM      9  C   UNL A   1      40.113  21.758  26.732  1.00  0.00     0.016 A 
ATOM     10  C   UNL A   1      40.090  19.468  25.978  1.00  0.00     0.016 A 
BRANCH   6  11
ATOM     11  C   UNL A   1      36.903  21.205  24.706  1.00  0.00     0.114 C 
ATOM     12  C   UNL A   1      33.946  18.763  24.667  1.00  0.00    -0.022 A 
ATOM     13  C   UNL A   1      32.528  18.874  24.715  1.00  0.00     0.006 A 
ATOM     14  C   UNL A   1      34.703  19.961  24.738  1.00  0.00     0.042 A 
ATOM     15  C   UNL A   1      31.868  20.094  24.825  1.00  0.00     0.001 A 
ATOM     16  C   UNL A   1      34.000  21.212  24.767  1.00  0.00    -0.017 A 
ATOM     17  N   UNL A   1      36.102  19.975  24.721  1.00  0.00    -0.377 N 
ATOM     18  C   UNL A   1      32.602  21.263  24.826  1.00  0.00     0.006 A 
ATOM     19  C   UNL A   1      34.795  22.482  24.611  1.00  0.00     0.049 C 
ATOM     20  H   UNL A   1      36.575  19.112  24.719  1.00  0.00     0.161 HD
ATOM     21  C   UNL A   1      36.104  22.314  25.369  1.00  0.00     0.031 C 
ATOM     22  C   UNL A   1      34.349  23.792  25.200  1.00  0.00    -0.023 C 
ATOM     23  C   UNL A   1      36.685  23.723  25.424  1.00  0.00     0.034 C 
ATOM     24  C   UNL A   1      35.413  24.501  25.613  1.00  0.00    -0.030 C 
BRANCH  12  25
ATOM     25  C   UNL A   1      34.449  17.324  24.455  1.00  0.00     0.015 C 
ATOM     26  C   UNL A   1      33.983  16.196  25.380  1.00  0.00     0.012 C 
ATOM     27  C   UNL A   1      34.240  16.855  23.001  1.00  0.00     0.012 C 
ENDBRANCH  12  25
ENDBRANCH   6  11
ENDBRANCH   3   5
ENDBRANCH   2   3
ENDBRANCH   1   2
BRANCH   1  28
ATOM     28  C   UNL A   1      43.490  22.209  25.269  1.00  0.00     0.275 C 
BRANCH  28  29
ATOM     29  O   UNL A   1      42.757  23.448  25.276  1.00  0.00    -0.458 OA
BRANCH  29  30
ATOM     30  C   UNL A   1      43.508  24.570  25.372  1.00  0.00     0.338 C 
ATOM     31  O   UNL A   1      44.406  24.925  24.628  1.00  0.00    -0.246 OA
BRANCH  30  32
ATOM     32  C   UNL A   1      42.954  25.424  26.437  1.00  0.00     0.060 A 
ATOM     33  C   UNL A   1      41.977  24.966  27.322  1.00  0.00     0.016 A 
ATOM     34  C   UNL A   1      43.458  26.721  26.555  1.00  0.00     0.016 A 
ATOM     35  C   UNL A   1      41.496  25.828  28.313  1.00  0.00     0.010 A 
ATOM     36  C   UNL A   1      42.974  27.582  27.536  1.00  0.00     0.010 A 
ATOM     37  C   UNL A   1      41.988  27.144  28.425  1.00  0.00    -0.014 A 
BRANCH  37  38
ATOM     38  C   UNL A   1      41.543  28.023  29.533  1.00  0.00     0.031 A 
ATOM     39  C   UNL A   1      40.334  28.904  29.406  1.00  0.00     0.074 A 
ATOM     40  C   UNL A   1      42.282  28.059  30.658  1.00  0.00     0.049 A 
ATOM     41  N   UNL A   1      39.748  29.636  30.322  1.00  0.00    -0.248 NA
ATOM     42  C   UNL A   1      39.717  29.002  28.074  1.00  0.00     0.031 C 
ATOM     43  C   UNL A   1      43.544  27.344  30.857  1.00  0.00     0.029 A 
ATOM     44  N   UNL A   1      42.079  28.717  31.842  1.00  0.00    -0.354 N 
ATOM     45  C   UNL A   1      38.692  30.273  29.684  1.00  0.00     0.074 A 
ATOM     46  C   UNL A   1      38.753  29.888  28.289  1.00  0.00     0.031 C 
ATOM     47  C   UNL A   1      43.977  27.563  32.108  1.00  0.00     0.029 A 
ATOM     48  C   UNL A   1      43.029  28.435  32.792  1.00  0.00     0.049 A 
ATOM     49  H   UNL A   1      41.325  29.331  31.998  1.00  0.00     0.167 HD
ATOM     50  C   UNL A   1      37.744  31.083  30.218  1.00  0.00     0.037 A 
ATOM     51  C   UNL A   1      43.107  28.812  34.081  1.00  0.00     0.037 A 
ATOM     52  C   UNL A   1      37.691  31.463  31.609  1.00  0.00     0.049 A 
ATOM     53  C   UNL A   1      42.014  29.659  34.665  1.00  0.00     0.074 A 
ATOM     54  C   UNL A   1      36.727  32.207  32.268  1.00  0.00     0.029 A 
ATOM     55  N   UNL A   1      38.654  31.135  32.553  1.00  0.00    -0.354 N 
ATOM     56  N   UNL A   1      40.941  30.141  34.087  1.00  0.00    -0.248 NA
ATOM     57  C   UNL A   1      42.134  29.994  36.091  1.00  0.00     0.031 C 
ATOM     58  C   UNL A   1      37.126  32.361  33.601  1.00  0.00     0.029 A 
ATOM     59  C   UNL A   1      38.317  31.677  33.783  1.00  0.00     0.049 A 
ATOM     60  H   UNL A   1      39.458  30.595  32.375  1.00  0.00     0.167 HD
ATOM     61  C   UNL A   1      40.249  30.822  35.080  1.00  0.00     0.074 A 
ATOM     62  C   UNL A   1      41.009  30.661  36.303  1.00  0.00     0.031 C 
ATOM     63  C   UNL A   1      39.091  31.522  34.989  1.00  0.00     0.037 A 
BRANCH  50  64
ATOM     64  C   UNL A   1      36.672  31.599  29.299  1.00  0.00     0.057 A 
ATOM     65  C   UNL A   1      36.669  32.931  28.867  1.00  0.00     0.134 A 
ATOM     66  C   UNL A   1      35.613  30.783  28.879  1.00  0.00     0.134 A 
ATOM     67  F   UNL A   1      37.645  33.772  29.241  1.00  0.00    -0.206 F 
ATOM     68  C   UNL A   1      35.654  33.432  28.049  1.00  0.00     0.040 A 
ATOM     69  C   UNL A   1      34.606  31.265  28.039  1.00  0.00     0.040 A 
ATOM     70  F   UNL A   1      35.555  29.496  29.253  1.00  0.00    -0.206 F 
ATOM     71  C   UNL A   1      34.622  32.596  27.626  1.00  0.00     0.006 A 
ENDBRANCH  50  64
BRANCH  51  72
ATOM     72  C   UNL A   1      44.224  28.329  34.928  1.00  0.00     0.057 A 
ATOM     73  C   UNL A   1      45.390  29.082  35.104  1.00  0.00     0.134 A 
ATOM     74  C   UNL A   1      44.141  27.098  35.591  1.00  0.00     0.134 A 
ATOM     75  F   UNL A   1      45.534  30.262  34.483  1.00  0.00    -0.206 F 
ATOM     76  C   UNL A   1      46.434  28.629  35.912  1.00  0.00     0.040 A 
ATOM     77  C   UNL A   1      45.167  26.646  36.422  1.00  0.00     0.040 A 
ATOM     78  F   UNL A   1      43.042  26.341  35.471  1.00  0.00    -0.206 F 
ATOM     79  C   UNL A   1      46.319  27.412  36.582  1.00  0.00     0.006 A 
ENDBRANCH  51  72
BRANCH  63  80
ATOM     80  C   UNL A   1      38.586  32.153  36.254  1.00  0.00     0.057 A 
ATOM     81  C   UNL A   1      37.843  31.409  37.178  1.00  0.00     0.134 A 
ATOM     82  C   UNL A   1      38.853  33.493  36.566  1.00  0.00     0.134 A 
ATOM     83  F   UNL A   1      37.546  30.123  36.938  1.00  0.00    -0.206 F 
ATOM     84  C   UNL A   1      37.396  31.971  38.375  1.00  0.00     0.040 A 
ATOM     85  C   UNL A   1      38.434  34.057  37.773  1.00  0.00     0.040 A 
ATOM     86  F   UNL A   1      39.573  34.255  35.731  1.00  0.00    -0.206 F 
ATOM     87  C   UNL A   1      37.702  33.295  38.681  1.00  0.00     0.006 A 
ENDBRANCH  63  80
ENDBRANCH  37  38
ENDBRANCH  30  32
ENDBRANCH  29  30
ENDBRANCH  28  29
ENDBRANCH   1  28
TORSDOF 13
ENDMDL
