MODEL 1
REMARK VINA RESULT:     -10.6      0.000      0.000
REMARK SMILES Cc1cscc1CNC(=O)CC(C)(C)C(=O)OCCOC(=O)c1ccc(-c2c3nc(c(-c4c(F)cccc4F)c4ccc([nH]4)c(-c4c(F)cccc4F)c4nc(c(-c5c(F)cccc5F)c5ccc2[nH]5)C=C4)C=C3)cc1
REMARK SMILES IDX 18 1 17 2 15 3 16 4 12 5 13 6 14 7 11 8 9 9 8 10 10 12 7 13
REMARK SMILES IDX 6 14 1 15 2 16 3 17 4 18 5 19 19 20 20 21 21 22 22 23 23 24
REMARK SMILES IDX 24 25 76 26 25 27 75 28 26 29 27 30 28 31 69 32 29 33 74 34
REMARK SMILES IDX 68 35 70 36 30 37 73 38 67 39 66 40 31 42 57 43 40 44 56 45
REMARK SMILES IDX 41 46 44 47 55 48 71 49 42 50 43 51 54 53 72 54 45 55 32 56
REMARK SMILES IDX 33 57 38 58 34 59 35 60 37 61 39 62 36 63 58 64 59 65 64 66
REMARK SMILES IDX 60 67 61 68 63 69 65 70 62 71 46 72 47 73 52 74 48 75 49 76
REMARK SMILES IDX 51 77 53 78 50 79
REMARK H PARENT 8 11 70 41 44 52
REMARK Flexibility Score: inf
ROOT
ATOM      1  C   UNL A   1      34.928  21.481  24.816  1.00  0.00     0.274 C 
ENDROOT
BRANCH   1   2
ATOM      2  O   UNL A   1      35.191  22.896  24.729  1.00  0.00    -0.462 OA
BRANCH   2   3
ATOM      3  C   UNL A   1      34.583  23.566  23.707  1.00  0.00     0.312 C 
ATOM      4  O   UNL A   1      34.801  23.333  22.529  1.00  0.00    -0.252 OA
BRANCH   3   5
ATOM      5  C   UNL A   1      33.670  24.688  24.234  1.00  0.00     0.071 C 
ATOM      6  C   UNL A   1      33.446  25.667  23.069  1.00  0.00     0.024 C 
ATOM      7  C   UNL A   1      34.389  25.463  25.363  1.00  0.00     0.024 C 
BRANCH   5   8
ATOM      8  C   UNL A   1      32.301  24.201  24.798  1.00  0.00     0.118 C 
BRANCH   8   9
ATOM      9  C   UNL A   1      31.154  23.921  23.840  1.00  0.00     0.221 C 
ATOM     10  N   UNL A   1      30.088  24.751  23.756  1.00  0.00    -0.352 N 
ATOM     11  H   UNL A   1      29.498  24.598  22.983  1.00  0.00     0.163 HD
ATOM     12  O   UNL A   1      31.151  22.905  23.144  1.00  0.00    -0.275 OA
BRANCH  10  13
ATOM     13  C   UNL A   1      29.688  25.824  24.627  1.00  0.00     0.152 C 
BRANCH  13  14
ATOM     14  C   UNL A   1      30.180  27.149  24.121  1.00  0.00    -0.015 A 
ATOM     15  C   UNL A   1      31.586  27.705  26.240  1.00  0.00     0.045 C 
ATOM     16  C   UNL A   1      31.090  27.998  24.862  1.00  0.00    -0.035 A 
ATOM     17  C   UNL A   1      31.450  29.115  24.132  1.00  0.00     0.068 A 
ATOM     18  S   UNL A   1      30.696  29.182  22.605  1.00  0.00    -0.152 S 
ATOM     19  C   UNL A   1      29.874  27.717  22.895  1.00  0.00     0.070 A 
ENDBRANCH  13  14
ENDBRANCH  10  13
ENDBRANCH   8   9
ENDBRANCH   5   8
ENDBRANCH   3   5
ENDBRANCH   2   3
ENDBRANCH   1   2
BRANCH   1  20
ATOM     20  C   UNL A   1      36.225  20.702  25.013  1.00  0.00     0.275 C 
BRANCH  20  21
ATOM     21  O   UNL A   1      37.344  21.606  25.035  1.00  0.00    -0.458 OA
BRANCH  21  22
ATOM     22  C   UNL A   1      38.453  21.158  25.662  1.00  0.00     0.338 C 
ATOM     23  O   UNL A   1      38.899  20.021  25.684  1.00  0.00    -0.246 OA
BRANCH  22  24
ATOM     24  C   UNL A   1      39.135  22.297  26.285  1.00  0.00     0.060 A 
ATOM     25  C   UNL A   1      38.641  23.576  26.038  1.00  0.00     0.016 A 
ATOM     26  C   UNL A   1      40.303  22.119  27.023  1.00  0.00     0.016 A 
ATOM     27  C   UNL A   1      39.320  24.695  26.506  1.00  0.00     0.010 A 
ATOM     28  C   UNL A   1      40.975  23.244  27.515  1.00  0.00     0.010 A 
ATOM     29  C   UNL A   1      40.495  24.540  27.243  1.00  0.00    -0.014 A 
BRANCH  29  30
ATOM     30  C   UNL A   1      41.285  25.729  27.636  1.00  0.00     0.031 A 
ATOM     31  C   UNL A   1      40.644  26.771  28.504  1.00  0.00     0.074 A 
ATOM     32  C   UNL A   1      42.567  25.866  27.256  1.00  0.00     0.049 A 
ATOM     33  N   UNL A   1      41.064  27.970  28.811  1.00  0.00    -0.248 NA
ATOM     34  C   UNL A   1      39.354  26.406  29.111  1.00  0.00     0.031 C 
ATOM     35  C   UNL A   1      43.349  24.870  26.526  1.00  0.00     0.029 A 
ATOM     36  N   UNL A   1      43.438  26.912  27.437  1.00  0.00    -0.354 N 
ATOM     37  C   UNL A   1      40.072  28.520  29.610  1.00  0.00     0.074 A 
ATOM     38  C   UNL A   1      39.034  27.521  29.750  1.00  0.00     0.031 C 
ATOM     39  C   UNL A   1      44.584  25.354  26.316  1.00  0.00     0.029 A 
ATOM     40  C   UNL A   1      44.659  26.716  26.840  1.00  0.00     0.049 A 
ATOM     41  H   UNL A   1      43.211  27.723  27.945  1.00  0.00     0.167 HD
ATOM     42  C   UNL A   1      40.027  29.755  30.162  1.00  0.00     0.037 A 
ATOM     43  C   UNL A   1      45.699  27.558  26.696  1.00  0.00     0.037 A 
ATOM     44  C   UNL A   1      41.075  30.732  30.039  1.00  0.00     0.049 A 
ATOM     45  C   UNL A   1      45.587  28.961  27.228  1.00  0.00     0.074 A 
ATOM     46  C   UNL A   1      41.119  32.020  30.543  1.00  0.00     0.029 A 
ATOM     47  N   UNL A   1      42.270  30.520  29.369  1.00  0.00    -0.354 N 
ATOM     48  N   UNL A   1      44.615  29.510  27.915  1.00  0.00    -0.248 NA
ATOM     49  C   UNL A   1      46.706  29.871  26.939  1.00  0.00     0.031 C 
ATOM     50  C   UNL A   1      42.331  32.599  30.149  1.00  0.00     0.029 A 
ATOM     51  C   UNL A   1      43.053  31.660  29.429  1.00  0.00     0.049 A 
ATOM     52  H   UNL A   1      42.524  29.684  28.917  1.00  0.00     0.167 HD
ATOM     53  C   UNL A   1      45.013  30.818  28.162  1.00  0.00     0.074 A 
ATOM     54  C   UNL A   1      46.316  30.981  27.552  1.00  0.00     0.031 C 
ATOM     55  C   UNL A   1      44.357  31.795  28.833  1.00  0.00     0.037 A 
BRANCH  42  56
ATOM     56  C   UNL A   1      38.773  30.130  30.888  1.00  0.00     0.057 A 
ATOM     57  C   UNL A   1      37.721  30.808  30.262  1.00  0.00     0.134 A 
ATOM     58  C   UNL A   1      38.626  29.815  32.245  1.00  0.00     0.134 A 
ATOM     59  F   UNL A   1      37.811  31.156  28.969  1.00  0.00    -0.206 F 
ATOM     60  C   UNL A   1      36.574  31.179  30.966  1.00  0.00     0.040 A 
ATOM     61  C   UNL A   1      37.477  30.163  32.954  1.00  0.00     0.040 A 
ATOM     62  F   UNL A   1      39.600  29.168  32.903  1.00  0.00    -0.206 F 
ATOM     63  C   UNL A   1      36.449  30.854  32.316  1.00  0.00     0.006 A 
ENDBRANCH  42  56
BRANCH  43  64
ATOM     64  C   UNL A   1      46.920  27.116  25.979  1.00  0.00     0.057 A 
ATOM     65  C   UNL A   1      47.991  26.537  26.669  1.00  0.00     0.134 A 
ATOM     66  C   UNL A   1      47.054  27.277  24.594  1.00  0.00     0.134 A 
ATOM     67  F   UNL A   1      47.933  26.384  27.999  1.00  0.00    -0.206 F 
ATOM     68  C   UNL A   1      49.153  26.135  26.007  1.00  0.00     0.040 A 
ATOM     69  C   UNL A   1      48.201  26.860  23.918  1.00  0.00     0.040 A 
ATOM     70  F   UNL A   1      46.068  27.835  23.879  1.00  0.00    -0.206 F 
ATOM     71  C   UNL A   1      49.258  26.290  24.626  1.00  0.00     0.006 A 
ENDBRANCH  43  64
BRANCH  55  72
ATOM     72  C   UNL A   1      45.054  33.111  28.986  1.00  0.00     0.057 A 
ATOM     73  C   UNL A   1      44.842  34.166  28.090  1.00  0.00     0.134 A 
ATOM     74  C   UNL A   1      45.899  33.344  30.078  1.00  0.00     0.134 A 
ATOM     75  F   UNL A   1      44.054  34.000  27.018  1.00  0.00    -0.206 F 
ATOM     76  C   UNL A   1      45.453  35.407  28.274  1.00  0.00     0.040 A 
ATOM     77  C   UNL A   1      46.501  34.586  30.281  1.00  0.00     0.040 A 
ATOM     78  F   UNL A   1      46.136  32.374  30.975  1.00  0.00    -0.206 F 
ATOM     79  C   UNL A   1      46.279  35.622  29.377  1.00  0.00     0.006 A 
ENDBRANCH  55  72
ENDBRANCH  29  30
ENDBRANCH  22  24
ENDBRANCH  21  22
ENDBRANCH  20  21
ENDBRANCH   1  20
TORSDOF 15
ENDMDL
MODEL 2
REMARK VINA RESULT:     -10.5      4.205      8.880
REMARK SMILES Cc1cscc1CNC(=O)CC(C)(C)C(=O)OCCOC(=O)c1ccc(-c2c3nc(c(-c4c(F)cccc4F)c4ccc([nH]4)c(-c4c(F)cccc4F)c4nc(c(-c5c(F)cccc5F)c5ccc2[nH]5)C=C4)C=C3)cc1
REMARK SMILES IDX 18 1 17 2 15 3 16 4 12 5 13 6 14 7 11 8 9 9 8 10 10 12 7 13
REMARK SMILES IDX 6 14 1 15 2 16 3 17 4 18 5 19 19 20 20 21 21 22 22 23 23 24
REMARK SMILES IDX 24 25 76 26 25 27 75 28 26 29 27 30 28 31 69 32 29 33 74 34
REMARK SMILES IDX 68 35 70 36 30 37 73 38 67 39 66 40 31 42 57 43 40 44 56 45
REMARK SMILES IDX 41 46 44 47 55 48 71 49 42 50 43 51 54 53 72 54 45 55 32 56
REMARK SMILES IDX 33 57 38 58 34 59 35 60 37 61 39 62 36 63 58 64 59 65 64 66
REMARK SMILES IDX 60 67 61 68 63 69 65 70 62 71 46 72 47 73 52 74 48 75 49 76
REMARK SMILES IDX 51 77 53 78 50 79
REMARK H PARENT 8 11 70 41 44 52
REMARK Flexibility Score: inf
ROOT
ATOM      1  C   UNL A   1      32.624  28.894  25.128  1.00  0.00     0.274 C 
ENDROOT
BRANCH   1   2
ATOM      2  O   UNL A   1      31.742  27.762  24.986  1.00  0.00    -0.462 OA
BRANCH   2   3
ATOM      3  C   UNL A   1      31.839  26.792  25.941  1.00  0.00     0.312 C 
ATOM      4  O   UNL A   1      31.428  26.930  27.082  1.00  0.00    -0.252 OA
BRANCH   3   5
ATOM      5  C   UNL A   1      32.601  25.561  25.417  1.00  0.00     0.071 C 
ATOM      6  C   UNL A   1      32.081  24.345  26.203  1.00  0.00     0.024 C 
ATOM      7  C   UNL A   1      34.110  25.706  25.724  1.00  0.00     0.024 C 
BRANCH   5   8
ATOM      8  C   UNL A   1      32.457  25.312  23.885  1.00  0.00     0.118 C 
BRANCH   8   9
ATOM      9  C   UNL A   1      31.259  24.535  23.362  1.00  0.00     0.221 C 
ATOM     10  N   UNL A   1      31.395  23.283  22.863  1.00  0.00    -0.352 N 
ATOM     11  H   UNL A   1      30.552  22.791  22.732  1.00  0.00     0.163 HD
ATOM     12  O   UNL A   1      30.138  25.046  23.343  1.00  0.00    -0.275 OA
BRANCH  10  13
ATOM     13  C   UNL A   1      32.585  22.564  22.497  1.00  0.00     0.152 C 
BRANCH  13  14
ATOM     14  C   UNL A   1      33.106  21.751  23.647  1.00  0.00    -0.015 A 
ATOM     15  C   UNL A   1      35.432  22.919  23.728  1.00  0.00     0.045 C 
ATOM     16  C   UNL A   1      34.415  21.949  24.234  1.00  0.00    -0.035 A 
ATOM     17  C   UNL A   1      34.608  21.129  25.331  1.00  0.00     0.068 A 
ATOM     18  S   UNL A   1      33.276  20.113  25.642  1.00  0.00    -0.152 S 
ATOM     19  C   UNL A   1      32.418  20.751  24.315  1.00  0.00     0.070 A 
ENDBRANCH  13  14
ENDBRANCH  10  13
ENDBRANCH   8   9
ENDBRANCH   5   8
ENDBRANCH   3   5
ENDBRANCH   2   3
ENDBRANCH   1   2
BRANCH   1  20
ATOM     20  C   UNL A   1      31.856  30.119  25.616  1.00  0.00     0.275 C 
BRANCH  20  21
ATOM     21  O   UNL A   1      32.204  30.406  26.982  1.00  0.00    -0.458 OA
BRANCH  21  22
ATOM     22  C   UNL A   1      32.833  31.582  27.196  1.00  0.00     0.338 C 
ATOM     23  O   UNL A   1      32.392  32.711  27.045  1.00  0.00    -0.246 OA
BRANCH  22  24
ATOM     24  C   UNL A   1      34.167  31.311  27.742  1.00  0.00     0.060 A 
ATOM     25  C   UNL A   1      34.482  29.999  28.088  1.00  0.00     0.016 A 
ATOM     26  C   UNL A   1      35.062  32.347  28.000  1.00  0.00     0.016 A 
ATOM     27  C   UNL A   1      35.687  29.708  28.719  1.00  0.00     0.010 A 
ATOM     28  C   UNL A   1      36.285  32.052  28.613  1.00  0.00     0.010 A 
ATOM     29  C   UNL A   1      36.596  30.732  28.992  1.00  0.00    -0.014 A 
BRANCH  29  30
ATOM     30  C   UNL A   1      37.822  30.445  29.772  1.00  0.00     0.031 A 
ATOM     31  C   UNL A   1      38.894  29.599  29.152  1.00  0.00     0.074 A 
ATOM     32  C   UNL A   1      37.996  30.958  31.002  1.00  0.00     0.049 A 
ATOM     33  N   UNL A   1      39.950  29.062  29.703  1.00  0.00    -0.248 NA
ATOM     34  C   UNL A   1      38.756  29.328  27.713  1.00  0.00     0.031 C 
ATOM     35  C   UNL A   1      37.096  31.898  31.667  1.00  0.00     0.029 A 
ATOM     36  N   UNL A   1      39.001  30.751  31.914  1.00  0.00    -0.354 N 
ATOM     37  C   UNL A   1      40.579  28.352  28.690  1.00  0.00     0.074 A 
ATOM     38  C   UNL A   1      39.794  28.536  27.488  1.00  0.00     0.031 C 
ATOM     39  C   UNL A   1      37.587  32.185  32.883  1.00  0.00     0.029 A 
ATOM     40  C   UNL A   1      38.799  31.401  33.106  1.00  0.00     0.049 A 
ATOM     41  H   UNL A   1      39.791  30.193  31.731  1.00  0.00     0.167 HD
ATOM     42  C   UNL A   1      41.703  27.601  28.764  1.00  0.00     0.037 A 
ATOM     43  C   UNL A   1      39.492  31.332  34.259  1.00  0.00     0.037 A 
ATOM     44  C   UNL A   1      42.492  27.445  29.956  1.00  0.00     0.049 A 
ATOM     45  C   UNL A   1      40.678  30.411  34.350  1.00  0.00     0.074 A 
ATOM     46  C   UNL A   1      43.637  26.690  30.142  1.00  0.00     0.029 A 
ATOM     47  N   UNL A   1      42.218  28.066  31.164  1.00  0.00    -0.354 N 
ATOM     48  N   UNL A   1      41.228  29.676  33.414  1.00  0.00    -0.248 NA
ATOM     49  C   UNL A   1      41.323  30.289  35.666  1.00  0.00     0.031 C 
ATOM     50  C   UNL A   1      44.037  26.830  31.476  1.00  0.00     0.029 A 
ATOM     51  C   UNL A   1      43.161  27.697  32.109  1.00  0.00     0.049 A 
ATOM     52  H   UNL A   1      41.464  28.677  31.328  1.00  0.00     0.167 HD
ATOM     53  C   UNL A   1      42.295  29.024  34.019  1.00  0.00     0.074 A 
ATOM     54  C   UNL A   1      42.318  29.452  35.402  1.00  0.00     0.031 C 
ATOM     55  C   UNL A   1      43.176  28.150  33.475  1.00  0.00     0.037 A 
BRANCH  42  56
ATOM     56  C   UNL A   1      42.097  26.844  27.533  1.00  0.00     0.057 A 
ATOM     57  C   UNL A   1      42.892  27.411  26.531  1.00  0.00     0.134 A 
ATOM     58  C   UNL A   1      41.659  25.527  27.349  1.00  0.00     0.134 A 
ATOM     59  F   UNL A   1      43.325  28.676  26.640  1.00  0.00    -0.206 F 
ATOM     60  C   UNL A   1      43.221  26.699  25.376  1.00  0.00     0.040 A 
ATOM     61  C   UNL A   1      41.997  24.799  26.209  1.00  0.00     0.040 A 
ATOM     62  F   UNL A   1      40.892  24.928  28.274  1.00  0.00    -0.206 F 
ATOM     63  C   UNL A   1      42.774  25.388  25.213  1.00  0.00     0.006 A 
ENDBRANCH  42  56
BRANCH  43  64
ATOM     64  C   UNL A   1      39.056  32.122  35.437  1.00  0.00     0.057 A 
ATOM     65  C   UNL A   1      39.487  33.440  35.620  1.00  0.00     0.134 A 
ATOM     66  C   UNL A   1      38.214  31.575  36.413  1.00  0.00     0.134 A 
ATOM     67  F   UNL A   1      40.317  34.008  34.733  1.00  0.00    -0.206 F 
ATOM     68  C   UNL A   1      39.098  34.187  36.733  1.00  0.00     0.040 A 
ATOM     69  C   UNL A   1      37.801  32.318  37.521  1.00  0.00     0.040 A 
ATOM     70  F   UNL A   1      37.775  30.314  36.301  1.00  0.00    -0.206 F 
ATOM     71  C   UNL A   1      38.247  33.628  37.685  1.00  0.00     0.006 A 
ENDBRANCH  43  64
BRANCH  55  72
ATOM     72  C   UNL A   1      44.267  27.634  34.362  1.00  0.00     0.057 A 
ATOM     73  C   UNL A   1      44.137  26.431  35.066  1.00  0.00     0.134 A 
ATOM     74  C   UNL A   1      45.485  28.319  34.462  1.00  0.00     0.134 A 
ATOM     75  F   UNL A   1      42.991  25.737  35.020  1.00  0.00    -0.206 F 
ATOM     76  C   UNL A   1      45.181  25.930  35.845  1.00  0.00     0.040 A 
ATOM     77  C   UNL A   1      46.541  27.818  35.223  1.00  0.00     0.040 A 
ATOM     78  F   UNL A   1      45.673  29.473  33.805  1.00  0.00    -0.206 F 
ATOM     79  C   UNL A   1      46.391  26.620  35.918  1.00  0.00     0.006 A 
ENDBRANCH  55  72
ENDBRANCH  29  30
ENDBRANCH  22  24
ENDBRANCH  21  22
ENDBRANCH  20  21
ENDBRANCH   1  20
TORSDOF 15
ENDMDL
MODEL 3
REMARK VINA RESULT:     -10.5      4.176      8.679
REMARK SMILES Cc1cscc1CNC(=O)CC(C)(C)C(=O)OCCOC(=O)c1ccc(-c2c3nc(c(-c4c(F)cccc4F)c4ccc([nH]4)c(-c4c(F)cccc4F)c4nc(c(-c5c(F)cccc5F)c5ccc2[nH]5)C=C4)C=C3)cc1
REMARK SMILES IDX 18 1 17 2 15 3 16 4 12 5 13 6 14 7 11 8 9 9 8 10 10 12 7 13
REMARK SMILES IDX 6 14 1 15 2 16 3 17 4 18 5 19 19 20 20 21 21 22 22 23 23 24
REMARK SMILES IDX 24 25 76 26 25 27 75 28 26 29 27 30 28 31 69 32 29 33 74 34
REMARK SMILES IDX 68 35 70 36 30 37 73 38 67 39 66 40 31 42 57 43 40 44 56 45
REMARK SMILES IDX 41 46 44 47 55 48 71 49 42 50 43 51 54 53 72 54 45 55 32 56
REMARK SMILES IDX 33 57 38 58 34 59 35 60 37 61 39 62 36 63 58 64 59 65 64 66
REMARK SMILES IDX 60 67 61 68 63 69 65 70 62 71 46 72 47 73 52 74 48 75 49 76
REMARK SMILES IDX 51 77 53 78 50 79
REMARK H PARENT 8 11 70 41 44 52
REMARK Flexibility Score: inf
ROOT
ATOM      1  C   UNL A   1      31.790  28.122  27.216  1.00  0.00     0.274 C 
ENDROOT
BRANCH   1   2
ATOM      2  O   UNL A   1      32.725  27.406  26.384  1.00  0.00    -0.462 OA
BRANCH   2   3
ATOM      3  C   UNL A   1      32.364  26.144  26.010  1.00  0.00     0.312 C 
ATOM      4  O   UNL A   1      31.514  25.490  26.591  1.00  0.00    -0.252 OA
BRANCH   3   5
ATOM      5  C   UNL A   1      33.221  25.639  24.835  1.00  0.00     0.071 C 
ATOM      6  C   UNL A   1      32.313  24.752  23.967  1.00  0.00     0.024 C 
ATOM      7  C   UNL A   1      34.371  24.752  25.367  1.00  0.00     0.024 C 
BRANCH   5   8
ATOM      8  C   UNL A   1      33.862  26.765  23.968  1.00  0.00     0.118 C 
BRANCH   8   9
ATOM      9  C   UNL A   1      33.321  27.033  22.573  1.00  0.00     0.221 C 
ATOM     10  N   UNL A   1      32.447  28.041  22.337  1.00  0.00    -0.352 N 
ATOM     11  H   UNL A   1      32.306  28.259  21.387  1.00  0.00     0.163 HD
ATOM     12  O   UNL A   1      33.635  26.309  21.627  1.00  0.00    -0.275 OA
BRANCH  10  13
ATOM     13  C   UNL A   1      31.697  28.842  23.266  1.00  0.00     0.152 C 
BRANCH  13  14
ATOM     14  C   UNL A   1      30.287  29.049  22.792  1.00  0.00    -0.015 A 
ATOM     15  C   UNL A   1      29.344  26.893  23.907  1.00  0.00     0.045 C 
ATOM     16  C   UNL A   1      29.195  28.157  23.126  1.00  0.00    -0.035 A 
ATOM     17  C   UNL A   1      27.990  28.625  22.635  1.00  0.00     0.068 A 
ATOM     18  S   UNL A   1      28.149  30.078  21.761  1.00  0.00    -0.152 S 
ATOM     19  C   UNL A   1      29.833  30.107  22.022  1.00  0.00     0.070 A 
ENDBRANCH  13  14
ENDBRANCH  10  13
ENDBRANCH   8   9
ENDBRANCH   5   8
ENDBRANCH   3   5
ENDBRANCH   2   3
ENDBRANCH   1   2
BRANCH   1  20
ATOM     20  C   UNL A   1      31.778  29.607  26.862  1.00  0.00     0.275 C 
BRANCH  20  21
ATOM     21  O   UNL A   1      33.107  30.044  26.528  1.00  0.00    -0.458 OA
BRANCH  21  22
ATOM     22  C   UNL A   1      33.523  31.181  27.128  1.00  0.00     0.338 C 
ATOM     23  O   UNL A   1      32.929  32.243  27.223  1.00  0.00    -0.246 OA
BRANCH  22  24
ATOM     24  C   UNL A   1      34.825  30.933  27.756  1.00  0.00     0.060 A 
ATOM     25  C   UNL A   1      35.126  29.633  28.156  1.00  0.00     0.016 A 
ATOM     26  C   UNL A   1      35.698  31.982  28.037  1.00  0.00     0.016 A 
ATOM     27  C   UNL A   1      36.294  29.367  28.862  1.00  0.00     0.010 A 
ATOM     28  C   UNL A   1      36.885  31.711  28.727  1.00  0.00     0.010 A 
ATOM     29  C   UNL A   1      37.181  30.405  29.159  1.00  0.00    -0.014 A 
BRANCH  29  30
ATOM     30  C   UNL A   1      38.361  30.147  30.016  1.00  0.00     0.031 A 
ATOM     31  C   UNL A   1      39.466  29.283  29.486  1.00  0.00     0.074 A 
ATOM     32  C   UNL A   1      38.466  30.702  31.236  1.00  0.00     0.049 A 
ATOM     33  N   UNL A   1      40.491  28.767  30.113  1.00  0.00    -0.248 NA
ATOM     34  C   UNL A   1      39.410  28.963  28.051  1.00  0.00     0.031 C 
ATOM     35  C   UNL A   1      37.529  31.662  31.816  1.00  0.00     0.029 A 
ATOM     36  N   UNL A   1      39.419  30.528  32.208  1.00  0.00    -0.354 N 
ATOM     37  C   UNL A   1      41.175  28.025  29.161  1.00  0.00     0.074 A 
ATOM     38  C   UNL A   1      40.459  28.167  27.912  1.00  0.00     0.031 C 
ATOM     39  C   UNL A   1      37.952  31.991  33.048  1.00  0.00     0.029 A 
ATOM     40  C   UNL A   1      39.150  31.217  33.365  1.00  0.00     0.049 A 
ATOM     41  H   UNL A   1      40.218  29.966  32.089  1.00  0.00     0.167 HD
ATOM     42  C   UNL A   1      42.293  27.280  29.323  1.00  0.00     0.037 A 
ATOM     43  C   UNL A   1      39.777  31.189  34.557  1.00  0.00     0.037 A 
ATOM     44  C   UNL A   1      43.015  27.165  30.562  1.00  0.00     0.049 A 
ATOM     45  C   UNL A   1      40.957  30.275  34.744  1.00  0.00     0.074 A 
ATOM     46  C   UNL A   1      44.148  26.420  30.837  1.00  0.00     0.029 A 
ATOM     47  N   UNL A   1      42.673  27.826  31.731  1.00  0.00    -0.354 N 
ATOM     48  N   UNL A   1      41.559  29.509  33.867  1.00  0.00    -0.248 NA
ATOM     49  C   UNL A   1      41.528  30.199  36.098  1.00  0.00     0.031 C 
ATOM     50  C   UNL A   1      44.473  26.607  32.185  1.00  0.00     0.029 A 
ATOM     51  C   UNL A   1      43.562  27.492  32.739  1.00  0.00     0.049 A 
ATOM     52  H   UNL A   1      41.911  28.441  31.832  1.00  0.00     0.167 HD
ATOM     53  C   UNL A   1      42.591  28.881  34.551  1.00  0.00     0.074 A 
ATOM     54  C   UNL A   1      42.536  29.356  35.918  1.00  0.00     0.031 C 
ATOM     55  C   UNL A   1      43.501  27.992  34.088  1.00  0.00     0.037 A 
BRANCH  42  56
ATOM     56  C   UNL A   1      42.756  26.483  28.143  1.00  0.00     0.057 A 
ATOM     57  C   UNL A   1      42.317  25.176  27.906  1.00  0.00     0.134 A 
ATOM     58  C   UNL A   1      43.670  27.036  27.237  1.00  0.00     0.134 A 
ATOM     59  F   UNL A   1      41.459  24.583  28.750  1.00  0.00    -0.206 F 
ATOM     60  C   UNL A   1      42.787  24.437  26.819  1.00  0.00     0.040 A 
ATOM     61  C   UNL A   1      44.132  26.315  26.136  1.00  0.00     0.040 A 
ATOM     62  F   UNL A   1      44.130  28.284  27.410  1.00  0.00    -0.206 F 
ATOM     63  C   UNL A   1      43.696  25.008  25.928  1.00  0.00     0.006 A 
ENDBRANCH  42  56
BRANCH  43  64
ATOM     64  C   UNL A   1      39.276  32.018  35.680  1.00  0.00     0.057 A 
ATOM     65  C   UNL A   1      38.294  31.532  36.551  1.00  0.00     0.134 A 
ATOM     66  C   UNL A   1      39.751  33.316  35.901  1.00  0.00     0.134 A 
ATOM     67  F   UNL A   1      37.779  30.308  36.373  1.00  0.00    -0.206 F 
ATOM     68  C   UNL A   1      37.801  32.310  37.600  1.00  0.00     0.040 A 
ATOM     69  C   UNL A   1      39.282  34.096  36.959  1.00  0.00     0.040 A 
ATOM     70  F   UNL A   1      40.684  33.842  35.095  1.00  0.00    -0.206 F 
ATOM     71  C   UNL A   1      38.300  33.594  37.811  1.00  0.00     0.006 A 
ENDBRANCH  43  64
BRANCH  55  72
ATOM     72  C   UNL A   1      44.541  27.508  35.051  1.00  0.00     0.057 A 
ATOM     73  C   UNL A   1      45.736  28.207  35.258  1.00  0.00     0.134 A 
ATOM     74  C   UNL A   1      44.314  26.363  35.825  1.00  0.00     0.134 A 
ATOM     75  F   UNL A   1      46.015  29.304  34.539  1.00  0.00    -0.206 F 
ATOM     76  C   UNL A   1      46.673  27.780  36.199  1.00  0.00     0.040 A 
ATOM     77  C   UNL A   1      45.236  25.936  36.781  1.00  0.00     0.040 A 
ATOM     78  F   UNL A   1      43.185  25.654  35.677  1.00  0.00    -0.206 F 
ATOM     79  C   UNL A   1      46.420  26.645  36.970  1.00  0.00     0.006 A 
ENDBRANCH  55  72
ENDBRANCH  29  30
ENDBRANCH  22  24
ENDBRANCH  21  22
ENDBRANCH  20  21
ENDBRANCH   1  20
TORSDOF 15
ENDMDL
