MODEL 1
REMARK VINA RESULT:     -12.9      0.000      0.000
REMARK SMILES O=C(OCCOC(=O)[C@H]1CCCCC1C(=O)N1CCN(S(=O)(=O)c2ccc(F)cc2)CC1)c1ccc(-c2c3nc(c(-c4c(F)cccc4F)c4ccc([nH]4)c(-c4c(F)cccc4F)c4nc(c(-c5c(F)cccc5F)c5ccc2[nH]5)C=C4)C=C3)cc1
REMARK SMILES IDX 5 1 4 2 3 3 2 4 1 5 33 6 34 7 86 8 35 9 85 10 36 11 37 12
REMARK SMILES IDX 38 13 79 14 39 15 84 16 78 17 80 18 40 19 83 20 77 21 76 22
REMARK SMILES IDX 41 24 67 25 50 26 66 27 51 28 54 29 65 30 81 31 52 32 53 33
REMARK SMILES IDX 64 35 82 36 55 37 42 38 43 39 48 40 44 41 45 42 47 43 49 44
REMARK SMILES IDX 46 45 68 46 69 47 74 48 70 49 71 50 73 51 75 52 72 53 56 54
REMARK SMILES IDX 57 55 62 56 58 57 59 58 61 59 63 60 60 61 6 62 7 63 8 64
REMARK SMILES IDX 9 65 10 66 14 67 11 68 13 69 12 70 15 71 16 72 17 73 18 74
REMARK SMILES IDX 32 75 19 76 31 77 20 78 21 79 22 80 23 81 24 82 25 83 30 84
REMARK SMILES IDX 26 85 29 86 27 87 28 88
REMARK H PARENT 80 23 54 34
REMARK Flexibility Score: inf
ROOT
ATOM      1  C   UNL A   1      43.192  22.274  25.354  1.00  0.00     0.274 C 
ENDROOT
BRANCH   1   2
ATOM      2  C   UNL A   1      43.781  23.125  24.235  1.00  0.00     0.275 C 
BRANCH   2   3
ATOM      3  O   UNL A   1      45.151  23.469  24.386  1.00  0.00    -0.458 OA
BRANCH   3   4
ATOM      4  C   UNL A   1      45.699  24.612  24.815  1.00  0.00     0.338 C 
ATOM      5  O   UNL A   1      46.828  24.886  24.410  1.00  0.00    -0.246 OA
BRANCH   4   6
ATOM      6  C   UNL A   1      45.098  25.614  25.765  1.00  0.00     0.060 A 
ATOM      7  C   UNL A   1      44.501  27.341  25.577  1.00  0.00     0.016 A 
ATOM      8  C   UNL A   1      44.836  24.791  27.364  1.00  0.00     0.016 A 
ATOM      9  C   UNL A   1      43.889  28.277  27.051  1.00  0.00     0.010 A 
ATOM     10  C   UNL A   1      44.038  25.648  28.734  1.00  0.00     0.010 A 
ATOM     11  C   UNL A   1      43.678  27.425  28.659  1.00  0.00    -0.014 A 
BRANCH  11  12
ATOM     12  C   UNL A   1      42.892  28.029  29.798  1.00  0.00     0.031 A 
ATOM     13  C   UNL A   1      43.412  27.923  31.227  1.00  0.00     0.074 A 
ATOM     14  C   UNL A   1      41.658  28.548  29.577  1.00  0.00     0.049 A 
ATOM     15  N   UNL A   1      42.871  28.332  32.349  1.00  0.00    -0.248 NA
ATOM     16  C   UNL A   1      44.672  27.201  31.465  1.00  0.00     0.031 C 
ATOM     17  C   UNL A   1      40.917  28.539  28.313  1.00  0.00     0.029 A 
ATOM     18  N   UNL A   1      40.782  29.198  30.418  1.00  0.00    -0.354 N 
ATOM     19  C   UNL A   1      43.726  27.896  33.361  1.00  0.00     0.074 A 
ATOM     20  C   UNL A   1      44.683  27.014  32.769  1.00  0.00     0.031 C 
ATOM     21  C   UNL A   1      39.787  29.241  28.415  1.00  0.00     0.029 A 
ATOM     22  C   UNL A   1      39.666  29.699  29.779  1.00  0.00     0.049 A 
ATOM     23  H   UNL A   1      40.938  29.297  31.385  1.00  0.00     0.167 HD
ATOM     24  C   UNL A   1      43.810  28.295  34.649  1.00  0.00     0.037 A 
ATOM     25  C   UNL A   1      38.653  30.463  30.223  1.00  0.00     0.037 A 
ATOM     26  C   UNL A   1      42.865  29.207  35.212  1.00  0.00     0.049 A 
ATOM     27  C   UNL A   1      38.730  30.903  31.647  1.00  0.00     0.074 A 
ATOM     28  C   UNL A   1      42.800  29.718  36.489  1.00  0.00     0.029 A 
ATOM     29  N   UNL A   1      41.800  29.737  34.495  1.00  0.00    -0.354 N 
ATOM     30  N   UNL A   1      39.627  30.583  32.551  1.00  0.00    -0.248 NA
ATOM     31  C   UNL A   1      37.691  31.822  32.113  1.00  0.00     0.031 C 
ATOM     32  C   UNL A   1      41.643  30.499  36.567  1.00  0.00     0.029 A 
ATOM     33  C   UNL A   1      41.041  30.542  35.315  1.00  0.00     0.049 A 
ATOM     34  H   UNL A   1      41.614  29.562  33.544  1.00  0.00     0.167 HD
ATOM     35  C   UNL A   1      39.278  31.279  33.693  1.00  0.00     0.074 A 
ATOM     36  C   UNL A   1      38.096  32.053  33.355  1.00  0.00     0.031 C 
ATOM     37  C   UNL A   1      39.871  31.280  34.911  1.00  0.00     0.037 A 
BRANCH  24  38
ATOM     38  C   UNL A   1      44.966  27.777  35.468  1.00  0.00     0.057 A 
ATOM     39  C   UNL A   1      46.173  28.481  35.545  1.00  0.00     0.134 A 
ATOM     40  C   UNL A   1      44.865  26.601  36.234  1.00  0.00     0.134 A 
ATOM     41  F   UNL A   1      46.343  29.617  34.853  1.00  0.00    -0.206 F 
ATOM     42  C   UNL A   1      47.226  28.045  36.356  1.00  0.00     0.040 A 
ATOM     43  C   UNL A   1      45.899  26.173  37.072  1.00  0.00     0.040 A 
ATOM     44  F   UNL A   1      43.728  25.888  36.242  1.00  0.00    -0.206 F 
ATOM     45  C   UNL A   1      47.086  26.896  37.131  1.00  0.00     0.006 A 
ENDBRANCH  24  38
BRANCH  25  46
ATOM     46  C   UNL A   1      37.608  30.933  29.268  1.00  0.00     0.057 A 
ATOM     47  C   UNL A   1      37.566  32.258  28.810  1.00  0.00     0.134 A 
ATOM     48  C   UNL A   1      36.543  30.102  28.899  1.00  0.00     0.134 A 
ATOM     49  F   UNL A   1      38.532  33.123  29.150  1.00  0.00    -0.206 F 
ATOM     50  C   UNL A   1      36.496  32.743  28.049  1.00  0.00     0.040 A 
ATOM     51  C   UNL A   1      35.481  30.566  28.116  1.00  0.00     0.040 A 
ATOM     52  F   UNL A   1      36.511  28.824  29.307  1.00  0.00    -0.206 F 
ATOM     53  C   UNL A   1      35.448  31.895  27.700  1.00  0.00     0.006 A 
ENDBRANCH  25  46
BRANCH  37  54
ATOM     54  C   UNL A   1      39.254  32.150  35.951  1.00  0.00     0.057 A 
ATOM     55  C   UNL A   1      38.195  31.669  36.729  1.00  0.00     0.134 A 
ATOM     56  C   UNL A   1      39.639  33.485  36.104  1.00  0.00     0.134 A 
ATOM     57  F   UNL A   1      37.777  30.399  36.606  1.00  0.00    -0.206 F 
ATOM     58  C   UNL A   1      37.518  32.502  37.614  1.00  0.00     0.040 A 
ATOM     59  C   UNL A   1      38.995  34.315  37.015  1.00  0.00     0.040 A 
ATOM     60  F   UNL A   1      40.652  33.990  35.385  1.00  0.00    -0.206 F 
ATOM     61  C   UNL A   1      37.922  33.828  37.761  1.00  0.00     0.006 A 
ENDBRANCH  37  54
ENDBRANCH  11  12
ENDBRANCH   4   6
ENDBRANCH   3   4
ENDBRANCH   2   3
ENDBRANCH   1   2
BRANCH   1  62
ATOM     62  O   UNL A   1      41.753  22.266  25.427  1.00  0.00    -0.462 OA
BRANCH  62  63
ATOM     63  C   UNL A   1      41.100  21.357  26.196  1.00  0.00     0.309 C 
ATOM     64  O   UNL A   1      41.368  20.166  26.181  1.00  0.00    -0.252 OA
BRANCH  63  65
ATOM     65  C   UNL A   1      39.992  22.045  27.034  1.00  0.00     0.111 C 
ATOM     66  C   UNL A   1      40.717  22.967  28.036  1.00  0.00     0.016 C 
ATOM     67  C   UNL A   1      38.760  22.847  26.404  1.00  0.00     0.093 C 
ATOM     68  C   UNL A   1      41.045  24.314  27.398  1.00  0.00     0.001 C 
ATOM     69  C   UNL A   1      38.772  24.411  26.325  1.00  0.00     0.014 C 
ATOM     70  C   UNL A   1      39.781  25.127  27.206  1.00  0.00     0.001 C 
BRANCH  67  71
ATOM     71  C   UNL A   1      37.310  21.993  25.754  1.00  0.00     0.226 C 
ATOM     72  O   UNL A   1      37.941  21.276  24.888  1.00  0.00    -0.275 OA
ATOM     73  N   UNL A   1      35.379  22.198  26.131  1.00  0.00    -0.340 N 
ATOM     74  C   UNL A   1      34.221  21.452  27.161  1.00  0.00     0.136 C 
ATOM     75  C   UNL A   1      34.180  23.037  25.317  1.00  0.00     0.136 C 
ATOM     76  C   UNL A   1      32.949  22.330  27.701  1.00  0.00     0.124 C 
ATOM     77  C   UNL A   1      33.723  24.098  26.296  1.00  0.00     0.124 C 
ATOM     78  N   UNL A   1      32.572  23.620  27.001  1.00  0.00    -0.194 NA
BRANCH  78  79
ATOM     79  S   UNL A   1      31.097  23.841  26.172  1.00  0.00     0.243 S 
ATOM     80  O   UNL A   1      31.116  23.009  24.988  1.00  0.00    -0.207 OA
ATOM     81  O   UNL A   1      30.027  23.763  27.139  1.00  0.00    -0.207 OA
BRANCH  79  82
ATOM     82  C   UNL A   1      31.199  25.563  25.577  1.00  0.00     0.082 A 
ATOM     83  C   UNL A   1      31.539  26.604  26.470  1.00  0.00     0.025 A 
ATOM     84  C   UNL A   1      30.917  25.868  24.244  1.00  0.00     0.025 A 
ATOM     85  C   UNL A   1      31.422  27.941  26.073  1.00  0.00     0.040 A 
ATOM     86  C   UNL A   1      30.887  27.209  23.832  1.00  0.00     0.040 A 
ATOM     87  C   UNL A   1      31.100  28.231  24.756  1.00  0.00     0.123 A 
ATOM     88  F   UNL A   1      30.997  29.510  24.370  1.00  0.00    -0.207 F 
ENDBRANCH  79  82
ENDBRANCH  78  79
ENDBRANCH  67  71
ENDBRANCH  63  65
ENDBRANCH  62  63
ENDBRANCH   1  62
TORSDOF 14
ENDMDL
MODEL 2
REMARK VINA RESULT:     -12.6      4.937     10.082
REMARK SMILES O=C(OCCOC(=O)[C@H]1CCCCC1C(=O)N1CCN(S(=O)(=O)c2ccc(F)cc2)CC1)c1ccc(-c2c3nc(c(-c4c(F)cccc4F)c4ccc([nH]4)c(-c4c(F)cccc4F)c4nc(c(-c5c(F)cccc5F)c5ccc2[nH]5)C=C4)C=C3)cc1
REMARK SMILES IDX 5 1 4 2 3 3 2 4 1 5 33 6 34 7 86 8 35 9 85 10 36 11 37 12
REMARK SMILES IDX 38 13 79 14 39 15 84 16 78 17 80 18 40 19 83 20 77 21 76 22
REMARK SMILES IDX 41 24 67 25 50 26 66 27 51 28 54 29 65 30 81 31 52 32 53 33
REMARK SMILES IDX 64 35 82 36 55 37 42 38 43 39 48 40 44 41 45 42 47 43 49 44
REMARK SMILES IDX 46 45 68 46 69 47 74 48 70 49 71 50 73 51 75 52 72 53 56 54
REMARK SMILES IDX 57 55 62 56 58 57 59 58 61 59 63 60 60 61 6 62 7 63 8 64
REMARK SMILES IDX 9 65 10 66 14 67 11 68 13 69 12 70 15 71 16 72 17 73 18 74
REMARK SMILES IDX 32 75 19 76 31 77 20 78 21 79 22 80 23 81 24 82 25 83 30 84
REMARK SMILES IDX 26 85 29 86 27 87 28 88
REMARK H PARENT 80 23 54 34
REMARK Flexibility Score: inf
ROOT
ATOM      1  C   UNL A   1      34.866  32.208  31.352  1.00  0.00     0.274 C 
ENDROOT
BRANCH   1   2
ATOM      2  C   UNL A   1      34.812  33.207  32.504  1.00  0.00     0.275 C 
BRANCH   2   3
ATOM      3  O   UNL A   1      35.324  32.738  33.742  1.00  0.00    -0.458 OA
BRANCH   3   4
ATOM      4  C   UNL A   1      36.591  32.667  34.167  1.00  0.00     0.338 C 
ATOM      5  O   UNL A   1      36.880  33.281  35.193  1.00  0.00    -0.246 OA
BRANCH   4   6
ATOM      6  C   UNL A   1      37.732  31.929  33.519  1.00  0.00     0.060 A 
ATOM      7  C   UNL A   1      38.478  30.270  33.775  1.00  0.00     0.016 A 
ATOM      8  C   UNL A   1      38.335  32.929  32.127  1.00  0.00     0.016 A 
ATOM      9  C   UNL A   1      39.963  29.759  32.796  1.00  0.00     0.010 A 
ATOM     10  C   UNL A   1      39.642  32.325  31.042  1.00  0.00     0.010 A 
ATOM     11  C   UNL A   1      40.568  30.813  31.426  1.00  0.00    -0.014 A 
BRANCH  11  12
ATOM     12  C   UNL A   1      41.553  30.314  30.395  1.00  0.00     0.031 A 
ATOM     13  C   UNL A   1      42.716  31.198  29.957  1.00  0.00     0.074 A 
ATOM     14  C   UNL A   1      41.336  29.139  29.755  1.00  0.00     0.049 A 
ATOM     15  N   UNL A   1      43.644  30.979  29.057  1.00  0.00    -0.248 NA
ATOM     16  C   UNL A   1      42.833  32.545  30.541  1.00  0.00     0.031 C 
ATOM     17  C   UNL A   1      40.165  28.268  29.894  1.00  0.00     0.029 A 
ATOM     18  N   UNL A   1      42.097  28.449  28.838  1.00  0.00    -0.354 N 
ATOM     19  C   UNL A   1      44.394  32.153  28.996  1.00  0.00     0.074 A 
ATOM     20  C   UNL A   1      43.707  33.148  29.759  1.00  0.00     0.031 C 
ATOM     21  C   UNL A   1      40.329  27.133  29.214  1.00  0.00     0.029 A 
ATOM     22  C   UNL A   1      41.589  27.207  28.514  1.00  0.00     0.049 A 
ATOM     23  H   UNL A   1      42.928  28.808  28.449  1.00  0.00     0.167 HD
ATOM     24  C   UNL A   1      45.623  32.363  28.475  1.00  0.00     0.037 A 
ATOM     25  C   UNL A   1      42.080  26.214  27.753  1.00  0.00     0.037 A 
ATOM     26  C   UNL A   1      46.311  31.343  27.749  1.00  0.00     0.049 A 
ATOM     27  C   UNL A   1      43.433  26.438  27.164  1.00  0.00     0.074 A 
ATOM     28  C   UNL A   1      47.554  31.381  27.157  1.00  0.00     0.029 A 
ATOM     29  N   UNL A   1      45.776  30.083  27.517  1.00  0.00    -0.354 N 
ATOM     30  N   UNL A   1      44.184  27.513  27.234  1.00  0.00    -0.248 NA
ATOM     31  C   UNL A   1      44.025  25.324  26.422  1.00  0.00     0.031 C 
ATOM     32  C   UNL A   1      47.739  30.163  26.497  1.00  0.00     0.029 A 
ATOM     33  C   UNL A   1      46.648  29.340  26.752  1.00  0.00     0.049 A 
ATOM     34  H   UNL A   1      44.904  29.767  27.847  1.00  0.00     0.167 HD
ATOM     35  C   UNL A   1      45.353  27.203  26.564  1.00  0.00     0.074 A 
ATOM     36  C   UNL A   1      45.213  25.828  26.115  1.00  0.00     0.031 C 
ATOM     37  C   UNL A   1      46.441  27.976  26.336  1.00  0.00     0.037 A 
BRANCH  24  38
ATOM     38  C   UNL A   1      46.269  33.704  28.724  1.00  0.00     0.057 A 
ATOM     39  C   UNL A   1      46.964  33.965  29.909  1.00  0.00     0.134 A 
ATOM     40  C   UNL A   1      46.251  34.726  27.756  1.00  0.00     0.134 A 
ATOM     41  F   UNL A   1      47.035  33.038  30.875  1.00  0.00    -0.206 F 
ATOM     42  C   UNL A   1      47.624  35.181  30.120  1.00  0.00     0.040 A 
ATOM     43  C   UNL A   1      46.934  35.932  27.942  1.00  0.00     0.040 A 
ATOM     44  F   UNL A   1      45.636  34.540  26.578  1.00  0.00    -0.206 F 
ATOM     45  C   UNL A   1      47.620  36.163  29.131  1.00  0.00     0.006 A 
ENDBRANCH  24  38
BRANCH  25  46
ATOM     46  C   UNL A   1      41.337  24.925  27.649  1.00  0.00     0.057 A 
ATOM     47  C   UNL A   1      41.721  23.789  28.375  1.00  0.00     0.134 A 
ATOM     48  C   UNL A   1      40.307  24.760  26.714  1.00  0.00     0.134 A 
ATOM     49  F   UNL A   1      42.722  23.859  29.265  1.00  0.00    -0.206 F 
ATOM     50  C   UNL A   1      41.132  22.538  28.156  1.00  0.00     0.040 A 
ATOM     51  C   UNL A   1      39.691  23.522  26.504  1.00  0.00     0.040 A 
ATOM     52  F   UNL A   1      39.892  25.801  25.976  1.00  0.00    -0.206 F 
ATOM     53  C   UNL A   1      40.112  22.403  27.217  1.00  0.00     0.006 A 
ENDBRANCH  25  46
BRANCH  37  54
ATOM     54  C   UNL A   1      47.558  27.346  25.578  1.00  0.00     0.057 A 
ATOM     55  C   UNL A   1      48.610  26.729  26.263  1.00  0.00     0.134 A 
ATOM     56  C   UNL A   1      47.640  27.446  24.186  1.00  0.00     0.134 A 
ATOM     57  F   UNL A   1      48.587  26.625  27.602  1.00  0.00    -0.206 F 
ATOM     58  C   UNL A   1      49.726  26.250  25.586  1.00  0.00     0.040 A 
ATOM     59  C   UNL A   1      48.732  26.934  23.494  1.00  0.00     0.040 A 
ATOM     60  F   UNL A   1      46.653  28.024  23.484  1.00  0.00    -0.206 F 
ATOM     61  C   UNL A   1      49.785  26.348  24.196  1.00  0.00     0.006 A 
ENDBRANCH  37  54
ENDBRANCH  11  12
ENDBRANCH   4   6
ENDBRANCH   3   4
ENDBRANCH   2   3
ENDBRANCH   1   2
BRANCH   1  62
ATOM     62  O   UNL A   1      34.128  32.589  30.174  1.00  0.00    -0.462 OA
BRANCH  62  63
ATOM     63  C   UNL A   1      34.688  33.389  29.231  1.00  0.00     0.309 C 
ATOM     64  O   UNL A   1      34.763  34.601  29.355  1.00  0.00    -0.252 OA
BRANCH  63  65
ATOM     65  C   UNL A   1      35.168  32.553  28.018  1.00  0.00     0.111 C 
ATOM     66  C   UNL A   1      36.709  32.590  28.048  1.00  0.00     0.016 C 
ATOM     67  C   UNL A   1      34.700  31.051  27.724  1.00  0.00     0.093 C 
ATOM     68  C   UNL A   1      37.262  31.516  28.982  1.00  0.00     0.001 C 
ATOM     69  C   UNL A   1      35.611  29.835  28.102  1.00  0.00     0.014 C 
ATOM     70  C   UNL A   1      37.073  30.142  28.375  1.00  0.00     0.001 C 
BRANCH  67  71
ATOM     71  C   UNL A   1      33.109  30.691  26.954  1.00  0.00     0.226 C 
ATOM     72  O   UNL A   1      32.521  31.778  27.322  1.00  0.00    -0.275 OA
ATOM     73  N   UNL A   1      32.437  29.094  25.999  1.00  0.00    -0.340 N 
ATOM     74  C   UNL A   1      32.310  28.578  24.364  1.00  0.00     0.136 C 
ATOM     75  C   UNL A   1      31.499  27.809  26.524  1.00  0.00     0.136 C 
ATOM     76  C   UNL A   1      32.370  26.977  24.024  1.00  0.00     0.124 C 
ATOM     77  C   UNL A   1      32.396  26.598  26.381  1.00  0.00     0.124 C 
ATOM     78  N   UNL A   1      32.129  25.964  25.124  1.00  0.00    -0.194 NA
BRANCH  78  79
ATOM     79  S   UNL A   1      30.798  24.896  25.143  1.00  0.00     0.243 S 
ATOM     80  O   UNL A   1      30.339  24.774  26.510  1.00  0.00    -0.207 OA
ATOM     81  O   UNL A   1      29.907  25.277  24.072  1.00  0.00    -0.207 OA
BRANCH  79  82
ATOM     82  C   UNL A   1      31.541  23.286  24.716  1.00  0.00     0.082 A 
ATOM     83  C   UNL A   1      31.779  22.948  23.365  1.00  0.00     0.025 A 
ATOM     84  C   UNL A   1      31.854  22.364  25.718  1.00  0.00     0.025 A 
ATOM     85  C   UNL A   1      32.156  21.646  23.017  1.00  0.00     0.040 A 
ATOM     86  C   UNL A   1      32.316  21.087  25.364  1.00  0.00     0.040 A 
ATOM     87  C   UNL A   1      32.424  20.728  24.022  1.00  0.00     0.123 A 
ATOM     88  F   UNL A   1      32.795  19.483  23.693  1.00  0.00    -0.207 F 
ENDBRANCH  79  82
ENDBRANCH  78  79
ENDBRANCH  67  71
ENDBRANCH  63  65
ENDBRANCH  62  63
ENDBRANCH   1  62
TORSDOF 14
ENDMDL
MODEL 3
REMARK VINA RESULT:     -12.5      5.014     10.457
REMARK SMILES O=C(OCCOC(=O)[C@H]1CCCCC1C(=O)N1CCN(S(=O)(=O)c2ccc(F)cc2)CC1)c1ccc(-c2c3nc(c(-c4c(F)cccc4F)c4ccc([nH]4)c(-c4c(F)cccc4F)c4nc(c(-c5c(F)cccc5F)c5ccc2[nH]5)C=C4)C=C3)cc1
REMARK SMILES IDX 5 1 4 2 3 3 2 4 1 5 33 6 34 7 86 8 35 9 85 10 36 11 37 12
REMARK SMILES IDX 38 13 79 14 39 15 84 16 78 17 80 18 40 19 83 20 77 21 76 22
REMARK SMILES IDX 41 24 67 25 50 26 66 27 51 28 54 29 65 30 81 31 52 32 53 33
REMARK SMILES IDX 64 35 82 36 55 37 42 38 43 39 48 40 44 41 45 42 47 43 49 44
REMARK SMILES IDX 46 45 68 46 69 47 74 48 70 49 71 50 73 51 75 52 72 53 56 54
REMARK SMILES IDX 57 55 62 56 58 57 59 58 61 59 63 60 60 61 6 62 7 63 8 64
REMARK SMILES IDX 9 65 10 66 14 67 11 68 13 69 12 70 15 71 16 72 17 73 18 74
REMARK SMILES IDX 32 75 19 76 31 77 20 78 21 79 22 80 23 81 24 82 25 83 30 84
REMARK SMILES IDX 26 85 29 86 27 87 28 88
REMARK H PARENT 80 23 54 34
REMARK Flexibility Score: inf
ROOT
ATOM      1  C   UNL A   1      34.812  32.315  31.257  1.00  0.00     0.274 C 
ENDROOT
BRANCH   1   2
ATOM      2  C   UNL A   1      34.727  33.605  32.065  1.00  0.00     0.275 C 
BRANCH   2   3
ATOM      3  O   UNL A   1      35.622  33.696  33.165  1.00  0.00    -0.458 OA
BRANCH   3   4
ATOM      4  C   UNL A   1      36.932  33.970  33.175  1.00  0.00     0.338 C 
ATOM      5  O   UNL A   1      37.346  34.722  34.057  1.00  0.00    -0.246 OA
BRANCH   4   6
ATOM      6  C   UNL A   1      37.977  33.475  32.211  1.00  0.00     0.060 A 
ATOM      7  C   UNL A   1      38.750  34.185  30.704  1.00  0.00     0.016 A 
ATOM      8  C   UNL A   1      38.627  31.900  32.841  1.00  0.00     0.016 A 
ATOM      9  C   UNL A   1      39.972  33.192  29.733  1.00  0.00     0.010 A 
ATOM     10  C   UNL A   1      39.973  31.044  32.002  1.00  0.00     0.010 A 
ATOM     11  C   UNL A   1      40.574  31.587  30.378  1.00  0.00    -0.014 A 
BRANCH  11  12
ATOM     12  C   UNL A   1      41.789  30.891  29.813  1.00  0.00     0.031 A 
ATOM     13  C   UNL A   1      41.682  29.459  29.304  1.00  0.00     0.074 A 
ATOM     14  C   UNL A   1      43.008  31.483  29.878  1.00  0.00     0.049 A 
ATOM     15  N   UNL A   1      42.611  28.667  28.823  1.00  0.00    -0.248 NA
ATOM     16  C   UNL A   1      40.384  28.772  29.403  1.00  0.00     0.031 C 
ATOM     17  C   UNL A   1      43.329  32.760  30.523  1.00  0.00     0.029 A 
ATOM     18  N   UNL A   1      44.235  31.093  29.390  1.00  0.00    -0.354 N 
ATOM     19  C   UNL A   1      41.984  27.442  28.601  1.00  0.00     0.074 A 
ATOM     20  C   UNL A   1      40.683  27.506  29.191  1.00  0.00     0.031 C 
ATOM     21  C   UNL A   1      44.597  33.105  30.295  1.00  0.00     0.029 A 
ATOM     22  C   UNL A   1      45.224  32.042  29.546  1.00  0.00     0.049 A 
ATOM     23  H   UNL A   1      44.393  30.217  28.968  1.00  0.00     0.167 HD
ATOM     24  C   UNL A   1      42.385  26.393  27.848  1.00  0.00     0.037 A 
ATOM     25  C   UNL A   1      46.499  32.079  29.122  1.00  0.00     0.037 A 
ATOM     26  C   UNL A   1      43.674  26.364  27.234  1.00  0.00     0.049 A 
ATOM     27  C   UNL A   1      46.957  30.922  28.299  1.00  0.00     0.074 A 
ATOM     28  C   UNL A   1      44.242  25.390  26.443  1.00  0.00     0.029 A 
ATOM     29  N   UNL A   1      44.604  27.387  27.370  1.00  0.00    -0.354 N 
ATOM     30  N   UNL A   1      46.296  29.831  27.988  1.00  0.00    -0.248 NA
ATOM     31  C   UNL A   1      48.308  30.999  27.741  1.00  0.00     0.031 C 
ATOM     32  C   UNL A   1      45.551  25.792  26.162  1.00  0.00     0.029 A 
ATOM     33  C   UNL A   1      45.764  27.053  26.707  1.00  0.00     0.049 A 
ATOM     34  H   UNL A   1      44.456  28.225  27.865  1.00  0.00     0.167 HD
ATOM     35  C   UNL A   1      47.139  29.095  27.178  1.00  0.00     0.074 A 
ATOM     36  C   UNL A   1      48.353  29.880  27.031  1.00  0.00     0.031 C 
ATOM     37  C   UNL A   1      46.938  27.882  26.607  1.00  0.00     0.037 A 
BRANCH  24  38
ATOM     38  C   UNL A   1      41.404  25.266  27.640  1.00  0.00     0.057 A 
ATOM     39  C   UNL A   1      40.323  25.398  26.763  1.00  0.00     0.134 A 
ATOM     40  C   UNL A   1      41.564  24.017  28.270  1.00  0.00     0.134 A 
ATOM     41  F   UNL A   1      40.109  26.553  26.116  1.00  0.00    -0.206 F 
ATOM     42  C   UNL A   1      39.448  24.336  26.510  1.00  0.00     0.040 A 
ATOM     43  C   UNL A   1      40.716  22.939  28.002  1.00  0.00     0.040 A 
ATOM     44  F   UNL A   1      42.597  23.799  29.099  1.00  0.00    -0.206 F 
ATOM     45  C   UNL A   1      39.650  23.099  27.121  1.00  0.00     0.006 A 
ENDBRANCH  24  38
BRANCH  25  46
ATOM     46  C   UNL A   1      47.326  33.296  29.370  1.00  0.00     0.057 A 
ATOM     47  C   UNL A   1      47.377  34.355  28.453  1.00  0.00     0.134 A 
ATOM     48  C   UNL A   1      48.195  33.366  30.467  1.00  0.00     0.134 A 
ATOM     49  F   UNL A   1      46.600  34.343  27.360  1.00  0.00    -0.206 F 
ATOM     50  C   UNL A   1      48.275  35.418  28.601  1.00  0.00     0.040 A 
ATOM     51  C   UNL A   1      49.078  34.436  30.642  1.00  0.00     0.040 A 
ATOM     52  F   UNL A   1      48.208  32.384  31.381  1.00  0.00    -0.206 F 
ATOM     53  C   UNL A   1      49.129  35.461  29.700  1.00  0.00     0.006 A 
ENDBRANCH  25  46
BRANCH  37  54
ATOM     54  C   UNL A   1      48.049  27.347  25.772  1.00  0.00     0.057 A 
ATOM     55  C   UNL A   1      49.141  26.717  26.378  1.00  0.00     0.134 A 
ATOM     56  C   UNL A   1      48.082  27.550  24.389  1.00  0.00     0.134 A 
ATOM     57  F   UNL A   1      49.165  26.516  27.706  1.00  0.00    -0.206 F 
ATOM     58  C   UNL A   1      50.249  26.326  25.634  1.00  0.00     0.040 A 
ATOM     59  C   UNL A   1      49.168  27.126  23.629  1.00  0.00     0.040 A 
ATOM     60  F   UNL A   1      47.056  28.144  23.761  1.00  0.00    -0.206 F 
ATOM     61  C   UNL A   1      50.261  26.527  24.255  1.00  0.00     0.006 A 
ENDBRANCH  37  54
ENDBRANCH  11  12
ENDBRANCH   4   6
ENDBRANCH   3   4
ENDBRANCH   2   3
ENDBRANCH   1   2
BRANCH   1  62
ATOM     62  O   UNL A   1      34.170  32.356  29.967  1.00  0.00    -0.462 OA
BRANCH  62  63
ATOM     63  C   UNL A   1      34.731  33.032  28.931  1.00  0.00     0.309 C 
ATOM     64  O   UNL A   1      34.694  34.249  28.841  1.00  0.00    -0.252 OA
BRANCH  63  65
ATOM     65  C   UNL A   1      35.370  32.049  27.918  1.00  0.00     0.111 C 
ATOM     66  C   UNL A   1      36.868  31.968  28.278  1.00  0.00     0.016 C 
ATOM     67  C   UNL A   1      34.831  30.567  27.646  1.00  0.00     0.093 C 
ATOM     68  C   UNL A   1      37.106  30.948  29.389  1.00  0.00     0.001 C 
ATOM     69  C   UNL A   1      35.521  29.325  28.303  1.00  0.00     0.014 C 
ATOM     70  C   UNL A   1      36.917  29.541  28.862  1.00  0.00     0.001 C 
BRANCH  67  71
ATOM     71  C   UNL A   1      33.409  30.261  26.580  1.00  0.00     0.226 C 
ATOM     72  O   UNL A   1      32.564  30.956  27.263  1.00  0.00    -0.275 OA
ATOM     73  N   UNL A   1      33.179  29.115  24.983  1.00  0.00    -0.340 N 
ATOM     74  C   UNL A   1      33.257  29.319  23.277  1.00  0.00     0.136 C 
ATOM     75  C   UNL A   1      32.548  27.573  24.814  1.00  0.00     0.136 C 
ATOM     76  C   UNL A   1      33.709  28.056  22.340  1.00  0.00     0.124 C 
ATOM     77  C   UNL A   1      33.711  26.735  24.329  1.00  0.00     0.124 C 
ATOM     78  N   UNL A   1      33.662  26.648  22.900  1.00  0.00    -0.194 NA
BRANCH  78  79
ATOM     79  S   UNL A   1      32.621  25.434  22.304  1.00  0.00     0.243 S 
ATOM     80  O   UNL A   1      31.279  25.728  22.759  1.00  0.00    -0.207 OA
ATOM     81  O   UNL A   1      32.925  25.236  20.906  1.00  0.00    -0.207 OA
BRANCH  79  82
ATOM     82  C   UNL A   1      33.145  23.943  23.214  1.00  0.00     0.082 A 
ATOM     83  C   UNL A   1      32.239  23.276  24.069  1.00  0.00     0.025 A 
ATOM     84  C   UNL A   1      34.452  23.463  23.093  1.00  0.00     0.025 A 
ATOM     85  C   UNL A   1      32.688  22.260  24.920  1.00  0.00     0.040 A 
ATOM     86  C   UNL A   1      34.870  22.386  23.888  1.00  0.00     0.040 A 
ATOM     87  C   UNL A   1      34.000  21.822  24.819  1.00  0.00     0.123 A 
ATOM     88  F   UNL A   1      34.430  20.842  25.625  1.00  0.00    -0.207 F 
ENDBRANCH  79  82
ENDBRANCH  78  79
ENDBRANCH  67  71
ENDBRANCH  63  65
ENDBRANCH  62  63
ENDBRANCH   1  62
TORSDOF 14
ENDMDL
