MODEL 1
REMARK VINA RESULT:     -12.1      0.000      0.000
REMARK SMILES C[C@@H](Oc1ccc(I)cc1)C(=O)NCc1ccc(C(=O)OCCOC(=O)c2ccc(-c3c4nc(c(-c5c(F)cccc5F)c5ccc([nH]5)c(-c5c(F)cccc5F)c5nc(c(-c6c(F)cccc6F)c6ccc3[nH]6)C=C5)C=C4)cc2)cc1
REMARK SMILES IDX 21 1 19 2 20 3 18 4 15 5 16 6 82 7 17 8 81 9 14 10 13 11
REMARK SMILES IDX 11 12 12 13 2 15 1 16 3 17 4 18 5 19 10 20 6 21 9 22 7 23
REMARK SMILES IDX 8 24 22 25 23 26 24 27 25 28 26 29 27 30 28 31 80 32 29 33
REMARK SMILES IDX 79 34 30 35 31 36 32 37 73 38 33 39 78 40 72 41 74 42 34 43
REMARK SMILES IDX 77 44 71 45 70 46 35 48 61 49 44 50 60 51 45 52 48 53 59 54
REMARK SMILES IDX 75 55 46 56 47 57 58 59 76 60 49 61 36 62 37 63 42 64 38 65
REMARK SMILES IDX 39 66 41 67 43 68 40 69 62 70 63 71 68 72 64 73 65 74 67 75
REMARK SMILES IDX 69 76 66 77 50 78 51 79 56 80 52 81 53 82 55 83 57 84 54 85
REMARK H PARENT 13 14 74 47 48 58
REMARK Flexibility Score: inf
ROOT
ATOM      1  O   UNL A   1      40.619  20.873  26.483  1.00  0.00    -0.458 OA
ENDROOT
BRANCH   1   2
ATOM      2  C   UNL A   1      39.656  20.201  25.805  1.00  0.00     0.338 C 
ATOM      3  O   UNL A   1      39.676  19.017  25.499  1.00  0.00    -0.246 OA
BRANCH   2   4
ATOM      4  C   UNL A   1      38.480  21.066  25.548  1.00  0.00     0.060 A 
ATOM      5  C   UNL A   1      36.328  22.827  25.101  1.00  0.00    -0.029 A 
ATOM      6  C   UNL A   1      37.497  23.277  25.725  1.00  0.00     0.006 A 
ATOM      7  C   UNL A   1      36.254  21.481  24.697  1.00  0.00     0.006 A 
ATOM      8  C   UNL A   1      38.547  22.397  25.975  1.00  0.00     0.016 A 
ATOM      9  C   UNL A   1      37.325  20.605  24.911  1.00  0.00     0.016 A 
BRANCH   5  10
ATOM     10  C   UNL A   1      35.192  23.768  24.777  1.00  0.00     0.151 C 
BRANCH  10  11
ATOM     11  N   UNL A   1      34.820  23.748  23.373  1.00  0.00    -0.349 N 
ATOM     12  C   UNL A   1      33.652  23.380  22.769  1.00  0.00     0.261 C 
ATOM     13  O   UNL A   1      33.603  23.449  21.537  1.00  0.00    -0.271 OA
ATOM     14  H   UNL A   1      35.526  24.048  22.756  1.00  0.00     0.163 HD
BRANCH  12  15
ATOM     15  C   UNL A   1      32.468  22.811  23.572  1.00  0.00     0.258 C 
ATOM     16  C   UNL A   1      31.435  23.921  23.760  1.00  0.00     0.064 C 
BRANCH  15  17
ATOM     17  O   UNL A   1      31.960  21.664  22.887  1.00  0.00    -0.481 OA
BRANCH  17  18
ATOM     18  C   UNL A   1      32.365  20.463  23.387  1.00  0.00     0.120 A 
ATOM     19  C   UNL A   1      32.658  20.322  24.742  1.00  0.00     0.047 A 
ATOM     20  C   UNL A   1      32.289  19.345  22.561  1.00  0.00     0.047 A 
ATOM     21  C   UNL A   1      32.920  19.057  25.269  1.00  0.00     0.018 A 
ATOM     22  C   UNL A   1      32.537  18.075  23.088  1.00  0.00     0.018 A 
ATOM     23  C   UNL A   1      32.854  17.938  24.441  1.00  0.00     0.013 A 
ATOM     24  I   UNL A   1      33.182  16.047  25.240  1.00  0.00    -0.044 I 
ENDBRANCH  17  18
ENDBRANCH  15  17
ENDBRANCH  12  15
ENDBRANCH  10  11
ENDBRANCH   5  10
ENDBRANCH   2   4
ENDBRANCH   1   2
BRANCH   1  25
ATOM     25  C   UNL A   1      41.932  20.281  26.438  1.00  0.00     0.275 C 
BRANCH  25  26
ATOM     26  C   UNL A   1      42.947  21.236  25.809  1.00  0.00     0.275 C 
BRANCH  26  27
ATOM     27  O   UNL A   1      42.277  22.401  25.294  1.00  0.00    -0.458 OA
BRANCH  27  28
ATOM     28  C   UNL A   1      43.032  23.519  25.195  1.00  0.00     0.338 C 
ATOM     29  O   UNL A   1      44.000  23.706  24.478  1.00  0.00    -0.246 OA
BRANCH  28  30
ATOM     30  C   UNL A   1      42.512  24.550  26.109  1.00  0.00     0.060 A 
ATOM     31  C   UNL A   1      43.025  25.843  26.047  1.00  0.00     0.016 A 
ATOM     32  C   UNL A   1      41.616  24.201  27.118  1.00  0.00     0.016 A 
ATOM     33  C   UNL A   1      42.705  26.774  27.035  1.00  0.00     0.010 A 
ATOM     34  C   UNL A   1      41.229  25.161  28.060  1.00  0.00     0.010 A 
ATOM     35  C   UNL A   1      41.796  26.449  28.053  1.00  0.00    -0.014 A 
BRANCH  35  36
ATOM     36  C   UNL A   1      41.480  27.425  29.137  1.00  0.00     0.031 A 
ATOM     37  C   UNL A   1      42.299  27.443  30.403  1.00  0.00     0.074 A 
ATOM     38  C   UNL A   1      40.467  28.304  29.002  1.00  0.00     0.049 A 
ATOM     39  N   UNL A   1      42.073  28.070  31.531  1.00  0.00    -0.248 NA
ATOM     40  C   UNL A   1      43.531  26.639  30.405  1.00  0.00     0.031 C 
ATOM     41  C   UNL A   1      39.614  28.444  27.821  1.00  0.00     0.029 A 
ATOM     42  N   UNL A   1      39.986  29.256  29.871  1.00  0.00    -0.354 N 
ATOM     43  C   UNL A   1      43.094  27.688  32.392  1.00  0.00     0.074 A 
ATOM     44  C   UNL A   1      43.945  26.777  31.657  1.00  0.00     0.031 C 
ATOM     45  C   UNL A   1      38.740  29.442  28.023  1.00  0.00     0.029 A 
ATOM     46  C   UNL A   1      38.911  29.957  29.379  1.00  0.00     0.049 A 
ATOM     47  H   UNL A   1      40.374  29.418  30.760  1.00  0.00     0.167 HD
ATOM     48  C   UNL A   1      43.302  28.059  33.679  1.00  0.00     0.037 A 
ATOM     49  C   UNL A   1      38.119  30.878  29.961  1.00  0.00     0.037 A 
ATOM     50  C   UNL A   1      42.496  29.015  34.393  1.00  0.00     0.049 A 
ATOM     51  C   UNL A   1      38.355  31.258  31.394  1.00  0.00     0.074 A 
ATOM     52  C   UNL A   1      42.644  29.468  35.693  1.00  0.00     0.029 A 
ATOM     53  N   UNL A   1      41.403  29.679  33.862  1.00  0.00    -0.354 N 
ATOM     54  N   UNL A   1      39.285  30.840  32.217  1.00  0.00    -0.248 NA
ATOM     55  C   UNL A   1      37.416  32.221  31.988  1.00  0.00     0.031 C 
ATOM     56  C   UNL A   1      41.622  30.387  35.957  1.00  0.00     0.029 A 
ATOM     57  C   UNL A   1      40.860  30.531  34.810  1.00  0.00     0.049 A 
ATOM     58  H   UNL A   1      41.062  29.564  32.945  1.00  0.00     0.167 HD
ATOM     59  C   UNL A   1      39.048  31.490  33.421  1.00  0.00     0.074 A 
ATOM     60  C   UNL A   1      37.899  32.347  33.216  1.00  0.00     0.031 C 
ATOM     61  C   UNL A   1      39.719  31.381  34.593  1.00  0.00     0.037 A 
BRANCH  48  62
ATOM     62  C   UNL A   1      44.436  27.406  34.415  1.00  0.00     0.057 A 
ATOM     63  C   UNL A   1      45.736  27.924  34.397  1.00  0.00     0.134 A 
ATOM     64  C   UNL A   1      44.206  26.260  35.190  1.00  0.00     0.134 A 
ATOM     65  F   UNL A   1      46.025  29.009  33.664  1.00  0.00    -0.206 F 
ATOM     66  C   UNL A   1      46.772  27.314  35.109  1.00  0.00     0.040 A 
ATOM     67  C   UNL A   1      45.229  25.656  35.923  1.00  0.00     0.040 A 
ATOM     68  F   UNL A   1      42.981  25.717  35.256  1.00  0.00    -0.206 F 
ATOM     69  C   UNL A   1      46.518  26.181  35.880  1.00  0.00     0.006 A 
ENDBRANCH  48  62
BRANCH  49  70
ATOM     70  C   UNL A   1      36.994  31.474  29.196  1.00  0.00     0.057 A 
ATOM     71  C   UNL A   1      35.812  30.760  28.975  1.00  0.00     0.134 A 
ATOM     72  C   UNL A   1      37.074  32.770  28.673  1.00  0.00     0.134 A 
ATOM     73  F   UNL A   1      35.688  29.503  29.426  1.00  0.00    -0.206 F 
ATOM     74  C   UNL A   1      34.748  31.312  28.260  1.00  0.00     0.040 A 
ATOM     75  C   UNL A   1      36.009  33.345  27.980  1.00  0.00     0.040 A 
ATOM     76  F   UNL A   1      38.182  33.504  28.850  1.00  0.00    -0.206 F 
ATOM     77  C   UNL A   1      34.843  32.613  27.768  1.00  0.00     0.006 A 
ENDBRANCH  49  70
BRANCH  61  78
ATOM     78  C   UNL A   1      39.243  32.226  35.735  1.00  0.00     0.057 A 
ATOM     79  C   UNL A   1      38.337  31.736  36.684  1.00  0.00     0.134 A 
ATOM     80  C   UNL A   1      39.718  33.532  35.904  1.00  0.00     0.134 A 
ATOM     81  F   UNL A   1      37.836  30.497  36.569  1.00  0.00    -0.206 F 
ATOM     82  C   UNL A   1      37.908  32.522  37.754  1.00  0.00     0.040 A 
ATOM     83  C   UNL A   1      39.311  34.321  36.981  1.00  0.00     0.040 A 
ATOM     84  F   UNL A   1      40.591  34.057  35.032  1.00  0.00    -0.206 F 
ATOM     85  C   UNL A   1      38.400  33.817  37.908  1.00  0.00     0.006 A 
ENDBRANCH  61  78
ENDBRANCH  35  36
ENDBRANCH  28  30
ENDBRANCH  27  28
ENDBRANCH  26  27
ENDBRANCH  25  26
ENDBRANCH   1  25
TORSDOF 16
ENDMDL
MODEL 2
REMARK VINA RESULT:     -11.7      5.554     10.298
REMARK SMILES C[C@@H](Oc1ccc(I)cc1)C(=O)NCc1ccc(C(=O)OCCOC(=O)c2ccc(-c3c4nc(c(-c5c(F)cccc5F)c5ccc([nH]5)c(-c5c(F)cccc5F)c5nc(c(-c6c(F)cccc6F)c6ccc3[nH]6)C=C5)C=C4)cc2)cc1
REMARK SMILES IDX 21 1 19 2 20 3 18 4 15 5 16 6 82 7 17 8 81 9 14 10 13 11
REMARK SMILES IDX 11 12 12 13 2 15 1 16 3 17 4 18 5 19 10 20 6 21 9 22 7 23
REMARK SMILES IDX 8 24 22 25 23 26 24 27 25 28 26 29 27 30 28 31 80 32 29 33
REMARK SMILES IDX 79 34 30 35 31 36 32 37 73 38 33 39 78 40 72 41 74 42 34 43
REMARK SMILES IDX 77 44 71 45 70 46 35 48 61 49 44 50 60 51 45 52 48 53 59 54
REMARK SMILES IDX 75 55 46 56 47 57 58 59 76 60 49 61 36 62 37 63 42 64 38 65
REMARK SMILES IDX 39 66 41 67 43 68 40 69 62 70 63 71 68 72 64 73 65 74 67 75
REMARK SMILES IDX 69 76 66 77 50 78 51 79 56 80 52 81 53 82 55 83 57 84 54 85
REMARK H PARENT 13 14 74 47 48 58
REMARK Flexibility Score: inf
ROOT
ATOM      1  O   UNL A   1      33.671  32.930  29.196  1.00  0.00    -0.458 OA
ENDROOT
BRANCH   1   2
ATOM      2  C   UNL A   1      34.399  32.635  28.091  1.00  0.00     0.338 C 
ATOM      3  O   UNL A   1      35.257  33.339  27.579  1.00  0.00    -0.246 OA
BRANCH   2   4
ATOM      4  C   UNL A   1      34.104  31.266  27.605  1.00  0.00     0.060 A 
ATOM      5  C   UNL A   1      33.675  28.622  26.736  1.00  0.00    -0.029 A 
ATOM      6  C   UNL A   1      34.931  29.020  27.207  1.00  0.00     0.006 A 
ATOM      7  C   UNL A   1      32.633  29.566  26.711  1.00  0.00     0.006 A 
ATOM      8  C   UNL A   1      35.150  30.336  27.606  1.00  0.00     0.016 A 
ATOM      9  C   UNL A   1      32.841  30.880  27.150  1.00  0.00     0.016 A 
BRANCH   5  10
ATOM     10  C   UNL A   1      33.396  27.192  26.339  1.00  0.00     0.151 C 
BRANCH  10  11
ATOM     11  N   UNL A   1      32.092  26.725  26.775  1.00  0.00    -0.349 N 
ATOM     12  C   UNL A   1      31.062  26.178  26.065  1.00  0.00     0.261 C 
ATOM     13  O   UNL A   1      30.041  25.873  26.689  1.00  0.00    -0.271 OA
ATOM     14  H   UNL A   1      31.923  26.818  27.740  1.00  0.00     0.163 HD
BRANCH  12  15
ATOM     15  C   UNL A   1      31.121  26.029  24.534  1.00  0.00     0.258 C 
ATOM     16  C   UNL A   1      31.737  24.672  24.204  1.00  0.00     0.064 C 
BRANCH  15  17
ATOM     17  O   UNL A   1      29.804  26.205  24.006  1.00  0.00    -0.481 OA
BRANCH  17  18
ATOM     18  C   UNL A   1      29.512  27.466  23.581  1.00  0.00     0.120 A 
ATOM     19  C   UNL A   1      28.207  27.813  23.237  1.00  0.00     0.047 A 
ATOM     20  C   UNL A   1      30.498  28.443  23.688  1.00  0.00     0.047 A 
ATOM     21  C   UNL A   1      27.893  29.142  22.953  1.00  0.00     0.018 A 
ATOM     22  C   UNL A   1      30.184  29.777  23.418  1.00  0.00     0.018 A 
ATOM     23  C   UNL A   1      28.882  30.120  23.050  1.00  0.00     0.013 A 
ATOM     24  I   UNL A   1      28.398  32.109  22.690  1.00  0.00    -0.044 I 
ENDBRANCH  17  18
ENDBRANCH  15  17
ENDBRANCH  12  15
ENDBRANCH  10  11
ENDBRANCH   5  10
ENDBRANCH   2   4
ENDBRANCH   1   2
BRANCH   1  25
ATOM     25  C   UNL A   1      34.056  34.137  29.884  1.00  0.00     0.275 C 
BRANCH  25  26
ATOM     26  C   UNL A   1      34.422  33.851  31.340  1.00  0.00     0.275 C 
BRANCH  26  27
ATOM     27  O   UNL A   1      34.709  32.451  31.512  1.00  0.00    -0.458 OA
BRANCH  27  28
ATOM     28  C   UNL A   1      35.677  32.154  32.409  1.00  0.00     0.338 C 
ATOM     29  O   UNL A   1      35.694  32.406  33.601  1.00  0.00    -0.246 OA
BRANCH  28  30
ATOM     30  C   UNL A   1      36.775  31.442  31.734  1.00  0.00     0.060 A 
ATOM     31  C   UNL A   1      37.626  30.630  32.479  1.00  0.00     0.016 A 
ATOM     32  C   UNL A   1      37.044  31.688  30.388  1.00  0.00     0.016 A 
ATOM     33  C   UNL A   1      38.791  30.120  31.906  1.00  0.00     0.010 A 
ATOM     34  C   UNL A   1      38.169  31.106  29.792  1.00  0.00     0.010 A 
ATOM     35  C   UNL A   1      39.077  30.344  30.551  1.00  0.00    -0.014 A 
BRANCH  35  36
ATOM     36  C   UNL A   1      40.341  29.837  29.941  1.00  0.00     0.031 A 
ATOM     37  C   UNL A   1      41.538  30.744  29.814  1.00  0.00     0.074 A 
ATOM     38  C   UNL A   1      40.434  28.566  29.501  1.00  0.00     0.049 A 
ATOM     39  N   UNL A   1      42.652  30.562  29.148  1.00  0.00    -0.248 NA
ATOM     40  C   UNL A   1      41.469  32.034  30.519  1.00  0.00     0.031 C 
ATOM     41  C   UNL A   1      39.382  27.553  29.596  1.00  0.00     0.029 A 
ATOM     42  N   UNL A   1      41.473  27.906  28.887  1.00  0.00    -0.354 N 
ATOM     43  C   UNL A   1      43.384  31.734  29.302  1.00  0.00     0.074 A 
ATOM     44  C   UNL A   1      42.591  32.619  30.127  1.00  0.00     0.031 C 
ATOM     45  C   UNL A   1      39.838  26.395  29.094  1.00  0.00     0.029 A 
ATOM     46  C   UNL A   1      41.181  26.602  28.562  1.00  0.00     0.049 A 
ATOM     47  H   UNL A   1      42.342  28.327  28.697  1.00  0.00     0.167 HD
ATOM     48  C   UNL A   1      44.603  32.044  28.799  1.00  0.00     0.037 A 
ATOM     49  C   UNL A   1      41.890  25.687  27.875  1.00  0.00     0.037 A 
ATOM     50  C   UNL A   1      45.424  31.142  28.032  1.00  0.00     0.049 A 
ATOM     51  C   UNL A   1      43.230  26.059  27.309  1.00  0.00     0.074 A 
ATOM     52  C   UNL A   1      46.682  31.362  27.498  1.00  0.00     0.029 A 
ATOM     53  N   UNL A   1      45.075  29.841  27.706  1.00  0.00    -0.354 N 
ATOM     54  N   UNL A   1      43.882  27.192  27.406  1.00  0.00    -0.248 NA
ATOM     55  C   UNL A   1      43.923  25.033  26.515  1.00  0.00     0.031 C 
ATOM     56  C   UNL A   1      47.083  30.203  26.825  1.00  0.00     0.029 A 
ATOM     57  C   UNL A   1      46.089  29.250  26.971  1.00  0.00     0.049 A 
ATOM     58  H   UNL A   1      44.231  29.402  27.961  1.00  0.00     0.167 HD
ATOM     59  C   UNL A   1      45.061  27.014  26.694  1.00  0.00     0.074 A 
ATOM     60  C   UNL A   1      45.044  25.658  26.186  1.00  0.00     0.031 C 
ATOM     61  C   UNL A   1      46.062  27.899  26.475  1.00  0.00     0.037 A 
BRANCH  48  62
ATOM     62  C   UNL A   1      45.119  33.433  29.036  1.00  0.00     0.057 A 
ATOM     63  C   UNL A   1      44.818  34.499  28.179  1.00  0.00     0.134 A 
ATOM     64  C   UNL A   1      45.897  33.713  30.168  1.00  0.00     0.134 A 
ATOM     65  F   UNL A   1      44.090  34.295  27.071  1.00  0.00    -0.206 F 
ATOM     66  C   UNL A   1      45.287  35.790  28.431  1.00  0.00     0.040 A 
ATOM     67  C   UNL A   1      46.352  35.005  30.441  1.00  0.00     0.040 A 
ATOM     68  F   UNL A   1      46.216  32.739  31.034  1.00  0.00    -0.206 F 
ATOM     69  C   UNL A   1      46.051  36.047  29.568  1.00  0.00     0.006 A 
ENDBRANCH  48  62
BRANCH  49  70
ATOM     70  C   UNL A   1      41.322  24.334  27.645  1.00  0.00     0.057 A 
ATOM     71  C   UNL A   1      41.750  23.233  28.395  1.00  0.00     0.134 A 
ATOM     72  C   UNL A   1      40.335  24.112  26.677  1.00  0.00     0.134 A 
ATOM     73  F   UNL A   1      42.713  23.377  29.316  1.00  0.00    -0.206 F 
ATOM     74  C   UNL A   1      41.220  21.958  28.189  1.00  0.00     0.040 A 
ATOM     75  C   UNL A   1      39.776  22.850  26.478  1.00  0.00     0.040 A 
ATOM     76  F   UNL A   1      39.885  25.127  25.926  1.00  0.00    -0.206 F 
ATOM     77  C   UNL A   1      40.222  21.767  27.233  1.00  0.00     0.006 A 
ENDBRANCH  49  70
BRANCH  61  78
ATOM     78  C   UNL A   1      47.234  27.420  25.673  1.00  0.00     0.057 A 
ATOM     79  C   UNL A   1      47.299  27.602  24.285  1.00  0.00     0.134 A 
ATOM     80  C   UNL A   1      48.322  26.799  26.298  1.00  0.00     0.134 A 
ATOM     81  F   UNL A   1      46.282  28.179  23.628  1.00  0.00    -0.206 F 
ATOM     82  C   UNL A   1      48.399  27.168  23.545  1.00  0.00     0.040 A 
ATOM     83  C   UNL A   1      49.436  26.377  25.570  1.00  0.00     0.040 A 
ATOM     84  F   UNL A   1      48.323  26.600  27.624  1.00  0.00    -0.206 F 
ATOM     85  C   UNL A   1      49.475  26.558  24.189  1.00  0.00     0.006 A 
ENDBRANCH  61  78
ENDBRANCH  35  36
ENDBRANCH  28  30
ENDBRANCH  27  28
ENDBRANCH  26  27
ENDBRANCH  25  26
ENDBRANCH   1  25
TORSDOF 16
ENDMDL
MODEL 3
REMARK VINA RESULT:     -11.6      2.353      3.629
REMARK SMILES C[C@@H](Oc1ccc(I)cc1)C(=O)NCc1ccc(C(=O)OCCOC(=O)c2ccc(-c3c4nc(c(-c5c(F)cccc5F)c5ccc([nH]5)c(-c5c(F)cccc5F)c5nc(c(-c6c(F)cccc6F)c6ccc3[nH]6)C=C5)C=C4)cc2)cc1
REMARK SMILES IDX 21 1 19 2 20 3 18 4 15 5 16 6 82 7 17 8 81 9 14 10 13 11
REMARK SMILES IDX 11 12 12 13 2 15 1 16 3 17 4 18 5 19 10 20 6 21 9 22 7 23
REMARK SMILES IDX 8 24 22 25 23 26 24 27 25 28 26 29 27 30 28 31 80 32 29 33
REMARK SMILES IDX 79 34 30 35 31 36 32 37 73 38 33 39 78 40 72 41 74 42 34 43
REMARK SMILES IDX 77 44 71 45 70 46 35 48 61 49 44 50 60 51 45 52 48 53 59 54
REMARK SMILES IDX 75 55 46 56 47 57 58 59 76 60 49 61 36 62 37 63 42 64 38 65
REMARK SMILES IDX 39 66 41 67 43 68 40 69 62 70 63 71 68 72 64 73 65 74 67 75
REMARK SMILES IDX 69 76 66 77 50 78 51 79 56 80 52 81 53 82 55 83 57 84 54 85
REMARK H PARENT 13 14 74 47 48 58
REMARK Flexibility Score: inf
ROOT
ATOM      1  O   UNL A   1      40.554  21.084  26.641  1.00  0.00    -0.458 OA
ENDROOT
BRANCH   1   2
ATOM      2  C   UNL A   1      39.593  20.570  25.833  1.00  0.00     0.338 C 
ATOM      3  O   UNL A   1      39.544  19.427  25.402  1.00  0.00    -0.246 OA
BRANCH   2   4
ATOM      4  C   UNL A   1      38.509  21.553  25.600  1.00  0.00     0.060 A 
ATOM      5  C   UNL A   1      36.365  23.310  25.102  1.00  0.00    -0.029 A 
ATOM      6  C   UNL A   1      36.334  21.997  24.618  1.00  0.00     0.006 A 
ATOM      7  C   UNL A   1      37.482  23.730  25.845  1.00  0.00     0.006 A 
ATOM      8  C   UNL A   1      37.410  21.140  24.838  1.00  0.00     0.016 A 
ATOM      9  C   UNL A   1      38.547  22.856  26.101  1.00  0.00     0.016 A 
BRANCH   5  10
ATOM     10  C   UNL A   1      35.194  24.247  24.918  1.00  0.00     0.151 C 
BRANCH  10  11
ATOM     11  N   UNL A   1      34.560  24.115  23.618  1.00  0.00    -0.349 N 
ATOM     12  C   UNL A   1      33.855  25.021  22.878  1.00  0.00     0.261 C 
ATOM     13  O   UNL A   1      33.406  24.641  21.792  1.00  0.00    -0.271 OA
ATOM     14  H   UNL A   1      34.653  23.227  23.202  1.00  0.00     0.163 HD
BRANCH  12  15
ATOM     15  C   UNL A   1      33.544  26.433  23.406  1.00  0.00     0.258 C 
ATOM     16  C   UNL A   1      33.695  27.423  22.253  1.00  0.00     0.064 C 
BRANCH  15  17
ATOM     17  O   UNL A   1      32.239  26.426  23.990  1.00  0.00    -0.481 OA
BRANCH  17  18
ATOM     18  C   UNL A   1      31.476  27.521  23.719  1.00  0.00     0.120 A 
ATOM     19  C   UNL A   1      30.469  27.461  22.758  1.00  0.00     0.047 A 
ATOM     20  C   UNL A   1      31.590  28.628  24.554  1.00  0.00     0.047 A 
ATOM     21  C   UNL A   1      29.594  28.536  22.599  1.00  0.00     0.018 A 
ATOM     22  C   UNL A   1      30.707  29.701  24.408  1.00  0.00     0.018 A 
ATOM     23  C   UNL A   1      29.713  29.650  23.429  1.00  0.00     0.013 A 
ATOM     24  I   UNL A   1      28.370  31.225  23.235  1.00  0.00    -0.044 I 
ENDBRANCH  17  18
ENDBRANCH  15  17
ENDBRANCH  12  15
ENDBRANCH  10  11
ENDBRANCH   5  10
ENDBRANCH   2   4
ENDBRANCH   1   2
BRANCH   1  25
ATOM     25  C   UNL A   1      41.816  20.388  26.617  1.00  0.00     0.275 C 
BRANCH  25  26
ATOM     26  C   UNL A   1      42.856  21.159  25.805  1.00  0.00     0.275 C 
BRANCH  26  27
ATOM     27  O   UNL A   1      42.291  22.388  25.314  1.00  0.00    -0.458 OA
BRANCH  27  28
ATOM     28  C   UNL A   1      43.119  23.456  25.306  1.00  0.00     0.338 C 
ATOM     29  O   UNL A   1      44.150  23.598  24.670  1.00  0.00    -0.246 OA
BRANCH  28  30
ATOM     30  C   UNL A   1      42.596  24.496  26.208  1.00  0.00     0.060 A 
ATOM     31  C   UNL A   1      43.114  25.786  26.141  1.00  0.00     0.016 A 
ATOM     32  C   UNL A   1      41.691  24.157  27.213  1.00  0.00     0.016 A 
ATOM     33  C   UNL A   1      42.790  26.725  27.120  1.00  0.00     0.010 A 
ATOM     34  C   UNL A   1      41.301  25.125  28.145  1.00  0.00     0.010 A 
ATOM     35  C   UNL A   1      41.872  26.411  28.134  1.00  0.00    -0.014 A 
BRANCH  35  36
ATOM     36  C   UNL A   1      41.551  27.396  29.208  1.00  0.00     0.031 A 
ATOM     37  C   UNL A   1      42.370  27.430  30.474  1.00  0.00     0.074 A 
ATOM     38  C   UNL A   1      40.535  28.269  29.064  1.00  0.00     0.049 A 
ATOM     39  N   UNL A   1      42.140  28.067  31.596  1.00  0.00    -0.248 NA
ATOM     40  C   UNL A   1      43.606  26.632  30.483  1.00  0.00     0.031 C 
ATOM     41  C   UNL A   1      39.680  28.394  27.882  1.00  0.00     0.029 A 
ATOM     42  N   UNL A   1      40.048  29.226  29.924  1.00  0.00    -0.354 N 
ATOM     43  C   UNL A   1      43.164  27.698  32.461  1.00  0.00     0.074 A 
ATOM     44  C   UNL A   1      44.019  26.784  31.734  1.00  0.00     0.031 C 
ATOM     45  C   UNL A   1      38.802  29.389  28.075  1.00  0.00     0.029 A 
ATOM     46  C   UNL A   1      38.970  29.918  29.425  1.00  0.00     0.049 A 
ATOM     47  H   UNL A   1      40.435  29.399  30.812  1.00  0.00     0.167 HD
ATOM     48  C   UNL A   1      43.370  28.082  33.744  1.00  0.00     0.037 A 
ATOM     49  C   UNL A   1      38.174  30.840  29.999  1.00  0.00     0.037 A 
ATOM     50  C   UNL A   1      42.559  29.041  34.449  1.00  0.00     0.049 A 
ATOM     51  C   UNL A   1      38.408  31.236  31.428  1.00  0.00     0.074 A 
ATOM     52  C   UNL A   1      42.704  29.507  35.744  1.00  0.00     0.029 A 
ATOM     53  N   UNL A   1      41.462  29.695  33.911  1.00  0.00    -0.354 N 
ATOM     54  N   UNL A   1      39.340  30.829  32.255  1.00  0.00    -0.248 NA
ATOM     55  C   UNL A   1      37.464  32.200  32.012  1.00  0.00     0.031 C 
ATOM     56  C   UNL A   1      41.678  30.423  36.000  1.00  0.00     0.029 A 
ATOM     57  C   UNL A   1      40.916  30.553  34.851  1.00  0.00     0.049 A 
ATOM     58  H   UNL A   1      41.122  29.569  32.995  1.00  0.00     0.167 HD
ATOM     59  C   UNL A   1      39.099  31.490  33.453  1.00  0.00     0.074 A 
ATOM     60  C   UNL A   1      37.946  32.340  33.239  1.00  0.00     0.031 C 
ATOM     61  C   UNL A   1      39.770  31.395  34.625  1.00  0.00     0.037 A 
BRANCH  48  62
ATOM     62  C   UNL A   1      44.506  27.441  34.486  1.00  0.00     0.057 A 
ATOM     63  C   UNL A   1      44.369  26.216  35.151  1.00  0.00     0.134 A 
ATOM     64  C   UNL A   1      45.771  28.045  34.497  1.00  0.00     0.134 A 
ATOM     65  F   UNL A   1      43.181  25.594  35.190  1.00  0.00    -0.206 F 
ATOM     66  C   UNL A   1      45.445  25.624  35.816  1.00  0.00     0.040 A 
ATOM     67  C   UNL A   1      46.859  27.451  35.139  1.00  0.00     0.040 A 
ATOM     68  F   UNL A   1      45.973  29.215  33.873  1.00  0.00    -0.206 F 
ATOM     69  C   UNL A   1      46.696  26.239  35.805  1.00  0.00     0.006 A 
ENDBRANCH  48  62
BRANCH  49  70
ATOM     70  C   UNL A   1      37.047  31.424  29.228  1.00  0.00     0.057 A 
ATOM     71  C   UNL A   1      35.871  30.698  29.005  1.00  0.00     0.134 A 
ATOM     72  C   UNL A   1      37.116  32.719  28.701  1.00  0.00     0.134 A 
ATOM     73  F   UNL A   1      35.758  29.441  29.459  1.00  0.00    -0.206 F 
ATOM     74  C   UNL A   1      34.805  31.238  28.284  1.00  0.00     0.040 A 
ATOM     75  C   UNL A   1      36.048  33.282  28.002  1.00  0.00     0.040 A 
ATOM     76  F   UNL A   1      38.217  33.464  28.880  1.00  0.00    -0.206 F 
ATOM     77  C   UNL A   1      34.890  32.539  27.789  1.00  0.00     0.006 A 
ENDBRANCH  49  70
BRANCH  61  78
ATOM     78  C   UNL A   1      39.290  32.249  35.759  1.00  0.00     0.057 A 
ATOM     79  C   UNL A   1      39.740  33.565  35.929  1.00  0.00     0.134 A 
ATOM     80  C   UNL A   1      38.348  31.761  36.672  1.00  0.00     0.134 A 
ATOM     81  F   UNL A   1      40.653  34.084  35.095  1.00  0.00    -0.206 F 
ATOM     82  C   UNL A   1      39.278  34.361  36.978  1.00  0.00     0.040 A 
ATOM     83  C   UNL A   1      37.865  32.555  37.714  1.00  0.00     0.040 A 
ATOM     84  F   UNL A   1      37.875  30.511  36.560  1.00  0.00    -0.206 F 
ATOM     85  C   UNL A   1      38.334  33.858  37.871  1.00  0.00     0.006 A 
ENDBRANCH  61  78
ENDBRANCH  35  36
ENDBRANCH  28  30
ENDBRANCH  27  28
ENDBRANCH  26  27
ENDBRANCH  25  26
ENDBRANCH   1  25
TORSDOF 16
ENDMDL
