MODEL 1
REMARK VINA RESULT:      -9.9      0.000      0.000
REMARK SMILES C[C@H]([C@@H](C)C(=O)OCCOC(=O)c1ccc(-c2c3nc(c(-c4c(F)cccc4F)c4ccc([nH]4)c(-c4c(F)cccc4F)c4nc(c(-c5c(F)cccc5F)c5ccc2[nH]5)C=C4)C=C3)cc1)[S@@](=O)c1ccc2ccccc2c1
REMARK SMILES IDX 8 1 7 2 5 3 6 4 3 5 4 6 2 7 1 8 67 9 68 10 69 11 70 12 78 13
REMARK SMILES IDX 71 14 77 15 72 16 76 17 73 18 75 19 74 20 9 21 10 22 11 23
REMARK SMILES IDX 12 24 13 25 14 26 66 27 15 28 65 29 16 30 17 31 18 32 59 33
REMARK SMILES IDX 19 34 64 35 58 36 60 37 20 38 63 39 57 40 56 41 21 43 47 44
REMARK SMILES IDX 30 45 46 46 31 47 34 48 45 49 61 50 32 51 33 52 44 54 62 55
REMARK SMILES IDX 35 56 22 57 23 58 28 59 24 60 25 61 27 62 29 63 26 64 48 65
REMARK SMILES IDX 49 66 54 67 50 68 51 69 53 70 55 71 52 72 36 73 37 74 42 75
REMARK SMILES IDX 38 76 39 77 41 78 43 79 40 80
REMARK H PARENT 60 42 34 53
REMARK Flexibility Score: inf
ROOT
ATOM      1  C   UNL A   1      33.910  34.506  28.003  1.00  0.00     0.274 C 
ENDROOT
BRANCH   1   2
ATOM      2  O   UNL A   1      34.216  35.052  29.304  1.00  0.00    -0.462 OA
BRANCH   2   3
ATOM      3  C   UNL A   1      33.195  35.640  29.970  1.00  0.00     0.309 C 
ATOM      4  O   UNL A   1      32.378  36.390  29.441  1.00  0.00    -0.252 OA
BRANCH   3   5
ATOM      5  C   UNL A   1      33.087  35.246  31.443  1.00  0.00     0.112 C 
ATOM      6  C   UNL A   1      31.961  36.083  32.062  1.00  0.00     0.021 C 
BRANCH   5   7
ATOM      7  C   UNL A   1      34.411  35.235  32.250  1.00  0.00     0.095 C 
ATOM      8  C   UNL A   1      34.402  36.027  33.558  1.00  0.00     0.023 C 
BRANCH   7   9
ATOM      9  S   UNL A   1      35.073  33.513  32.509  1.00  0.00     0.057 S 
ATOM     10  O   UNL A   1      34.361  32.608  31.546  1.00  0.00    -0.254 OA
BRANCH   9  11
ATOM     11  C   UNL A   1      36.760  33.638  31.879  1.00  0.00     0.040 A 
ATOM     12  C   UNL A   1      36.989  33.413  30.518  1.00  0.00     0.018 A 
ATOM     13  C   UNL A   1      37.826  34.038  32.689  1.00  0.00     0.026 A 
ATOM     14  C   UNL A   1      38.274  33.537  29.981  1.00  0.00     0.010 A 
ATOM     15  C   UNL A   1      39.126  34.160  32.167  1.00  0.00    -0.017 A 
ATOM     16  C   UNL A   1      39.353  33.906  30.796  1.00  0.00    -0.018 A 
ATOM     17  C   UNL A   1      40.206  34.542  32.981  1.00  0.00     0.009 A 
ATOM     18  C   UNL A   1      40.652  34.045  30.275  1.00  0.00     0.009 A 
ATOM     19  C   UNL A   1      41.490  34.670  32.450  1.00  0.00     0.001 A 
ATOM     20  C   UNL A   1      41.712  34.425  31.098  1.00  0.00     0.001 A 
ENDBRANCH   9  11
ENDBRANCH   7   9
ENDBRANCH   5   7
ENDBRANCH   3   5
ENDBRANCH   2   3
ENDBRANCH   1   2
BRANCH   1  21
ATOM     21  C   UNL A   1      33.677  32.992  28.069  1.00  0.00     0.275 C 
BRANCH  21  22
ATOM     22  O   UNL A   1      34.796  32.241  27.555  1.00  0.00    -0.458 OA
BRANCH  22  23
ATOM     23  C   UNL A   1      34.761  30.915  27.811  1.00  0.00     0.338 C 
ATOM     24  O   UNL A   1      33.901  30.117  27.468  1.00  0.00    -0.246 OA
BRANCH  23  25
ATOM     25  C   UNL A   1      36.000  30.483  28.472  1.00  0.00     0.060 A 
ATOM     26  C   UNL A   1      37.209  30.775  27.836  1.00  0.00     0.016 A 
ATOM     27  C   UNL A   1      35.980  29.708  29.630  1.00  0.00     0.016 A 
ATOM     28  C   UNL A   1      38.401  30.259  28.322  1.00  0.00     0.010 A 
ATOM     29  C   UNL A   1      37.186  29.212  30.139  1.00  0.00     0.010 A 
ATOM     30  C   UNL A   1      38.399  29.468  29.476  1.00  0.00    -0.014 A 
BRANCH  30  31
ATOM     31  C   UNL A   1      39.676  28.896  29.961  1.00  0.00     0.031 A 
ATOM     32  C   UNL A   1      40.339  29.461  31.182  1.00  0.00     0.074 A 
ATOM     33  C   UNL A   1      40.211  27.840  29.321  1.00  0.00     0.049 A 
ATOM     34  N   UNL A   1      41.481  29.130  31.727  1.00  0.00    -0.248 NA
ATOM     35  C   UNL A   1      39.625  30.539  31.883  1.00  0.00     0.031 C 
ATOM     36  C   UNL A   1      39.629  27.177  28.153  1.00  0.00     0.029 A 
ATOM     37  N   UNL A   1      41.363  27.139  29.567  1.00  0.00    -0.354 N 
ATOM     38  C   UNL A   1      41.636  29.972  32.820  1.00  0.00     0.074 A 
ATOM     39  C   UNL A   1      40.475  30.836  32.856  1.00  0.00     0.031 C 
ATOM     40  C   UNL A   1      40.425  26.158  27.789  1.00  0.00     0.029 A 
ATOM     41  C   UNL A   1      41.591  26.128  28.666  1.00  0.00     0.049 A 
ATOM     42  H   UNL A   1      41.968  27.339  30.317  1.00  0.00     0.167 HD
ATOM     43  C   UNL A   1      42.654  30.016  33.712  1.00  0.00     0.037 A 
ATOM     44  C   UNL A   1      42.635  25.288  28.547  1.00  0.00     0.037 A 
ATOM     45  C   UNL A   1      43.796  29.141  33.684  1.00  0.00     0.049 A 
ATOM     46  C   UNL A   1      43.776  25.395  29.518  1.00  0.00     0.074 A 
ATOM     47  C   UNL A   1      44.870  29.095  34.555  1.00  0.00     0.029 A 
ATOM     48  N   UNL A   1      44.011  28.154  32.733  1.00  0.00    -0.354 N 
ATOM     49  N   UNL A   1      43.915  26.199  30.545  1.00  0.00    -0.248 NA
ATOM     50  C   UNL A   1      44.910  24.484  29.309  1.00  0.00     0.031 C 
ATOM     51  C   UNL A   1      45.753  28.104  34.110  1.00  0.00     0.029 A 
ATOM     52  C   UNL A   1      45.210  27.508  32.984  1.00  0.00     0.049 A 
ATOM     53  H   UNL A   1      43.402  27.945  31.988  1.00  0.00     0.167 HD
ATOM     54  C   UNL A   1      45.139  25.880  31.114  1.00  0.00     0.074 A 
ATOM     55  C   UNL A   1      45.699  24.800  30.326  1.00  0.00     0.031 C 
ATOM     56  C   UNL A   1      45.748  26.433  32.190  1.00  0.00     0.037 A 
BRANCH  43  57
ATOM     57  C   UNL A   1      42.592  31.066  34.778  1.00  0.00     0.057 A 
ATOM     58  C   UNL A   1      43.168  32.331  34.607  1.00  0.00     0.134 A 
ATOM     59  C   UNL A   1      41.916  30.819  35.980  1.00  0.00     0.134 A 
ATOM     60  F   UNL A   1      43.843  32.625  33.486  1.00  0.00    -0.206 F 
ATOM     61  C   UNL A   1      43.087  33.309  35.601  1.00  0.00     0.040 A 
ATOM     62  C   UNL A   1      41.811  31.795  36.972  1.00  0.00     0.040 A 
ATOM     63  F   UNL A   1      41.340  29.628  36.204  1.00  0.00    -0.206 F 
ATOM     64  C   UNL A   1      42.401  33.043  36.785  1.00  0.00     0.006 A 
ENDBRANCH  43  57
BRANCH  44  65
ATOM     65  C   UNL A   1      42.660  24.289  27.452  1.00  0.00     0.057 A 
ATOM     66  C   UNL A   1      43.162  24.614  26.187  1.00  0.00     0.134 A 
ATOM     67  C   UNL A   1      42.180  22.988  27.643  1.00  0.00     0.134 A 
ATOM     68  F   UNL A   1      43.615  25.851  25.940  1.00  0.00    -0.206 F 
ATOM     69  C   UNL A   1      43.176  23.684  25.147  1.00  0.00     0.040 A 
ATOM     70  C   UNL A   1      42.209  22.040  26.620  1.00  0.00     0.040 A 
ATOM     71  F   UNL A   1      41.688  22.616  28.834  1.00  0.00    -0.206 F 
ATOM     72  C   UNL A   1      42.703  22.391  25.365  1.00  0.00     0.006 A 
ENDBRANCH  44  65
BRANCH  56  73
ATOM     73  C   UNL A   1      47.073  25.859  32.593  1.00  0.00     0.057 A 
ATOM     74  C   UNL A   1      48.270  26.300  32.018  1.00  0.00     0.134 A 
ATOM     75  C   UNL A   1      47.152  24.877  33.587  1.00  0.00     0.134 A 
ATOM     76  F   UNL A   1      48.256  27.229  31.049  1.00  0.00    -0.206 F 
ATOM     77  C   UNL A   1      49.501  25.770  32.404  1.00  0.00     0.040 A 
ATOM     78  C   UNL A   1      48.378  24.354  33.997  1.00  0.00     0.040 A 
ATOM     79  F   UNL A   1      46.040  24.416  34.180  1.00  0.00    -0.206 F 
ATOM     80  C   UNL A   1      49.557  24.798  33.402  1.00  0.00     0.006 A 
ENDBRANCH  56  73
ENDBRANCH  30  31
ENDBRANCH  23  25
ENDBRANCH  22  23
ENDBRANCH  21  22
ENDBRANCH   1  21
TORSDOF 14
ENDMDL
MODEL 2
REMARK VINA RESULT:      -9.4      3.702      6.811
REMARK SMILES C[C@H]([C@@H](C)C(=O)OCCOC(=O)c1ccc(-c2c3nc(c(-c4c(F)cccc4F)c4ccc([nH]4)c(-c4c(F)cccc4F)c4nc(c(-c5c(F)cccc5F)c5ccc2[nH]5)C=C4)C=C3)cc1)[S@@](=O)c1ccc2ccccc2c1
REMARK SMILES IDX 8 1 7 2 5 3 6 4 3 5 4 6 2 7 1 8 67 9 68 10 69 11 70 12 78 13
REMARK SMILES IDX 71 14 77 15 72 16 76 17 73 18 75 19 74 20 9 21 10 22 11 23
REMARK SMILES IDX 12 24 13 25 14 26 66 27 15 28 65 29 16 30 17 31 18 32 59 33
REMARK SMILES IDX 19 34 64 35 58 36 60 37 20 38 63 39 57 40 56 41 21 43 47 44
REMARK SMILES IDX 30 45 46 46 31 47 34 48 45 49 61 50 32 51 33 52 44 54 62 55
REMARK SMILES IDX 35 56 22 57 23 58 28 59 24 60 25 61 27 62 29 63 26 64 48 65
REMARK SMILES IDX 49 66 54 67 50 68 51 69 53 70 55 71 52 72 36 73 37 74 42 75
REMARK SMILES IDX 38 76 39 77 41 78 43 79 40 80
REMARK H PARENT 60 42 34 53
REMARK Flexibility Score: inf
ROOT
ATOM      1  C   UNL A   1      31.790  29.023  26.560  1.00  0.00     0.274 C 
ENDROOT
BRANCH   1   2
ATOM      2  O   UNL A   1      31.250  28.130  25.562  1.00  0.00    -0.462 OA
BRANCH   2   3
ATOM      3  C   UNL A   1      31.398  26.804  25.792  1.00  0.00     0.309 C 
ATOM      4  O   UNL A   1      30.707  26.168  26.584  1.00  0.00    -0.252 OA
BRANCH   3   5
ATOM      5  C   UNL A   1      32.464  26.126  24.932  1.00  0.00     0.112 C 
ATOM      6  C   UNL A   1      33.780  26.158  25.721  1.00  0.00     0.021 C 
BRANCH   5   7
ATOM      7  C   UNL A   1      32.572  26.609  23.463  1.00  0.00     0.095 C 
ATOM      8  C   UNL A   1      33.763  27.514  23.143  1.00  0.00     0.023 C 
BRANCH   7   9
ATOM      9  S   UNL A   1      32.441  25.209  22.241  1.00  0.00     0.057 S 
ATOM     10  O   UNL A   1      33.317  25.550  21.071  1.00  0.00    -0.254 OA
BRANCH   9  11
ATOM     11  C   UNL A   1      33.291  23.861  23.089  1.00  0.00     0.040 A 
ATOM     12  C   UNL A   1      32.530  22.819  23.629  1.00  0.00     0.018 A 
ATOM     13  C   UNL A   1      34.685  23.782  23.144  1.00  0.00     0.026 A 
ATOM     14  C   UNL A   1      33.150  21.736  24.259  1.00  0.00     0.010 A 
ATOM     15  C   UNL A   1      35.325  22.704  23.782  1.00  0.00    -0.017 A 
ATOM     16  C   UNL A   1      34.547  21.668  24.347  1.00  0.00    -0.018 A 
ATOM     17  C   UNL A   1      36.726  22.629  23.860  1.00  0.00     0.009 A 
ATOM     18  C   UNL A   1      35.191  20.584  24.969  1.00  0.00     0.009 A 
ATOM     19  C   UNL A   1      37.349  21.549  24.485  1.00  0.00     0.001 A 
ATOM     20  C   UNL A   1      36.583  20.526  25.036  1.00  0.00     0.001 A 
ENDBRANCH   9  11
ENDBRANCH   7   9
ENDBRANCH   5   7
ENDBRANCH   3   5
ENDBRANCH   2   3
ENDBRANCH   1   2
BRANCH   1  21
ATOM     21  C   UNL A   1      32.935  29.872  25.994  1.00  0.00     0.275 C 
BRANCH  21  22
ATOM     22  O   UNL A   1      34.183  29.639  26.677  1.00  0.00    -0.458 OA
BRANCH  22  23
ATOM     23  C   UNL A   1      34.507  30.562  27.609  1.00  0.00     0.338 C 
ATOM     24  O   UNL A   1      33.831  31.510  27.979  1.00  0.00    -0.246 OA
BRANCH  23  25
ATOM     25  C   UNL A   1      35.778  30.215  28.260  1.00  0.00     0.060 A 
ATOM     26  C   UNL A   1      36.946  30.331  27.504  1.00  0.00     0.016 A 
ATOM     27  C   UNL A   1      35.818  29.677  29.546  1.00  0.00     0.016 A 
ATOM     28  C   UNL A   1      38.155  29.870  28.004  1.00  0.00     0.010 A 
ATOM     29  C   UNL A   1      37.042  29.238  30.062  1.00  0.00     0.010 A 
ATOM     30  C   UNL A   1      38.213  29.314  29.286  1.00  0.00    -0.014 A 
BRANCH  30  31
ATOM     31  C   UNL A   1      39.504  28.794  29.790  1.00  0.00     0.031 A 
ATOM     32  C   UNL A   1      40.146  29.412  30.998  1.00  0.00     0.074 A 
ATOM     33  C   UNL A   1      40.074  27.739  29.180  1.00  0.00     0.049 A 
ATOM     34  N   UNL A   1      41.295  29.130  31.556  1.00  0.00    -0.248 NA
ATOM     35  C   UNL A   1      39.396  30.485  31.667  1.00  0.00     0.031 C 
ATOM     36  C   UNL A   1      39.517  27.027  28.029  1.00  0.00     0.029 A 
ATOM     37  N   UNL A   1      41.245  27.079  29.449  1.00  0.00    -0.354 N 
ATOM     38  C   UNL A   1      41.420  30.005  32.626  1.00  0.00     0.074 A 
ATOM     39  C   UNL A   1      40.234  30.834  32.635  1.00  0.00     0.031 C 
ATOM     40  C   UNL A   1      40.344  26.023  27.694  1.00  0.00     0.029 A 
ATOM     41  C   UNL A   1      41.507  26.052  28.576  1.00  0.00     0.049 A 
ATOM     42  H   UNL A   1      41.841  27.317  30.195  1.00  0.00     0.167 HD
ATOM     43  C   UNL A   1      42.433  30.103  33.519  1.00  0.00     0.037 A 
ATOM     44  C   UNL A   1      42.576  25.242  28.482  1.00  0.00     0.037 A 
ATOM     45  C   UNL A   1      43.601  29.262  33.518  1.00  0.00     0.049 A 
ATOM     46  C   UNL A   1      43.710  25.408  29.454  1.00  0.00     0.074 A 
ATOM     47  C   UNL A   1      44.673  29.272  34.393  1.00  0.00     0.029 A 
ATOM     48  N   UNL A   1      43.850  28.258  32.594  1.00  0.00    -0.354 N 
ATOM     49  N   UNL A   1      43.821  26.243  30.459  1.00  0.00    -0.248 NA
ATOM     50  C   UNL A   1      44.871  24.527  29.272  1.00  0.00     0.031 C 
ATOM     51  C   UNL A   1      45.587  28.297  33.978  1.00  0.00     0.029 A 
ATOM     52  C   UNL A   1      45.066  27.655  32.866  1.00  0.00     0.049 A 
ATOM     53  H   UNL A   1      43.249  28.011  31.854  1.00  0.00     0.167 HD
ATOM     54  C   UNL A   1      45.052  25.976  31.040  1.00  0.00     0.074 A 
ATOM     55  C   UNL A   1      45.647  24.894  30.283  1.00  0.00     0.031 C 
ATOM     56  C   UNL A   1      45.639  26.576  32.103  1.00  0.00     0.037 A 
BRANCH  43  57
ATOM     57  C   UNL A   1      42.335  31.179  34.557  1.00  0.00     0.057 A 
ATOM     58  C   UNL A   1      42.795  32.480  34.321  1.00  0.00     0.134 A 
ATOM     59  C   UNL A   1      41.741  30.917  35.798  1.00  0.00     0.134 A 
ATOM     60  F   UNL A   1      43.388  32.791  33.159  1.00  0.00    -0.206 F 
ATOM     61  C   UNL A   1      42.681  33.480  35.290  1.00  0.00     0.040 A 
ATOM     62  C   UNL A   1      41.602  31.912  36.766  1.00  0.00     0.040 A 
ATOM     63  F   UNL A   1      41.278  29.690  36.085  1.00  0.00    -0.206 F 
ATOM     64  C   UNL A   1      42.076  33.198  36.514  1.00  0.00     0.006 A 
ENDBRANCH  43  57
BRANCH  44  65
ATOM     65  C   UNL A   1      42.636  24.215  27.414  1.00  0.00     0.057 A 
ATOM     66  C   UNL A   1      42.194  22.907  27.643  1.00  0.00     0.134 A 
ATOM     67  C   UNL A   1      43.138  24.516  26.143  1.00  0.00     0.134 A 
ATOM     68  F   UNL A   1      41.723  22.556  28.848  1.00  0.00    -0.206 F 
ATOM     69  C   UNL A   1      42.259  21.931  26.648  1.00  0.00     0.040 A 
ATOM     70  C   UNL A   1      43.188  23.557  25.130  1.00  0.00     0.040 A 
ATOM     71  F   UNL A   1      43.575  25.752  25.862  1.00  0.00    -0.206 F 
ATOM     72  C   UNL A   1      42.752  22.258  25.385  1.00  0.00     0.006 A 
ENDBRANCH  44  65
BRANCH  56  73
ATOM     73  C   UNL A   1      46.979  26.054  32.525  1.00  0.00     0.057 A 
ATOM     74  C   UNL A   1      47.106  25.065  33.507  1.00  0.00     0.134 A 
ATOM     75  C   UNL A   1      48.150  26.525  31.921  1.00  0.00     0.134 A 
ATOM     76  F   UNL A   1      46.021  24.586  34.134  1.00  0.00    -0.206 F 
ATOM     77  C   UNL A   1      48.357  24.575  33.888  1.00  0.00     0.040 A 
ATOM     78  C   UNL A   1      49.404  26.028  32.277  1.00  0.00     0.040 A 
ATOM     79  F   UNL A   1      48.094  27.468  30.968  1.00  0.00    -0.206 F 
ATOM     80  C   UNL A   1      49.509  25.053  33.267  1.00  0.00     0.006 A 
ENDBRANCH  56  73
ENDBRANCH  30  31
ENDBRANCH  23  25
ENDBRANCH  22  23
ENDBRANCH  21  22
ENDBRANCH   1  21
TORSDOF 14
ENDMDL
MODEL 3
REMARK VINA RESULT:      -9.4      4.096      9.306
REMARK SMILES C[C@H]([C@@H](C)C(=O)OCCOC(=O)c1ccc(-c2c3nc(c(-c4c(F)cccc4F)c4ccc([nH]4)c(-c4c(F)cccc4F)c4nc(c(-c5c(F)cccc5F)c5ccc2[nH]5)C=C4)C=C3)cc1)[S@@](=O)c1ccc2ccccc2c1
REMARK SMILES IDX 8 1 7 2 5 3 6 4 3 5 4 6 2 7 1 8 67 9 68 10 69 11 70 12 78 13
REMARK SMILES IDX 71 14 77 15 72 16 76 17 73 18 75 19 74 20 9 21 10 22 11 23
REMARK SMILES IDX 12 24 13 25 14 26 66 27 15 28 65 29 16 30 17 31 18 32 59 33
REMARK SMILES IDX 19 34 64 35 58 36 60 37 20 38 63 39 57 40 56 41 21 43 47 44
REMARK SMILES IDX 30 45 46 46 31 47 34 48 45 49 61 50 32 51 33 52 44 54 62 55
REMARK SMILES IDX 35 56 22 57 23 58 28 59 24 60 25 61 27 62 29 63 26 64 48 65
REMARK SMILES IDX 49 66 54 67 50 68 51 69 53 70 55 71 52 72 36 73 37 74 42 75
REMARK SMILES IDX 38 76 39 77 41 78 43 79 40 80
REMARK H PARENT 60 42 34 53
REMARK Flexibility Score: inf
ROOT
ATOM      1  C   UNL A   1      31.581  30.117  25.595  1.00  0.00     0.274 C 
ENDROOT
BRANCH   1   2
ATOM      2  O   UNL A   1      32.864  29.685  25.094  1.00  0.00    -0.462 OA
BRANCH   2   3
ATOM      3  C   UNL A   1      33.409  28.595  25.682  1.00  0.00     0.309 C 
ATOM      4  O   UNL A   1      34.389  28.637  26.422  1.00  0.00    -0.252 OA
BRANCH   3   5
ATOM      5  C   UNL A   1      32.666  27.288  25.409  1.00  0.00     0.112 C 
ATOM      6  C   UNL A   1      32.109  26.787  26.748  1.00  0.00     0.021 C 
BRANCH   5   7
ATOM      7  C   UNL A   1      33.428  26.223  24.580  1.00  0.00     0.095 C 
ATOM      8  C   UNL A   1      34.296  25.250  25.379  1.00  0.00     0.023 C 
BRANCH   7   9
ATOM      9  S   UNL A   1      32.317  25.316  23.391  1.00  0.00     0.057 S 
ATOM     10  O   UNL A   1      31.803  24.096  24.098  1.00  0.00    -0.254 OA
BRANCH   9  11
ATOM     11  C   UNL A   1      30.894  26.419  23.257  1.00  0.00     0.040 A 
ATOM     12  C   UNL A   1      29.683  26.029  23.839  1.00  0.00     0.018 A 
ATOM     13  C   UNL A   1      30.989  27.683  22.670  1.00  0.00     0.026 A 
ATOM     14  C   UNL A   1      28.567  26.870  23.792  1.00  0.00     0.010 A 
ATOM     15  C   UNL A   1      29.874  28.538  22.607  1.00  0.00    -0.017 A 
ATOM     16  C   UNL A   1      28.647  28.126  23.175  1.00  0.00    -0.018 A 
ATOM     17  C   UNL A   1      29.957  29.802  21.999  1.00  0.00     0.009 A 
ATOM     18  C   UNL A   1      27.540  28.990  23.124  1.00  0.00     0.009 A 
ATOM     19  C   UNL A   1      28.847  30.646  21.953  1.00  0.00     0.001 A 
ATOM     20  C   UNL A   1      27.641  30.242  22.517  1.00  0.00     0.001 A 
ENDBRANCH   9  11
ENDBRANCH   7   9
ENDBRANCH   5   7
ENDBRANCH   3   5
ENDBRANCH   2   3
ENDBRANCH   1   2
BRANCH   1  21
ATOM     21  C   UNL A   1      31.734  31.166  26.703  1.00  0.00     0.275 C 
BRANCH  21  22
ATOM     22  O   UNL A   1      32.730  32.159  26.386  1.00  0.00    -0.458 OA
BRANCH  22  23
ATOM     23  C   UNL A   1      33.132  32.920  27.427  1.00  0.00     0.338 C 
ATOM     24  O   UNL A   1      32.523  33.842  27.950  1.00  0.00    -0.246 OA
BRANCH  23  25
ATOM     25  C   UNL A   1      34.394  32.412  27.982  1.00  0.00     0.060 A 
ATOM     26  C   UNL A   1      34.401  31.113  28.492  1.00  0.00     0.016 A 
ATOM     27  C   UNL A   1      35.519  33.227  28.107  1.00  0.00     0.016 A 
ATOM     28  C   UNL A   1      35.510  30.630  29.171  1.00  0.00     0.010 A 
ATOM     29  C   UNL A   1      36.649  32.731  28.766  1.00  0.00     0.010 A 
ATOM     30  C   UNL A   1      36.643  31.438  29.319  1.00  0.00    -0.014 A 
BRANCH  30  31
ATOM     31  C   UNL A   1      37.804  30.921  30.077  1.00  0.00     0.031 A 
ATOM     32  C   UNL A   1      38.780  29.990  29.420  1.00  0.00     0.074 A 
ATOM     33  C   UNL A   1      37.997  31.325  31.346  1.00  0.00     0.049 A 
ATOM     34  N   UNL A   1      39.825  29.393  29.933  1.00  0.00    -0.248 NA
ATOM     35  C   UNL A   1      38.553  29.692  27.997  1.00  0.00     0.031 C 
ATOM     36  C   UNL A   1      37.142  32.266  32.072  1.00  0.00     0.029 A 
ATOM     37  N   UNL A   1      38.979  31.000  32.246  1.00  0.00    -0.354 N 
ATOM     38  C   UNL A   1      40.367  28.631  28.908  1.00  0.00     0.074 A 
ATOM     39  C   UNL A   1      39.531  28.833  27.743  1.00  0.00     0.031 C 
ATOM     40  C   UNL A   1      37.641  32.447  33.305  1.00  0.00     0.029 A 
ATOM     41  C   UNL A   1      38.821  31.603  33.469  1.00  0.00     0.049 A 
ATOM     42  H   UNL A   1      39.725  30.394  32.036  1.00  0.00     0.167 HD
ATOM     43  C   UNL A   1      41.464  27.837  28.937  1.00  0.00     0.037 A 
ATOM     44  C   UNL A   1      39.532  31.470  34.603  1.00  0.00     0.037 A 
ATOM     45  C   UNL A   1      42.304  27.656  30.091  1.00  0.00     0.049 A 
ATOM     46  C   UNL A   1      40.714  30.541  34.623  1.00  0.00     0.074 A 
ATOM     47  C   UNL A   1      43.448  26.888  30.215  1.00  0.00     0.029 A 
ATOM     48  N   UNL A   1      42.089  28.253  31.325  1.00  0.00    -0.354 N 
ATOM     49  N   UNL A   1      41.214  29.821  33.648  1.00  0.00    -0.248 NA
ATOM     50  C   UNL A   1      41.422  30.401  35.902  1.00  0.00     0.031 C 
ATOM     51  C   UNL A   1      43.906  26.993  31.533  1.00  0.00     0.029 A 
ATOM     52  C   UNL A   1      43.068  27.855  32.220  1.00  0.00     0.049 A 
ATOM     53  H   UNL A   1      41.350  28.869  31.533  1.00  0.00     0.167 HD
ATOM     54  C   UNL A   1      42.305  29.157  34.189  1.00  0.00     0.074 A 
ATOM     55  C   UNL A   1      42.402  29.569  35.575  1.00  0.00     0.031 C 
ATOM     56  C   UNL A   1      43.150  28.281  33.594  1.00  0.00     0.037 A 
BRANCH  43  57
ATOM     57  C   UNL A   1      41.802  27.081  27.689  1.00  0.00     0.057 A 
ATOM     58  C   UNL A   1      42.596  27.637  26.678  1.00  0.00     0.134 A 
ATOM     59  C   UNL A   1      41.357  25.765  27.513  1.00  0.00     0.134 A 
ATOM     60  F   UNL A   1      43.041  28.898  26.779  1.00  0.00    -0.206 F 
ATOM     61  C   UNL A   1      42.921  26.915  25.528  1.00  0.00     0.040 A 
ATOM     62  C   UNL A   1      41.692  25.026  26.378  1.00  0.00     0.040 A 
ATOM     63  F   UNL A   1      40.595  25.174  28.447  1.00  0.00    -0.206 F 
ATOM     64  C   UNL A   1      42.473  25.603  25.378  1.00  0.00     0.006 A 
ENDBRANCH  43  57
BRANCH  44  65
ATOM     65  C   UNL A   1      39.133  32.217  35.819  1.00  0.00     0.057 A 
ATOM     66  C   UNL A   1      39.610  33.510  36.063  1.00  0.00     0.134 A 
ATOM     67  C   UNL A   1      38.269  31.657  36.767  1.00  0.00     0.134 A 
ATOM     68  F   UNL A   1      40.457  34.090  35.201  1.00  0.00    -0.206 F 
ATOM     69  C   UNL A   1      39.251  34.215  37.212  1.00  0.00     0.040 A 
ATOM     70  C   UNL A   1      37.883  32.358  37.910  1.00  0.00     0.040 A 
ATOM     71  F   UNL A   1      37.777  30.422  36.589  1.00  0.00    -0.206 F 
ATOM     72  C   UNL A   1      38.379  33.641  38.136  1.00  0.00     0.006 A 
ENDBRANCH  44  65
BRANCH  56  73
ATOM     73  C   UNL A   1      44.266  27.735  34.432  1.00  0.00     0.057 A 
ATOM     74  C   UNL A   1      45.481  28.415  34.571  1.00  0.00     0.134 A 
ATOM     75  C   UNL A   1      44.111  26.531  35.128  1.00  0.00     0.134 A 
ATOM     76  F   UNL A   1      45.694  29.566  33.915  1.00  0.00    -0.206 F 
ATOM     77  C   UNL A   1      46.513  27.907  35.361  1.00  0.00     0.040 A 
ATOM     78  C   UNL A   1      45.127  26.023  35.939  1.00  0.00     0.040 A 
ATOM     79  F   UNL A   1      42.968  25.834  35.041  1.00  0.00    -0.206 F 
ATOM     80  C   UNL A   1      46.334  26.710  36.053  1.00  0.00     0.006 A 
ENDBRANCH  56  73
ENDBRANCH  30  31
ENDBRANCH  23  25
ENDBRANCH  22  23
ENDBRANCH  21  22
ENDBRANCH   1  21
TORSDOF 14
ENDMDL
