MODEL 1
REMARK VINA RESULT:     -12.3      0.000      0.000
REMARK SMILES O=C(CCCc1nc(-c2ccc(Cl)c(Cl)c2)c(-c2ccccc2)o1)OCCOC(=O)c1ccc(-c2c3nc(c(-c4c(F)cccc4F)c4ccc([nH]4)c(-c4c(F)cccc4F)c4nc(c(-c5c(F)cccc5F)c5ccc2[nH]5)C=C4)C=C3)cc1
REMARK SMILES IDX 26 1 25 2 2 3 1 4 3 5 4 6 5 7 6 8 7 9 24 10 8 11 17 12 9 13
REMARK SMILES IDX 10 14 16 15 11 16 14 17 12 18 15 19 13 20 18 21 19 22 23 23
REMARK SMILES IDX 20 24 22 25 21 26 27 27 28 28 29 29 30 30 31 31 32 32 84 33
REMARK SMILES IDX 33 34 83 35 34 36 35 37 36 38 77 39 37 40 82 41 76 42 78 43
REMARK SMILES IDX 38 44 81 45 75 46 74 47 39 49 65 50 48 51 64 52 49 53 52 54
REMARK SMILES IDX 63 55 79 56 50 57 51 58 62 60 80 61 53 62 40 63 41 64 46 65
REMARK SMILES IDX 42 66 43 67 45 68 47 69 44 70 66 71 67 72 72 73 68 74 69 75
REMARK SMILES IDX 71 76 73 77 70 78 54 79 55 80 60 81 56 82 57 83 59 84 61 85
REMARK SMILES IDX 58 86
REMARK H PARENT 78 48 52 59
REMARK Flexibility Score: inf
ROOT
ATOM      1  C   UNL A   1      43.777  21.300  25.757  1.00  0.00     0.274 C 
ENDROOT
BRANCH   1   2
ATOM      2  O   UNL A   1      43.020  20.121  25.429  1.00  0.00    -0.462 OA
BRANCH   2   3
ATOM      3  C   UNL A   1      41.781  19.904  25.935  1.00  0.00     0.305 C 
ATOM      4  O   UNL A   1      41.218  18.827  25.757  1.00  0.00    -0.252 OA
BRANCH   3   5
ATOM      5  C   UNL A   1      41.051  21.061  26.586  1.00  0.00     0.123 C 
BRANCH   5   6
ATOM      6  C   UNL A   1      39.590  21.231  26.171  1.00  0.00     0.021 C 
BRANCH   6   7
ATOM      7  C   UNL A   1      39.040  22.661  26.224  1.00  0.00     0.098 C 
BRANCH   7   8
ATOM      8  C   UNL A   1      37.621  22.798  25.778  1.00  0.00     0.195 A 
ATOM      9  N   UNL A   1      36.914  23.908  25.698  1.00  0.00    -0.213 NA
ATOM     10  O   UNL A   1      36.924  21.658  25.463  1.00  0.00    -0.440 OA
ATOM     11  C   UNL A   1      35.673  23.487  25.311  1.00  0.00     0.117 A 
ATOM     12  C   UNL A   1      35.666  22.118  25.157  1.00  0.00     0.162 A 
BRANCH  11  13
ATOM     13  C   UNL A   1      34.533  24.363  25.190  1.00  0.00     0.006 A 
ATOM     14  C   UNL A   1      33.615  24.479  26.238  1.00  0.00     0.012 A 
ATOM     15  C   UNL A   1      34.337  25.096  24.013  1.00  0.00     0.032 A 
ATOM     16  C   UNL A   1      32.506  25.320  26.110  1.00  0.00     0.023 A 
ATOM     17  C   UNL A   1      33.230  25.939  23.884  1.00  0.00     0.060 A 
ATOM     18  C   UNL A   1      32.312  26.051  24.933  1.00  0.00     0.059 A 
ATOM     19  Cl  UNL A   1      33.057  26.813  22.403  1.00  0.00    -0.083 Cl
ATOM     20  Cl  UNL A   1      30.920  27.070  24.843  1.00  0.00    -0.083 Cl
ENDBRANCH  11  13
BRANCH  12  21
ATOM     21  C   UNL A   1      34.641  21.154  24.814  1.00  0.00     0.020 A 
ATOM     22  C   UNL A   1      33.450  21.570  24.212  1.00  0.00     0.012 A 
ATOM     23  C   UNL A   1      34.894  19.780  24.957  1.00  0.00     0.012 A 
ATOM     24  C   UNL A   1      32.541  20.627  23.726  1.00  0.00     0.001 A 
ATOM     25  C   UNL A   1      33.980  18.841  24.479  1.00  0.00     0.001 A 
ATOM     26  C   UNL A   1      32.811  19.265  23.854  1.00  0.00     0.000 A 
ENDBRANCH  12  21
ENDBRANCH   7   8
ENDBRANCH   6   7
ENDBRANCH   5   6
ENDBRANCH   3   5
ENDBRANCH   2   3
ENDBRANCH   1   2
BRANCH   1  27
ATOM     27  C   UNL A   1      44.132  22.130  24.520  1.00  0.00     0.275 C 
BRANCH  27  28
ATOM     28  O   UNL A   1      43.502  23.425  24.564  1.00  0.00    -0.458 OA
BRANCH  28  29
ATOM     29  C   UNL A   1      44.283  24.431  25.020  1.00  0.00     0.338 C 
ATOM     30  O   UNL A   1      45.377  24.758  24.591  1.00  0.00    -0.246 OA
BRANCH  29  31
ATOM     31  C   UNL A   1      43.544  25.232  26.024  1.00  0.00     0.060 A 
ATOM     32  C   UNL A   1      43.961  26.556  26.207  1.00  0.00     0.016 A 
ATOM     33  C   UNL A   1      42.483  24.723  26.781  1.00  0.00     0.016 A 
ATOM     34  C   UNL A   1      43.351  27.359  27.172  1.00  0.00     0.010 A 
ATOM     35  C   UNL A   1      41.877  25.530  27.757  1.00  0.00     0.010 A 
ATOM     36  C   UNL A   1      42.326  26.846  27.977  1.00  0.00    -0.014 A 
BRANCH  36  37
ATOM     37  C   UNL A   1      41.811  27.661  29.108  1.00  0.00     0.031 A 
ATOM     38  C   UNL A   1      42.497  27.588  30.447  1.00  0.00     0.074 A 
ATOM     39  C   UNL A   1      40.770  28.499  28.945  1.00  0.00     0.049 A 
ATOM     40  N   UNL A   1      42.229  28.239  31.551  1.00  0.00    -0.248 NA
ATOM     41  C   UNL A   1      43.638  26.666  30.552  1.00  0.00     0.031 C 
ATOM     42  C   UNL A   1      40.029  28.697  27.700  1.00  0.00     0.029 A 
ATOM     43  N   UNL A   1      40.154  29.340  29.841  1.00  0.00    -0.354 N 
ATOM     44  C   UNL A   1      43.166  27.808  32.482  1.00  0.00     0.074 A 
ATOM     45  C   UNL A   1      43.995  26.822  31.820  1.00  0.00     0.031 C 
ATOM     46  C   UNL A   1      39.047  29.590  27.916  1.00  0.00     0.029 A 
ATOM     47  C   UNL A   1      39.076  30.011  29.316  1.00  0.00     0.049 A 
ATOM     48  H   UNL A   1      40.457  29.452  30.770  1.00  0.00     0.167 HD
ATOM     49  C   UNL A   1      43.331  28.204  33.765  1.00  0.00     0.037 A 
ATOM     50  C   UNL A   1      38.199  30.853  29.903  1.00  0.00     0.037 A 
ATOM     51  C   UNL A   1      42.525  29.195  34.430  1.00  0.00     0.049 A 
ATOM     52  C   UNL A   1      38.358  31.213  31.357  1.00  0.00     0.074 A 
ATOM     53  C   UNL A   1      42.672  29.704  35.709  1.00  0.00     0.029 A 
ATOM     54  N   UNL A   1      41.414  29.810  33.881  1.00  0.00    -0.354 N 
ATOM     55  N   UNL A   1      39.295  30.858  32.202  1.00  0.00    -0.248 NA
ATOM     56  C   UNL A   1      37.332  32.092  31.943  1.00  0.00     0.031 C 
ATOM     57  C   UNL A   1      41.615  30.583  35.956  1.00  0.00     0.029 A 
ATOM     58  C   UNL A   1      40.837  30.657  34.813  1.00  0.00     0.049 A 
ATOM     59  H   UNL A   1      41.084  29.668  32.964  1.00  0.00     0.167 HD
ATOM     60  C   UNL A   1      38.985  31.485  33.403  1.00  0.00     0.074 A 
ATOM     61  C   UNL A   1      37.782  32.256  33.179  1.00  0.00     0.031 C 
ATOM     62  C   UNL A   1      39.640  31.424  34.588  1.00  0.00     0.037 A 
BRANCH  49  63
ATOM     63  C   UNL A   1      44.421  27.556  34.561  1.00  0.00     0.057 A 
ATOM     64  C   UNL A   1      45.701  28.114  34.652  1.00  0.00     0.134 A 
ATOM     65  C   UNL A   1      44.159  26.404  35.314  1.00  0.00     0.134 A 
ATOM     66  F   UNL A   1      46.015  29.213  33.949  1.00  0.00    -0.206 F 
ATOM     67  C   UNL A   1      46.687  27.544  35.458  1.00  0.00     0.040 A 
ATOM     68  C   UNL A   1      45.130  25.836  36.139  1.00  0.00     0.040 A 
ATOM     69  F   UNL A   1      42.948  25.826  35.275  1.00  0.00    -0.206 F 
ATOM     70  C   UNL A   1      46.398  26.406  36.212  1.00  0.00     0.006 A 
ENDBRANCH  49  63
BRANCH  50  71
ATOM     71  C   UNL A   1      37.051  31.392  29.131  1.00  0.00     0.057 A 
ATOM     72  C   UNL A   1      37.047  32.705  28.647  1.00  0.00     0.134 A 
ATOM     73  C   UNL A   1      35.900  30.623  28.921  1.00  0.00     0.134 A 
ATOM     74  F   UNL A   1      38.108  33.501  28.846  1.00  0.00    -0.206 F 
ATOM     75  C   UNL A   1      35.930  33.243  28.004  1.00  0.00     0.040 A 
ATOM     76  C   UNL A   1      34.786  31.140  28.257  1.00  0.00     0.040 A 
ATOM     77  F   UNL A   1      35.838  29.359  29.366  1.00  0.00    -0.206 F 
ATOM     78  C   UNL A   1      34.797  32.457  27.806  1.00  0.00     0.006 A 
ENDBRANCH  50  71
BRANCH  62  79
ATOM     79  C   UNL A   1      39.087  32.218  35.735  1.00  0.00     0.057 A 
ATOM     80  C   UNL A   1      38.238  31.640  36.687  1.00  0.00     0.134 A 
ATOM     81  C   UNL A   1      39.455  33.557  35.926  1.00  0.00     0.134 A 
ATOM     82  F   UNL A   1      37.839  30.366  36.556  1.00  0.00    -0.206 F 
ATOM     83  C   UNL A   1      37.766  32.367  37.782  1.00  0.00     0.040 A 
ATOM     84  C   UNL A   1      39.007  34.287  37.028  1.00  0.00     0.040 A 
ATOM     85  F   UNL A   1      40.271  34.169  35.056  1.00  0.00    -0.206 F 
ATOM     86  C   UNL A   1      38.157  33.693  37.959  1.00  0.00     0.006 A 
ENDBRANCH  62  79
ENDBRANCH  36  37
ENDBRANCH  29  31
ENDBRANCH  28  29
ENDBRANCH  27  28
ENDBRANCH   1  27
TORSDOF 16
ENDMDL
MODEL 2
REMARK VINA RESULT:     -12.0      5.036     10.245
REMARK SMILES O=C(CCCc1nc(-c2ccc(Cl)c(Cl)c2)c(-c2ccccc2)o1)OCCOC(=O)c1ccc(-c2c3nc(c(-c4c(F)cccc4F)c4ccc([nH]4)c(-c4c(F)cccc4F)c4nc(c(-c5c(F)cccc5F)c5ccc2[nH]5)C=C4)C=C3)cc1
REMARK SMILES IDX 26 1 25 2 2 3 1 4 3 5 4 6 5 7 6 8 7 9 24 10 8 11 17 12 9 13
REMARK SMILES IDX 10 14 16 15 11 16 14 17 12 18 15 19 13 20 18 21 19 22 23 23
REMARK SMILES IDX 20 24 22 25 21 26 27 27 28 28 29 29 30 30 31 31 32 32 84 33
REMARK SMILES IDX 33 34 83 35 34 36 35 37 36 38 77 39 37 40 82 41 76 42 78 43
REMARK SMILES IDX 38 44 81 45 75 46 74 47 39 49 65 50 48 51 64 52 49 53 52 54
REMARK SMILES IDX 63 55 79 56 50 57 51 58 62 60 80 61 53 62 40 63 41 64 46 65
REMARK SMILES IDX 42 66 43 67 45 68 47 69 44 70 66 71 67 72 72 73 68 74 69 75
REMARK SMILES IDX 71 76 73 77 70 78 54 79 55 80 60 81 56 82 57 83 59 84 61 85
REMARK SMILES IDX 58 86
REMARK H PARENT 78 48 52 59
REMARK Flexibility Score: inf
ROOT
ATOM      1  C   UNL A   1      34.329  34.594  31.284  1.00  0.00     0.274 C 
ENDROOT
BRANCH   1   2
ATOM      2  O   UNL A   1      33.758  34.184  30.028  1.00  0.00    -0.462 OA
BRANCH   2   3
ATOM      3  C   UNL A   1      34.352  34.477  28.844  1.00  0.00     0.305 C 
ATOM      4  O   UNL A   1      34.340  35.627  28.412  1.00  0.00    -0.252 OA
BRANCH   3   5
ATOM      5  C   UNL A   1      34.890  33.339  28.002  1.00  0.00     0.123 C 
BRANCH   5   6
ATOM      6  C   UNL A   1      34.119  32.023  28.110  1.00  0.00     0.021 C 
BRANCH   6   7
ATOM      7  C   UNL A   1      34.888  30.760  27.702  1.00  0.00     0.098 C 
BRANCH   7   8
ATOM      8  C   UNL A   1      34.062  29.727  27.009  1.00  0.00     0.195 A 
ATOM      9  N   UNL A   1      34.076  28.425  27.216  1.00  0.00    -0.213 NA
ATOM     10  O   UNL A   1      33.227  30.131  25.997  1.00  0.00    -0.440 OA
ATOM     11  C   UNL A   1      33.202  27.929  26.290  1.00  0.00     0.117 A 
ATOM     12  C   UNL A   1      32.672  28.959  25.543  1.00  0.00     0.162 A 
BRANCH  11  13
ATOM     13  C   UNL A   1      32.971  26.521  26.081  1.00  0.00     0.006 A 
ATOM     14  C   UNL A   1      31.774  25.930  26.497  1.00  0.00     0.012 A 
ATOM     15  C   UNL A   1      33.954  25.735  25.466  1.00  0.00     0.032 A 
ATOM     16  C   UNL A   1      31.561  24.563  26.302  1.00  0.00     0.023 A 
ATOM     17  C   UNL A   1      33.741  24.368  25.267  1.00  0.00     0.060 A 
ATOM     18  C   UNL A   1      32.543  23.780  25.687  1.00  0.00     0.059 A 
ATOM     19  Cl  UNL A   1      34.998  23.465  24.500  1.00  0.00    -0.083 Cl
ATOM     20  Cl  UNL A   1      32.214  22.097  25.479  1.00  0.00    -0.083 Cl
ENDBRANCH  11  13
BRANCH  12  21
ATOM     21  C   UNL A   1      31.754  29.015  24.424  1.00  0.00     0.020 A 
ATOM     22  C   UNL A   1      31.873  28.111  23.365  1.00  0.00     0.012 A 
ATOM     23  C   UNL A   1      30.655  29.887  24.461  1.00  0.00     0.012 A 
ATOM     24  C   UNL A   1      30.888  28.054  22.376  1.00  0.00     0.001 A 
ATOM     25  C   UNL A   1      29.678  29.835  23.468  1.00  0.00     0.001 A 
ATOM     26  C   UNL A   1      29.789  28.910  22.432  1.00  0.00     0.000 A 
ENDBRANCH  12  21
ENDBRANCH   7   8
ENDBRANCH   6   7
ENDBRANCH   5   6
ENDBRANCH   3   5
ENDBRANCH   2   3
ENDBRANCH   1   2
BRANCH   1  27
ATOM     27  C   UNL A   1      34.049  33.593  32.408  1.00  0.00     0.275 C 
BRANCH  27  28
ATOM     28  O   UNL A   1      34.764  32.360  32.196  1.00  0.00    -0.458 OA
BRANCH  28  29
ATOM     29  C   UNL A   1      35.911  32.230  32.902  1.00  0.00     0.338 C 
ATOM     30  O   UNL A   1      36.072  32.479  34.085  1.00  0.00    -0.246 OA
BRANCH  29  31
ATOM     31  C   UNL A   1      36.941  31.555  32.078  1.00  0.00     0.060 A 
ATOM     32  C   UNL A   1      37.976  30.910  32.765  1.00  0.00     0.016 A 
ATOM     33  C   UNL A   1      36.921  31.551  30.679  1.00  0.00     0.016 A 
ATOM     34  C   UNL A   1      39.014  30.297  32.060  1.00  0.00     0.010 A 
ATOM     35  C   UNL A   1      37.971  30.941  29.973  1.00  0.00     0.010 A 
ATOM     36  C   UNL A   1      39.038  30.334  30.660  1.00  0.00    -0.014 A 
BRANCH  36  37
ATOM     37  C   UNL A   1      40.235  29.826  29.939  1.00  0.00     0.031 A 
ATOM     38  C   UNL A   1      41.401  30.748  29.698  1.00  0.00     0.074 A 
ATOM     39  C   UNL A   1      40.314  28.543  29.539  1.00  0.00     0.049 A 
ATOM     40  N   UNL A   1      42.549  30.498  29.120  1.00  0.00    -0.248 NA
ATOM     41  C   UNL A   1      41.255  32.132  30.175  1.00  0.00     0.031 C 
ATOM     42  C   UNL A   1      39.278  27.530  29.732  1.00  0.00     0.029 A 
ATOM     43  N   UNL A   1      41.319  27.876  28.880  1.00  0.00    -0.354 N 
ATOM     44  C   UNL A   1      43.264  31.688  29.165  1.00  0.00     0.074 A 
ATOM     45  C   UNL A   1      42.411  32.668  29.805  1.00  0.00     0.031 C 
ATOM     46  C   UNL A   1      39.694  26.373  29.188  1.00  0.00     0.029 A 
ATOM     47  C   UNL A   1      41.016  26.568  28.591  1.00  0.00     0.049 A 
ATOM     48  H   UNL A   1      42.176  28.295  28.639  1.00  0.00     0.167 HD
ATOM     49  C   UNL A   1      44.518  31.941  28.726  1.00  0.00     0.037 A 
ATOM     50  C   UNL A   1      41.713  25.638  27.905  1.00  0.00     0.037 A 
ATOM     51  C   UNL A   1      45.382  30.972  28.103  1.00  0.00     0.049 A 
ATOM     52  C   UNL A   1      43.075  25.973  27.354  1.00  0.00     0.074 A 
ATOM     53  C   UNL A   1      46.696  31.131  27.693  1.00  0.00     0.029 A 
ATOM     54  N   UNL A   1      45.018  29.676  27.783  1.00  0.00    -0.354 N 
ATOM     55  N   UNL A   1      43.769  27.078  27.473  1.00  0.00    -0.248 NA
ATOM     56  C   UNL A   1      43.753  24.927  26.570  1.00  0.00     0.031 C 
ATOM     57  C   UNL A   1      47.107  29.950  27.071  1.00  0.00     0.029 A 
ATOM     58  C   UNL A   1      46.065  29.040  27.135  1.00  0.00     0.049 A 
ATOM     59  H   UNL A   1      44.146  29.267  27.985  1.00  0.00     0.167 HD
ATOM     60  C   UNL A   1      44.966  26.853  26.803  1.00  0.00     0.074 A 
ATOM     61  C   UNL A   1      44.915  25.502  26.289  1.00  0.00     0.031 C 
ATOM     62  C   UNL A   1      46.013  27.695  26.626  1.00  0.00     0.037 A 
BRANCH  49  63
ATOM     63  C   UNL A   1      45.046  33.334  28.883  1.00  0.00     0.057 A 
ATOM     64  C   UNL A   1      45.813  33.712  29.990  1.00  0.00     0.134 A 
ATOM     65  C   UNL A   1      44.852  34.283  27.870  1.00  0.00     0.134 A 
ATOM     66  F   UNL A   1      46.027  32.850  30.996  1.00  0.00    -0.206 F 
ATOM     67  C   UNL A   1      46.364  34.990  30.090  1.00  0.00     0.040 A 
ATOM     68  C   UNL A   1      45.414  35.556  27.949  1.00  0.00     0.040 A 
ATOM     69  F   UNL A   1      44.132  33.977  26.780  1.00  0.00    -0.206 F 
ATOM     70  C   UNL A   1      46.172  35.913  29.062  1.00  0.00     0.006 A 
ENDBRANCH  49  63
BRANCH  50  71
ATOM     71  C   UNL A   1      41.124  24.299  27.652  1.00  0.00     0.057 A 
ATOM     72  C   UNL A   1      41.597  23.157  28.307  1.00  0.00     0.134 A 
ATOM     73  C   UNL A   1      40.119  24.124  26.693  1.00  0.00     0.134 A 
ATOM     74  F   UNL A   1      42.581  23.256  29.212  1.00  0.00    -0.206 F 
ATOM     75  C   UNL A   1      41.109  21.884  28.000  1.00  0.00     0.040 A 
ATOM     76  C   UNL A   1      39.604  22.861  26.394  1.00  0.00     0.040 A 
ATOM     77  F   UNL A   1      39.628  25.178  26.025  1.00  0.00    -0.206 F 
ATOM     78  C   UNL A   1      40.108  21.736  27.042  1.00  0.00     0.006 A 
ENDBRANCH  50  71
BRANCH  62  79
ATOM     79  C   UNL A   1      47.199  27.186  25.860  1.00  0.00     0.057 A 
ATOM     80  C   UNL A   1      47.355  27.443  24.492  1.00  0.00     0.134 A 
ATOM     81  C   UNL A   1      48.225  26.485  26.507  1.00  0.00     0.134 A 
ATOM     82  F   UNL A   1      46.403  28.099  23.811  1.00  0.00    -0.206 F 
ATOM     83  C   UNL A   1      48.484  27.012  23.793  1.00  0.00     0.040 A 
ATOM     84  C   UNL A   1      49.369  26.069  25.824  1.00  0.00     0.040 A 
ATOM     85  F   UNL A   1      48.142  26.213  27.817  1.00  0.00    -0.206 F 
ATOM     86  C   UNL A   1      49.499  26.330  24.461  1.00  0.00     0.006 A 
ENDBRANCH  62  79
ENDBRANCH  36  37
ENDBRANCH  29  31
ENDBRANCH  28  29
ENDBRANCH  27  28
ENDBRANCH   1  27
TORSDOF 16
ENDMDL
MODEL 3
REMARK VINA RESULT:     -12.0      0.715      6.230
REMARK SMILES O=C(CCCc1nc(-c2ccc(Cl)c(Cl)c2)c(-c2ccccc2)o1)OCCOC(=O)c1ccc(-c2c3nc(c(-c4c(F)cccc4F)c4ccc([nH]4)c(-c4c(F)cccc4F)c4nc(c(-c5c(F)cccc5F)c5ccc2[nH]5)C=C4)C=C3)cc1
REMARK SMILES IDX 26 1 25 2 2 3 1 4 3 5 4 6 5 7 6 8 7 9 24 10 8 11 17 12 9 13
REMARK SMILES IDX 10 14 16 15 11 16 14 17 12 18 15 19 13 20 18 21 19 22 23 23
REMARK SMILES IDX 20 24 22 25 21 26 27 27 28 28 29 29 30 30 31 31 32 32 84 33
REMARK SMILES IDX 33 34 83 35 34 36 35 37 36 38 77 39 37 40 82 41 76 42 78 43
REMARK SMILES IDX 38 44 81 45 75 46 74 47 39 49 65 50 48 51 64 52 49 53 52 54
REMARK SMILES IDX 63 55 79 56 50 57 51 58 62 60 80 61 53 62 40 63 41 64 46 65
REMARK SMILES IDX 42 66 43 67 45 68 47 69 44 70 66 71 67 72 72 73 68 74 69 75
REMARK SMILES IDX 71 76 73 77 70 78 54 79 55 80 60 81 56 82 57 83 59 84 61 85
REMARK SMILES IDX 58 86
REMARK H PARENT 78 48 52 59
REMARK Flexibility Score: inf
ROOT
ATOM      1  C   UNL A   1      43.583  21.448  25.673  1.00  0.00     0.274 C 
ENDROOT
BRANCH   1   2
ATOM      2  O   UNL A   1      43.225  20.141  25.188  1.00  0.00    -0.462 OA
BRANCH   2   3
ATOM      3  C   UNL A   1      42.444  19.300  25.911  1.00  0.00     0.305 C 
ATOM      4  O   UNL A   1      42.540  18.084  25.765  1.00  0.00    -0.252 OA
BRANCH   3   5
ATOM      5  C   UNL A   1      41.354  19.892  26.780  1.00  0.00     0.123 C 
BRANCH   5   6
ATOM      6  C   UNL A   1      40.023  20.155  26.074  1.00  0.00     0.021 C 
BRANCH   6   7
ATOM      7  C   UNL A   1      39.534  21.609  26.086  1.00  0.00     0.098 C 
BRANCH   7   8
ATOM      8  C   UNL A   1      38.144  21.800  25.577  1.00  0.00     0.195 A 
ATOM      9  N   UNL A   1      37.583  22.930  25.193  1.00  0.00    -0.213 NA
ATOM     10  O   UNL A   1      37.306  20.713  25.545  1.00  0.00    -0.440 OA
ATOM     11  C   UNL A   1      36.298  22.580  24.889  1.00  0.00     0.117 A 
ATOM     12  C   UNL A   1      36.116  21.230  25.092  1.00  0.00     0.162 A 
BRANCH  11  13
ATOM     13  C   UNL A   1      35.278  23.529  24.513  1.00  0.00     0.006 A 
ATOM     14  C   UNL A   1      34.892  23.661  23.176  1.00  0.00     0.012 A 
ATOM     15  C   UNL A   1      34.675  24.330  25.491  1.00  0.00     0.032 A 
ATOM     16  C   UNL A   1      33.912  24.590  22.817  1.00  0.00     0.023 A 
ATOM     17  C   UNL A   1      33.692  25.257  25.133  1.00  0.00     0.060 A 
ATOM     18  C   UNL A   1      33.310  25.389  23.794  1.00  0.00     0.059 A 
ATOM     19  Cl  UNL A   1      32.992  26.208  26.395  1.00  0.00    -0.083 Cl
ATOM     20  Cl  UNL A   1      32.106  26.517  23.280  1.00  0.00    -0.083 Cl
ENDBRANCH  11  13
BRANCH  12  21
ATOM     21  C   UNL A   1      34.975  20.345  24.977  1.00  0.00     0.020 A 
ATOM     22  C   UNL A   1      33.675  20.844  25.102  1.00  0.00     0.012 A 
ATOM     23  C   UNL A   1      35.162  19.005  24.602  1.00  0.00     0.012 A 
ATOM     24  C   UNL A   1      32.579  20.026  24.820  1.00  0.00     0.001 A 
ATOM     25  C   UNL A   1      34.065  18.188  24.330  1.00  0.00     0.001 A 
ATOM     26  C   UNL A   1      32.775  18.702  24.428  1.00  0.00     0.000 A 
ENDBRANCH  12  21
ENDBRANCH   7   8
ENDBRANCH   6   7
ENDBRANCH   5   6
ENDBRANCH   3   5
ENDBRANCH   2   3
ENDBRANCH   1   2
BRANCH   1  27
ATOM     27  C   UNL A   1      44.031  22.386  24.548  1.00  0.00     0.275 C 
BRANCH  27  28
ATOM     28  O   UNL A   1      43.415  23.682  24.676  1.00  0.00    -0.458 OA
BRANCH  28  29
ATOM     29  C   UNL A   1      44.219  24.658  25.157  1.00  0.00     0.338 C 
ATOM     30  O   UNL A   1      45.298  25.004  24.706  1.00  0.00    -0.246 OA
BRANCH  29  31
ATOM     31  C   UNL A   1      43.525  25.404  26.233  1.00  0.00     0.060 A 
ATOM     32  C   UNL A   1      43.859  26.755  26.381  1.00  0.00     0.016 A 
ATOM     33  C   UNL A   1      42.583  24.819  27.086  1.00  0.00     0.016 A 
ATOM     34  C   UNL A   1      43.288  27.513  27.405  1.00  0.00     0.010 A 
ATOM     35  C   UNL A   1      42.017  25.581  28.121  1.00  0.00     0.010 A 
ATOM     36  C   UNL A   1      42.387  26.927  28.303  1.00  0.00    -0.014 A 
BRANCH  36  37
ATOM     37  C   UNL A   1      41.926  27.704  29.484  1.00  0.00     0.031 A 
ATOM     38  C   UNL A   1      40.709  28.584  29.362  1.00  0.00     0.074 A 
ATOM     39  C   UNL A   1      42.548  27.599  30.672  1.00  0.00     0.049 A 
ATOM     40  N   UNL A   1      40.123  29.317  30.276  1.00  0.00    -0.248 NA
ATOM     41  C   UNL A   1      40.067  28.640  28.040  1.00  0.00     0.031 C 
ATOM     42  C   UNL A   1      43.716  26.764  30.946  1.00  0.00     0.029 A 
ATOM     43  N   UNL A   1      42.281  28.208  31.875  1.00  0.00    -0.354 N 
ATOM     44  C   UNL A   1      39.044  29.919  29.642  1.00  0.00     0.074 A 
ATOM     45  C   UNL A   1      39.070  29.486  28.260  1.00  0.00     0.031 C 
ATOM     46  C   UNL A   1      44.076  26.926  32.231  1.00  0.00     0.029 A 
ATOM     47  C   UNL A   1      43.178  27.891  32.866  1.00  0.00     0.049 A 
ATOM     48  H   UNL A   1      41.519  28.815  32.014  1.00  0.00     0.167 HD
ATOM     49  C   UNL A   1      38.109  30.748  30.164  1.00  0.00     0.037 A 
ATOM     50  C   UNL A   1      43.277  28.342  34.134  1.00  0.00     0.037 A 
ATOM     51  C   UNL A   1      38.063  31.174  31.538  1.00  0.00     0.049 A 
ATOM     52  C   UNL A   1      42.270  29.329  34.664  1.00  0.00     0.074 A 
ATOM     53  C   UNL A   1      37.106  31.957  32.162  1.00  0.00     0.029 A 
ATOM     54  N   UNL A   1      39.017  30.872  32.493  1.00  0.00    -0.354 N 
ATOM     55  N   UNL A   1      41.210  29.829  34.077  1.00  0.00    -0.248 NA
ATOM     56  C   UNL A   1      42.474  29.818  36.038  1.00  0.00     0.031 C 
ATOM     57  C   UNL A   1      37.513  32.179  33.480  1.00  0.00     0.029 A 
ATOM     58  C   UNL A   1      38.698  31.495  33.689  1.00  0.00     0.049 A 
ATOM     59  H   UNL A   1      39.804  30.299  32.346  1.00  0.00     0.167 HD
ATOM     60  C   UNL A   1      40.614  30.667  35.012  1.00  0.00     0.074 A 
ATOM     61  C   UNL A   1      41.418  30.601  36.212  1.00  0.00     0.031 C 
ATOM     62  C   UNL A   1      39.499  31.427  34.883  1.00  0.00     0.037 A 
BRANCH  49  63
ATOM     63  C   UNL A   1      37.052  31.276  29.243  1.00  0.00     0.057 A 
ATOM     64  C   UNL A   1      35.933  30.514  28.890  1.00  0.00     0.134 A 
ATOM     65  C   UNL A   1      37.117  32.594  28.772  1.00  0.00     0.134 A 
ATOM     66  F   UNL A   1      35.818  29.243  29.304  1.00  0.00    -0.206 F 
ATOM     67  C   UNL A   1      34.916  31.042  28.094  1.00  0.00     0.040 A 
ATOM     68  C   UNL A   1      36.098  33.140  27.992  1.00  0.00     0.040 A 
ATOM     69  F   UNL A   1      38.163  33.377  29.083  1.00  0.00    -0.206 F 
ATOM     70  C   UNL A   1      34.994  32.363  27.651  1.00  0.00     0.006 A 
ENDBRANCH  49  63
BRANCH  50  71
ATOM     71  C   UNL A   1      44.403  27.902  34.997  1.00  0.00     0.057 A 
ATOM     72  C   UNL A   1      44.299  26.771  35.814  1.00  0.00     0.134 A 
ATOM     73  C   UNL A   1      45.585  28.648  35.074  1.00  0.00     0.134 A 
ATOM     74  F   UNL A   1      43.179  26.034  35.808  1.00  0.00    -0.206 F 
ATOM     75  C   UNL A   1      45.321  26.411  36.696  1.00  0.00     0.040 A 
ATOM     76  C   UNL A   1      46.624  28.286  35.933  1.00  0.00     0.040 A 
ATOM     77  F   UNL A   1      45.743  29.748  34.322  1.00  0.00    -0.206 F 
ATOM     78  C   UNL A   1      46.488  27.170  36.754  1.00  0.00     0.006 A 
ENDBRANCH  50  71
BRANCH  62  79
ATOM     79  C   UNL A   1      39.066  32.240  36.068  1.00  0.00     0.057 A 
ATOM     80  C   UNL A   1      39.461  33.574  36.227  1.00  0.00     0.134 A 
ATOM     81  C   UNL A   1      38.197  31.705  37.028  1.00  0.00     0.134 A 
ATOM     82  F   UNL A   1      40.301  34.143  35.349  1.00  0.00    -0.206 F 
ATOM     83  C   UNL A   1      39.015  34.344  37.303  1.00  0.00     0.040 A 
ATOM     84  C   UNL A   1      37.727  32.471  38.096  1.00  0.00     0.040 A 
ATOM     85  F   UNL A   1      37.774  30.436  36.932  1.00  0.00    -0.206 F 
ATOM     86  C   UNL A   1      38.139  33.795  38.238  1.00  0.00     0.006 A 
ENDBRANCH  62  79
ENDBRANCH  36  37
ENDBRANCH  29  31
ENDBRANCH  28  29
ENDBRANCH  27  28
ENDBRANCH   1  27
TORSDOF 16
ENDMDL
