MODEL 1
REMARK VINA RESULT:     -12.7      0.000      0.000
REMARK SMILES C/C(=N\Nc1nc(-c2ccc(Cl)cc2)cs1)c1nnn(-c2ccc(C(=O)OCCOC(=O)c3ccc(-c4c5nc(c(-c6c(F)cccc6F)c6ccc([nH]6)c(-c6c(F)cccc6F)c6nc(c(-c7c(F)cccc7F)c7ccc4[nH]7)C=C6)C=C5)cc3)cc2)c1C
REMARK SMILES IDX 27 1 25 2 26 3 24 4 21 5 22 6 88 7 23 8 87 9 20 10 17 11
REMARK SMILES IDX 18 12 89 13 19 14 90 15 2 16 1 17 3 18 4 19 5 21 6 22 16 23
REMARK SMILES IDX 7 24 15 25 8 26 9 27 14 28 10 29 13 30 11 31 12 32 28 33
REMARK SMILES IDX 29 34 30 35 31 36 32 37 33 38 34 39 86 40 35 41 85 42 36 43
REMARK SMILES IDX 37 44 38 45 79 46 39 47 84 48 78 49 80 50 40 51 83 52 77 53
REMARK SMILES IDX 76 54 41 56 67 57 50 58 66 59 51 60 54 61 65 62 81 63 52 64
REMARK SMILES IDX 53 65 64 67 82 68 55 69 42 70 43 71 48 72 44 73 45 74 47 75
REMARK SMILES IDX 49 76 46 77 68 78 69 79 74 80 70 81 71 82 73 83 75 84 72 85
REMARK SMILES IDX 56 86 57 87 62 88 58 89 59 90 61 91 63 92 60 93
REMARK H PARENT 4 20 80 55 54 66
REMARK Flexibility Score: inf
ROOT
ATOM      1  O   UNL A   1      41.888  18.982  26.003  1.00  0.00    -0.458 OA
ENDROOT
BRANCH   1   2
ATOM      2  C   UNL A   1      41.554  20.165  26.577  1.00  0.00     0.338 C 
ATOM      3  O   UNL A   1      42.276  20.862  27.277  1.00  0.00    -0.246 OA
BRANCH   2   4
ATOM      4  C   UNL A   1      40.178  20.553  26.180  1.00  0.00     0.060 A 
ATOM      5  C   UNL A   1      37.718  21.322  25.155  1.00  0.00     0.067 A 
ATOM      6  C   UNL A   1      38.125  19.994  25.002  1.00  0.00     0.029 A 
ATOM      7  C   UNL A   1      38.453  22.217  25.940  1.00  0.00     0.029 A 
ATOM      8  C   UNL A   1      39.374  19.620  25.503  1.00  0.00     0.018 A 
ATOM      9  C   UNL A   1      39.685  21.833  26.452  1.00  0.00     0.018 A 
BRANCH   5  10
ATOM     10  N   UNL A   1      36.705  21.837  24.323  1.00  0.00    -0.217 N 
ATOM     11  C   UNL A   1      34.790  22.576  23.595  1.00  0.00     0.132 A 
ATOM     12  N   UNL A   1      35.778  23.006  22.751  1.00  0.00    -0.128 NA
ATOM     13  C   UNL A   1      35.352  21.828  24.616  1.00  0.00     0.071 A 
ATOM     14  N   UNL A   1      36.948  22.634  23.262  1.00  0.00    -0.061 NA
ATOM     15  C   UNL A   1      34.760  21.297  25.874  1.00  0.00     0.069 C 
BRANCH  11  16
ATOM     16  C   UNL A   1      33.397  22.992  23.523  1.00  0.00     0.087 C 
ATOM     17  C   UNL A   1      32.500  22.061  22.749  1.00  0.00     0.071 C 
ATOM     18  N   UNL A   1      33.119  24.147  24.058  1.00  0.00    -0.176 NA
BRANCH  18  19
ATOM     19  N   UNL A   1      31.915  24.806  23.937  1.00  0.00    -0.252 N 
ATOM     20  H   UNL A   1      31.138  24.219  23.791  1.00  0.00     0.193 HD
BRANCH  19  21
ATOM     21  C   UNL A   1      31.622  26.132  23.983  1.00  0.00     0.203 A 
ATOM     22  N   UNL A   1      32.397  27.078  24.456  1.00  0.00    -0.219 NA
ATOM     23  S   UNL A   1      30.078  26.703  23.452  1.00  0.00    -0.103 S 
ATOM     24  C   UNL A   1      31.667  28.219  24.716  1.00  0.00     0.084 A 
ATOM     25  C   UNL A   1      30.375  28.204  24.237  1.00  0.00     0.097 A 
BRANCH  24  26
ATOM     26  C   UNL A   1      32.245  29.272  25.529  1.00  0.00     0.001 A 
ATOM     27  C   UNL A   1      33.494  29.077  26.131  1.00  0.00     0.012 A 
ATOM     28  C   UNL A   1      31.518  30.437  25.816  1.00  0.00     0.012 A 
ATOM     29  C   UNL A   1      34.029  30.047  26.983  1.00  0.00     0.021 A 
ATOM     30  C   UNL A   1      32.047  31.402  26.680  1.00  0.00     0.021 A 
ATOM     31  C   UNL A   1      33.303  31.205  27.252  1.00  0.00     0.041 A 
ATOM     32  Cl  UNL A   1      33.953  32.395  28.310  1.00  0.00    -0.084 Cl
ENDBRANCH  24  26
ENDBRANCH  19  21
ENDBRANCH  18  19
ENDBRANCH  11  16
ENDBRANCH   5  10
ENDBRANCH   2   4
ENDBRANCH   1   2
BRANCH   1  33
ATOM     33  C   UNL A   1      43.123  18.396  26.438  1.00  0.00     0.275 C 
BRANCH  33  34
ATOM     34  C   UNL A   1      44.168  18.452  25.332  1.00  0.00     0.275 C 
BRANCH  34  35
ATOM     35  O   UNL A   1      44.887  19.686  25.336  1.00  0.00    -0.458 OA
BRANCH  35  36
ATOM     36  C   UNL A   1      44.589  20.519  24.314  1.00  0.00     0.338 C 
ATOM     37  O   UNL A   1      44.529  20.249  23.126  1.00  0.00    -0.246 OA
BRANCH  36  38
ATOM     38  C   UNL A   1      44.580  21.898  24.804  1.00  0.00     0.060 A 
ATOM     39  C   UNL A   1      45.530  22.259  25.763  1.00  0.00     0.016 A 
ATOM     40  C   UNL A   1      43.474  22.710  24.513  1.00  0.00     0.016 A 
ATOM     41  C   UNL A   1      45.299  23.387  26.524  1.00  0.00     0.010 A 
ATOM     42  C   UNL A   1      43.238  23.824  25.283  1.00  0.00     0.010 A 
ATOM     43  C   UNL A   1      44.123  24.122  26.316  1.00  0.00    -0.014 A 
BRANCH  43  44
ATOM     44  C   UNL A   1      43.923  25.330  27.094  1.00  0.00     0.031 A 
ATOM     45  C   UNL A   1      44.972  26.350  26.836  1.00  0.00     0.074 A 
ATOM     46  C   UNL A   1      42.822  25.551  27.837  1.00  0.00     0.049 A 
ATOM     47  N   UNL A   1      45.809  26.852  27.680  1.00  0.00    -0.248 NA
ATOM     48  C   UNL A   1      45.226  26.737  25.437  1.00  0.00     0.031 C 
ATOM     49  C   UNL A   1      41.607  24.737  27.913  1.00  0.00     0.029 A 
ATOM     50  N   UNL A   1      42.512  26.628  28.609  1.00  0.00    -0.354 N 
ATOM     51  C   UNL A   1      46.565  27.772  26.958  1.00  0.00     0.074 A 
ATOM     52  C   UNL A   1      46.290  27.527  25.569  1.00  0.00     0.031 C 
ATOM     53  C   UNL A   1      40.621  25.460  28.493  1.00  0.00     0.029 A 
ATOM     54  C   UNL A   1      41.165  26.733  28.936  1.00  0.00     0.049 A 
ATOM     55  H   UNL A   1      43.186  27.278  28.913  1.00  0.00     0.167 HD
ATOM     56  C   UNL A   1      47.145  28.831  27.581  1.00  0.00     0.037 A 
ATOM     57  C   UNL A   1      40.545  27.821  29.463  1.00  0.00     0.037 A 
ATOM     58  C   UNL A   1      47.292  28.578  28.993  1.00  0.00     0.049 A 
ATOM     59  C   UNL A   1      41.594  28.707  30.024  1.00  0.00     0.074 A 
ATOM     60  C   UNL A   1      47.931  27.609  29.743  1.00  0.00     0.029 A 
ATOM     61  N   UNL A   1      46.404  29.184  29.847  1.00  0.00    -0.354 N 
ATOM     62  N   UNL A   1      42.292  28.431  31.089  1.00  0.00    -0.248 NA
ATOM     63  C   UNL A   1      42.184  29.698  29.134  1.00  0.00     0.031 C 
ATOM     64  C   UNL A   1      47.062  27.362  30.846  1.00  0.00     0.029 A 
ATOM     65  C   UNL A   1      45.984  28.241  30.747  1.00  0.00     0.049 A 
ATOM     66  H   UNL A   1      46.120  30.127  29.818  1.00  0.00     0.167 HD
ATOM     67  C   UNL A   1      43.577  28.846  30.782  1.00  0.00     0.074 A 
ATOM     68  C   UNL A   1      43.434  29.699  29.604  1.00  0.00     0.031 C 
ATOM     69  C   UNL A   1      44.664  28.228  31.330  1.00  0.00     0.037 A 
BRANCH  56  70
ATOM     70  C   UNL A   1      47.170  30.229  27.002  1.00  0.00     0.057 A 
ATOM     71  C   UNL A   1      48.365  30.967  27.078  1.00  0.00     0.134 A 
ATOM     72  C   UNL A   1      46.025  30.986  26.675  1.00  0.00     0.134 A 
ATOM     73  F   UNL A   1      49.529  30.368  27.376  1.00  0.00    -0.206 F 
ATOM     74  C   UNL A   1      48.398  32.361  26.953  1.00  0.00     0.040 A 
ATOM     75  C   UNL A   1      46.056  32.371  26.499  1.00  0.00     0.040 A 
ATOM     76  F   UNL A   1      44.799  30.457  26.602  1.00  0.00    -0.206 F 
ATOM     77  C   UNL A   1      47.236  33.070  26.678  1.00  0.00     0.006 A 
ENDBRANCH  56  70
BRANCH  57  78
ATOM     78  C   UNL A   1      39.158  28.305  29.259  1.00  0.00     0.057 A 
ATOM     79  C   UNL A   1      38.247  28.362  30.326  1.00  0.00     0.134 A 
ATOM     80  C   UNL A   1      38.777  28.988  28.092  1.00  0.00     0.134 A 
ATOM     81  F   UNL A   1      38.533  27.775  31.498  1.00  0.00    -0.206 F 
ATOM     82  C   UNL A   1      37.048  29.083  30.249  1.00  0.00     0.040 A 
ATOM     83  C   UNL A   1      37.578  29.705  27.999  1.00  0.00     0.040 A 
ATOM     84  F   UNL A   1      39.595  29.063  27.033  1.00  0.00    -0.206 F 
ATOM     85  C   UNL A   1      36.717  29.769  29.086  1.00  0.00     0.006 A 
ENDBRANCH  57  78
BRANCH  69  86
ATOM     86  C   UNL A   1      44.440  27.285  32.478  1.00  0.00     0.057 A 
ATOM     87  C   UNL A   1      44.236  25.903  32.346  1.00  0.00     0.134 A 
ATOM     88  C   UNL A   1      44.584  27.782  33.779  1.00  0.00     0.134 A 
ATOM     89  F   UNL A   1      44.187  25.317  31.142  1.00  0.00    -0.206 F 
ATOM     90  C   UNL A   1      44.134  25.065  33.461  1.00  0.00     0.040 A 
ATOM     91  C   UNL A   1      44.522  26.951  34.898  1.00  0.00     0.040 A 
ATOM     92  F   UNL A   1      44.834  29.086  33.980  1.00  0.00    -0.206 F 
ATOM     93  C   UNL A   1      44.285  25.589  34.742  1.00  0.00     0.006 A 
ENDBRANCH  69  86
ENDBRANCH  43  44
ENDBRANCH  36  38
ENDBRANCH  35  36
ENDBRANCH  34  35
ENDBRANCH  33  34
ENDBRANCH   1  33
TORSDOF 16
ENDMDL
MODEL 2
REMARK VINA RESULT:     -12.7      1.387      1.799
REMARK SMILES C/C(=N\Nc1nc(-c2ccc(Cl)cc2)cs1)c1nnn(-c2ccc(C(=O)OCCOC(=O)c3ccc(-c4c5nc(c(-c6c(F)cccc6F)c6ccc([nH]6)c(-c6c(F)cccc6F)c6nc(c(-c7c(F)cccc7F)c7ccc4[nH]7)C=C6)C=C5)cc3)cc2)c1C
REMARK SMILES IDX 27 1 25 2 26 3 24 4 21 5 22 6 88 7 23 8 87 9 20 10 17 11
REMARK SMILES IDX 18 12 89 13 19 14 90 15 2 16 1 17 3 18 4 19 5 21 6 22 16 23
REMARK SMILES IDX 7 24 15 25 8 26 9 27 14 28 10 29 13 30 11 31 12 32 28 33
REMARK SMILES IDX 29 34 30 35 31 36 32 37 33 38 34 39 86 40 35 41 85 42 36 43
REMARK SMILES IDX 37 44 38 45 79 46 39 47 84 48 78 49 80 50 40 51 83 52 77 53
REMARK SMILES IDX 76 54 41 56 67 57 50 58 66 59 51 60 54 61 65 62 81 63 52 64
REMARK SMILES IDX 53 65 64 67 82 68 55 69 42 70 43 71 48 72 44 73 45 74 47 75
REMARK SMILES IDX 49 76 46 77 68 78 69 79 74 80 70 81 71 82 73 83 75 84 72 85
REMARK SMILES IDX 56 86 57 87 62 88 58 89 59 90 61 91 63 92 60 93
REMARK H PARENT 4 20 80 55 54 66
REMARK Flexibility Score: inf
ROOT
ATOM      1  O   UNL A   1      41.929  19.409  25.518  1.00  0.00    -0.458 OA
ENDROOT
BRANCH   1   2
ATOM      2  C   UNL A   1      41.424  20.229  26.474  1.00  0.00     0.338 C 
ATOM      3  O   UNL A   1      42.009  20.622  27.475  1.00  0.00    -0.246 OA
BRANCH   2   4
ATOM      4  C   UNL A   1      40.051  20.655  26.108  1.00  0.00     0.060 A 
ATOM      5  C   UNL A   1      37.590  21.483  25.135  1.00  0.00     0.067 A 
ATOM      6  C   UNL A   1      37.946  20.138  25.007  1.00  0.00     0.029 A 
ATOM      7  C   UNL A   1      38.379  22.372  25.872  1.00  0.00     0.029 A 
ATOM      8  C   UNL A   1      39.195  19.733  25.482  1.00  0.00     0.018 A 
ATOM      9  C   UNL A   1      39.612  21.959  26.357  1.00  0.00     0.018 A 
BRANCH   5  10
ATOM     10  N   UNL A   1      36.571  22.011  24.318  1.00  0.00    -0.217 N 
ATOM     11  C   UNL A   1      34.649  22.755  23.614  1.00  0.00     0.132 A 
ATOM     12  N   UNL A   1      35.631  23.212  22.778  1.00  0.00    -0.128 NA
ATOM     13  C   UNL A   1      35.219  21.987  24.616  1.00  0.00     0.071 A 
ATOM     14  N   UNL A   1      36.805  22.834  23.276  1.00  0.00    -0.061 NA
ATOM     15  C   UNL A   1      34.634  21.422  25.863  1.00  0.00     0.069 C 
BRANCH  11  16
ATOM     16  C   UNL A   1      33.252  23.164  23.558  1.00  0.00     0.087 C 
ATOM     17  C   UNL A   1      32.324  22.152  22.937  1.00  0.00     0.071 C 
ATOM     18  N   UNL A   1      32.996  24.374  23.967  1.00  0.00    -0.176 NA
BRANCH  18  19
ATOM     19  N   UNL A   1      31.786  25.018  23.824  1.00  0.00    -0.252 N 
ATOM     20  H   UNL A   1      31.107  24.510  23.323  1.00  0.00     0.193 HD
BRANCH  19  21
ATOM     21  C   UNL A   1      31.374  26.237  24.258  1.00  0.00     0.203 A 
ATOM     22  N   UNL A   1      30.531  27.032  23.645  1.00  0.00    -0.219 NA
ATOM     23  S   UNL A   1      32.025  26.910  25.713  1.00  0.00    -0.103 S 
ATOM     24  C   UNL A   1      30.633  28.318  24.133  1.00  0.00     0.084 A 
ATOM     25  C   UNL A   1      31.405  28.451  25.266  1.00  0.00     0.097 A 
BRANCH  24  26
ATOM     26  C   UNL A   1      30.033  29.415  23.396  1.00  0.00     0.001 A 
ATOM     27  C   UNL A   1      29.809  30.640  24.037  1.00  0.00     0.012 A 
ATOM     28  C   UNL A   1      29.566  29.229  22.086  1.00  0.00     0.012 A 
ATOM     29  C   UNL A   1      29.157  31.680  23.368  1.00  0.00     0.021 A 
ATOM     30  C   UNL A   1      28.903  30.265  21.422  1.00  0.00     0.021 A 
ATOM     31  C   UNL A   1      28.709  31.487  22.063  1.00  0.00     0.041 A 
ATOM     32  Cl  UNL A   1      27.896  32.762  21.242  1.00  0.00    -0.084 Cl
ENDBRANCH  24  26
ENDBRANCH  19  21
ENDBRANCH  18  19
ENDBRANCH  11  16
ENDBRANCH   5  10
ENDBRANCH   2   4
ENDBRANCH   1   2
BRANCH   1  33
ATOM     33  C   UNL A   1      42.909  18.457  25.955  1.00  0.00     0.275 C 
BRANCH  33  34
ATOM     34  C   UNL A   1      44.244  18.698  25.263  1.00  0.00     0.275 C 
BRANCH  34  35
ATOM     35  O   UNL A   1      44.724  20.026  25.473  1.00  0.00    -0.458 OA
BRANCH  35  36
ATOM     36  C   UNL A   1      44.622  20.841  24.400  1.00  0.00     0.338 C 
ATOM     37  O   UNL A   1      44.772  20.550  23.225  1.00  0.00    -0.246 OA
BRANCH  36  38
ATOM     38  C   UNL A   1      44.540  22.230  24.856  1.00  0.00     0.060 A 
ATOM     39  C   UNL A   1      45.527  22.692  25.730  1.00  0.00     0.016 A 
ATOM     40  C   UNL A   1      43.353  22.944  24.633  1.00  0.00     0.016 A 
ATOM     41  C   UNL A   1      45.264  23.821  26.480  1.00  0.00     0.010 A 
ATOM     42  C   UNL A   1      43.088  24.059  25.392  1.00  0.00     0.010 A 
ATOM     43  C   UNL A   1      44.021  24.455  26.346  1.00  0.00    -0.014 A 
BRANCH  43  44
ATOM     44  C   UNL A   1      43.785  25.666  27.109  1.00  0.00     0.031 A 
ATOM     45  C   UNL A   1      44.803  26.714  26.840  1.00  0.00     0.074 A 
ATOM     46  C   UNL A   1      42.676  25.864  27.848  1.00  0.00     0.049 A 
ATOM     47  N   UNL A   1      45.624  27.251  27.678  1.00  0.00    -0.248 NA
ATOM     48  C   UNL A   1      45.048  27.090  25.436  1.00  0.00     0.031 C 
ATOM     49  C   UNL A   1      41.485  25.016  27.933  1.00  0.00     0.029 A 
ATOM     50  N   UNL A   1      42.333  26.941  28.607  1.00  0.00    -0.354 N 
ATOM     51  C   UNL A   1      46.353  28.184  26.945  1.00  0.00     0.074 A 
ATOM     52  C   UNL A   1      46.087  27.913  25.559  1.00  0.00     0.031 C 
ATOM     53  C   UNL A   1      40.478  25.717  28.503  1.00  0.00     0.029 A 
ATOM     54  C   UNL A   1      40.983  27.010  28.931  1.00  0.00     0.049 A 
ATOM     55  H   UNL A   1      42.988  27.615  28.903  1.00  0.00     0.167 HD
ATOM     56  C   UNL A   1      46.901  29.268  27.556  1.00  0.00     0.037 A 
ATOM     57  C   UNL A   1      40.331  28.086  29.443  1.00  0.00     0.037 A 
ATOM     58  C   UNL A   1      47.053  29.036  28.971  1.00  0.00     0.049 A 
ATOM     59  C   UNL A   1      41.353  29.010  29.994  1.00  0.00     0.074 A 
ATOM     60  C   UNL A   1      47.719  28.096  29.734  1.00  0.00     0.029 A 
ATOM     61  N   UNL A   1      46.146  29.627  29.816  1.00  0.00    -0.354 N 
ATOM     62  N   UNL A   1      42.056  28.767  31.063  1.00  0.00    -0.248 NA
ATOM     63  C   UNL A   1      41.914  30.007  29.092  1.00  0.00     0.031 C 
ATOM     64  C   UNL A   1      46.856  27.837  30.838  1.00  0.00     0.029 A 
ATOM     65  C   UNL A   1      45.753  28.682  30.727  1.00  0.00     0.049 A 
ATOM     66  H   UNL A   1      45.835  30.560  29.775  1.00  0.00     0.167 HD
ATOM     67  C   UNL A   1      43.330  29.217  30.752  1.00  0.00     0.074 A 
ATOM     68  C   UNL A   1      43.163  30.050  29.564  1.00  0.00     0.031 C 
ATOM     69  C   UNL A   1      44.434  28.638  31.309  1.00  0.00     0.037 A 
BRANCH  56  70
ATOM     70  C   UNL A   1      46.886  30.657  26.959  1.00  0.00     0.057 A 
ATOM     71  C   UNL A   1      48.066  31.422  27.003  1.00  0.00     0.134 A 
ATOM     72  C   UNL A   1      45.719  31.386  26.644  1.00  0.00     0.134 A 
ATOM     73  F   UNL A   1      49.247  30.852  27.286  1.00  0.00    -0.206 F 
ATOM     74  C   UNL A   1      48.066  32.815  26.861  1.00  0.00     0.040 A 
ATOM     75  C   UNL A   1      45.717  32.769  26.450  1.00  0.00     0.040 A 
ATOM     76  F   UNL A   1      44.503  30.831  26.601  1.00  0.00    -0.206 F 
ATOM     77  C   UNL A   1      46.885  33.495  26.599  1.00  0.00     0.006 A 
ENDBRANCH  56  70
BRANCH  57  78
ATOM     78  C   UNL A   1      38.930  28.526  29.232  1.00  0.00     0.057 A 
ATOM     79  C   UNL A   1      38.029  28.610  30.305  1.00  0.00     0.134 A 
ATOM     80  C   UNL A   1      38.522  29.145  28.038  1.00  0.00     0.134 A 
ATOM     81  F   UNL A   1      38.340  28.085  31.499  1.00  0.00    -0.206 F 
ATOM     82  C   UNL A   1      36.811  29.298  30.207  1.00  0.00     0.040 A 
ATOM     83  C   UNL A   1      37.305  29.827  27.924  1.00  0.00     0.040 A 
ATOM     84  F   UNL A   1      39.328  29.191  26.969  1.00  0.00    -0.206 F 
ATOM     85  C   UNL A   1      36.452  29.921  29.017  1.00  0.00     0.006 A 
ENDBRANCH  57  78
BRANCH  69  86
ATOM     86  C   UNL A   1      44.236  27.703  32.469  1.00  0.00     0.057 A 
ATOM     87  C   UNL A   1      44.051  26.317  32.352  1.00  0.00     0.134 A 
ATOM     88  C   UNL A   1      44.385  28.215  33.763  1.00  0.00     0.134 A 
ATOM     89  F   UNL A   1      43.999  25.719  31.154  1.00  0.00    -0.206 F 
ATOM     90  C   UNL A   1      43.974  25.489  33.477  1.00  0.00     0.040 A 
ATOM     91  C   UNL A   1      44.347  27.395  34.891  1.00  0.00     0.040 A 
ATOM     92  F   UNL A   1      44.617  29.525  33.949  1.00  0.00    -0.206 F 
ATOM     93  C   UNL A   1      44.130  26.028  34.751  1.00  0.00     0.006 A 
ENDBRANCH  69  86
ENDBRANCH  43  44
ENDBRANCH  36  38
ENDBRANCH  35  36
ENDBRANCH  34  35
ENDBRANCH  33  34
ENDBRANCH   1  33
TORSDOF 16
ENDMDL
MODEL 3
REMARK VINA RESULT:     -12.6      5.508     10.805
REMARK SMILES C/C(=N\Nc1nc(-c2ccc(Cl)cc2)cs1)c1nnn(-c2ccc(C(=O)OCCOC(=O)c3ccc(-c4c5nc(c(-c6c(F)cccc6F)c6ccc([nH]6)c(-c6c(F)cccc6F)c6nc(c(-c7c(F)cccc7F)c7ccc4[nH]7)C=C6)C=C5)cc3)cc2)c1C
REMARK SMILES IDX 27 1 25 2 26 3 24 4 21 5 22 6 88 7 23 8 87 9 20 10 17 11
REMARK SMILES IDX 18 12 89 13 19 14 90 15 2 16 1 17 3 18 4 19 5 21 6 22 16 23
REMARK SMILES IDX 7 24 15 25 8 26 9 27 14 28 10 29 13 30 11 31 12 32 28 33
REMARK SMILES IDX 29 34 30 35 31 36 32 37 33 38 34 39 86 40 35 41 85 42 36 43
REMARK SMILES IDX 37 44 38 45 79 46 39 47 84 48 78 49 80 50 40 51 83 52 77 53
REMARK SMILES IDX 76 54 41 56 67 57 50 58 66 59 51 60 54 61 65 62 81 63 52 64
REMARK SMILES IDX 53 65 64 67 82 68 55 69 42 70 43 71 48 72 44 73 45 74 47 75
REMARK SMILES IDX 49 76 46 77 68 78 69 79 74 80 70 81 71 82 73 83 75 84 72 85
REMARK SMILES IDX 56 86 57 87 62 88 58 89 59 90 61 91 63 92 60 93
REMARK H PARENT 4 20 80 55 54 66
REMARK Flexibility Score: inf
ROOT
ATOM      1  O   UNL A   1      32.738  34.615  28.638  1.00  0.00    -0.458 OA
ENDROOT
BRANCH   1   2
ATOM      2  C   UNL A   1      33.815  33.802  28.493  1.00  0.00     0.338 C 
ATOM      3  O   UNL A   1      34.947  34.019  28.903  1.00  0.00    -0.246 OA
BRANCH   2   4
ATOM      4  C   UNL A   1      33.417  32.546  27.810  1.00  0.00     0.060 A 
ATOM      5  C   UNL A   1      32.497  30.142  26.779  1.00  0.00     0.067 A 
ATOM      6  C   UNL A   1      31.717  31.288  26.611  1.00  0.00     0.029 A 
ATOM      7  C   UNL A   1      33.786  30.218  27.317  1.00  0.00     0.029 A 
ATOM      8  C   UNL A   1      32.178  32.491  27.150  1.00  0.00     0.018 A 
ATOM      9  C   UNL A   1      34.247  31.421  27.835  1.00  0.00     0.018 A 
BRANCH   5  10
ATOM     10  N   UNL A   1      31.903  28.872  26.643  1.00  0.00    -0.217 N 
ATOM     11  C   UNL A   1      31.292  26.938  25.849  1.00  0.00     0.132 A 
ATOM     12  N   UNL A   1      31.144  26.922  27.209  1.00  0.00    -0.128 NA
ATOM     13  C   UNL A   1      31.782  28.172  25.455  1.00  0.00     0.071 A 
ATOM     14  N   UNL A   1      31.614  28.070  27.689  1.00  0.00    -0.061 NA
ATOM     15  C   UNL A   1      32.289  28.643  24.137  1.00  0.00     0.069 C 
BRANCH  11  16
ATOM     16  C   UNL A   1      31.129  25.780  24.981  1.00  0.00     0.087 C 
ATOM     17  C   UNL A   1      29.852  25.766  24.181  1.00  0.00     0.071 C 
ATOM     18  N   UNL A   1      32.056  24.869  25.068  1.00  0.00    -0.176 NA
BRANCH  18  19
ATOM     19  N   UNL A   1      31.998  23.623  24.481  1.00  0.00    -0.252 N 
ATOM     20  H   UNL A   1      31.135  23.408  24.059  1.00  0.00     0.193 HD
BRANCH  19  21
ATOM     21  C   UNL A   1      32.934  22.643  24.389  1.00  0.00     0.203 A 
ATOM     22  N   UNL A   1      32.698  21.357  24.279  1.00  0.00    -0.219 NA
ATOM     23  S   UNL A   1      34.617  23.031  24.487  1.00  0.00    -0.103 S 
ATOM     24  C   UNL A   1      33.823  20.628  24.602  1.00  0.00     0.084 A 
ATOM     25  C   UNL A   1      34.974  21.369  24.751  1.00  0.00     0.097 A 
BRANCH  24  26
ATOM     26  C   UNL A   1      33.707  19.204  24.855  1.00  0.00     0.001 A 
ATOM     27  C   UNL A   1      34.623  18.319  24.273  1.00  0.00     0.012 A 
ATOM     28  C   UNL A   1      32.620  18.690  25.578  1.00  0.00     0.012 A 
ATOM     29  C   UNL A   1      34.477  16.939  24.437  1.00  0.00     0.021 A 
ATOM     30  C   UNL A   1      32.467  17.308  25.732  1.00  0.00     0.021 A 
ATOM     31  C   UNL A   1      33.401  16.441  25.168  1.00  0.00     0.041 A 
ATOM     32  Cl  UNL A   1      33.213  14.742  25.363  1.00  0.00    -0.084 Cl
ENDBRANCH  24  26
ENDBRANCH  19  21
ENDBRANCH  18  19
ENDBRANCH  11  16
ENDBRANCH   5  10
ENDBRANCH   2   4
ENDBRANCH   1   2
BRANCH   1  33
ATOM     33  C   UNL A   1      33.012  35.959  29.056  1.00  0.00     0.275 C 
BRANCH  33  34
ATOM     34  C   UNL A   1      32.533  36.191  30.482  1.00  0.00     0.275 C 
BRANCH  34  35
ATOM     35  O   UNL A   1      32.758  35.053  31.314  1.00  0.00    -0.458 OA
BRANCH  35  36
ATOM     36  C   UNL A   1      33.321  35.329  32.512  1.00  0.00     0.338 C 
ATOM     37  O   UNL A   1      33.020  36.219  33.290  1.00  0.00    -0.246 OA
BRANCH  36  38
ATOM     38  C   UNL A   1      34.545  34.542  32.661  1.00  0.00     0.060 A 
ATOM     39  C   UNL A   1      35.748  35.229  32.844  1.00  0.00     0.016 A 
ATOM     40  C   UNL A   1      34.512  33.176  32.343  1.00  0.00     0.016 A 
ATOM     41  C   UNL A   1      36.930  34.565  32.582  1.00  0.00     0.010 A 
ATOM     42  C   UNL A   1      35.690  32.522  32.067  1.00  0.00     0.010 A 
ATOM     43  C   UNL A   1      36.883  33.237  32.137  1.00  0.00    -0.014 A 
BRANCH  43  44
ATOM     44  C   UNL A   1      38.138  32.544  31.913  1.00  0.00     0.031 A 
ATOM     45  C   UNL A   1      38.947  32.423  33.153  1.00  0.00     0.074 A 
ATOM     46  C   UNL A   1      38.448  31.944  30.748  1.00  0.00     0.049 A 
ATOM     47  N   UNL A   1      40.124  32.901  33.377  1.00  0.00    -0.248 NA
ATOM     48  C   UNL A   1      38.301  31.838  34.341  1.00  0.00     0.031 C 
ATOM     49  C   UNL A   1      37.591  31.755  29.575  1.00  0.00     0.029 A 
ATOM     50  N   UNL A   1      39.580  31.269  30.406  1.00  0.00    -0.354 N 
ATOM     51  C   UNL A   1      40.452  32.502  34.670  1.00  0.00     0.074 A 
ATOM     52  C   UNL A   1      39.239  32.018  35.269  1.00  0.00     0.031 C 
ATOM     53  C   UNL A   1      38.147  30.826  28.762  1.00  0.00     0.029 A 
ATOM     54  C   UNL A   1      39.447  30.449  29.292  1.00  0.00     0.049 A 
ATOM     55  H   UNL A   1      40.424  31.356  30.906  1.00  0.00     0.167 HD
ATOM     56  C   UNL A   1      41.751  32.356  35.041  1.00  0.00     0.037 A 
ATOM     57  C   UNL A   1      40.315  29.485  28.892  1.00  0.00     0.037 A 
ATOM     58  C   UNL A   1      42.620  33.110  34.170  1.00  0.00     0.049 A 
ATOM     59  C   UNL A   1      41.610  29.737  29.572  1.00  0.00     0.074 A 
ATOM     60  C   UNL A   1      42.724  34.443  33.821  1.00  0.00     0.029 A 
ATOM     61  N   UNL A   1      43.322  32.418  33.214  1.00  0.00    -0.354 N 
ATOM     62  N   UNL A   1      42.397  30.738  29.297  1.00  0.00    -0.248 NA
ATOM     63  C   UNL A   1      41.813  29.125  30.878  1.00  0.00     0.031 C 
ATOM     64  C   UNL A   1      43.057  34.437  32.435  1.00  0.00     0.029 A 
ATOM     65  C   UNL A   1      43.210  33.109  32.037  1.00  0.00     0.049 A 
ATOM     66  H   UNL A   1      43.818  31.578  33.350  1.00  0.00     0.167 HD
ATOM     67  C   UNL A   1      42.859  31.167  30.531  1.00  0.00     0.074 A 
ATOM     68  C   UNL A   1      42.539  30.084  31.458  1.00  0.00     0.031 C 
ATOM     69  C   UNL A   1      43.189  32.475  30.741  1.00  0.00     0.037 A 
BRANCH  56  70
ATOM     70  C   UNL A   1      42.253  31.211  35.892  1.00  0.00     0.057 A 
ATOM     71  C   UNL A   1      43.191  31.486  36.905  1.00  0.00     0.134 A 
ATOM     72  C   UNL A   1      42.114  29.845  35.568  1.00  0.00     0.134 A 
ATOM     73  F   UNL A   1      43.417  32.744  37.313  1.00  0.00    -0.206 F 
ATOM     74  C   UNL A   1      44.005  30.495  37.465  1.00  0.00     0.040 A 
ATOM     75  C   UNL A   1      42.887  28.842  36.157  1.00  0.00     0.040 A 
ATOM     76  F   UNL A   1      41.301  29.405  34.601  1.00  0.00    -0.206 F 
ATOM     77  C   UNL A   1      43.865  29.169  37.080  1.00  0.00     0.006 A 
ENDBRANCH  56  70
BRANCH  57  78
ATOM     78  C   UNL A   1      40.043  28.196  28.210  1.00  0.00     0.057 A 
ATOM     79  C   UNL A   1      40.635  27.892  26.974  1.00  0.00     0.134 A 
ATOM     80  C   UNL A   1      39.433  27.121  28.879  1.00  0.00     0.134 A 
ATOM     81  F   UNL A   1      41.277  28.839  26.275  1.00  0.00    -0.206 F 
ATOM     82  C   UNL A   1      40.649  26.592  26.451  1.00  0.00     0.040 A 
ATOM     83  C   UNL A   1      39.433  25.819  28.363  1.00  0.00     0.040 A 
ATOM     84  F   UNL A   1      38.897  27.275  30.097  1.00  0.00    -0.206 F 
ATOM     85  C   UNL A   1      40.058  25.547  27.153  1.00  0.00     0.006 A 
ENDBRANCH  57  78
BRANCH  69  86
ATOM     86  C   UNL A   1      43.312  33.376  29.545  1.00  0.00     0.057 A 
ATOM     87  C   UNL A   1      42.302  34.234  29.085  1.00  0.00     0.134 A 
ATOM     88  C   UNL A   1      44.562  33.481  28.923  1.00  0.00     0.134 A 
ATOM     89  F   UNL A   1      41.102  34.280  29.681  1.00  0.00    -0.206 F 
ATOM     90  C   UNL A   1      42.516  35.121  28.025  1.00  0.00     0.040 A 
ATOM     91  C   UNL A   1      44.800  34.389  27.890  1.00  0.00     0.040 A 
ATOM     92  F   UNL A   1      45.592  32.730  29.345  1.00  0.00    -0.206 F 
ATOM     93  C   UNL A   1      43.771  35.205  27.430  1.00  0.00     0.006 A 
ENDBRANCH  69  86
ENDBRANCH  43  44
ENDBRANCH  36  38
ENDBRANCH  35  36
ENDBRANCH  34  35
ENDBRANCH  33  34
ENDBRANCH   1  33
TORSDOF 16
ENDMDL
