MODEL 1
REMARK VINA RESULT:     -13.9      0.000      0.000
REMARK SMILES O=C(OCCOC(=O)c1ccc(-c2c3nc(c(-c4c(F)cccc4F)c4ccc([nH]4)c(-c4c(F)cccc4F)c4nc(c(-c5c(F)cccc5F)c5ccc2[nH]5)C=C4)C=C3)cc1)C1=Cc2cc(Cl)cc(Cl)c2O[C@@H]1C(F)(F)F
REMARK SMILES IDX 5 1 4 2 3 3 2 4 1 5 63 6 64 7 74 8 65 9 73 10 66 11 72 12
REMARK SMILES IDX 67 13 70 14 68 15 69 16 71 17 75 18 76 19 77 20 78 21 6 22
REMARK SMILES IDX 7 23 8 24 9 25 10 26 62 27 11 28 61 29 12 30 13 31 14 32
REMARK SMILES IDX 55 33 15 34 60 35 54 36 56 37 16 38 59 39 53 40 52 41 17 43
REMARK SMILES IDX 43 44 26 45 42 46 27 47 30 48 41 49 57 50 28 51 29 52 40 54
REMARK SMILES IDX 58 55 31 56 18 57 19 58 24 59 20 60 21 61 23 62 25 63 22 64
REMARK SMILES IDX 44 65 45 66 50 67 46 68 47 69 49 70 51 71 48 72 32 73 33 74
REMARK SMILES IDX 38 75 34 76 35 77 37 78 39 79 36 80
REMARK H PARENT 56 42 30 53
REMARK Flexibility Score: inf
ROOT
ATOM      1  C   UNL A   1      31.402  31.999  26.788  1.00  0.00     0.275 C 
ENDROOT
BRANCH   1   2
ATOM      2  C   UNL A   1      31.948  30.070  25.977  1.00  0.00     0.275 C 
BRANCH   2   3
ATOM      3  O   UNL A   1      32.234  28.773  26.801  1.00  0.00    -0.459 OA
BRANCH   3   4
ATOM      4  C   UNL A   1      31.622  27.688  26.315  1.00  0.00     0.338 C 
ATOM      5  O   UNL A   1      30.863  26.914  26.840  1.00  0.00    -0.246 OA
BRANCH   4   6
ATOM      6  C   UNL A   1      32.466  27.579  25.154  1.00  0.00     0.087 C 
ATOM      7  C   UNL A   1      33.721  26.865  25.459  1.00  0.00     0.027 C 
ATOM      8  C   UNL A   1      31.090  26.950  23.952  1.00  0.00     0.316 C 
ATOM      9  C   UNL A   1      34.077  25.195  24.868  1.00  0.00     0.020 A 
ATOM     10  O   UNL A   1      31.434  25.153  23.355  1.00  0.00    -0.474 OA
ATOM     11  C   UNL A   1      35.172  24.553  25.376  1.00  0.00     0.032 A 
ATOM     12  C   UNL A   1      32.946  24.293  23.904  1.00  0.00     0.146 A 
ATOM     13  C   UNL A   1      35.256  23.188  25.056  1.00  0.00     0.043 A 
ATOM     14  C   UNL A   1      33.127  22.962  23.643  1.00  0.00     0.085 A 
ATOM     15  Cl  UNL A   1      36.601  22.323  25.735  1.00  0.00    -0.084 Cl
ATOM     16  C   UNL A   1      34.301  22.439  24.245  1.00  0.00     0.045 A 
ATOM     17  Cl  UNL A   1      32.064  21.977  22.762  1.00  0.00    -0.080 Cl
BRANCH   8  18
ATOM     18  C   UNL A   1      30.824  28.305  23.199  1.00  0.00     0.430 C 
ATOM     19  F   UNL A   1      31.964  28.912  22.841  1.00  0.00    -0.167 F 
ATOM     20  F   UNL A   1      30.212  28.019  22.007  1.00  0.00    -0.167 F 
ATOM     21  F   UNL A   1      29.966  29.170  23.764  1.00  0.00    -0.167 F 
ENDBRANCH   8  18
ENDBRANCH   4   6
ENDBRANCH   3   4
ENDBRANCH   2   3
ENDBRANCH   1   2
BRANCH   1  22
ATOM     22  O   UNL A   1      32.473  33.311  27.078  1.00  0.00    -0.458 OA
BRANCH  22  23
ATOM     23  C   UNL A   1      33.249  33.919  28.032  1.00  0.00     0.338 C 
ATOM     24  O   UNL A   1      32.956  34.742  28.879  1.00  0.00    -0.246 OA
BRANCH  23  25
ATOM     25  C   UNL A   1      34.480  33.077  28.122  1.00  0.00     0.060 A 
ATOM     26  C   UNL A   1      35.714  33.720  28.335  1.00  0.00     0.016 A 
ATOM     27  C   UNL A   1      34.351  31.715  28.390  1.00  0.00     0.016 A 
ATOM     28  C   UNL A   1      36.731  33.055  29.041  1.00  0.00     0.010 A 
ATOM     29  C   UNL A   1      35.375  31.049  29.065  1.00  0.00     0.010 A 
ATOM     30  C   UNL A   1      36.542  31.730  29.461  1.00  0.00    -0.014 A 
BRANCH  30  31
ATOM     31  C   UNL A   1      37.648  30.942  30.062  1.00  0.00     0.031 A 
ATOM     32  C   UNL A   1      37.939  31.247  31.500  1.00  0.00     0.074 A 
ATOM     33  C   UNL A   1      38.434  30.089  29.373  1.00  0.00     0.049 A 
ATOM     34  N   UNL A   1      38.925  30.855  32.259  1.00  0.00    -0.248 NA
ATOM     35  C   UNL A   1      36.992  32.169  32.154  1.00  0.00     0.031 C 
ATOM     36  C   UNL A   1      38.271  29.703  27.971  1.00  0.00     0.029 A 
ATOM     37  N   UNL A   1      39.561  29.403  29.772  1.00  0.00    -0.354 N 
ATOM     38  C   UNL A   1      38.719  31.492  33.474  1.00  0.00     0.074 A 
ATOM     39  C   UNL A   1      37.562  32.343  33.330  1.00  0.00     0.031 C 
ATOM     40  C   UNL A   1      39.270  28.863  27.626  1.00  0.00     0.029 A 
ATOM     41  C   UNL A   1      40.157  28.665  28.771  1.00  0.00     0.049 A 
ATOM     42  H   UNL A   1      39.912  29.438  30.691  1.00  0.00     0.167 HD
ATOM     43  C   UNL A   1      39.418  31.371  34.623  1.00  0.00     0.037 A 
ATOM     44  C   UNL A   1      41.290  27.928  28.792  1.00  0.00     0.037 A 
ATOM     45  C   UNL A   1      40.586  30.554  34.762  1.00  0.00     0.049 A 
ATOM     46  C   UNL A   1      42.094  27.850  30.073  1.00  0.00     0.074 A 
ATOM     47  C   UNL A   1      41.376  30.363  35.877  1.00  0.00     0.029 A 
ATOM     48  N   UNL A   1      41.136  29.803  33.735  1.00  0.00    -0.354 N 
ATOM     49  N   UNL A   1      41.856  28.405  31.239  1.00  0.00    -0.248 NA
ATOM     50  C   UNL A   1      43.325  27.040  30.044  1.00  0.00     0.031 C 
ATOM     51  C   UNL A   1      42.432  29.521  35.514  1.00  0.00     0.029 A 
ATOM     52  C   UNL A   1      42.266  29.150  34.189  1.00  0.00     0.049 A 
ATOM     53  H   UNL A   1      40.776  29.743  32.821  1.00  0.00     0.167 HD
ATOM     54  C   UNL A   1      42.874  27.976  32.086  1.00  0.00     0.074 A 
ATOM     55  C   UNL A   1      43.733  27.111  31.304  1.00  0.00     0.031 C 
ATOM     56  C   UNL A   1      43.082  28.266  33.394  1.00  0.00     0.037 A 
BRANCH  43  57
ATOM     57  C   UNL A   1      38.917  32.175  35.782  1.00  0.00     0.057 A 
ATOM     58  C   UNL A   1      39.285  33.518  35.952  1.00  0.00     0.134 A 
ATOM     59  C   UNL A   1      38.151  31.579  36.788  1.00  0.00     0.134 A 
ATOM     60  F   UNL A   1      40.054  34.134  35.040  1.00  0.00    -0.206 F 
ATOM     61  C   UNL A   1      38.956  34.222  37.109  1.00  0.00     0.040 A 
ATOM     62  C   UNL A   1      37.786  32.284  37.935  1.00  0.00     0.040 A 
ATOM     63  F   UNL A   1      37.778  30.294  36.690  1.00  0.00    -0.206 F 
ATOM     64  C   UNL A   1      38.203  33.604  38.105  1.00  0.00     0.006 A 
ENDBRANCH  43  57
BRANCH  44  65
ATOM     65  C   UNL A   1      41.759  27.182  27.587  1.00  0.00     0.057 A 
ATOM     66  C   UNL A   1      42.513  27.820  26.590  1.00  0.00     0.134 A 
ATOM     67  C   UNL A   1      41.395  25.850  27.349  1.00  0.00     0.134 A 
ATOM     68  F   UNL A   1      42.864  29.107  26.733  1.00  0.00    -0.206 F 
ATOM     69  C   UNL A   1      42.859  27.179  25.397  1.00  0.00     0.040 A 
ATOM     70  C   UNL A   1      41.755  25.188  26.170  1.00  0.00     0.040 A 
ATOM     71  F   UNL A   1      40.662  25.178  28.248  1.00  0.00    -0.206 F 
ATOM     72  C   UNL A   1      42.481  25.856  25.185  1.00  0.00     0.006 A 
ENDBRANCH  44  65
BRANCH  56  73
ATOM     73  C   UNL A   1      44.234  27.601  34.090  1.00  0.00     0.057 A 
ATOM     74  C   UNL A   1      45.481  28.224  34.228  1.00  0.00     0.134 A 
ATOM     75  C   UNL A   1      44.056  26.360  34.718  1.00  0.00     0.134 A 
ATOM     76  F   UNL A   1      45.718  29.409  33.645  1.00  0.00    -0.206 F 
ATOM     77  C   UNL A   1      46.512  27.632  34.958  1.00  0.00     0.040 A 
ATOM     78  C   UNL A   1      45.069  25.774  35.475  1.00  0.00     0.040 A 
ATOM     79  F   UNL A   1      42.882  25.718  34.636  1.00  0.00    -0.206 F 
ATOM     80  C   UNL A   1      46.303  26.410  35.595  1.00  0.00     0.006 A 
ENDBRANCH  56  73
ENDBRANCH  30  31
ENDBRANCH  23  25
ENDBRANCH  22  23
ENDBRANCH   1  22
TORSDOF 12
ENDMDL
MODEL 2
REMARK VINA RESULT:     -13.9      4.975      9.783
REMARK SMILES O=C(OCCOC(=O)c1ccc(-c2c3nc(c(-c4c(F)cccc4F)c4ccc([nH]4)c(-c4c(F)cccc4F)c4nc(c(-c5c(F)cccc5F)c5ccc2[nH]5)C=C4)C=C3)cc1)C1=Cc2cc(Cl)cc(Cl)c2O[C@@H]1C(F)(F)F
REMARK SMILES IDX 5 1 4 2 3 3 2 4 1 5 63 6 64 7 74 8 65 9 73 10 66 11 72 12
REMARK SMILES IDX 67 13 70 14 68 15 69 16 71 17 75 18 76 19 77 20 78 21 6 22
REMARK SMILES IDX 7 23 8 24 9 25 10 26 62 27 11 28 61 29 12 30 13 31 14 32
REMARK SMILES IDX 55 33 15 34 60 35 54 36 56 37 16 38 59 39 53 40 52 41 17 43
REMARK SMILES IDX 43 44 26 45 42 46 27 47 30 48 41 49 57 50 28 51 29 52 40 54
REMARK SMILES IDX 58 55 31 56 18 57 19 58 24 59 20 60 21 61 23 62 25 63 22 64
REMARK SMILES IDX 44 65 45 66 50 67 46 68 47 69 49 70 51 71 48 72 32 73 33 74
REMARK SMILES IDX 38 75 34 76 35 77 37 78 39 79 36 80
REMARK H PARENT 56 42 30 53
REMARK Flexibility Score: inf
ROOT
ATOM      1  C   UNL A   1      39.414  20.527  25.778  1.00  0.00     0.275 C 
ENDROOT
BRANCH   1   2
ATOM      2  C   UNL A   1      37.394  20.518  25.010  1.00  0.00     0.275 C 
BRANCH   2   3
ATOM      3  O   UNL A   1      36.228  21.450  25.476  1.00  0.00    -0.459 OA
BRANCH   3   4
ATOM      4  C   UNL A   1      35.803  22.288  24.524  1.00  0.00     0.338 C 
ATOM      5  O   UNL A   1      36.406  22.841  23.640  1.00  0.00    -0.246 OA
BRANCH   4   6
ATOM      6  C   UNL A   1      34.543  22.569  25.160  1.00  0.00     0.087 C 
ATOM      7  C   UNL A   1      34.570  23.860  25.874  1.00  0.00     0.027 C 
ATOM      8  C   UNL A   1      33.440  22.166  23.626  1.00  0.00     0.316 C 
ATOM      9  C   UNL A   1      33.680  25.325  25.302  1.00  0.00     0.020 A 
ATOM     10  O   UNL A   1      32.525  23.731  22.978  1.00  0.00    -0.474 OA
ATOM     11  C   UNL A   1      33.938  26.516  25.921  1.00  0.00     0.032 A 
ATOM     12  C   UNL A   1      32.735  25.323  23.843  1.00  0.00     0.146 A 
ATOM     13  C   UNL A   1      33.396  27.642  25.280  1.00  0.00     0.043 A 
ATOM     14  C   UNL A   1      32.244  26.482  23.304  1.00  0.00     0.085 A 
ATOM     15  Cl  UNL A   1      33.753  29.181  26.003  1.00  0.00    -0.084 Cl
ATOM     16  C   UNL A   1      32.603  27.631  24.054  1.00  0.00     0.045 A 
ATOM     17  Cl  UNL A   1      31.359  26.600  21.862  1.00  0.00    -0.080 Cl
BRANCH   8  18
ATOM     18  C   UNL A   1      32.951  20.741  24.077  1.00  0.00     0.430 C 
ATOM     19  F   UNL A   1      32.136  20.804  25.140  1.00  0.00    -0.167 F 
ATOM     20  F   UNL A   1      32.162  20.224  23.085  1.00  0.00    -0.167 F 
ATOM     21  F   UNL A   1      33.883  19.787  24.233  1.00  0.00    -0.167 F 
ENDBRANCH   8  18
ENDBRANCH   4   6
ENDBRANCH   3   4
ENDBRANCH   2   3
ENDBRANCH   1   2
BRANCH   1  22
ATOM     22  O   UNL A   1      40.520  19.211  25.726  1.00  0.00    -0.458 OA
BRANCH  22  23
ATOM     23  C   UNL A   1      41.797  18.824  26.042  1.00  0.00     0.338 C 
ATOM     24  O   UNL A   1      42.396  17.798  25.778  1.00  0.00    -0.246 OA
BRANCH  23  25
ATOM     25  C   UNL A   1      42.495  20.083  26.441  1.00  0.00     0.060 A 
ATOM     26  C   UNL A   1      43.036  20.896  25.428  1.00  0.00     0.016 A 
ATOM     27  C   UNL A   1      42.257  20.616  27.707  1.00  0.00     0.016 A 
ATOM     28  C   UNL A   1      43.106  22.287  25.617  1.00  0.00     0.010 A 
ATOM     29  C   UNL A   1      42.356  21.995  27.899  1.00  0.00     0.010 A 
ATOM     30  C   UNL A   1      42.709  22.849  26.838  1.00  0.00    -0.014 A 
BRANCH  30  31
ATOM     31  C   UNL A   1      42.921  24.290  27.134  1.00  0.00     0.031 A 
ATOM     32  C   UNL A   1      44.350  24.737  27.132  1.00  0.00     0.074 A 
ATOM     33  C   UNL A   1      41.939  25.143  27.495  1.00  0.00     0.049 A 
ATOM     34  N   UNL A   1      44.876  25.873  27.498  1.00  0.00    -0.248 NA
ATOM     35  C   UNL A   1      45.328  23.726  26.688  1.00  0.00     0.031 C 
ATOM     36  C   UNL A   1      40.508  24.843  27.546  1.00  0.00     0.029 A 
ATOM     37  N   UNL A   1      42.014  26.453  27.918  1.00  0.00    -0.354 N 
ATOM     38  C   UNL A   1      46.244  25.705  27.339  1.00  0.00     0.074 A 
ATOM     39  C   UNL A   1      46.470  24.346  26.910  1.00  0.00     0.031 C 
ATOM     40  C   UNL A   1      39.845  25.932  27.990  1.00  0.00     0.029 A 
ATOM     41  C   UNL A   1      40.802  27.001  28.275  1.00  0.00     0.049 A 
ATOM     42  H   UNL A   1      42.861  26.953  27.962  1.00  0.00     0.167 HD
ATOM     43  C   UNL A   1      47.234  26.606  27.514  1.00  0.00     0.037 A 
ATOM     44  C   UNL A   1      40.515  28.222  28.780  1.00  0.00     0.037 A 
ATOM     45  C   UNL A   1      47.019  27.946  27.971  1.00  0.00     0.049 A 
ATOM     46  C   UNL A   1      41.645  29.201  29.025  1.00  0.00     0.074 A 
ATOM     47  C   UNL A   1      47.950  28.942  28.191  1.00  0.00     0.029 A 
ATOM     48  N   UNL A   1      45.776  28.469  28.292  1.00  0.00    -0.354 N 
ATOM     49  N   UNL A   1      42.932  29.056  28.810  1.00  0.00    -0.248 NA
ATOM     50  C   UNL A   1      41.282  30.516  29.583  1.00  0.00     0.031 C 
ATOM     51  C   UNL A   1      47.271  30.061  28.684  1.00  0.00     0.029 A 
ATOM     52  C   UNL A   1      45.914  29.775  28.720  1.00  0.00     0.049 A 
ATOM     53  H   UNL A   1      44.922  27.982  28.226  1.00  0.00     0.167 HD
ATOM     54  C   UNL A   1      43.520  30.268  29.158  1.00  0.00     0.074 A 
ATOM     55  C   UNL A   1      42.452  31.141  29.598  1.00  0.00     0.031 C 
ATOM     56  C   UNL A   1      44.826  30.632  29.118  1.00  0.00     0.037 A 
BRANCH  43  57
ATOM     57  C   UNL A   1      48.620  26.121  27.224  1.00  0.00     0.057 A 
ATOM     58  C   UNL A   1      49.416  25.543  28.225  1.00  0.00     0.134 A 
ATOM     59  C   UNL A   1      49.202  26.328  25.970  1.00  0.00     0.134 A 
ATOM     60  F   UNL A   1      48.926  25.357  29.461  1.00  0.00    -0.206 F 
ATOM     61  C   UNL A   1      50.758  25.239  28.003  1.00  0.00     0.040 A 
ATOM     62  C   UNL A   1      50.534  25.995  25.726  1.00  0.00     0.040 A 
ATOM     63  F   UNL A   1      48.497  26.887  24.975  1.00  0.00    -0.206 F 
ATOM     64  C   UNL A   1      51.320  25.465  26.748  1.00  0.00     0.006 A 
ENDBRANCH  43  57
BRANCH  44  65
ATOM     65  C   UNL A   1      39.113  28.630  29.088  1.00  0.00     0.057 A 
ATOM     66  C   UNL A   1      38.336  29.319  28.145  1.00  0.00     0.134 A 
ATOM     67  C   UNL A   1      38.542  28.430  30.352  1.00  0.00     0.134 A 
ATOM     68  F   UNL A   1      38.833  29.581  26.926  1.00  0.00    -0.206 F 
ATOM     69  C   UNL A   1      37.066  29.819  28.451  1.00  0.00     0.040 A 
ATOM     70  C   UNL A   1      37.262  28.903  30.666  1.00  0.00     0.040 A 
ATOM     71  F   UNL A   1      39.228  27.792  31.311  1.00  0.00    -0.206 F 
ATOM     72  C   UNL A   1      36.525  29.609  29.717  1.00  0.00     0.006 A 
ENDBRANCH  44  65
BRANCH  56  73
ATOM     73  C   UNL A   1      45.178  32.043  29.490  1.00  0.00     0.057 A 
ATOM     74  C   UNL A   1      45.590  32.392  30.782  1.00  0.00     0.134 A 
ATOM     75  C   UNL A   1      45.200  33.045  28.509  1.00  0.00     0.134 A 
ATOM     76  F   UNL A   1      45.584  31.483  31.767  1.00  0.00    -0.206 F 
ATOM     77  C   UNL A   1      46.002  33.690  31.086  1.00  0.00     0.040 A 
ATOM     78  C   UNL A   1      45.639  34.337  28.795  1.00  0.00     0.040 A 
ATOM     79  F   UNL A   1      44.830  32.772  27.249  1.00  0.00    -0.206 F 
ATOM     80  C   UNL A   1      46.040  34.663  30.088  1.00  0.00     0.006 A 
ENDBRANCH  56  73
ENDBRANCH  30  31
ENDBRANCH  23  25
ENDBRANCH  22  23
ENDBRANCH   1  22
TORSDOF 12
ENDMDL
MODEL 3
REMARK VINA RESULT:     -13.8      0.860      6.474
REMARK SMILES O=C(OCCOC(=O)c1ccc(-c2c3nc(c(-c4c(F)cccc4F)c4ccc([nH]4)c(-c4c(F)cccc4F)c4nc(c(-c5c(F)cccc5F)c5ccc2[nH]5)C=C4)C=C3)cc1)C1=Cc2cc(Cl)cc(Cl)c2O[C@@H]1C(F)(F)F
REMARK SMILES IDX 5 1 4 2 3 3 2 4 1 5 63 6 64 7 74 8 65 9 73 10 66 11 72 12
REMARK SMILES IDX 67 13 70 14 68 15 69 16 71 17 75 18 76 19 77 20 78 21 6 22
REMARK SMILES IDX 7 23 8 24 9 25 10 26 62 27 11 28 61 29 12 30 13 31 14 32
REMARK SMILES IDX 55 33 15 34 60 35 54 36 56 37 16 38 59 39 53 40 52 41 17 43
REMARK SMILES IDX 43 44 26 45 42 46 27 47 30 48 41 49 57 50 28 51 29 52 40 54
REMARK SMILES IDX 58 55 31 56 18 57 19 58 24 59 20 60 21 61 23 62 25 63 22 64
REMARK SMILES IDX 44 65 45 66 50 67 46 68 47 69 49 70 51 71 48 72 32 73 33 74
REMARK SMILES IDX 38 75 34 76 35 77 37 78 39 79 36 80
REMARK H PARENT 56 42 30 53
REMARK Flexibility Score: inf
ROOT
ATOM      1  C   UNL A   1      31.402  32.033  26.886  1.00  0.00     0.275 C 
ENDROOT
BRANCH   1   2
ATOM      2  C   UNL A   1      32.127  30.161  26.082  1.00  0.00     0.275 C 
BRANCH   2   3
ATOM      3  O   UNL A   1      32.340  28.836  26.884  1.00  0.00    -0.459 OA
BRANCH   3   4
ATOM      4  C   UNL A   1      31.680  27.793  26.372  1.00  0.00     0.338 C 
ATOM      5  O   UNL A   1      30.889  27.038  26.879  1.00  0.00    -0.246 OA
BRANCH   4   6
ATOM      6  C   UNL A   1      32.515  27.678  25.205  1.00  0.00     0.087 C 
ATOM      7  C   UNL A   1      33.756  26.934  25.494  1.00  0.00     0.027 C 
ATOM      8  C   UNL A   1      31.118  27.093  24.005  1.00  0.00     0.316 C 
ATOM      9  C   UNL A   1      34.072  25.264  24.882  1.00  0.00     0.020 A 
ATOM     10  O   UNL A   1      31.420  25.295  23.385  1.00  0.00    -0.474 OA
ATOM     11  C   UNL A   1      35.155  24.592  25.377  1.00  0.00     0.032 A 
ATOM     12  C   UNL A   1      32.916  24.397  23.915  1.00  0.00     0.146 A 
ATOM     13  C   UNL A   1      35.208  23.230  25.040  1.00  0.00     0.043 A 
ATOM     14  C   UNL A   1      33.067  23.065  23.638  1.00  0.00     0.085 A 
ATOM     15  Cl  UNL A   1      36.537  22.328  25.701  1.00  0.00    -0.084 Cl
ATOM     16  C   UNL A   1      34.232  22.510  24.227  1.00  0.00     0.045 A 
ATOM     17  Cl  UNL A   1      31.977  22.113  22.753  1.00  0.00    -0.080 Cl
BRANCH   8  18
ATOM     18  C   UNL A   1      30.877  28.462  23.268  1.00  0.00     0.430 C 
ATOM     19  F   UNL A   1      32.025  29.021  22.861  1.00  0.00    -0.167 F 
ATOM     20  F   UNL A   1      30.201  28.208  22.104  1.00  0.00    -0.167 F 
ATOM     21  F   UNL A   1      30.084  29.360  23.873  1.00  0.00    -0.167 F 
ENDBRANCH   8  18
ENDBRANCH   4   6
ENDBRANCH   3   4
ENDBRANCH   2   3
ENDBRANCH   1   2
BRANCH   1  22
ATOM     22  O   UNL A   1      32.339  33.450  27.148  1.00  0.00    -0.458 OA
BRANCH  22  23
ATOM     23  C   UNL A   1      32.967  34.203  28.107  1.00  0.00     0.338 C 
ATOM     24  O   UNL A   1      32.528  35.072  28.838  1.00  0.00    -0.246 OA
BRANCH  23  25
ATOM     25  C   UNL A   1      34.240  33.477  28.396  1.00  0.00     0.060 A 
ATOM     26  C   UNL A   1      35.450  34.190  28.306  1.00  0.00     0.016 A 
ATOM     27  C   UNL A   1      34.190  32.280  29.110  1.00  0.00     0.016 A 
ATOM     28  C   UNL A   1      36.531  33.830  29.129  1.00  0.00     0.010 A 
ATOM     29  C   UNL A   1      35.277  31.910  29.904  1.00  0.00     0.010 A 
ATOM     30  C   UNL A   1      36.427  32.718  29.978  1.00  0.00    -0.014 A 
BRANCH  30  31
ATOM     31  C   UNL A   1      37.598  32.211  30.738  1.00  0.00     0.031 A 
ATOM     32  C   UNL A   1      38.385  31.138  30.052  1.00  0.00     0.074 A 
ATOM     33  C   UNL A   1      37.899  32.577  32.002  1.00  0.00     0.049 A 
ATOM     34  N   UNL A   1      39.353  30.387  30.502  1.00  0.00    -0.248 NA
ATOM     35  C   UNL A   1      37.981  30.847  28.663  1.00  0.00     0.031 C 
ATOM     36  C   UNL A   1      37.217  33.602  32.791  1.00  0.00     0.029 A 
ATOM     37  N   UNL A   1      38.865  32.094  32.858  1.00  0.00    -0.354 N 
ATOM     38  C   UNL A   1      39.662  29.531  29.455  1.00  0.00     0.074 A 
ATOM     39  C   UNL A   1      38.741  29.808  28.378  1.00  0.00     0.031 C 
ATOM     40  C   UNL A   1      37.776  33.659  34.018  1.00  0.00     0.029 A 
ATOM     41  C   UNL A   1      38.842  32.662  34.113  1.00  0.00     0.049 A 
ATOM     42  H   UNL A   1      39.515  31.402  32.596  1.00  0.00     0.167 HD
ATOM     43  C   UNL A   1      40.641  28.604  29.379  1.00  0.00     0.037 A 
ATOM     44  C   UNL A   1      39.595  32.392  35.203  1.00  0.00     0.037 A 
ATOM     45  C   UNL A   1      41.536  28.302  30.455  1.00  0.00     0.049 A 
ATOM     46  C   UNL A   1      40.649  31.308  35.119  1.00  0.00     0.074 A 
ATOM     47  C   UNL A   1      42.559  27.377  30.491  1.00  0.00     0.029 A 
ATOM     48  N   UNL A   1      41.497  28.920  31.696  1.00  0.00    -0.354 N 
ATOM     49  N   UNL A   1      40.980  30.546  34.102  1.00  0.00    -0.248 NA
ATOM     50  C   UNL A   1      41.439  31.045  36.336  1.00  0.00     0.031 C 
ATOM     51  C   UNL A   1      43.119  27.408  31.773  1.00  0.00     0.029 A 
ATOM     52  C   UNL A   1      42.476  28.388  32.513  1.00  0.00     0.049 A 
ATOM     53  H   UNL A   1      40.867  29.631  31.956  1.00  0.00     0.167 HD
ATOM     54  C   UNL A   1      42.038  29.755  34.540  1.00  0.00     0.074 A 
ATOM     55  C   UNL A   1      42.299  30.128  35.914  1.00  0.00     0.031 C 
ATOM     56  C   UNL A   1      42.735  28.806  33.868  1.00  0.00     0.037 A 
BRANCH  43  57
ATOM     57  C   UNL A   1      40.738  27.859  28.085  1.00  0.00     0.057 A 
ATOM     58  C   UNL A   1      40.120  26.611  27.912  1.00  0.00     0.134 A 
ATOM     59  C   UNL A   1      41.539  28.337  27.044  1.00  0.00     0.134 A 
ATOM     60  F   UNL A   1      39.372  26.080  28.893  1.00  0.00    -0.206 F 
ATOM     61  C   UNL A   1      40.341  25.841  26.771  1.00  0.00     0.040 A 
ATOM     62  C   UNL A   1      41.739  27.590  25.882  1.00  0.00     0.040 A 
ATOM     63  F   UNL A   1      42.167  29.517  27.152  1.00  0.00    -0.206 F 
ATOM     64  C   UNL A   1      41.153  26.332  25.751  1.00  0.00     0.006 A 
ENDBRANCH  43  57
BRANCH  44  65
ATOM     65  C   UNL A   1      39.418  33.144  36.480  1.00  0.00     0.057 A 
ATOM     66  C   UNL A   1      38.489  32.724  37.444  1.00  0.00     0.134 A 
ATOM     67  C   UNL A   1      40.095  34.344  36.736  1.00  0.00     0.134 A 
ATOM     68  F   UNL A   1      37.776  31.604  37.248  1.00  0.00    -0.206 F 
ATOM     69  C   UNL A   1      38.218  33.476  38.591  1.00  0.00     0.040 A 
ATOM     70  C   UNL A   1      39.852  35.096  37.891  1.00  0.00     0.040 A 
ATOM     71  F   UNL A   1      40.988  34.818  35.855  1.00  0.00    -0.206 F 
ATOM     72  C   UNL A   1      38.903  34.667  38.817  1.00  0.00     0.006 A 
ENDBRANCH  44  65
BRANCH  56  73
ATOM     73  C   UNL A   1      43.888  28.148  34.569  1.00  0.00     0.057 A 
ATOM     74  C   UNL A   1      43.750  26.931  35.249  1.00  0.00     0.134 A 
ATOM     75  C   UNL A   1      45.175  28.695  34.473  1.00  0.00     0.134 A 
ATOM     76  F   UNL A   1      42.545  26.359  35.382  1.00  0.00    -0.206 F 
ATOM     77  C   UNL A   1      44.851  26.287  35.815  1.00  0.00     0.040 A 
ATOM     78  C   UNL A   1      46.287  28.045  35.009  1.00  0.00     0.040 A 
ATOM     79  F   UNL A   1      45.377  29.851  33.824  1.00  0.00    -0.206 F 
ATOM     80  C   UNL A   1      46.126  26.838  35.685  1.00  0.00     0.006 A 
ENDBRANCH  56  73
ENDBRANCH  30  31
ENDBRANCH  23  25
ENDBRANCH  22  23
ENDBRANCH   1  22
TORSDOF 12
ENDMDL
