MODEL 1
REMARK VINA RESULT:     -11.0      0.000      0.000
REMARK SMILES CCC[NH2+][C@]1(C(=O)OCCOC(=O)c2ccc(-c3c4nc(c(-c5c(F)cccc5F)c5ccc([nH]5)c(-c5c(F)cccc5F)c5nc(c(-c6c(F)cccc6F)c6ccc3[nH]6)C=C5)C=C4)cc2)CC[C@H](n2nc(C)c(CC)c2C)C1
REMARK SMILES IDX 9 1 8 2 6 3 7 4 5 5 68 6 80 7 69 8 70 9 4 10 3 13 2 14 1 15
REMARK SMILES IDX 71 16 72 17 78 18 73 19 75 20 79 21 74 22 76 23 77 24 10 25
REMARK SMILES IDX 11 26 12 27 13 28 14 29 15 30 67 31 16 32 66 33 17 34 18 35
REMARK SMILES IDX 19 36 60 37 20 38 65 39 59 40 61 41 21 42 64 43 58 44 57 45
REMARK SMILES IDX 22 47 48 48 31 49 47 50 32 51 35 52 46 53 62 54 33 55 34 56
REMARK SMILES IDX 45 58 63 59 36 60 23 61 24 62 29 63 25 64 26 65 28 66 30 67
REMARK SMILES IDX 27 68 49 69 50 70 55 71 51 72 52 73 54 74 56 75 53 76 37 77
REMARK SMILES IDX 38 78 43 79 39 80 40 81 42 82 44 83 41 84
REMARK H PARENT 4 11 4 12 61 46 35 57
REMARK Flexibility Score: inf
ROOT
ATOM      1  C   UNL A   1      32.270  29.340  24.735  1.00  0.00     0.274 C 
ENDROOT
BRANCH   1   2
ATOM      2  O   UNL A   1      31.783  28.003  24.983  1.00  0.00    -0.457 OA
BRANCH   2   3
ATOM      3  C   UNL A   1      30.986  27.500  24.008  1.00  0.00     0.368 C 
ATOM      4  O   UNL A   1      29.843  27.894  23.771  1.00  0.00    -0.245 OA
BRANCH   3   5
ATOM      5  C   UNL A   1      31.577  26.285  23.272  1.00  0.00     0.196 C 
ATOM      6  C   UNL A   1      31.663  26.275  21.747  1.00  0.00     0.083 C 
ATOM      7  C   UNL A   1      33.090  26.288  23.581  1.00  0.00     0.108 C 
ATOM      8  C   UNL A   1      32.748  25.214  21.458  1.00  0.00     0.034 C 
ATOM      9  C   UNL A   1      33.649  25.139  22.738  1.00  0.00     0.115 C 
BRANCH   5  10
ATOM     10  N   UNL A   1      31.004  25.047  23.852  1.00  0.00    -0.332 N 
ATOM     11  H   UNL A   1      30.100  24.897  23.403  1.00  0.00     0.347 HD
ATOM     12  H   UNL A   1      31.719  24.341  23.679  1.00  0.00     0.347 HD
BRANCH  10  13
ATOM     13  C   UNL A   1      30.784  24.982  25.286  1.00  0.00     0.261 C 
BRANCH  13  14
ATOM     14  C   UNL A   1      31.040  23.572  25.845  1.00  0.00     0.058 C 
ATOM     15  C   UNL A   1      32.017  23.476  27.011  1.00  0.00     0.010 C 
ENDBRANCH  13  14
ENDBRANCH  10  13
ENDBRANCH   5  10
BRANCH   9  16
ATOM     16  N   UNL A   1      33.707  23.797  23.330  1.00  0.00    -0.266 N 
ATOM     17  N   UNL A   1      32.873  22.883  22.776  1.00  0.00    -0.178 NA
ATOM     18  C   UNL A   1      34.555  23.212  24.260  1.00  0.00     0.039 A 
ATOM     19  C   UNL A   1      33.090  21.753  23.450  1.00  0.00     0.063 A 
ATOM     20  C   UNL A   1      34.116  21.901  24.413  1.00  0.00    -0.004 A 
ATOM     21  C   UNL A   1      35.705  23.861  24.949  1.00  0.00     0.066 C 
ATOM     22  C   UNL A   1      32.305  20.539  23.114  1.00  0.00     0.069 C 
BRANCH  20  23
ATOM     23  C   UNL A   1      34.648  20.848  25.338  1.00  0.00     0.036 C 
ATOM     24  C   UNL A   1      36.073  20.424  25.013  1.00  0.00     0.009 C 
ENDBRANCH  20  23
ENDBRANCH   9  16
ENDBRANCH   3   5
ENDBRANCH   2   3
ENDBRANCH   1   2
BRANCH   1  25
ATOM     25  C   UNL A   1      31.440  30.381  25.484  1.00  0.00     0.275 C 
BRANCH  25  26
ATOM     26  O   UNL A   1      31.911  30.502  26.838  1.00  0.00    -0.458 OA
BRANCH  26  27
ATOM     27  C   UNL A   1      32.600  31.631  27.130  1.00  0.00     0.338 C 
ATOM     28  O   UNL A   1      32.191  32.777  27.051  1.00  0.00    -0.246 OA
BRANCH  27  29
ATOM     29  C   UNL A   1      33.967  31.299  27.596  1.00  0.00     0.060 A 
ATOM     30  C   UNL A   1      34.355  29.977  27.783  1.00  0.00     0.016 A 
ATOM     31  C   UNL A   1      34.836  32.325  27.978  1.00  0.00     0.016 A 
ATOM     32  C   UNL A   1      35.544  29.693  28.454  1.00  0.00     0.010 A 
ATOM     33  C   UNL A   1      36.077  32.024  28.564  1.00  0.00     0.010 A 
ATOM     34  C   UNL A   1      36.429  30.699  28.861  1.00  0.00    -0.014 A 
BRANCH  34  35
ATOM     35  C   UNL A   1      37.639  30.351  29.674  1.00  0.00     0.031 A 
ATOM     36  C   UNL A   1      38.787  29.598  29.042  1.00  0.00     0.074 A 
ATOM     37  C   UNL A   1      37.789  30.778  30.947  1.00  0.00     0.049 A 
ATOM     38  N   UNL A   1      39.819  29.028  29.613  1.00  0.00    -0.248 NA
ATOM     39  C   UNL A   1      38.772  29.466  27.576  1.00  0.00     0.031 C 
ATOM     40  C   UNL A   1      36.838  31.605  31.690  1.00  0.00     0.029 A 
ATOM     41  N   UNL A   1      38.831  30.609  31.832  1.00  0.00    -0.354 N 
ATOM     42  C   UNL A   1      40.521  28.397  28.592  1.00  0.00     0.074 A 
ATOM     43  C   UNL A   1      39.816  28.679  27.361  1.00  0.00     0.031 C 
ATOM     44  C   UNL A   1      37.378  31.951  32.868  1.00  0.00     0.029 A 
ATOM     45  C   UNL A   1      38.657  31.268  33.026  1.00  0.00     0.049 A 
ATOM     46  H   UNL A   1      39.626  30.066  31.628  1.00  0.00     0.167 HD
ATOM     47  C   UNL A   1      41.642  27.642  28.675  1.00  0.00     0.037 A 
ATOM     48  C   UNL A   1      39.412  31.291  34.142  1.00  0.00     0.037 A 
ATOM     49  C   UNL A   1      42.399  27.428  29.881  1.00  0.00     0.049 A 
ATOM     50  C   UNL A   1      40.636  30.424  34.225  1.00  0.00     0.074 A 
ATOM     51  C   UNL A   1      43.516  26.631  30.073  1.00  0.00     0.029 A 
ATOM     52  N   UNL A   1      42.141  28.051  31.089  1.00  0.00    -0.354 N 
ATOM     53  N   UNL A   1      41.189  29.684  33.297  1.00  0.00    -0.248 NA
ATOM     54  C   UNL A   1      41.309  30.354  35.531  1.00  0.00     0.031 C 
ATOM     55  C   UNL A   1      43.924  26.761  31.405  1.00  0.00     0.029 A 
ATOM     56  C   UNL A   1      43.079  27.661  32.032  1.00  0.00     0.049 A 
ATOM     57  H   UNL A   1      41.402  28.680  31.256  1.00  0.00     0.167 HD
ATOM     58  C   UNL A   1      42.261  29.047  33.910  1.00  0.00     0.074 A 
ATOM     59  C   UNL A   1      42.308  29.520  35.277  1.00  0.00     0.031 C 
ATOM     60  C   UNL A   1      43.115  28.134  33.390  1.00  0.00     0.037 A 
BRANCH  47  61
ATOM     61  C   UNL A   1      42.090  26.936  27.431  1.00  0.00     0.057 A 
ATOM     62  C   UNL A   1      42.939  27.532  26.493  1.00  0.00     0.134 A 
ATOM     63  C   UNL A   1      41.684  25.615  27.191  1.00  0.00     0.134 A 
ATOM     64  F   UNL A   1      43.348  28.799  26.657  1.00  0.00    -0.206 F 
ATOM     65  C   UNL A   1      43.356  26.846  25.351  1.00  0.00     0.040 A 
ATOM     66  C   UNL A   1      42.110  24.912  26.064  1.00  0.00     0.040 A 
ATOM     67  F   UNL A   1      40.873  24.985  28.056  1.00  0.00    -0.206 F 
ATOM     68  C   UNL A   1      42.946  25.530  25.137  1.00  0.00     0.006 A 
ENDBRANCH  47  61
BRANCH  48  69
ATOM     69  C   UNL A   1      38.997  32.109  35.312  1.00  0.00     0.057 A 
ATOM     70  C   UNL A   1      38.239  31.551  36.347  1.00  0.00     0.134 A 
ATOM     71  C   UNL A   1      39.327  33.466  35.413  1.00  0.00     0.134 A 
ATOM     72  F   UNL A   1      37.862  30.265  36.291  1.00  0.00    -0.206 F 
ATOM     73  C   UNL A   1      37.822  32.313  37.440  1.00  0.00     0.040 A 
ATOM     74  C   UNL A   1      38.942  34.232  36.514  1.00  0.00     0.040 A 
ATOM     75  F   UNL A   1      40.043  34.064  34.450  1.00  0.00    -0.206 F 
ATOM     76  C   UNL A   1      38.182  33.656  37.529  1.00  0.00     0.006 A 
ENDBRANCH  48  69
BRANCH  60  77
ATOM     77  C   UNL A   1      44.168  27.586  34.304  1.00  0.00     0.057 A 
ATOM     78  C   UNL A   1      43.958  26.408  35.033  1.00  0.00     0.134 A 
ATOM     79  C   UNL A   1      45.408  28.222  34.437  1.00  0.00     0.134 A 
ATOM     80  F   UNL A   1      42.786  25.762  34.957  1.00  0.00    -0.206 F 
ATOM     81  C   UNL A   1      44.941  25.891  35.877  1.00  0.00     0.040 A 
ATOM     82  C   UNL A   1      46.404  27.704  35.266  1.00  0.00     0.040 A 
ATOM     83  F   UNL A   1      45.670  29.351  33.763  1.00  0.00    -0.206 F 
ATOM     84  C   UNL A   1      46.170  26.537  35.992  1.00  0.00     0.006 A 
ENDBRANCH  60  77
ENDBRANCH  34  35
ENDBRANCH  27  29
ENDBRANCH  26  27
ENDBRANCH  25  26
ENDBRANCH   1  25
TORSDOF 16
ENDMDL
MODEL 2
REMARK VINA RESULT:     -11.0      4.009      8.885
REMARK SMILES CCC[NH2+][C@]1(C(=O)OCCOC(=O)c2ccc(-c3c4nc(c(-c5c(F)cccc5F)c5ccc([nH]5)c(-c5c(F)cccc5F)c5nc(c(-c6c(F)cccc6F)c6ccc3[nH]6)C=C5)C=C4)cc2)CC[C@H](n2nc(C)c(CC)c2C)C1
REMARK SMILES IDX 9 1 8 2 6 3 7 4 5 5 68 6 80 7 69 8 70 9 4 10 3 13 2 14 1 15
REMARK SMILES IDX 71 16 72 17 78 18 73 19 75 20 79 21 74 22 76 23 77 24 10 25
REMARK SMILES IDX 11 26 12 27 13 28 14 29 15 30 67 31 16 32 66 33 17 34 18 35
REMARK SMILES IDX 19 36 60 37 20 38 65 39 59 40 61 41 21 42 64 43 58 44 57 45
REMARK SMILES IDX 22 47 48 48 31 49 47 50 32 51 35 52 46 53 62 54 33 55 34 56
REMARK SMILES IDX 45 58 63 59 36 60 23 61 24 62 29 63 25 64 26 65 28 66 30 67
REMARK SMILES IDX 27 68 49 69 50 70 55 71 51 72 52 73 54 74 56 75 53 76 37 77
REMARK SMILES IDX 38 78 43 79 39 80 40 81 42 82 44 83 41 84
REMARK H PARENT 4 11 4 12 61 46 35 57
REMARK Flexibility Score: inf
ROOT
ATOM      1  C   UNL A   1      35.132  21.052  25.750  1.00  0.00     0.274 C 
ENDROOT
BRANCH   1   2
ATOM      2  O   UNL A   1      34.449  22.046  24.955  1.00  0.00    -0.457 OA
BRANCH   2   3
ATOM      3  C   UNL A   1      33.188  21.707  24.585  1.00  0.00     0.368 C 
ATOM      4  O   UNL A   1      32.905  20.725  23.898  1.00  0.00    -0.245 OA
BRANCH   3   5
ATOM      5  C   UNL A   1      32.114  22.731  24.992  1.00  0.00     0.196 C 
ATOM      6  C   UNL A   1      30.940  22.307  25.872  1.00  0.00     0.083 C 
ATOM      7  C   UNL A   1      32.796  23.702  25.981  1.00  0.00     0.108 C 
ATOM      8  C   UNL A   1      30.444  23.641  26.471  1.00  0.00     0.034 C 
ATOM      9  C   UNL A   1      31.664  24.623  26.444  1.00  0.00     0.115 C 
BRANCH   5  10
ATOM     10  N   UNL A   1      31.720  23.513  23.796  1.00  0.00    -0.332 N 
ATOM     11  H   UNL A   1      31.061  22.941  23.268  1.00  0.00     0.347 HD
ATOM     12  H   UNL A   1      31.356  24.384  24.182  1.00  0.00     0.347 HD
BRANCH  10  13
ATOM     13  C   UNL A   1      32.751  23.943  22.868  1.00  0.00     0.261 C 
BRANCH  13  14
ATOM     14  C   UNL A   1      32.380  25.257  22.161  1.00  0.00     0.058 C 
ATOM     15  C   UNL A   1      33.438  26.354  22.177  1.00  0.00     0.010 C 
ENDBRANCH  13  14
ENDBRANCH  10  13
ENDBRANCH   5  10
BRANCH   9  16
ATOM     16  N   UNL A   1      31.405  25.852  25.686  1.00  0.00    -0.266 N 
ATOM     17  N   UNL A   1      30.234  25.876  25.003  1.00  0.00    -0.178 NA
ATOM     18  C   UNL A   1      32.048  27.082  25.634  1.00  0.00     0.039 A 
ATOM     19  C   UNL A   1      30.200  27.065  24.402  1.00  0.00     0.063 A 
ATOM     20  C   UNL A   1      31.323  27.859  24.736  1.00  0.00    -0.004 A 
ATOM     21  C   UNL A   1      33.266  27.483  26.391  1.00  0.00     0.066 C 
ATOM     22  C   UNL A   1      29.049  27.411  23.532  1.00  0.00     0.069 C 
BRANCH  20  23
ATOM     23  C   UNL A   1      31.615  29.253  24.272  1.00  0.00     0.036 C 
ATOM     24  C   UNL A   1      31.423  30.303  25.358  1.00  0.00     0.009 C 
ENDBRANCH  20  23
ENDBRANCH   9  16
ENDBRANCH   3   5
ENDBRANCH   2   3
ENDBRANCH   1   2
BRANCH   1  25
ATOM     25  C   UNL A   1      36.277  20.408  24.971  1.00  0.00     0.275 C 
BRANCH  25  26
ATOM     26  O   UNL A   1      37.378  21.327  24.867  1.00  0.00    -0.458 OA
BRANCH  26  27
ATOM     27  C   UNL A   1      38.503  20.987  25.540  1.00  0.00     0.338 C 
ATOM     28  O   UNL A   1      39.008  19.879  25.604  1.00  0.00    -0.246 OA
BRANCH  27  29
ATOM     29  C   UNL A   1      39.090  22.175  26.204  1.00  0.00     0.060 A 
ATOM     30  C   UNL A   1      38.531  23.436  26.033  1.00  0.00     0.016 A 
ATOM     31  C   UNL A   1      40.294  22.051  26.905  1.00  0.00     0.016 A 
ATOM     32  C   UNL A   1      39.232  24.566  26.453  1.00  0.00     0.010 A 
ATOM     33  C   UNL A   1      40.941  23.190  27.411  1.00  0.00     0.010 A 
ATOM     34  C   UNL A   1      40.446  24.476  27.146  1.00  0.00    -0.014 A 
BRANCH  34  35
ATOM     35  C   UNL A   1      41.214  25.719  27.480  1.00  0.00     0.031 A 
ATOM     36  C   UNL A   1      40.633  26.736  28.434  1.00  0.00     0.074 A 
ATOM     37  C   UNL A   1      42.472  25.922  27.030  1.00  0.00     0.049 A 
ATOM     38  N   UNL A   1      41.037  27.956  28.693  1.00  0.00    -0.248 NA
ATOM     39  C   UNL A   1      39.441  26.332  29.197  1.00  0.00     0.031 C 
ATOM     40  C   UNL A   1      43.238  25.003  26.187  1.00  0.00     0.029 A 
ATOM     41  N   UNL A   1      43.350  26.958  27.260  1.00  0.00    -0.354 N 
ATOM     42  C   UNL A   1      40.101  28.490  29.571  1.00  0.00     0.074 A 
ATOM     43  C   UNL A   1      39.125  27.454  29.828  1.00  0.00     0.031 C 
ATOM     44  C   UNL A   1      44.491  25.464  26.055  1.00  0.00     0.029 A 
ATOM     45  C   UNL A   1      44.587  26.773  26.692  1.00  0.00     0.049 A 
ATOM     46  H   UNL A   1      43.112  27.757  27.783  1.00  0.00     0.167 HD
ATOM     47  C   UNL A   1      40.052  29.734  30.105  1.00  0.00     0.037 A 
ATOM     48  C   UNL A   1      45.669  27.577  26.643  1.00  0.00     0.037 A 
ATOM     49  C   UNL A   1      41.063  30.743  29.925  1.00  0.00     0.049 A 
ATOM     50  C   UNL A   1      45.585  28.964  27.215  1.00  0.00     0.074 A 
ATOM     51  C   UNL A   1      41.072  32.051  30.380  1.00  0.00     0.029 A 
ATOM     52  N   UNL A   1      42.267  30.540  29.273  1.00  0.00    -0.354 N 
ATOM     53  N   UNL A   1      44.612  29.521  27.892  1.00  0.00    -0.248 NA
ATOM     54  C   UNL A   1      46.731  29.851  26.967  1.00  0.00     0.031 C 
ATOM     55  C   UNL A   1      42.277  32.645  29.988  1.00  0.00     0.029 A 
ATOM     56  C   UNL A   1      43.029  31.696  29.315  1.00  0.00     0.049 A 
ATOM     57  H   UNL A   1      42.543  29.698  28.843  1.00  0.00     0.167 HD
ATOM     58  C   UNL A   1      45.020  30.827  28.133  1.00  0.00     0.074 A 
ATOM     59  C   UNL A   1      46.346  30.967  27.569  1.00  0.00     0.031 C 
ATOM     60  C   UNL A   1      44.344  31.827  28.748  1.00  0.00     0.037 A 
BRANCH  47  61
ATOM     61  C   UNL A   1      38.829  30.099  30.891  1.00  0.00     0.057 A 
ATOM     62  C   UNL A   1      37.702  30.679  30.301  1.00  0.00     0.134 A 
ATOM     63  C   UNL A   1      38.775  29.827  32.265  1.00  0.00     0.134 A 
ATOM     64  F   UNL A   1      37.699  30.978  28.993  1.00  0.00    -0.206 F 
ATOM     65  C   UNL A   1      36.568  30.993  31.053  1.00  0.00     0.040 A 
ATOM     66  C   UNL A   1      37.640  30.117  33.024  1.00  0.00     0.040 A 
ATOM     67  F   UNL A   1      39.822  29.267  32.890  1.00  0.00    -0.206 F 
ATOM     68  C   UNL A   1      36.533  30.706  32.417  1.00  0.00     0.006 A 
ENDBRANCH  47  61
BRANCH  48  69
ATOM     69  C   UNL A   1      46.910  27.124  25.962  1.00  0.00     0.057 A 
ATOM     70  C   UNL A   1      47.121  27.387  24.604  1.00  0.00     0.134 A 
ATOM     71  C   UNL A   1      47.899  26.404  26.642  1.00  0.00     0.134 A 
ATOM     72  F   UNL A   1      46.195  28.042  23.890  1.00  0.00    -0.206 F 
ATOM     73  C   UNL A   1      48.272  26.947  23.946  1.00  0.00     0.040 A 
ATOM     74  C   UNL A   1      49.067  25.984  26.004  1.00  0.00     0.040 A 
ATOM     75  F   UNL A   1      47.753  26.112  27.942  1.00  0.00    -0.206 F 
ATOM     76  C   UNL A   1      49.253  26.252  24.650  1.00  0.00     0.006 A 
ENDBRANCH  48  69
BRANCH  60  77
ATOM     77  C   UNL A   1      45.026  33.158  28.838  1.00  0.00     0.057 A 
ATOM     78  C   UNL A   1      44.807  34.153  27.877  1.00  0.00     0.134 A 
ATOM     79  C   UNL A   1      45.885  33.456  29.901  1.00  0.00     0.134 A 
ATOM     80  F   UNL A   1      44.006  33.922  26.828  1.00  0.00    -0.206 F 
ATOM     81  C   UNL A   1      45.434  35.397  27.964  1.00  0.00     0.040 A 
ATOM     82  C   UNL A   1      46.504  34.702  30.008  1.00  0.00     0.040 A 
ATOM     83  F   UNL A   1      46.132  32.545  30.854  1.00  0.00    -0.206 F 
ATOM     84  C   UNL A   1      46.282  35.676  29.035  1.00  0.00     0.006 A 
ENDBRANCH  60  77
ENDBRANCH  34  35
ENDBRANCH  27  29
ENDBRANCH  26  27
ENDBRANCH  25  26
ENDBRANCH   1  25
TORSDOF 16
ENDMDL
MODEL 3
REMARK VINA RESULT:     -11.0      3.948      8.780
REMARK SMILES CCC[NH2+][C@]1(C(=O)OCCOC(=O)c2ccc(-c3c4nc(c(-c5c(F)cccc5F)c5ccc([nH]5)c(-c5c(F)cccc5F)c5nc(c(-c6c(F)cccc6F)c6ccc3[nH]6)C=C5)C=C4)cc2)CC[C@H](n2nc(C)c(CC)c2C)C1
REMARK SMILES IDX 9 1 8 2 6 3 7 4 5 5 68 6 80 7 69 8 70 9 4 10 3 13 2 14 1 15
REMARK SMILES IDX 71 16 72 17 78 18 73 19 75 20 79 21 74 22 76 23 77 24 10 25
REMARK SMILES IDX 11 26 12 27 13 28 14 29 15 30 67 31 16 32 66 33 17 34 18 35
REMARK SMILES IDX 19 36 60 37 20 38 65 39 59 40 61 41 21 42 64 43 58 44 57 45
REMARK SMILES IDX 22 47 48 48 31 49 47 50 32 51 35 52 46 53 62 54 33 55 34 56
REMARK SMILES IDX 45 58 63 59 36 60 23 61 24 62 29 63 25 64 26 65 28 66 30 67
REMARK SMILES IDX 27 68 49 69 50 70 55 71 51 72 52 73 54 74 56 75 53 76 37 77
REMARK SMILES IDX 38 78 43 79 39 80 40 81 42 82 44 83 41 84
REMARK H PARENT 4 11 4 12 61 46 35 57
REMARK Flexibility Score: inf
ROOT
ATOM      1  C   UNL A   1      34.439  20.659  25.171  1.00  0.00     0.274 C 
ENDROOT
BRANCH   1   2
ATOM      2  O   UNL A   1      34.275  21.984  25.722  1.00  0.00    -0.457 OA
BRANCH   2   3
ATOM      3  C   UNL A   1      33.041  22.520  25.550  1.00  0.00     0.368 C 
ATOM      4  O   UNL A   1      32.038  22.172  26.174  1.00  0.00    -0.245 OA
BRANCH   3   5
ATOM      5  C   UNL A   1      32.950  23.541  24.402  1.00  0.00     0.196 C 
ATOM      6  C   UNL A   1      33.404  23.161  22.995  1.00  0.00     0.083 C 
ATOM      7  C   UNL A   1      31.445  23.727  24.108  1.00  0.00     0.108 C 
ATOM      8  C   UNL A   1      32.678  24.185  22.096  1.00  0.00     0.034 C 
ATOM      9  C   UNL A   1      31.412  24.655  22.891  1.00  0.00     0.115 C 
BRANCH   5  10
ATOM     10  N   UNL A   1      33.478  24.843  24.875  1.00  0.00    -0.332 N 
ATOM     11  H   UNL A   1      34.494  24.755  24.922  1.00  0.00     0.347 HD
ATOM     12  H   UNL A   1      33.111  25.516  24.204  1.00  0.00     0.347 HD
BRANCH  10  13
ATOM     13  C   UNL A   1      33.036  25.352  26.162  1.00  0.00     0.261 C 
BRANCH  13  14
ATOM     14  C   UNL A   1      33.310  26.859  26.310  1.00  0.00     0.058 C 
ATOM     15  C   UNL A   1      32.173  27.698  26.881  1.00  0.00     0.010 C 
ENDBRANCH  13  14
ENDBRANCH  10  13
ENDBRANCH   5  10
BRANCH   9  16
ATOM     16  N   UNL A   1      31.370  26.105  23.114  1.00  0.00    -0.266 N 
ATOM     17  N   UNL A   1      32.497  26.776  22.773  1.00  0.00    -0.178 NA
ATOM     18  C   UNL A   1      30.349  26.975  23.472  1.00  0.00     0.039 A 
ATOM     19  C   UNL A   1      32.242  28.056  23.047  1.00  0.00     0.063 A 
ATOM     20  C   UNL A   1      30.920  28.244  23.514  1.00  0.00    -0.004 A 
ATOM     21  C   UNL A   1      28.931  26.619  23.749  1.00  0.00     0.066 C 
ATOM     22  C   UNL A   1      33.296  29.076  22.817  1.00  0.00     0.069 C 
BRANCH  20  23
ATOM     23  C   UNL A   1      30.272  29.538  23.899  1.00  0.00     0.036 C 
ATOM     24  C   UNL A   1      29.473  30.172  22.769  1.00  0.00     0.009 C 
ENDBRANCH  20  23
ENDBRANCH   9  16
ENDBRANCH   3   5
ENDBRANCH   2   3
ENDBRANCH   1   2
BRANCH   1  25
ATOM     25  C   UNL A   1      35.916  20.307  25.001  1.00  0.00     0.275 C 
BRANCH  25  26
ATOM     26  O   UNL A   1      36.733  21.446  25.327  1.00  0.00    -0.458 OA
BRANCH  26  27
ATOM     27  C   UNL A   1      38.047  21.194  25.538  1.00  0.00     0.338 C 
ATOM     28  O   UNL A   1      38.658  20.189  25.219  1.00  0.00    -0.246 OA
BRANCH  27  29
ATOM     29  C   UNL A   1      38.694  22.343  26.214  1.00  0.00     0.060 A 
ATOM     30  C   UNL A   1      38.170  23.627  26.097  1.00  0.00     0.016 A 
ATOM     31  C   UNL A   1      39.914  22.162  26.871  1.00  0.00     0.016 A 
ATOM     32  C   UNL A   1      38.921  24.721  26.524  1.00  0.00     0.010 A 
ATOM     33  C   UNL A   1      40.615  23.266  27.385  1.00  0.00     0.010 A 
ATOM     34  C   UNL A   1      40.153  24.574  27.173  1.00  0.00    -0.014 A 
BRANCH  34  35
ATOM     35  C   UNL A   1      40.972  25.782  27.515  1.00  0.00     0.031 A 
ATOM     36  C   UNL A   1      40.433  26.816  28.475  1.00  0.00     0.074 A 
ATOM     37  C   UNL A   1      42.237  25.935  27.066  1.00  0.00     0.049 A 
ATOM     38  N   UNL A   1      40.886  28.016  28.741  1.00  0.00    -0.248 NA
ATOM     39  C   UNL A   1      39.224  26.456  29.235  1.00  0.00     0.031 C 
ATOM     40  C   UNL A   1      42.965  24.991  26.217  1.00  0.00     0.029 A 
ATOM     41  N   UNL A   1      43.156  26.933  27.302  1.00  0.00    -0.354 N 
ATOM     42  C   UNL A   1      39.973  28.583  29.623  1.00  0.00     0.074 A 
ATOM     43  C   UNL A   1      38.955  27.586  29.873  1.00  0.00     0.031 C 
ATOM     44  C   UNL A   1      44.235  25.401  26.088  1.00  0.00     0.029 A 
ATOM     45  C   UNL A   1      44.385  26.701  26.732  1.00  0.00     0.049 A 
ATOM     46  H   UNL A   1      42.951  27.739  27.830  1.00  0.00     0.167 HD
ATOM     47  C   UNL A   1      39.975  29.824  30.165  1.00  0.00     0.037 A 
ATOM     48  C   UNL A   1      45.499  27.460  26.688  1.00  0.00     0.037 A 
ATOM     49  C   UNL A   1      41.027  30.792  29.991  1.00  0.00     0.049 A 
ATOM     50  C   UNL A   1      45.472  28.846  27.269  1.00  0.00     0.074 A 
ATOM     51  C   UNL A   1      41.089  32.096  30.454  1.00  0.00     0.029 A 
ATOM     52  N   UNL A   1      42.221  30.544  29.338  1.00  0.00    -0.354 N 
ATOM     53  N   UNL A   1      44.523  29.438  27.950  1.00  0.00    -0.248 NA
ATOM     54  C   UNL A   1      46.654  29.687  27.027  1.00  0.00     0.031 C 
ATOM     55  C   UNL A   1      42.317  32.642  30.066  1.00  0.00     0.029 A 
ATOM     56  C   UNL A   1      43.030  31.667  29.387  1.00  0.00     0.049 A 
ATOM     57  H   UNL A   1      42.463  29.694  28.903  1.00  0.00     0.167 HD
ATOM     58  C   UNL A   1      44.984  30.725  28.200  1.00  0.00     0.074 A 
ATOM     59  C   UNL A   1      46.314  30.814  27.636  1.00  0.00     0.031 C 
ATOM     60  C   UNL A   1      44.350  31.748  28.820  1.00  0.00     0.037 A 
BRANCH  47  61
ATOM     61  C   UNL A   1      38.768  30.234  30.953  1.00  0.00     0.057 A 
ATOM     62  C   UNL A   1      38.674  30.043  32.335  1.00  0.00     0.134 A 
ATOM     63  C   UNL A   1      37.693  30.864  30.310  1.00  0.00     0.134 A 
ATOM     64  F   UNL A   1      39.661  29.431  33.005  1.00  0.00    -0.206 F 
ATOM     65  C   UNL A   1      37.545  30.450  33.050  1.00  0.00     0.040 A 
ATOM     66  C   UNL A   1      36.569  31.294  31.016  1.00  0.00     0.040 A 
ATOM     67  F   UNL A   1      37.724  31.080  28.986  1.00  0.00    -0.206 F 
ATOM     68  C   UNL A   1      36.491  31.083  32.391  1.00  0.00     0.006 A 
ENDBRANCH  47  61
BRANCH  48  69
ATOM     69  C   UNL A   1      46.720  26.962  26.005  1.00  0.00     0.057 A 
ATOM     70  C   UNL A   1      47.687  26.230  26.705  1.00  0.00     0.134 A 
ATOM     71  C   UNL A   1      46.962  27.221  24.651  1.00  0.00     0.134 A 
ATOM     72  F   UNL A   1      47.530  25.980  28.012  1.00  0.00    -0.206 F 
ATOM     73  C   UNL A   1      48.852  25.776  26.081  1.00  0.00     0.040 A 
ATOM     74  C   UNL A   1      48.107  26.747  24.009  1.00  0.00     0.040 A 
ATOM     75  F   UNL A   1      46.079  27.924  23.927  1.00  0.00    -0.206 F 
ATOM     76  C   UNL A   1      49.058  26.027  24.727  1.00  0.00     0.006 A 
ENDBRANCH  48  69
BRANCH  60  77
ATOM     77  C   UNL A   1      45.086  33.049  28.919  1.00  0.00     0.057 A 
ATOM     78  C   UNL A   1      45.957  33.313  29.983  1.00  0.00     0.134 A 
ATOM     79  C   UNL A   1      44.944  34.033  27.933  1.00  0.00     0.134 A 
ATOM     80  F   UNL A   1      46.123  32.415  30.965  1.00  0.00    -0.206 F 
ATOM     81  C   UNL A   1      46.651  34.520  30.072  1.00  0.00     0.040 A 
ATOM     82  C   UNL A   1      45.646  35.236  28.003  1.00  0.00     0.040 A 
ATOM     83  F   UNL A   1      44.127  33.837  26.888  1.00  0.00    -0.206 F 
ATOM     84  C   UNL A   1      46.499  35.485  29.077  1.00  0.00     0.006 A 
ENDBRANCH  60  77
ENDBRANCH  34  35
ENDBRANCH  27  29
ENDBRANCH  26  27
ENDBRANCH  25  26
ENDBRANCH   1  25
TORSDOF 16
ENDMDL
