MODEL 1
REMARK VINA RESULT:     -11.7      0.000      0.000
REMARK SMILES CO[C@@H]1C[C@@H](C(=O)OCCOC(=O)c2ccc(-c3c4nc(c(-c5c(F)cccc5F)c5ccc([nH]5)c(-c5c(F)cccc5F)c5nc(c(-c6c(F)cccc6F)c6ccc3[nH]6)C=C5)C=C4)cc2)N(S(=O)(=O)/C=C/c2ccccc2)C1
REMARK SMILES IDX 9 1 8 2 6 3 7 4 5 5 3 6 4 7 80 8 68 9 2 10 1 11 69 12 70 13
REMARK SMILES IDX 71 14 72 15 73 16 74 17 75 18 79 19 76 20 78 21 77 22 10 23
REMARK SMILES IDX 11 24 12 25 13 26 14 27 15 28 67 29 16 30 66 31 17 32 18 33
REMARK SMILES IDX 19 34 60 35 20 36 65 37 59 38 61 39 21 40 64 41 58 42 57 43
REMARK SMILES IDX 22 45 48 46 31 47 47 48 32 49 35 50 46 51 62 52 33 53 34 54
REMARK SMILES IDX 45 56 63 57 36 58 23 59 24 60 29 61 25 62 26 63 28 64 30 65
REMARK SMILES IDX 27 66 49 67 50 68 55 69 51 70 52 71 54 72 56 73 53 74 37 75
REMARK SMILES IDX 38 76 43 77 39 78 40 79 42 80 44 81 41 82
REMARK H PARENT 61 44 35 55
REMARK Flexibility Score: inf
ROOT
ATOM      1  C   UNL A   1      36.038  21.059  25.304  1.00  0.00     0.274 C 
ENDROOT
BRANCH   1   2
ATOM      2  O   UNL A   1      35.632  21.963  24.260  1.00  0.00    -0.461 OA
BRANCH   2   3
ATOM      3  C   UNL A   1      35.404  23.276  24.582  1.00  0.00     0.324 C 
ATOM      4  O   UNL A   1      35.960  23.891  25.480  1.00  0.00    -0.250 OA
BRANCH   3   5
ATOM      5  C   UNL A   1      34.307  23.814  23.698  1.00  0.00     0.185 C 
ATOM      6  C   UNL A   1      32.811  25.376  22.816  1.00  0.00     0.135 C 
ATOM      7  C   UNL A   1      33.891  25.271  23.890  1.00  0.00     0.065 C 
ATOM      8  C   UNL A   1      32.081  24.011  22.909  1.00  0.00     0.135 C 
ATOM      9  N   UNL A   1      33.003  23.075  23.675  1.00  0.00    -0.181 NA
BRANCH   6  10
ATOM     10  O   UNL A   1      33.550  25.649  21.616  1.00  0.00    -0.380 OA
ATOM     11  C   UNL A   1      32.843  25.574  20.394  1.00  0.00     0.195 C 
ENDBRANCH   6  10
BRANCH   9  12
ATOM     12  S   UNL A   1      32.295  22.594  25.173  1.00  0.00     0.237 S 
ATOM     13  O   UNL A   1      33.035  23.284  26.208  1.00  0.00    -0.207 OA
ATOM     14  O   UNL A   1      30.877  22.871  25.024  1.00  0.00    -0.207 OA
BRANCH  12  15
ATOM     15  C   UNL A   1      32.505  20.895  25.425  1.00  0.00     0.123 C 
ATOM     16  C   UNL A   1      32.653  20.063  24.386  1.00  0.00     0.021 C 
BRANCH  16  17
ATOM     17  C   UNL A   1      32.831  18.604  24.486  1.00  0.00    -0.025 A 
ATOM     18  C   UNL A   1      32.532  17.864  25.640  1.00  0.00     0.008 A 
ATOM     19  C   UNL A   1      33.430  17.934  23.410  1.00  0.00     0.008 A 
ATOM     20  C   UNL A   1      32.903  16.520  25.750  1.00  0.00     0.001 A 
ATOM     21  C   UNL A   1      33.763  16.580  23.502  1.00  0.00     0.001 A 
ATOM     22  C   UNL A   1      33.523  15.879  24.681  1.00  0.00     0.000 A 
ENDBRANCH  16  17
ENDBRANCH  12  15
ENDBRANCH   9  12
ENDBRANCH   3   5
ENDBRANCH   2   3
ENDBRANCH   1   2
BRANCH   1  23
ATOM     23  C   UNL A   1      37.348  20.336  25.002  1.00  0.00     0.275 C 
BRANCH  23  24
ATOM     24  O   UNL A   1      38.431  21.279  25.012  1.00  0.00    -0.458 OA
BRANCH  24  25
ATOM     25  C   UNL A   1      39.374  21.001  25.934  1.00  0.00     0.338 C 
ATOM     26  O   UNL A   1      39.965  19.936  26.078  1.00  0.00    -0.246 OA
BRANCH  25  27
ATOM     27  C   UNL A   1      39.755  22.213  26.672  1.00  0.00     0.060 A 
ATOM     28  C   UNL A   1      39.145  23.401  26.256  1.00  0.00     0.016 A 
ATOM     29  C   UNL A   1      40.734  22.227  27.668  1.00  0.00     0.016 A 
ATOM     30  C   UNL A   1      39.561  24.619  26.760  1.00  0.00     0.010 A 
ATOM     31  C   UNL A   1      41.174  23.455  28.164  1.00  0.00     0.010 A 
ATOM     32  C   UNL A   1      40.630  24.650  27.658  1.00  0.00    -0.014 A 
BRANCH  32  33
ATOM     33  C   UNL A   1      41.346  25.930  27.820  1.00  0.00     0.031 A 
ATOM     34  C   UNL A   1      40.661  27.021  28.597  1.00  0.00     0.074 A 
ATOM     35  C   UNL A   1      42.610  26.068  27.390  1.00  0.00     0.049 A 
ATOM     36  N   UNL A   1      41.052  28.242  28.840  1.00  0.00    -0.248 NA
ATOM     37  C   UNL A   1      39.351  26.682  29.184  1.00  0.00     0.031 C 
ATOM     38  C   UNL A   1      43.390  25.031  26.717  1.00  0.00     0.029 A 
ATOM     39  N   UNL A   1      43.460  27.138  27.470  1.00  0.00    -0.354 N 
ATOM     40  C   UNL A   1      40.028  28.824  29.577  1.00  0.00     0.074 A 
ATOM     41  C   UNL A   1      38.990  27.830  29.732  1.00  0.00     0.031 C 
ATOM     42  C   UNL A   1      44.611  25.520  26.440  1.00  0.00     0.029 A 
ATOM     43  C   UNL A   1      44.676  26.911  26.879  1.00  0.00     0.049 A 
ATOM     44  H   UNL A   1      43.221  27.986  27.908  1.00  0.00     0.167 HD
ATOM     45  C   UNL A   1      39.964  30.078  30.082  1.00  0.00     0.037 A 
ATOM     46  C   UNL A   1      45.712  27.751  26.698  1.00  0.00     0.037 A 
ATOM     47  C   UNL A   1      41.019  31.043  29.937  1.00  0.00     0.049 A 
ATOM     48  C   UNL A   1      45.600  29.155  27.226  1.00  0.00     0.074 A 
ATOM     49  C   UNL A   1      41.062  32.352  30.376  1.00  0.00     0.029 A 
ATOM     50  N   UNL A   1      42.229  30.788  29.306  1.00  0.00    -0.354 N 
ATOM     51  N   UNL A   1      44.608  29.719  27.874  1.00  0.00    -0.248 NA
ATOM     52  C   UNL A   1      46.750  30.040  27.001  1.00  0.00     0.031 C 
ATOM     53  C   UNL A   1      42.289  32.900  29.984  1.00  0.00     0.029 A 
ATOM     54  C   UNL A   1      43.026  31.918  29.339  1.00  0.00     0.049 A 
ATOM     55  H   UNL A   1      42.482  29.930  28.894  1.00  0.00     0.167 HD
ATOM     56  C   UNL A   1      45.023  31.013  28.158  1.00  0.00     0.074 A 
ATOM     57  C   UNL A   1      46.362  31.145  27.620  1.00  0.00     0.031 C 
ATOM     58  C   UNL A   1      44.360  32.005  28.804  1.00  0.00     0.037 A 
BRANCH  45  59
ATOM     59  C   UNL A   1      38.701  30.473  30.788  1.00  0.00     0.057 A 
ATOM     60  C   UNL A   1      38.527  30.294  32.166  1.00  0.00     0.134 A 
ATOM     61  C   UNL A   1      37.635  31.035  30.072  1.00  0.00     0.134 A 
ATOM     62  F   UNL A   1      39.498  29.737  32.908  1.00  0.00    -0.206 F 
ATOM     63  C   UNL A   1      37.333  30.636  32.804  1.00  0.00     0.040 A 
ATOM     64  C   UNL A   1      36.446  31.405  30.702  1.00  0.00     0.040 A 
ATOM     65  F   UNL A   1      37.731  31.229  28.749  1.00  0.00    -0.206 F 
ATOM     66  C   UNL A   1      36.289  31.200  32.071  1.00  0.00     0.006 A 
ENDBRANCH  45  59
BRANCH  46  67
ATOM     67  C   UNL A   1      46.922  27.290  25.976  1.00  0.00     0.057 A 
ATOM     68  C   UNL A   1      47.999  26.705  26.652  1.00  0.00     0.134 A 
ATOM     69  C   UNL A   1      47.029  27.417  24.584  1.00  0.00     0.134 A 
ATOM     70  F   UNL A   1      47.965  26.574  27.987  1.00  0.00    -0.206 F 
ATOM     71  C   UNL A   1      49.141  26.273  25.976  1.00  0.00     0.040 A 
ATOM     72  C   UNL A   1      48.155  26.966  23.892  1.00  0.00     0.040 A 
ATOM     73  F   UNL A   1      46.032  27.966  23.875  1.00  0.00    -0.206 F 
ATOM     74  C   UNL A   1      49.217  26.397  24.589  1.00  0.00     0.006 A 
ENDBRANCH  46  67
BRANCH  58  75
ATOM     75  C   UNL A   1      45.100  33.293  29.003  1.00  0.00     0.057 A 
ATOM     76  C   UNL A   1      45.913  33.514  30.121  1.00  0.00     0.134 A 
ATOM     77  C   UNL A   1      45.018  34.312  28.046  1.00  0.00     0.134 A 
ATOM     78  F   UNL A   1      46.023  32.579  31.077  1.00  0.00    -0.206 F 
ATOM     79  C   UNL A   1      46.599  34.717  30.294  1.00  0.00     0.040 A 
ATOM     80  C   UNL A   1      45.718  35.508  28.194  1.00  0.00     0.040 A 
ATOM     81  F   UNL A   1      44.263  34.155  26.947  1.00  0.00    -0.206 F 
ATOM     82  C   UNL A   1      46.506  35.716  29.325  1.00  0.00     0.006 A 
ENDBRANCH  58  75
ENDBRANCH  32  33
ENDBRANCH  25  27
ENDBRANCH  24  25
ENDBRANCH  23  24
ENDBRANCH   1  23
TORSDOF 15
ENDMDL
MODEL 2
REMARK VINA RESULT:     -11.5      1.115      1.679
REMARK SMILES CO[C@@H]1C[C@@H](C(=O)OCCOC(=O)c2ccc(-c3c4nc(c(-c5c(F)cccc5F)c5ccc([nH]5)c(-c5c(F)cccc5F)c5nc(c(-c6c(F)cccc6F)c6ccc3[nH]6)C=C5)C=C4)cc2)N(S(=O)(=O)/C=C/c2ccccc2)C1
REMARK SMILES IDX 9 1 8 2 6 3 7 4 5 5 3 6 4 7 80 8 68 9 2 10 1 11 69 12 70 13
REMARK SMILES IDX 71 14 72 15 73 16 74 17 75 18 79 19 76 20 78 21 77 22 10 23
REMARK SMILES IDX 11 24 12 25 13 26 14 27 15 28 67 29 16 30 66 31 17 32 18 33
REMARK SMILES IDX 19 34 60 35 20 36 65 37 59 38 61 39 21 40 64 41 58 42 57 43
REMARK SMILES IDX 22 45 48 46 31 47 47 48 32 49 35 50 46 51 62 52 33 53 34 54
REMARK SMILES IDX 45 56 63 57 36 58 23 59 24 60 29 61 25 62 26 63 28 64 30 65
REMARK SMILES IDX 27 66 49 67 50 68 55 69 51 70 52 71 54 72 56 73 53 74 37 75
REMARK SMILES IDX 38 76 43 77 39 78 40 79 42 80 44 81 41 82
REMARK H PARENT 61 44 35 55
REMARK Flexibility Score: inf
ROOT
ATOM      1  C   UNL A   1      36.532  22.726  23.474  1.00  0.00     0.274 C 
ENDROOT
BRANCH   1   2
ATOM      2  O   UNL A   1      35.583  23.514  24.214  1.00  0.00    -0.461 OA
BRANCH   2   3
ATOM      3  C   UNL A   1      34.310  23.639  23.721  1.00  0.00     0.324 C 
ATOM      4  O   UNL A   1      33.865  23.045  22.750  1.00  0.00    -0.250 OA
BRANCH   3   5
ATOM      5  C   UNL A   1      33.574  24.682  24.525  1.00  0.00     0.185 C 
ATOM      6  C   UNL A   1      33.287  26.469  26.001  1.00  0.00     0.135 C 
ATOM      7  C   UNL A   1      34.401  25.602  25.421  1.00  0.00     0.065 C 
ATOM      8  C   UNL A   1      32.135  25.458  26.241  1.00  0.00     0.135 C 
ATOM      9  N   UNL A   1      32.465  24.220  25.421  1.00  0.00    -0.181 NA
BRANCH   6  10
ATOM     10  O   UNL A   1      33.082  27.477  24.999  1.00  0.00    -0.380 OA
ATOM     11  C   UNL A   1      31.775  28.000  24.870  1.00  0.00     0.195 C 
ENDBRANCH   6  10
BRANCH   9  12
ATOM     12  S   UNL A   1      32.737  22.854  26.440  1.00  0.00     0.237 S 
ATOM     13  O   UNL A   1      34.119  22.936  26.864  1.00  0.00    -0.207 OA
ATOM     14  O   UNL A   1      31.692  22.922  27.446  1.00  0.00    -0.207 OA
BRANCH  12  15
ATOM     15  C   UNL A   1      32.552  21.385  25.546  1.00  0.00     0.123 C 
ATOM     16  C   UNL A   1      33.600  20.580  25.328  1.00  0.00     0.021 C 
BRANCH  16  17
ATOM     17  C   UNL A   1      33.555  19.312  24.577  1.00  0.00    -0.025 A 
ATOM     18  C   UNL A   1      34.549  18.326  24.663  1.00  0.00     0.008 A 
ATOM     19  C   UNL A   1      32.521  19.128  23.650  1.00  0.00     0.008 A 
ATOM     20  C   UNL A   1      34.558  17.236  23.786  1.00  0.00     0.001 A 
ATOM     21  C   UNL A   1      32.505  18.017  22.802  1.00  0.00     0.001 A 
ATOM     22  C   UNL A   1      33.537  17.085  22.852  1.00  0.00     0.000 A 
ENDBRANCH  16  17
ENDBRANCH  12  15
ENDBRANCH   9  12
ENDBRANCH   3   5
ENDBRANCH   2   3
ENDBRANCH   1   2
BRANCH   1  23
ATOM     23  C   UNL A   1      37.092  21.549  24.270  1.00  0.00     0.275 C 
BRANCH  23  24
ATOM     24  O   UNL A   1      37.414  21.979  25.601  1.00  0.00    -0.458 OA
BRANCH  24  25
ATOM     25  C   UNL A   1      38.684  21.705  25.960  1.00  0.00     0.338 C 
ATOM     26  O   UNL A   1      39.354  20.742  25.601  1.00  0.00    -0.246 OA
BRANCH  25  27
ATOM     27  C   UNL A   1      39.260  22.816  26.730  1.00  0.00     0.060 A 
ATOM     28  C   UNL A   1      38.676  24.070  26.526  1.00  0.00     0.016 A 
ATOM     29  C   UNL A   1      40.383  22.678  27.549  1.00  0.00     0.016 A 
ATOM     30  C   UNL A   1      39.251  25.208  27.060  1.00  0.00     0.010 A 
ATOM     31  C   UNL A   1      40.980  23.826  28.072  1.00  0.00     0.010 A 
ATOM     32  C   UNL A   1      40.448  25.093  27.770  1.00  0.00    -0.014 A 
BRANCH  32  33
ATOM     33  C   UNL A   1      41.268  26.310  27.924  1.00  0.00     0.031 A 
ATOM     34  C   UNL A   1      40.686  27.449  28.715  1.00  0.00     0.074 A 
ATOM     35  C   UNL A   1      42.532  26.347  27.474  1.00  0.00     0.049 A 
ATOM     36  N   UNL A   1      41.179  28.633  28.956  1.00  0.00    -0.248 NA
ATOM     37  C   UNL A   1      39.362  27.215  29.323  1.00  0.00     0.031 C 
ATOM     38  C   UNL A   1      43.215  25.253  26.785  1.00  0.00     0.029 A 
ATOM     39  N   UNL A   1      43.467  27.344  27.543  1.00  0.00    -0.354 N 
ATOM     40  C   UNL A   1      40.217  29.293  29.711  1.00  0.00     0.074 A 
ATOM     41  C   UNL A   1      39.105  28.386  29.880  1.00  0.00     0.031 C 
ATOM     42  C   UNL A   1      44.466  25.642  26.489  1.00  0.00     0.029 A 
ATOM     43  C   UNL A   1      44.651  27.022  26.932  1.00  0.00     0.049 A 
ATOM     44  H   UNL A   1      43.304  28.207  27.988  1.00  0.00     0.167 HD
ATOM     45  C   UNL A   1      40.264  30.545  30.222  1.00  0.00     0.037 A 
ATOM     46  C   UNL A   1      45.749  27.776  26.737  1.00  0.00     0.037 A 
ATOM     47  C   UNL A   1      41.391  31.423  30.062  1.00  0.00     0.049 A 
ATOM     48  C   UNL A   1      45.760  29.182  27.271  1.00  0.00     0.074 A 
ATOM     49  C   UNL A   1      41.547  32.722  30.505  1.00  0.00     0.029 A 
ATOM     50  N   UNL A   1      42.566  31.074  29.411  1.00  0.00    -0.354 N 
ATOM     51  N   UNL A   1      44.827  29.822  27.937  1.00  0.00    -0.248 NA
ATOM     52  C   UNL A   1      46.974  29.972  27.030  1.00  0.00     0.031 C 
ATOM     53  C   UNL A   1      42.808  33.171  30.094  1.00  0.00     0.029 A 
ATOM     54  C   UNL A   1      43.453  32.134  29.435  1.00  0.00     0.049 A 
ATOM     55  H   UNL A   1      42.742  30.199  28.993  1.00  0.00     0.167 HD
ATOM     56  C   UNL A   1      45.350  31.077  28.218  1.00  0.00     0.074 A 
ATOM     57  C   UNL A   1      46.686  31.102  27.659  1.00  0.00     0.031 C 
ATOM     58  C   UNL A   1      44.780  32.116  28.878  1.00  0.00     0.037 A 
BRANCH  45  59
ATOM     59  C   UNL A   1      39.048  31.039  30.950  1.00  0.00     0.057 A 
ATOM     60  C   UNL A   1      38.887  30.878  32.332  1.00  0.00     0.134 A 
ATOM     61  C   UNL A   1      38.014  31.678  30.251  1.00  0.00     0.134 A 
ATOM     62  F   UNL A   1      39.827  30.251  33.057  1.00  0.00    -0.206 F 
ATOM     63  C   UNL A   1      37.735  31.313  32.990  1.00  0.00     0.040 A 
ATOM     64  C   UNL A   1      36.869  32.141  30.901  1.00  0.00     0.040 A 
ATOM     65  F   UNL A   1      38.100  31.860  28.925  1.00  0.00    -0.206 F 
ATOM     66  C   UNL A   1      36.724  31.952  32.274  1.00  0.00     0.006 A 
ENDBRANCH  45  59
BRANCH  46  67
ATOM     67  C   UNL A   1      46.906  27.221  25.993  1.00  0.00     0.057 A 
ATOM     68  C   UNL A   1      47.046  27.408  24.614  1.00  0.00     0.134 A 
ATOM     69  C   UNL A   1      47.909  26.494  26.649  1.00  0.00     0.134 A 
ATOM     70  F   UNL A   1      46.109  28.078  23.926  1.00  0.00    -0.206 F 
ATOM     71  C   UNL A   1      48.131  26.885  23.910  1.00  0.00     0.040 A 
ATOM     72  C   UNL A   1      49.013  25.988  25.962  1.00  0.00     0.040 A 
ATOM     73  F   UNL A   1      47.837  26.281  27.971  1.00  0.00    -0.206 F 
ATOM     74  C   UNL A   1      49.124  26.178  24.588  1.00  0.00     0.006 A 
ENDBRANCH  46  67
BRANCH  58  75
ATOM     75  C   UNL A   1      45.625  33.339  29.070  1.00  0.00     0.057 A 
ATOM     76  C   UNL A   1      46.469  33.489  30.177  1.00  0.00     0.134 A 
ATOM     77  C   UNL A   1      45.613  34.364  28.116  1.00  0.00     0.134 A 
ATOM     78  F   UNL A   1      46.516  32.546  31.129  1.00  0.00    -0.206 F 
ATOM     79  C   UNL A   1      47.253  34.632  30.342  1.00  0.00     0.040 A 
ATOM     80  C   UNL A   1      46.410  35.499  28.256  1.00  0.00     0.040 A 
ATOM     81  F   UNL A   1      44.833  34.273  27.027  1.00  0.00    -0.206 F 
ATOM     82  C   UNL A   1      47.228  35.639  29.376  1.00  0.00     0.006 A 
ENDBRANCH  58  75
ENDBRANCH  32  33
ENDBRANCH  25  27
ENDBRANCH  24  25
ENDBRANCH  23  24
ENDBRANCH   1  23
TORSDOF 15
ENDMDL
MODEL 3
REMARK VINA RESULT:     -11.5      1.528      3.661
REMARK SMILES CO[C@@H]1C[C@@H](C(=O)OCCOC(=O)c2ccc(-c3c4nc(c(-c5c(F)cccc5F)c5ccc([nH]5)c(-c5c(F)cccc5F)c5nc(c(-c6c(F)cccc6F)c6ccc3[nH]6)C=C5)C=C4)cc2)N(S(=O)(=O)/C=C/c2ccccc2)C1
REMARK SMILES IDX 9 1 8 2 6 3 7 4 5 5 3 6 4 7 80 8 68 9 2 10 1 11 69 12 70 13
REMARK SMILES IDX 71 14 72 15 73 16 74 17 75 18 79 19 76 20 78 21 77 22 10 23
REMARK SMILES IDX 11 24 12 25 13 26 14 27 15 28 67 29 16 30 66 31 17 32 18 33
REMARK SMILES IDX 19 34 60 35 20 36 65 37 59 38 61 39 21 40 64 41 58 42 57 43
REMARK SMILES IDX 22 45 48 46 31 47 47 48 32 49 35 50 46 51 62 52 33 53 34 54
REMARK SMILES IDX 45 56 63 57 36 58 23 59 24 60 29 61 25 62 26 63 28 64 30 65
REMARK SMILES IDX 27 66 49 67 50 68 55 69 51 70 52 71 54 72 56 73 53 74 37 75
REMARK SMILES IDX 38 76 43 77 39 78 40 79 42 80 44 81 41 82
REMARK H PARENT 61 44 35 55
REMARK Flexibility Score: inf
ROOT
ATOM      1  C   UNL A   1      35.685  21.329  25.392  1.00  0.00     0.274 C 
ENDROOT
BRANCH   1   2
ATOM      2  O   UNL A   1      35.105  22.068  24.302  1.00  0.00    -0.461 OA
BRANCH   2   3
ATOM      3  C   UNL A   1      35.065  23.436  24.387  1.00  0.00     0.324 C 
ATOM      4  O   UNL A   1      35.759  24.121  25.123  1.00  0.00    -0.250 OA
BRANCH   3   5
ATOM      5  C   UNL A   1      33.974  23.950  23.480  1.00  0.00     0.185 C 
ATOM      6  C   UNL A   1      32.764  25.495  22.215  1.00  0.00     0.135 C 
ATOM      7  C   UNL A   1      33.985  25.436  23.129  1.00  0.00     0.065 C 
ATOM      8  C   UNL A   1      31.753  24.545  22.907  1.00  0.00     0.135 C 
ATOM      9  N   UNL A   1      32.553  23.692  23.879  1.00  0.00    -0.181 NA
BRANCH   6  10
ATOM     10  O   UNL A   1      33.277  25.096  20.934  1.00  0.00    -0.380 OA
ATOM     11  C   UNL A   1      32.535  25.483  19.795  1.00  0.00     0.195 C 
ENDBRANCH   6  10
BRANCH   9  12
ATOM     12  S   UNL A   1      32.081  24.001  25.510  1.00  0.00     0.237 S 
ATOM     13  O   UNL A   1      30.648  24.197  25.485  1.00  0.00    -0.207 OA
ATOM     14  O   UNL A   1      32.622  22.890  26.273  1.00  0.00    -0.207 OA
BRANCH  12  15
ATOM     15  C   UNL A   1      32.799  25.467  26.082  1.00  0.00     0.123 C 
ATOM     16  C   UNL A   1      32.077  26.592  26.171  1.00  0.00     0.021 C 
BRANCH  16  17
ATOM     17  C   UNL A   1      32.589  27.894  26.637  1.00  0.00    -0.025 A 
ATOM     18  C   UNL A   1      31.777  29.022  26.826  1.00  0.00     0.008 A 
ATOM     19  C   UNL A   1      33.973  28.041  26.801  1.00  0.00     0.008 A 
ATOM     20  C   UNL A   1      32.339  30.278  27.078  1.00  0.00     0.001 A 
ATOM     21  C   UNL A   1      34.533  29.287  27.096  1.00  0.00     0.001 A 
ATOM     22  C   UNL A   1      33.718  30.411  27.208  1.00  0.00     0.000 A 
ENDBRANCH  16  17
ENDBRANCH  12  15
ENDBRANCH   9  12
ENDBRANCH   3   5
ENDBRANCH   2   3
ENDBRANCH   1   2
BRANCH   1  23
ATOM     23  C   UNL A   1      36.972  20.601  25.013  1.00  0.00     0.275 C 
BRANCH  23  24
ATOM     24  O   UNL A   1      38.068  21.529  25.018  1.00  0.00    -0.458 OA
BRANCH  24  25
ATOM     25  C   UNL A   1      39.057  21.186  25.868  1.00  0.00     0.338 C 
ATOM     26  O   UNL A   1      39.630  20.103  25.923  1.00  0.00    -0.246 OA
BRANCH  25  27
ATOM     27  C   UNL A   1      39.507  22.351  26.642  1.00  0.00     0.060 A 
ATOM     28  C   UNL A   1      38.900  23.569  26.324  1.00  0.00     0.016 A 
ATOM     29  C   UNL A   1      40.543  22.294  27.576  1.00  0.00     0.016 A 
ATOM     30  C   UNL A   1      39.373  24.752  26.863  1.00  0.00     0.010 A 
ATOM     31  C   UNL A   1      41.039  23.486  28.107  1.00  0.00     0.010 A 
ATOM     32  C   UNL A   1      40.493  24.716  27.696  1.00  0.00    -0.014 A 
BRANCH  32  33
ATOM     33  C   UNL A   1      41.245  25.972  27.878  1.00  0.00     0.031 A 
ATOM     34  C   UNL A   1      40.591  27.070  28.670  1.00  0.00     0.074 A 
ATOM     35  C   UNL A   1      42.515  26.079  27.454  1.00  0.00     0.049 A 
ATOM     36  N   UNL A   1      41.017  28.276  28.932  1.00  0.00    -0.248 NA
ATOM     37  C   UNL A   1      39.269  26.761  29.248  1.00  0.00     0.031 C 
ATOM     38  C   UNL A   1      43.266  25.030  26.767  1.00  0.00     0.029 A 
ATOM     39  N   UNL A   1      43.395  27.122  27.552  1.00  0.00    -0.354 N 
ATOM     40  C   UNL A   1      40.007  28.876  29.675  1.00  0.00     0.074 A 
ATOM     41  C   UNL A   1      38.941  27.912  29.813  1.00  0.00     0.031 C 
ATOM     42  C   UNL A   1      44.501  25.487  26.500  1.00  0.00     0.029 A 
ATOM     43  C   UNL A   1      44.606  26.869  26.961  1.00  0.00     0.049 A 
ATOM     44  H   UNL A   1      43.180  27.970  28.002  1.00  0.00     0.167 HD
ATOM     45  C   UNL A   1      39.979  30.124  30.199  1.00  0.00     0.037 A 
ATOM     46  C   UNL A   1      45.667  27.680  26.795  1.00  0.00     0.037 A 
ATOM     47  C   UNL A   1      41.062  31.060  30.071  1.00  0.00     0.049 A 
ATOM     48  C   UNL A   1      45.595  29.079  27.344  1.00  0.00     0.074 A 
ATOM     49  C   UNL A   1      41.143  32.361  30.530  1.00  0.00     0.029 A 
ATOM     50  N   UNL A   1      42.267  30.779  29.439  1.00  0.00    -0.354 N 
ATOM     51  N   UNL A   1      44.617  29.662  27.998  1.00  0.00    -0.248 NA
ATOM     52  C   UNL A   1      46.770  29.933  27.135  1.00  0.00     0.031 C 
ATOM     53  C   UNL A   1      42.386  32.878  30.149  1.00  0.00     0.029 A 
ATOM     54  C   UNL A   1      43.096  31.884  29.492  1.00  0.00     0.049 A 
ATOM     55  H   UNL A   1      42.496  29.920  29.016  1.00  0.00     0.167 HD
ATOM     56  C   UNL A   1      45.069  30.939  28.302  1.00  0.00     0.074 A 
ATOM     57  C   UNL A   1      46.413  31.040  27.770  1.00  0.00     0.031 C 
ATOM     58  C   UNL A   1      44.434  31.940  28.962  1.00  0.00     0.037 A 
BRANCH  45  59
ATOM     59  C   UNL A   1      38.726  30.545  30.908  1.00  0.00     0.057 A 
ATOM     60  C   UNL A   1      38.550  30.366  32.286  1.00  0.00     0.134 A 
ATOM     61  C   UNL A   1      37.672  31.133  30.195  1.00  0.00     0.134 A 
ATOM     62  F   UNL A   1      39.508  29.785  33.024  1.00  0.00    -0.206 F 
ATOM     63  C   UNL A   1      37.364  30.733  32.926  1.00  0.00     0.040 A 
ATOM     64  C   UNL A   1      36.492  31.529  30.827  1.00  0.00     0.040 A 
ATOM     65  F   UNL A   1      37.772  31.330  28.872  1.00  0.00    -0.206 F 
ATOM     66  C   UNL A   1      36.333  31.322  32.196  1.00  0.00     0.006 A 
ENDBRANCH  45  59
BRANCH  46  67
ATOM     67  C   UNL A   1      46.865  27.195  26.069  1.00  0.00     0.057 A 
ATOM     68  C   UNL A   1      47.898  26.522  26.731  1.00  0.00     0.134 A 
ATOM     69  C   UNL A   1      47.003  27.386  24.688  1.00  0.00     0.134 A 
ATOM     70  F   UNL A   1      47.834  26.326  28.057  1.00  0.00    -0.206 F 
ATOM     71  C   UNL A   1      49.029  26.068  26.052  1.00  0.00     0.040 A 
ATOM     72  C   UNL A   1      48.117  26.913  23.991  1.00  0.00     0.040 A 
ATOM     73  F   UNL A   1      46.048  28.021  23.992  1.00  0.00    -0.206 F 
ATOM     74  C   UNL A   1      49.137  26.257  24.675  1.00  0.00     0.006 A 
ENDBRANCH  46  67
BRANCH  58  75
ATOM     75  C   UNL A   1      45.210  33.203  29.182  1.00  0.00     0.057 A 
ATOM     76  C   UNL A   1      45.156  34.272  28.279  1.00  0.00     0.134 A 
ATOM     77  C   UNL A   1      45.998  33.358  30.330  1.00  0.00     0.134 A 
ATOM     78  F   UNL A   1      44.427  34.177  27.157  1.00  0.00    -0.206 F 
ATOM     79  C   UNL A   1      45.883  35.443  28.498  1.00  0.00     0.040 A 
ATOM     80  C   UNL A   1      46.708  34.534  30.572  1.00  0.00     0.040 A 
ATOM     81  F   UNL A   1      46.081  32.374  31.238  1.00  0.00    -0.206 F 
ATOM     82  C   UNL A   1      46.657  35.578  29.650  1.00  0.00     0.006 A 
ENDBRANCH  58  75
ENDBRANCH  32  33
ENDBRANCH  25  27
ENDBRANCH  24  25
ENDBRANCH  23  24
ENDBRANCH   1  23
TORSDOF 15
ENDMDL
