MODEL 1
REMARK VINA RESULT:     -10.9      0.000      0.000
REMARK SMILES CC(C)C[C@@H](NC(=O)Cn1nc(O)ccc1=O)C(=O)OCCOC(=O)c1ccc(-c2c3nc(c(-c4c(F)cccc4F)c4ccc([nH]4)c(-c4c(F)cccc4F)c4nc(c(-c5c(F)cccc5F)c5ccc2[nH]5)C=C4)C=C3)cc1
REMARK SMILES IDX 21 1 20 2 18 3 19 4 5 5 4 6 2 7 1 8 3 9 6 10 7 11 8 13 9 14
REMARK SMILES IDX 10 15 11 16 16 17 12 18 15 19 17 20 14 21 13 22 22 24 23 25
REMARK SMILES IDX 24 26 25 27 26 28 27 29 79 30 28 31 78 32 29 33 30 34 31 35
REMARK SMILES IDX 72 36 32 37 77 38 71 39 73 40 33 41 76 42 70 43 69 44 34 46
REMARK SMILES IDX 60 47 43 48 59 49 44 50 47 51 58 52 74 53 45 54 46 55 57 57
REMARK SMILES IDX 75 58 48 59 35 60 36 61 41 62 37 63 38 64 40 65 42 66 39 67
REMARK SMILES IDX 61 68 62 69 67 70 63 71 64 72 66 73 68 74 65 75 49 76 50 77
REMARK SMILES IDX 55 78 51 79 52 80 54 81 56 82 53 83
REMARK H PARENT 6 12 13 23 73 45 47 56
REMARK Flexibility Score: inf
ROOT
ATOM      1  C   UNL A   1      32.979  29.218  24.515  1.00  0.00     0.274 C 
ENDROOT
BRANCH   1   2
ATOM      2  O   UNL A   1      32.797  27.790  24.440  1.00  0.00    -0.461 OA
BRANCH   2   3
ATOM      3  C   UNL A   1      32.869  27.231  23.206  1.00  0.00     0.328 C 
ATOM      4  O   UNL A   1      33.567  27.654  22.291  1.00  0.00    -0.250 OA
BRANCH   3   5
ATOM      5  C   UNL A   1      31.907  26.043  23.046  1.00  0.00     0.192 C 
BRANCH   5   6
ATOM      6  C   UNL A   1      32.454  24.772  22.373  1.00  0.00     0.040 C 
BRANCH   6   7
ATOM      7  C   UNL A   1      32.991  23.696  23.348  1.00  0.00    -0.015 C 
ATOM      8  C   UNL A   1      32.906  22.283  22.763  1.00  0.00     0.007 C 
ATOM      9  C   UNL A   1      34.448  23.997  23.715  1.00  0.00     0.007 C 
ENDBRANCH   6   7
ENDBRANCH   5   6
BRANCH   5  10
ATOM     10  N   UNL A   1      31.116  25.793  24.250  1.00  0.00    -0.341 N 
ATOM     11  C   UNL A   1      29.882  26.182  24.665  1.00  0.00     0.242 C 
ATOM     12  H   UNL A   1      31.578  25.217  24.901  1.00  0.00     0.164 HD
ATOM     13  O   UNL A   1      29.596  25.871  25.831  1.00  0.00    -0.273 OA
BRANCH  11  14
ATOM     14  C   UNL A   1      28.777  26.715  23.744  1.00  0.00     0.248 C 
BRANCH  14  15
ATOM     15  N   UNL A   1      28.758  28.097  23.281  1.00  0.00    -0.217 N 
ATOM     16  N   UNL A   1      29.888  28.490  22.558  1.00  0.00    -0.131 NA
ATOM     17  C   UNL A   1      27.552  28.784  23.167  1.00  0.00     0.267 A 
ATOM     18  C   UNL A   1      29.832  29.657  22.025  1.00  0.00     0.229 A 
ATOM     19  C   UNL A   1      27.656  30.191  22.703  1.00  0.00     0.079 A 
ATOM     20  O   UNL A   1      26.455  28.345  23.496  1.00  0.00    -0.268 OA
ATOM     21  C   UNL A   1      28.777  30.644  22.138  1.00  0.00     0.075 A 
BRANCH  18  22
ATOM     22  O   UNL A   1      30.837  30.082  21.251  1.00  0.00    -0.492 OA
ATOM     23  H   UNL A   1      31.465  30.688  21.590  1.00  0.00     0.295 HD
ENDBRANCH  18  22
ENDBRANCH  14  15
ENDBRANCH  11  14
ENDBRANCH   5  10
ENDBRANCH   3   5
ENDBRANCH   2   3
ENDBRANCH   1   2
BRANCH   1  24
ATOM     24  C   UNL A   1      31.910  29.802  25.437  1.00  0.00     0.275 C 
BRANCH  24  25
ATOM     25  O   UNL A   1      32.478  29.946  26.750  1.00  0.00    -0.458 OA
BRANCH  25  26
ATOM     26  C   UNL A   1      33.014  31.163  27.015  1.00  0.00     0.338 C 
ATOM     27  O   UNL A   1      32.471  32.246  26.919  1.00  0.00    -0.246 OA
BRANCH  26  28
ATOM     28  C   UNL A   1      34.300  30.932  27.702  1.00  0.00     0.060 A 
ATOM     29  C   UNL A   1      35.159  31.993  27.997  1.00  0.00     0.016 A 
ATOM     30  C   UNL A   1      34.673  29.612  27.989  1.00  0.00     0.016 A 
ATOM     31  C   UNL A   1      36.399  31.728  28.571  1.00  0.00     0.010 A 
ATOM     32  C   UNL A   1      35.916  29.347  28.557  1.00  0.00     0.010 A 
ATOM     33  C   UNL A   1      36.781  30.406  28.852  1.00  0.00    -0.014 A 
BRANCH  33  34
ATOM     34  C   UNL A   1      38.049  30.160  29.564  1.00  0.00     0.031 A 
ATOM     35  C   UNL A   1      38.284  30.707  30.934  1.00  0.00     0.074 A 
ATOM     36  C   UNL A   1      38.969  29.397  28.952  1.00  0.00     0.049 A 
ATOM     37  N   UNL A   1      39.253  30.434  31.768  1.00  0.00    -0.248 NA
ATOM     38  C   UNL A   1      37.311  31.690  31.433  1.00  0.00     0.031 C 
ATOM     39  C   UNL A   1      38.842  28.856  27.597  1.00  0.00     0.029 A 
ATOM     40  N   UNL A   1      40.176  28.927  29.392  1.00  0.00    -0.354 N 
ATOM     41  C   UNL A   1      38.991  31.181  32.908  1.00  0.00     0.074 A 
ATOM     42  C   UNL A   1      37.803  31.963  32.635  1.00  0.00     0.031 C 
ATOM     43  C   UNL A   1      39.915  28.097  27.328  1.00  0.00     0.029 A 
ATOM     44  C   UNL A   1      40.797  28.101  28.490  1.00  0.00     0.049 A 
ATOM     45  H   UNL A   1      40.560  29.158  30.269  1.00  0.00     0.167 HD
ATOM     46  C   UNL A   1      39.674  31.191  34.077  1.00  0.00     0.037 A 
ATOM     47  C   UNL A   1      41.940  27.402  28.605  1.00  0.00     0.037 A 
ATOM     48  C   UNL A   1      40.875  30.431  34.314  1.00  0.00     0.049 A 
ATOM     49  C   UNL A   1      42.689  27.451  29.902  1.00  0.00     0.074 A 
ATOM     50  C   UNL A   1      41.635  30.347  35.469  1.00  0.00     0.029 A 
ATOM     51  N   UNL A   1      41.502  29.635  33.366  1.00  0.00    -0.354 N 
ATOM     52  N   UNL A   1      42.386  28.088  31.007  1.00  0.00    -0.248 NA
ATOM     53  C   UNL A   1      43.931  26.671  29.974  1.00  0.00     0.031 C 
ATOM     54  C   UNL A   1      42.741  29.528  35.206  1.00  0.00     0.029 A 
ATOM     55  C   UNL A   1      42.651  29.073  33.900  1.00  0.00     0.049 A 
ATOM     56  H   UNL A   1      41.178  29.490  32.447  1.00  0.00     0.167 HD
ATOM     57  C   UNL A   1      43.389  27.775  31.913  1.00  0.00     0.074 A 
ATOM     58  C   UNL A   1      44.299  26.875  31.231  1.00  0.00     0.031 C 
ATOM     59  C   UNL A   1      43.546  28.194  33.192  1.00  0.00     0.037 A 
BRANCH  46  60
ATOM     60  C   UNL A   1      39.129  32.043  35.184  1.00  0.00     0.057 A 
ATOM     61  C   UNL A   1      38.304  31.500  36.176  1.00  0.00     0.134 A 
ATOM     62  C   UNL A   1      39.399  33.417  35.249  1.00  0.00     0.134 A 
ATOM     63  F   UNL A   1      38.000  30.193  36.170  1.00  0.00    -0.206 F 
ATOM     64  C   UNL A   1      37.769  32.292  37.194  1.00  0.00     0.040 A 
ATOM     65  C   UNL A   1      38.886  34.216  36.273  1.00  0.00     0.040 A 
ATOM     66  F   UNL A   1      40.190  33.998  34.334  1.00  0.00    -0.206 F 
ATOM     67  C   UNL A   1      38.063  33.654  37.247  1.00  0.00     0.006 A 
ENDBRANCH  46  60
BRANCH  47  68
ATOM     68  C   UNL A   1      42.395  26.553  27.480  1.00  0.00     0.057 A 
ATOM     69  C   UNL A   1      42.015  25.209  27.381  1.00  0.00     0.134 A 
ATOM     70  C   UNL A   1      43.248  27.061  26.495  1.00  0.00     0.134 A 
ATOM     71  F   UNL A   1      41.209  24.664  28.305  1.00  0.00    -0.206 F 
ATOM     72  C   UNL A   1      42.472  24.398  26.343  1.00  0.00     0.040 A 
ATOM     73  C   UNL A   1      43.698  26.265  25.441  1.00  0.00     0.040 A 
ATOM     74  F   UNL A   1      43.638  28.343  26.536  1.00  0.00    -0.206 F 
ATOM     75  C   UNL A   1      43.314  24.928  25.366  1.00  0.00     0.006 A 
ENDBRANCH  47  68
BRANCH  59  76
ATOM     76  C   UNL A   1      44.748  27.674  33.921  1.00  0.00     0.057 A 
ATOM     77  C   UNL A   1      45.956  28.380  33.906  1.00  0.00     0.134 A 
ATOM     78  C   UNL A   1      44.705  26.470  34.637  1.00  0.00     0.134 A 
ATOM     79  F   UNL A   1      46.061  29.537  33.236  1.00  0.00    -0.206 F 
ATOM     80  C   UNL A   1      47.081  27.909  34.583  1.00  0.00     0.040 A 
ATOM     81  C   UNL A   1      45.817  26.000  35.336  1.00  0.00     0.040 A 
ATOM     82  F   UNL A   1      43.569  25.758  34.703  1.00  0.00    -0.206 F 
ATOM     83  C   UNL A   1      47.011  26.719  35.307  1.00  0.00     0.006 A 
ENDBRANCH  59  76
ENDBRANCH  33  34
ENDBRANCH  26  28
ENDBRANCH  25  26
ENDBRANCH  24  25
ENDBRANCH   1  24
TORSDOF 17
ENDMDL
MODEL 2
REMARK VINA RESULT:     -10.9      4.016      8.473
REMARK SMILES CC(C)C[C@@H](NC(=O)Cn1nc(O)ccc1=O)C(=O)OCCOC(=O)c1ccc(-c2c3nc(c(-c4c(F)cccc4F)c4ccc([nH]4)c(-c4c(F)cccc4F)c4nc(c(-c5c(F)cccc5F)c5ccc2[nH]5)C=C4)C=C3)cc1
REMARK SMILES IDX 21 1 20 2 18 3 19 4 5 5 4 6 2 7 1 8 3 9 6 10 7 11 8 13 9 14
REMARK SMILES IDX 10 15 11 16 16 17 12 18 15 19 17 20 14 21 13 22 22 24 23 25
REMARK SMILES IDX 24 26 25 27 26 28 27 29 79 30 28 31 78 32 29 33 30 34 31 35
REMARK SMILES IDX 72 36 32 37 77 38 71 39 73 40 33 41 76 42 70 43 69 44 34 46
REMARK SMILES IDX 60 47 43 48 59 49 44 50 47 51 58 52 74 53 45 54 46 55 57 57
REMARK SMILES IDX 75 58 48 59 35 60 36 61 41 62 37 63 38 64 40 65 42 66 39 67
REMARK SMILES IDX 61 68 62 69 67 70 63 71 64 72 66 73 68 74 65 75 49 76 50 77
REMARK SMILES IDX 55 78 51 79 52 80 54 81 56 82 53 83
REMARK H PARENT 6 12 13 23 73 45 47 56
REMARK Flexibility Score: inf
ROOT
ATOM      1  C   UNL A   1      35.018  20.767  25.542  1.00  0.00     0.274 C 
ENDROOT
BRANCH   1   2
ATOM      2  O   UNL A   1      34.074  20.540  24.477  1.00  0.00    -0.461 OA
BRANCH   2   3
ATOM      3  C   UNL A   1      32.760  20.661  24.791  1.00  0.00     0.328 C 
ATOM      4  O   UNL A   1      32.007  19.717  25.007  1.00  0.00    -0.250 OA
BRANCH   3   5
ATOM      5  C   UNL A   1      32.286  22.122  24.766  1.00  0.00     0.192 C 
BRANCH   5   6
ATOM      6  C   UNL A   1      31.946  22.736  23.396  1.00  0.00     0.040 C 
BRANCH   6   7
ATOM      7  C   UNL A   1      33.042  23.654  22.802  1.00  0.00    -0.015 C 
ATOM      8  C   UNL A   1      32.466  24.952  22.227  1.00  0.00     0.007 C 
ATOM      9  C   UNL A   1      34.079  24.001  23.876  1.00  0.00     0.007 C 
ENDBRANCH   6   7
ENDBRANCH   5   6
BRANCH   5  10
ATOM     10  N   UNL A   1      31.308  22.414  25.814  1.00  0.00    -0.341 N 
ATOM     11  C   UNL A   1      31.118  23.457  26.662  1.00  0.00     0.242 C 
ATOM     12  H   UNL A   1      30.642  21.698  25.929  1.00  0.00     0.164 HD
ATOM     13  O   UNL A   1      30.241  23.286  27.522  1.00  0.00    -0.273 OA
BRANCH  11  14
ATOM     14  C   UNL A   1      31.702  24.863  26.464  1.00  0.00     0.248 C 
BRANCH  14  15
ATOM     15  N   UNL A   1      31.180  25.782  25.460  1.00  0.00    -0.217 N 
ATOM     16  N   UNL A   1      29.905  25.464  24.981  1.00  0.00    -0.131 NA
ATOM     17  C   UNL A   1      31.692  27.071  25.352  1.00  0.00     0.267 A 
ATOM     18  C   UNL A   1      29.370  26.333  24.200  1.00  0.00     0.229 A 
ATOM     19  C   UNL A   1      31.097  27.912  24.283  1.00  0.00     0.079 A 
ATOM     20  O   UNL A   1      32.631  27.515  26.005  1.00  0.00    -0.268 OA
ATOM     21  C   UNL A   1      29.949  27.563  23.697  1.00  0.00     0.075 A 
BRANCH  18  22
ATOM     22  O   UNL A   1      28.122  26.147  23.757  1.00  0.00    -0.492 OA
ATOM     23  H   UNL A   1      27.935  26.209  22.842  1.00  0.00     0.295 HD
ENDBRANCH  18  22
ENDBRANCH  14  15
ENDBRANCH  11  14
ENDBRANCH   5  10
ENDBRANCH   3   5
ENDBRANCH   2   3
ENDBRANCH   1   2
BRANCH   1  24
ATOM     24  C   UNL A   1      36.431  20.568  24.998  1.00  0.00     0.275 C 
BRANCH  24  25
ATOM     25  O   UNL A   1      37.270  21.606  25.532  1.00  0.00    -0.458 OA
BRANCH  25  26
ATOM     26  C   UNL A   1      38.509  21.208  25.910  1.00  0.00     0.338 C 
ATOM     27  O   UNL A   1      39.030  20.128  25.716  1.00  0.00    -0.246 OA
BRANCH  26  28
ATOM     28  C   UNL A   1      39.230  22.412  26.370  1.00  0.00     0.060 A 
ATOM     29  C   UNL A   1      38.851  23.685  25.941  1.00  0.00     0.016 A 
ATOM     30  C   UNL A   1      40.351  22.242  27.194  1.00  0.00     0.016 A 
ATOM     31  C   UNL A   1      39.603  24.790  26.330  1.00  0.00     0.010 A 
ATOM     32  C   UNL A   1      41.107  23.346  27.578  1.00  0.00     0.010 A 
ATOM     33  C   UNL A   1      40.733  24.624  27.148  1.00  0.00    -0.014 A 
BRANCH  33  34
ATOM     34  C   UNL A   1      41.446  25.817  27.640  1.00  0.00     0.031 A 
ATOM     35  C   UNL A   1      42.856  26.097  27.234  1.00  0.00     0.074 A 
ATOM     36  C   UNL A   1      40.770  26.662  28.436  1.00  0.00     0.049 A 
ATOM     37  N   UNL A   1      43.560  27.183  27.422  1.00  0.00    -0.248 NA
ATOM     38  C   UNL A   1      43.571  25.021  26.533  1.00  0.00     0.031 C 
ATOM     39  C   UNL A   1      39.403  26.447  28.918  1.00  0.00     0.029 A 
ATOM     40  N   UNL A   1      41.126  27.874  28.961  1.00  0.00    -0.354 N 
ATOM     41  C   UNL A   1      44.792  26.939  26.830  1.00  0.00     0.074 A 
ATOM     42  C   UNL A   1      44.757  25.581  26.329  1.00  0.00     0.031 C 
ATOM     43  C   UNL A   1      39.023  27.512  29.640  1.00  0.00     0.029 A 
ATOM     44  C   UNL A   1      40.118  28.475  29.669  1.00  0.00     0.049 A 
ATOM     45  H   UNL A   1      42.018  28.274  28.841  1.00  0.00     0.167 HD
ATOM     46  C   UNL A   1      45.841  27.785  26.705  1.00  0.00     0.037 A 
ATOM     47  C   UNL A   1      40.075  29.687  30.251  1.00  0.00     0.037 A 
ATOM     48  C   UNL A   1      45.867  29.122  27.243  1.00  0.00     0.049 A 
ATOM     49  C   UNL A   1      41.261  30.594  30.117  1.00  0.00     0.074 A 
ATOM     50  C   UNL A   1      46.868  30.074  27.154  1.00  0.00     0.029 A 
ATOM     51  N   UNL A   1      44.844  29.688  27.992  1.00  0.00    -0.354 N 
ATOM     52  N   UNL A   1      42.387  30.392  29.478  1.00  0.00    -0.248 NA
ATOM     53  C   UNL A   1      41.164  31.904  30.773  1.00  0.00     0.031 C 
ATOM     54  C   UNL A   1      46.464  31.203  27.879  1.00  0.00     0.029 A 
ATOM     55  C   UNL A   1      45.197  30.967  28.390  1.00  0.00     0.049 A 
ATOM     56  H   UNL A   1      43.991  29.244  28.209  1.00  0.00     0.167 HD
ATOM     57  C   UNL A   1      43.129  31.553  29.638  1.00  0.00     0.074 A 
ATOM     58  C   UNL A   1      42.314  32.462  30.421  1.00  0.00     0.031 C 
ATOM     59  C   UNL A   1      44.372  31.843  29.182  1.00  0.00     0.037 A 
BRANCH  46  60
ATOM     60  C   UNL A   1      47.037  27.289  25.949  1.00  0.00     0.057 A 
ATOM     61  C   UNL A   1      47.140  27.461  24.563  1.00  0.00     0.134 A 
ATOM     62  C   UNL A   1      48.079  26.610  26.594  1.00  0.00     0.134 A 
ATOM     63  F   UNL A   1      46.176  28.097  23.882  1.00  0.00    -0.206 F 
ATOM     64  C   UNL A   1      48.237  26.976  23.847  1.00  0.00     0.040 A 
ATOM     65  C   UNL A   1      49.190  26.137  25.893  1.00  0.00     0.040 A 
ATOM     66  F   UNL A   1      48.046  26.420  27.922  1.00  0.00    -0.206 F 
ATOM     67  C   UNL A   1      49.269  26.316  24.514  1.00  0.00     0.006 A 
ENDBRANCH  46  60
BRANCH  47  68
ATOM     68  C   UNL A   1      38.844  30.121  30.949  1.00  0.00     0.057 A 
ATOM     69  C   UNL A   1      38.616  29.801  32.293  1.00  0.00     0.134 A 
ATOM     70  C   UNL A   1      37.852  30.842  30.277  1.00  0.00     0.134 A 
ATOM     71  F   UNL A   1      39.527  29.100  32.985  1.00  0.00    -0.206 F 
ATOM     72  C   UNL A   1      37.441  30.178  32.942  1.00  0.00     0.040 A 
ATOM     73  C   UNL A   1      36.680  31.241  30.919  1.00  0.00     0.040 A 
ATOM     74  F   UNL A   1      38.021  31.183  28.991  1.00  0.00    -0.206 F 
ATOM     75  C   UNL A   1      36.469  30.905  32.255  1.00  0.00     0.006 A 
ENDBRANCH  47  68
BRANCH  59  76
ATOM     76  C   UNL A   1      44.908  33.199  29.526  1.00  0.00     0.057 A 
ATOM     77  C   UNL A   1      45.667  33.398  30.685  1.00  0.00     0.134 A 
ATOM     78  C   UNL A   1      44.669  34.310  28.705  1.00  0.00     0.134 A 
ATOM     79  F   UNL A   1      45.927  32.374  31.512  1.00  0.00    -0.206 F 
ATOM     80  C   UNL A   1      46.175  34.654  31.015  1.00  0.00     0.040 A 
ATOM     81  C   UNL A   1      45.191  35.567  29.014  1.00  0.00     0.040 A 
ATOM     82  F   UNL A   1      43.964  34.178  27.571  1.00  0.00    -0.206 F 
ATOM     83  C   UNL A   1      45.944  35.741  30.174  1.00  0.00     0.006 A 
ENDBRANCH  59  76
ENDBRANCH  33  34
ENDBRANCH  26  28
ENDBRANCH  25  26
ENDBRANCH  24  25
ENDBRANCH   1  24
TORSDOF 17
ENDMDL
MODEL 3
REMARK VINA RESULT:     -10.8      4.791      9.314
REMARK SMILES CC(C)C[C@@H](NC(=O)Cn1nc(O)ccc1=O)C(=O)OCCOC(=O)c1ccc(-c2c3nc(c(-c4c(F)cccc4F)c4ccc([nH]4)c(-c4c(F)cccc4F)c4nc(c(-c5c(F)cccc5F)c5ccc2[nH]5)C=C4)C=C3)cc1
REMARK SMILES IDX 21 1 20 2 18 3 19 4 5 5 4 6 2 7 1 8 3 9 6 10 7 11 8 13 9 14
REMARK SMILES IDX 10 15 11 16 16 17 12 18 15 19 17 20 14 21 13 22 22 24 23 25
REMARK SMILES IDX 24 26 25 27 26 28 27 29 79 30 28 31 78 32 29 33 30 34 31 35
REMARK SMILES IDX 72 36 32 37 77 38 71 39 73 40 33 41 76 42 70 43 69 44 34 46
REMARK SMILES IDX 60 47 43 48 59 49 44 50 47 51 58 52 74 53 45 54 46 55 57 57
REMARK SMILES IDX 75 58 48 59 35 60 36 61 41 62 37 63 38 64 40 65 42 66 39 67
REMARK SMILES IDX 61 68 62 69 67 70 63 71 64 72 66 73 68 74 65 75 49 76 50 77
REMARK SMILES IDX 55 78 51 79 52 80 54 81 56 82 53 83
REMARK H PARENT 6 12 13 23 73 45 47 56
REMARK Flexibility Score: inf
ROOT
ATOM      1  C   UNL A   1      36.033  20.530  25.018  1.00  0.00     0.274 C 
ENDROOT
BRANCH   1   2
ATOM      2  O   UNL A   1      35.864  21.713  25.825  1.00  0.00    -0.461 OA
BRANCH   2   3
ATOM      3  C   UNL A   1      35.546  22.857  25.169  1.00  0.00     0.328 C 
ATOM      4  O   UNL A   1      36.362  23.692  24.792  1.00  0.00    -0.250 OA
BRANCH   3   5
ATOM      5  C   UNL A   1      34.028  23.041  25.018  1.00  0.00     0.192 C 
BRANCH   5   6
ATOM      6  C   UNL A   1      33.338  24.049  25.953  1.00  0.00     0.040 C 
BRANCH   6   7
ATOM      7  C   UNL A   1      32.377  23.424  26.994  1.00  0.00    -0.015 C 
ATOM      8  C   UNL A   1      31.112  22.849  26.348  1.00  0.00     0.007 C 
ATOM      9  C   UNL A   1      33.092  22.311  27.769  1.00  0.00     0.007 C 
ENDBRANCH   6   7
ENDBRANCH   5   6
BRANCH   5  10
ATOM     10  N   UNL A   1      33.610  23.136  23.619  1.00  0.00    -0.341 N 
ATOM     11  C   UNL A   1      32.899  22.327  22.791  1.00  0.00     0.242 C 
ATOM     12  H   UNL A   1      33.908  23.967  23.184  1.00  0.00     0.164 HD
ATOM     13  O   UNL A   1      32.857  22.690  21.606  1.00  0.00    -0.273 OA
BRANCH  11  14
ATOM     14  C   UNL A   1      31.969  21.198  23.257  1.00  0.00     0.248 C 
BRANCH  14  15
ATOM     15  N   UNL A   1      32.482  19.913  23.713  1.00  0.00    -0.217 N 
ATOM     16  N   UNL A   1      32.459  19.729  25.099  1.00  0.00    -0.131 NA
ATOM     17  C   UNL A   1      32.540  18.829  22.841  1.00  0.00     0.267 A 
ATOM     18  C   UNL A   1      32.778  18.556  25.512  1.00  0.00     0.229 A 
ATOM     19  C   UNL A   1      33.098  17.576  23.410  1.00  0.00     0.079 A 
ATOM     20  O   UNL A   1      32.250  18.864  21.650  1.00  0.00    -0.268 OA
ATOM     21  C   UNL A   1      33.227  17.421  24.729  1.00  0.00     0.075 A 
BRANCH  18  22
ATOM     22  O   UNL A   1      32.706  18.270  26.817  1.00  0.00    -0.492 OA
ATOM     23  H   UNL A   1      31.928  17.891  27.171  1.00  0.00     0.295 HD
ENDBRANCH  18  22
ENDBRANCH  14  15
ENDBRANCH  11  14
ENDBRANCH   5  10
ENDBRANCH   3   5
ENDBRANCH   2   3
ENDBRANCH   1   2
BRANCH   1  24
ATOM     24  C   UNL A   1      37.510  20.139  25.022  1.00  0.00     0.275 C 
BRANCH  24  25
ATOM     25  O   UNL A   1      38.271  21.261  25.502  1.00  0.00    -0.458 OA
BRANCH  25  26
ATOM     26  C   UNL A   1      39.380  20.942  26.212  1.00  0.00     0.338 C 
ATOM     27  O   UNL A   1      39.908  19.853  26.310  1.00  0.00    -0.246 OA
BRANCH  26  28
ATOM     28  C   UNL A   1      40.001  22.212  26.641  1.00  0.00     0.060 A 
ATOM     29  C   UNL A   1      41.047  22.225  27.565  1.00  0.00     0.016 A 
ATOM     30  C   UNL A   1      39.467  23.412  26.151  1.00  0.00     0.016 A 
ATOM     31  C   UNL A   1      41.553  23.444  28.008  1.00  0.00     0.010 A 
ATOM     32  C   UNL A   1      39.969  24.631  26.599  1.00  0.00     0.010 A 
ATOM     33  C   UNL A   1      41.015  24.649  27.527  1.00  0.00    -0.014 A 
BRANCH  33  34
ATOM     34  C   UNL A   1      41.642  25.924  27.922  1.00  0.00     0.031 A 
ATOM     35  C   UNL A   1      43.030  26.269  27.489  1.00  0.00     0.074 A 
ATOM     36  C   UNL A   1      40.909  26.779  28.654  1.00  0.00     0.049 A 
ATOM     37  N   UNL A   1      43.656  27.413  27.589  1.00  0.00    -0.248 NA
ATOM     38  C   UNL A   1      43.819  25.195  26.869  1.00  0.00     0.031 C 
ATOM     39  C   UNL A   1      39.560  26.507  29.157  1.00  0.00     0.029 A 
ATOM     40  N   UNL A   1      41.179  28.049  29.081  1.00  0.00    -0.354 N 
ATOM     41  C   UNL A   1      44.902  27.211  27.011  1.00  0.00     0.074 A 
ATOM     42  C   UNL A   1      44.963  25.818  26.616  1.00  0.00     0.031 C 
ATOM     43  C   UNL A   1      39.106  27.595  29.797  1.00  0.00     0.029 A 
ATOM     44  C   UNL A   1      40.131  28.633  29.746  1.00  0.00     0.049 A 
ATOM     45  H   UNL A   1      42.041  28.500  28.926  1.00  0.00     0.167 HD
ATOM     46  C   UNL A   1      45.890  28.116  26.815  1.00  0.00     0.037 A 
ATOM     47  C   UNL A   1      40.004  29.879  30.232  1.00  0.00     0.037 A 
ATOM     48  C   UNL A   1      45.822  29.488  27.249  1.00  0.00     0.049 A 
ATOM     49  C   UNL A   1      41.123  30.854  30.023  1.00  0.00     0.074 A 
ATOM     50  C   UNL A   1      46.754  30.499  27.081  1.00  0.00     0.029 A 
ATOM     51  N   UNL A   1      44.761  30.038  27.956  1.00  0.00    -0.354 N 
ATOM     52  N   UNL A   1      42.261  30.682  29.395  1.00  0.00    -0.248 NA
ATOM     53  C   UNL A   1      40.934  32.201  30.576  1.00  0.00     0.031 C 
ATOM     54  C   UNL A   1      46.272  31.649  27.719  1.00  0.00     0.029 A 
ATOM     55  C   UNL A   1      45.024  31.366  28.252  1.00  0.00     0.049 A 
ATOM     56  H   UNL A   1      43.942  29.554  28.211  1.00  0.00     0.167 HD
ATOM     57  C   UNL A   1      42.920  31.901  29.462  1.00  0.00     0.074 A 
ATOM     58  C   UNL A   1      42.042  32.809  30.175  1.00  0.00     0.031 C 
ATOM     59  C   UNL A   1      44.140  32.241  28.978  1.00  0.00     0.037 A 
BRANCH  46  60
ATOM     60  C   UNL A   1      47.118  27.647  26.094  1.00  0.00     0.057 A 
ATOM     61  C   UNL A   1      48.251  27.218  26.797  1.00  0.00     0.134 A 
ATOM     62  C   UNL A   1      47.190  27.650  24.694  1.00  0.00     0.134 A 
ATOM     63  F   UNL A   1      48.253  27.195  28.138  1.00  0.00    -0.206 F 
ATOM     64  C   UNL A   1      49.409  26.807  26.133  1.00  0.00     0.040 A 
ATOM     65  C   UNL A   1      48.334  27.224  24.018  1.00  0.00     0.040 A 
ATOM     66  F   UNL A   1      46.135  28.041  23.962  1.00  0.00    -0.206 F 
ATOM     67  C   UNL A   1      49.451  26.806  24.739  1.00  0.00     0.006 A 
ENDBRANCH  46  60
BRANCH  47  68
ATOM     68  C   UNL A   1      38.745  30.280  30.901  1.00  0.00     0.057 A 
ATOM     69  C   UNL A   1      37.713  30.910  30.194  1.00  0.00     0.134 A 
ATOM     70  C   UNL A   1      38.558  30.069  32.271  1.00  0.00     0.134 A 
ATOM     71  F   UNL A   1      37.841  31.150  28.881  1.00  0.00    -0.206 F 
ATOM     72  C   UNL A   1      36.541  31.321  30.829  1.00  0.00     0.040 A 
ATOM     73  C   UNL A   1      37.384  30.459  32.915  1.00  0.00     0.040 A 
ATOM     74  F   UNL A   1      39.511  29.464  32.995  1.00  0.00    -0.206 F 
ATOM     75  C   UNL A   1      36.373  31.091  32.194  1.00  0.00     0.006 A 
ENDBRANCH  47  68
BRANCH  59  76
ATOM     76  C   UNL A   1      44.579  33.654  29.213  1.00  0.00     0.057 A 
ATOM     77  C   UNL A   1      44.261  34.665  28.300  1.00  0.00     0.134 A 
ATOM     78  C   UNL A   1      45.321  34.010  30.347  1.00  0.00     0.134 A 
ATOM     79  F   UNL A   1      43.556  34.385  27.193  1.00  0.00    -0.206 F 
ATOM     80  C   UNL A   1      44.661  35.985  28.507  1.00  0.00     0.040 A 
ATOM     81  C   UNL A   1      45.708  35.331  30.577  1.00  0.00     0.040 A 
ATOM     82  F   UNL A   1      45.641  33.089  31.268  1.00  0.00    -0.206 F 
ATOM     83  C   UNL A   1      45.380  36.322  29.652  1.00  0.00     0.006 A 
ENDBRANCH  59  76
ENDBRANCH  33  34
ENDBRANCH  26  28
ENDBRANCH  25  26
ENDBRANCH  24  25
ENDBRANCH   1  24
TORSDOF 17
ENDMDL
