MODEL 1
REMARK VINA RESULT:     -11.7      0.000      0.000
REMARK SMILES CSCC[C@H](NC(=O)Cc1c(C)c2ccc(O)cc2oc1=O)C(=O)OCCOC(=O)c1ccc(-c2c3nc(c(-c4c(F)cccc4F)c4ccc([nH]4)c(-c4c(F)cccc4F)c4nc(c(-c5c(F)cccc5F)c5ccc2[nH]5)C=C4)C=C3)cc1
REMARK SMILES IDX 26 1 25 2 23 3 24 4 5 5 4 6 3 7 2 8 1 9 6 10 7 11 8 13 9 14
REMARK SMILES IDX 10 15 11 16 21 17 12 18 13 19 20 20 22 21 14 22 19 23 15 24
REMARK SMILES IDX 18 25 16 26 17 27 27 29 28 30 29 31 30 32 31 33 32 34 84 35
REMARK SMILES IDX 33 36 83 37 34 38 35 39 36 40 77 41 37 42 82 43 76 44 78 45
REMARK SMILES IDX 38 46 81 47 75 48 74 49 39 51 65 52 48 53 64 54 49 55 52 56
REMARK SMILES IDX 63 57 79 58 50 59 51 60 62 62 80 63 53 64 40 65 41 66 46 67
REMARK SMILES IDX 42 68 43 69 45 70 47 71 44 72 66 73 67 74 72 75 68 76 69 77
REMARK SMILES IDX 71 78 73 79 70 80 54 81 55 82 60 83 56 84 57 85 59 86 61 87
REMARK SMILES IDX 58 88
REMARK H PARENT 6 12 17 28 78 50 52 61
REMARK Flexibility Score: inf
ROOT
ATOM      1  C   UNL A   1      31.887  28.257  27.664  1.00  0.00     0.274 C 
ENDROOT
BRANCH   1   2
ATOM      2  O   UNL A   1      31.014  27.336  26.993  1.00  0.00    -0.461 OA
BRANCH   2   3
ATOM      3  C   UNL A   1      31.576  26.422  26.174  1.00  0.00     0.328 C 
ATOM      4  O   UNL A   1      32.782  26.277  26.015  1.00  0.00    -0.250 OA
BRANCH   3   5
ATOM      5  C   UNL A   1      30.513  25.483  25.576  1.00  0.00     0.193 C 
BRANCH   5   6
ATOM      6  C   UNL A   1      29.602  26.187  24.567  1.00  0.00     0.048 C 
BRANCH   6   7
ATOM      7  C   UNL A   1      30.333  27.295  23.786  1.00  0.00     0.072 C 
BRANCH   7   8
ATOM      8  S   UNL A   1      31.304  26.684  22.358  1.00  0.00    -0.165 SA
ATOM      9  C   UNL A   1      32.844  27.619  22.538  1.00  0.00     0.085 C 
ENDBRANCH   7   8
ENDBRANCH   6   7
ENDBRANCH   5   6
BRANCH   5  10
ATOM     10  N   UNL A   1      29.820  24.550  26.472  1.00  0.00    -0.342 N 
ATOM     11  C   UNL A   1      29.934  23.236  26.780  1.00  0.00     0.225 C 
ATOM     12  H   UNL A   1      29.095  24.987  26.974  1.00  0.00     0.164 HD
ATOM     13  O   UNL A   1      29.311  22.842  27.769  1.00  0.00    -0.275 OA
BRANCH  11  14
ATOM     14  C   UNL A   1      30.835  22.290  25.995  1.00  0.00     0.143 C 
BRANCH  14  15
ATOM     15  C   UNL A   1      32.304  22.669  25.933  1.00  0.00     0.051 A 
ATOM     16  C   UNL A   1      32.946  22.940  24.770  1.00  0.00    -0.029 A 
ATOM     17  C   UNL A   1      33.026  22.748  27.235  1.00  0.00     0.340 A 
ATOM     18  C   UNL A   1      32.201  23.062  23.469  1.00  0.00     0.046 C 
ATOM     19  C   UNL A   1      34.421  23.026  24.763  1.00  0.00     0.021 A 
ATOM     20  O   UNL A   1      34.395  22.971  27.193  1.00  0.00    -0.422 OA
ATOM     21  O   UNL A   1      32.454  22.666  28.313  1.00  0.00    -0.246 OA
ATOM     22  C   UNL A   1      35.200  22.964  23.597  1.00  0.00     0.016 A 
ATOM     23  C   UNL A   1      35.098  22.989  25.980  1.00  0.00     0.142 A 
ATOM     24  C   UNL A   1      36.590  22.782  23.662  1.00  0.00     0.047 A 
ATOM     25  C   UNL A   1      36.484  22.835  26.067  1.00  0.00     0.094 A 
ATOM     26  C   UNL A   1      37.214  22.684  24.899  1.00  0.00     0.119 A 
BRANCH  26  27
ATOM     27  O   UNL A   1      38.538  22.379  25.005  1.00  0.00    -0.508 OA
ATOM     28  H   UNL A   1      39.036  22.182  24.236  1.00  0.00     0.293 HD
ENDBRANCH  26  27
ENDBRANCH  14  15
ENDBRANCH  11  14
ENDBRANCH   5  10
ENDBRANCH   3   5
ENDBRANCH   2   3
ENDBRANCH   1   2
BRANCH   1  29
ATOM     29  C   UNL A   1      31.804  29.579  26.892  1.00  0.00     0.275 C 
BRANCH  29  30
ATOM     30  O   UNL A   1      33.130  30.040  26.607  1.00  0.00    -0.458 OA
BRANCH  30  31
ATOM     31  C   UNL A   1      33.452  31.242  27.141  1.00  0.00     0.338 C 
ATOM     32  O   UNL A   1      32.748  32.206  27.351  1.00  0.00    -0.246 OA
BRANCH  31  33
ATOM     33  C   UNL A   1      34.761  31.040  27.764  1.00  0.00     0.060 A 
ATOM     34  C   UNL A   1      35.160  29.728  28.047  1.00  0.00     0.016 A 
ATOM     35  C   UNL A   1      35.611  32.123  27.969  1.00  0.00     0.016 A 
ATOM     36  C   UNL A   1      36.410  29.491  28.589  1.00  0.00     0.010 A 
ATOM     37  C   UNL A   1      36.869  31.887  28.486  1.00  0.00     0.010 A 
ATOM     38  C   UNL A   1      37.251  30.578  28.828  1.00  0.00    -0.014 A 
BRANCH  38  39
ATOM     39  C   UNL A   1      38.490  30.416  29.595  1.00  0.00     0.031 A 
ATOM     40  C   UNL A   1      39.530  29.513  29.015  1.00  0.00     0.074 A 
ATOM     41  C   UNL A   1      38.602  30.981  30.805  1.00  0.00     0.049 A 
ATOM     42  N   UNL A   1      40.555  28.954  29.591  1.00  0.00    -0.248 NA
ATOM     43  C   UNL A   1      39.359  29.153  27.593  1.00  0.00     0.031 C 
ATOM     44  C   UNL A   1      37.638  31.905  31.403  1.00  0.00     0.029 A 
ATOM     45  N   UNL A   1      39.560  30.819  31.766  1.00  0.00    -0.354 N 
ATOM     46  C   UNL A   1      41.126  28.144  28.619  1.00  0.00     0.074 A 
ATOM     47  C   UNL A   1      40.319  28.258  27.426  1.00  0.00     0.031 C 
ATOM     48  C   UNL A   1      38.042  32.208  32.648  1.00  0.00     0.029 A 
ATOM     49  C   UNL A   1      39.251  31.448  32.945  1.00  0.00     0.049 A 
ATOM     50  H   UNL A   1      40.387  30.304  31.626  1.00  0.00     0.167 HD
ATOM     51  C   UNL A   1      42.231  27.374  28.732  1.00  0.00     0.037 A 
ATOM     52  C   UNL A   1      39.861  31.364  34.141  1.00  0.00     0.037 A 
ATOM     53  C   UNL A   1      43.000  27.299  29.943  1.00  0.00     0.049 A 
ATOM     54  C   UNL A   1      41.062  30.465  34.255  1.00  0.00     0.074 A 
ATOM     55  C   UNL A   1      44.148  26.576  30.197  1.00  0.00     0.029 A 
ATOM     56  N   UNL A   1      42.683  27.983  31.111  1.00  0.00    -0.354 N 
ATOM     57  N   UNL A   1      41.610  29.697  33.341  1.00  0.00    -0.248 NA
ATOM     58  C   UNL A   1      41.727  30.412  35.562  1.00  0.00     0.031 C 
ATOM     59  C   UNL A   1      44.500  26.786  31.533  1.00  0.00     0.029 A 
ATOM     60  C   UNL A   1      43.607  27.690  32.094  1.00  0.00     0.049 A 
ATOM     61  H   UNL A   1      41.913  28.587  31.221  1.00  0.00     0.167 HD
ATOM     62  C   UNL A   1      42.709  29.105  33.946  1.00  0.00     0.074 A 
ATOM     63  C   UNL A   1      42.746  29.601  35.309  1.00  0.00     0.031 C 
ATOM     64  C   UNL A   1      43.614  28.237  33.429  1.00  0.00     0.037 A 
BRANCH  51  65
ATOM     65  C   UNL A   1      42.633  26.555  27.541  1.00  0.00     0.057 A 
ATOM     66  C   UNL A   1      43.478  27.057  26.541  1.00  0.00     0.134 A 
ATOM     67  C   UNL A   1      42.168  25.243  27.388  1.00  0.00     0.134 A 
ATOM     68  F   UNL A   1      43.942  28.314  26.611  1.00  0.00    -0.206 F 
ATOM     69  C   UNL A   1      43.821  26.296  25.421  1.00  0.00     0.040 A 
ATOM     70  C   UNL A   1      42.530  24.461  26.290  1.00  0.00     0.040 A 
ATOM     71  F   UNL A   1      41.352  24.697  28.304  1.00  0.00    -0.206 F 
ATOM     72  C   UNL A   1      43.351  24.991  25.298  1.00  0.00     0.006 A 
ENDBRANCH  51  65
BRANCH  52  73
ATOM     73  C   UNL A   1      39.349  32.140  35.297  1.00  0.00     0.057 A 
ATOM     74  C   UNL A   1      39.721  33.475  35.484  1.00  0.00     0.134 A 
ATOM     75  C   UNL A   1      38.463  31.583  36.228  1.00  0.00     0.134 A 
ATOM     76  F   UNL A   1      40.572  34.064  34.632  1.00  0.00    -0.206 F 
ATOM     77  C   UNL A   1      39.250  34.223  36.565  1.00  0.00     0.040 A 
ATOM     78  C   UNL A   1      37.963  32.327  37.299  1.00  0.00     0.040 A 
ATOM     79  F   UNL A   1      38.053  30.312  36.098  1.00  0.00    -0.206 F 
ATOM     80  C   UNL A   1      38.363  33.649  37.474  1.00  0.00     0.006 A 
ENDBRANCH  52  73
BRANCH  64  81
ATOM     81  C   UNL A   1      44.754  27.833  34.312  1.00  0.00     0.057 A 
ATOM     82  C   UNL A   1      44.710  26.677  35.100  1.00  0.00     0.134 A 
ATOM     83  C   UNL A   1      45.947  28.567  34.293  1.00  0.00     0.134 A 
ATOM     84  F   UNL A   1      43.591  25.940  35.166  1.00  0.00    -0.206 F 
ATOM     85  C   UNL A   1      45.814  26.272  35.850  1.00  0.00     0.040 A 
ATOM     86  C   UNL A   1      47.065  28.156  35.014  1.00  0.00     0.040 A 
ATOM     87  F   UNL A   1      46.052  29.678  33.546  1.00  0.00    -0.206 F 
ATOM     88  C   UNL A   1      46.999  27.006  35.798  1.00  0.00     0.006 A 
ENDBRANCH  64  81
ENDBRANCH  38  39
ENDBRANCH  31  33
ENDBRANCH  30  31
ENDBRANCH  29  30
ENDBRANCH   1  29
TORSDOF 18
ENDMDL
MODEL 2
REMARK VINA RESULT:     -11.4      1.390      2.064
REMARK SMILES CSCC[C@H](NC(=O)Cc1c(C)c2ccc(O)cc2oc1=O)C(=O)OCCOC(=O)c1ccc(-c2c3nc(c(-c4c(F)cccc4F)c4ccc([nH]4)c(-c4c(F)cccc4F)c4nc(c(-c5c(F)cccc5F)c5ccc2[nH]5)C=C4)C=C3)cc1
REMARK SMILES IDX 26 1 25 2 23 3 24 4 5 5 4 6 3 7 2 8 1 9 6 10 7 11 8 13 9 14
REMARK SMILES IDX 10 15 11 16 21 17 12 18 13 19 20 20 22 21 14 22 19 23 15 24
REMARK SMILES IDX 18 25 16 26 17 27 27 29 28 30 29 31 30 32 31 33 32 34 84 35
REMARK SMILES IDX 33 36 83 37 34 38 35 39 36 40 77 41 37 42 82 43 76 44 78 45
REMARK SMILES IDX 38 46 81 47 75 48 74 49 39 51 65 52 48 53 64 54 49 55 52 56
REMARK SMILES IDX 63 57 79 58 50 59 51 60 62 62 80 63 53 64 40 65 41 66 46 67
REMARK SMILES IDX 42 68 43 69 45 70 47 71 44 72 66 73 67 74 72 75 68 76 69 77
REMARK SMILES IDX 71 78 73 79 70 80 54 81 55 82 60 83 56 84 57 85 59 86 61 87
REMARK SMILES IDX 58 88
REMARK H PARENT 6 12 17 28 78 50 52 61
REMARK Flexibility Score: inf
ROOT
ATOM      1  C   UNL A   1      31.393  30.236  25.290  1.00  0.00     0.274 C 
ENDROOT
BRANCH   1   2
ATOM      2  O   UNL A   1      31.756  28.856  25.122  1.00  0.00    -0.461 OA
BRANCH   2   3
ATOM      3  C   UNL A   1      31.778  28.362  23.867  1.00  0.00     0.328 C 
ATOM      4  O   UNL A   1      32.635  28.622  23.031  1.00  0.00    -0.250 OA
BRANCH   3   5
ATOM      5  C   UNL A   1      30.673  27.310  23.664  1.00  0.00     0.193 C 
BRANCH   5   6
ATOM      6  C   UNL A   1      29.362  27.919  23.160  1.00  0.00     0.048 C 
BRANCH   6   7
ATOM      7  C   UNL A   1      29.587  29.201  22.337  1.00  0.00     0.072 C 
BRANCH   7   8
ATOM      8  S   UNL A   1      28.055  30.148  21.999  1.00  0.00    -0.165 SA
ATOM      9  C   UNL A   1      27.939  31.191  23.475  1.00  0.00     0.085 C 
ENDBRANCH   7   8
ENDBRANCH   6   7
ENDBRANCH   5   6
BRANCH   5  10
ATOM     10  N   UNL A   1      30.506  26.265  24.681  1.00  0.00    -0.342 N 
ATOM     11  C   UNL A   1      30.728  24.931  24.746  1.00  0.00     0.225 C 
ATOM     12  H   UNL A   1      30.145  26.622  25.524  1.00  0.00     0.164 HD
ATOM     13  O   UNL A   1      30.682  24.414  25.865  1.00  0.00    -0.275 OA
BRANCH  11  14
ATOM     14  C   UNL A   1      31.086  24.104  23.516  1.00  0.00     0.143 C 
BRANCH  14  15
ATOM     15  C   UNL A   1      32.517  23.602  23.444  1.00  0.00     0.051 A 
ATOM     16  C   UNL A   1      32.913  22.423  23.981  1.00  0.00    -0.029 A 
ATOM     17  C   UNL A   1      33.491  24.475  22.726  1.00  0.00     0.340 A 
ATOM     18  C   UNL A   1      31.920  21.436  24.533  1.00  0.00     0.046 C 
ATOM     19  C   UNL A   1      34.357  22.138  24.114  1.00  0.00     0.021 A 
ATOM     20  O   UNL A   1      34.826  24.097  22.755  1.00  0.00    -0.422 OA
ATOM     21  O   UNL A   1      33.150  25.465  22.095  1.00  0.00    -0.246 OA
ATOM     22  C   UNL A   1      34.880  21.131  24.941  1.00  0.00     0.016 A 
ATOM     23  C   UNL A   1      35.267  23.018  23.533  1.00  0.00     0.142 A 
ATOM     24  C   UNL A   1      36.250  21.075  25.236  1.00  0.00     0.047 A 
ATOM     25  C   UNL A   1      36.639  22.964  23.793  1.00  0.00     0.094 A 
ATOM     26  C   UNL A   1      37.112  22.015  24.686  1.00  0.00     0.119 A 
BRANCH  26  27
ATOM     27  O   UNL A   1      38.424  22.075  25.048  1.00  0.00    -0.508 OA
ATOM     28  H   UNL A   1      38.700  21.716  25.869  1.00  0.00     0.293 HD
ENDBRANCH  26  27
ENDBRANCH  14  15
ENDBRANCH  11  14
ENDBRANCH   5  10
ENDBRANCH   3   5
ENDBRANCH   2   3
ENDBRANCH   1   2
BRANCH   1  29
ATOM     29  C   UNL A   1      31.748  30.608  26.734  1.00  0.00     0.275 C 
BRANCH  29  30
ATOM     30  O   UNL A   1      33.171  30.715  26.856  1.00  0.00    -0.458 OA
BRANCH  30  31
ATOM     31  C   UNL A   1      33.621  31.873  27.395  1.00  0.00     0.338 C 
ATOM     32  O   UNL A   1      33.022  32.901  27.624  1.00  0.00    -0.246 OA
BRANCH  31  33
ATOM     33  C   UNL A   1      34.911  31.533  27.998  1.00  0.00     0.060 A 
ATOM     34  C   UNL A   1      35.128  30.204  28.382  1.00  0.00     0.016 A 
ATOM     35  C   UNL A   1      35.914  32.494  28.088  1.00  0.00     0.016 A 
ATOM     36  C   UNL A   1      36.351  29.831  28.909  1.00  0.00     0.010 A 
ATOM     37  C   UNL A   1      37.145  32.119  28.589  1.00  0.00     0.010 A 
ATOM     38  C   UNL A   1      37.348  30.800  29.031  1.00  0.00    -0.014 A 
BRANCH  38  39
ATOM     39  C   UNL A   1      38.580  30.521  29.775  1.00  0.00     0.031 A 
ATOM     40  C   UNL A   1      39.543  29.562  29.153  1.00  0.00     0.074 A 
ATOM     41  C   UNL A   1      38.748  31.036  31.001  1.00  0.00     0.049 A 
ATOM     42  N   UNL A   1      40.529  28.910  29.698  1.00  0.00    -0.248 NA
ATOM     43  C   UNL A   1      39.329  29.262  27.724  1.00  0.00     0.031 C 
ATOM     44  C   UNL A   1      37.862  32.011  31.641  1.00  0.00     0.029 A 
ATOM     45  N   UNL A   1      39.701  30.773  31.943  1.00  0.00    -0.354 N 
ATOM     46  C   UNL A   1      41.027  28.091  28.694  1.00  0.00     0.074 A 
ATOM     47  C   UNL A   1      40.218  28.303  27.516  1.00  0.00     0.031 C 
ATOM     48  C   UNL A   1      38.302  32.242  32.889  1.00  0.00     0.029 A 
ATOM     49  C   UNL A   1      39.454  31.385  33.146  1.00  0.00     0.049 A 
ATOM     50  H   UNL A   1      40.485  30.202  31.776  1.00  0.00     0.167 HD
ATOM     51  C   UNL A   1      42.072  27.238  28.767  1.00  0.00     0.037 A 
ATOM     52  C   UNL A   1      40.069  31.217  34.330  1.00  0.00     0.037 A 
ATOM     53  C   UNL A   1      42.847  27.066  29.965  1.00  0.00     0.049 A 
ATOM     54  C   UNL A   1      41.200  30.227  34.400  1.00  0.00     0.074 A 
ATOM     55  C   UNL A   1      43.940  26.252  30.180  1.00  0.00     0.029 A 
ATOM     56  N   UNL A   1      42.595  27.734  31.158  1.00  0.00    -0.354 N 
ATOM     57  N   UNL A   1      41.678  29.451  33.455  1.00  0.00    -0.248 NA
ATOM     58  C   UNL A   1      41.874  30.083  35.695  1.00  0.00     0.031 C 
ATOM     59  C   UNL A   1      44.321  26.391  31.518  1.00  0.00     0.029 A 
ATOM     60  C   UNL A   1      43.505  27.341  32.119  1.00  0.00     0.049 A 
ATOM     61  H   UNL A   1      41.874  28.390  31.297  1.00  0.00     0.167 HD
ATOM     62  C   UNL A   1      42.737  28.759  34.026  1.00  0.00     0.074 A 
ATOM     63  C   UNL A   1      42.826  29.207  35.403  1.00  0.00     0.031 C 
ATOM     64  C   UNL A   1      43.568  27.843  33.469  1.00  0.00     0.037 A 
BRANCH  51  65
ATOM     65  C   UNL A   1      42.398  26.430  27.546  1.00  0.00     0.057 A 
ATOM     66  C   UNL A   1      43.253  26.906  26.542  1.00  0.00     0.134 A 
ATOM     67  C   UNL A   1      41.847  25.154  27.367  1.00  0.00     0.134 A 
ATOM     68  F   UNL A   1      43.798  28.129  26.638  1.00  0.00    -0.206 F 
ATOM     69  C   UNL A   1      43.526  26.157  25.395  1.00  0.00     0.040 A 
ATOM     70  C   UNL A   1      42.137  24.383  26.240  1.00  0.00     0.040 A 
ATOM     71  F   UNL A   1      41.016  24.635  28.284  1.00  0.00    -0.206 F 
ATOM     72  C   UNL A   1      42.972  24.889  25.246  1.00  0.00     0.006 A 
ENDBRANCH  51  65
BRANCH  52  73
ATOM     73  C   UNL A   1      39.629  31.991  35.517  1.00  0.00     0.057 A 
ATOM     74  C   UNL A   1      40.204  33.232  35.815  1.00  0.00     0.134 A 
ATOM     75  C   UNL A   1      38.617  31.530  36.367  1.00  0.00     0.134 A 
ATOM     76  F   UNL A   1      41.183  33.724  35.043  1.00  0.00    -0.206 F 
ATOM     77  C   UNL A   1      39.805  33.976  36.927  1.00  0.00     0.040 A 
ATOM     78  C   UNL A   1      38.188  32.277  37.468  1.00  0.00     0.040 A 
ATOM     79  F   UNL A   1      38.013  30.357  36.130  1.00  0.00    -0.206 F 
ATOM     80  C   UNL A   1      38.788  33.500  37.754  1.00  0.00     0.006 A 
ENDBRANCH  52  73
BRANCH  64  81
ATOM     81  C   UNL A   1      44.685  27.326  34.324  1.00  0.00     0.057 A 
ATOM     82  C   UNL A   1      45.914  27.988  34.420  1.00  0.00     0.134 A 
ATOM     83  C   UNL A   1      44.483  26.200  35.132  1.00  0.00     0.134 A 
ATOM     84  F   UNL A   1      46.169  29.065  33.662  1.00  0.00    -0.206 F 
ATOM     85  C   UNL A   1      46.911  27.537  35.285  1.00  0.00     0.040 A 
ATOM     86  C   UNL A   1      45.459  25.759  36.022  1.00  0.00     0.040 A 
ATOM     87  F   UNL A   1      43.319  25.532  35.091  1.00  0.00    -0.206 F 
ATOM     88  C   UNL A   1      46.679  26.428  36.098  1.00  0.00     0.006 A 
ENDBRANCH  64  81
ENDBRANCH  38  39
ENDBRANCH  31  33
ENDBRANCH  30  31
ENDBRANCH  29  30
ENDBRANCH   1  29
TORSDOF 18
ENDMDL
MODEL 3
REMARK VINA RESULT:     -11.1      3.888      8.817
REMARK SMILES CSCC[C@H](NC(=O)Cc1c(C)c2ccc(O)cc2oc1=O)C(=O)OCCOC(=O)c1ccc(-c2c3nc(c(-c4c(F)cccc4F)c4ccc([nH]4)c(-c4c(F)cccc4F)c4nc(c(-c5c(F)cccc5F)c5ccc2[nH]5)C=C4)C=C3)cc1
REMARK SMILES IDX 26 1 25 2 23 3 24 4 5 5 4 6 3 7 2 8 1 9 6 10 7 11 8 13 9 14
REMARK SMILES IDX 10 15 11 16 21 17 12 18 13 19 20 20 22 21 14 22 19 23 15 24
REMARK SMILES IDX 18 25 16 26 17 27 27 29 28 30 29 31 30 32 31 33 32 34 84 35
REMARK SMILES IDX 33 36 83 37 34 38 35 39 36 40 77 41 37 42 82 43 76 44 78 45
REMARK SMILES IDX 38 46 81 47 75 48 74 49 39 51 65 52 48 53 64 54 49 55 52 56
REMARK SMILES IDX 63 57 79 58 50 59 51 60 62 62 80 63 53 64 40 65 41 66 46 67
REMARK SMILES IDX 42 68 43 69 45 70 47 71 44 72 66 73 67 74 72 75 68 76 69 77
REMARK SMILES IDX 71 78 73 79 70 80 54 81 55 82 60 83 56 84 57 85 59 86 61 87
REMARK SMILES IDX 58 88
REMARK H PARENT 6 12 17 28 78 50 52 61
REMARK Flexibility Score: inf
ROOT
ATOM      1  C   UNL A   1      35.858  21.794  24.435  1.00  0.00     0.274 C 
ENDROOT
BRANCH   1   2
ATOM      2  O   UNL A   1      35.026  20.686  24.811  1.00  0.00    -0.461 OA
BRANCH   2   3
ATOM      3  C   UNL A   1      34.191  20.854  25.857  1.00  0.00     0.328 C 
ATOM      4  O   UNL A   1      34.505  21.367  26.924  1.00  0.00    -0.250 OA
BRANCH   3   5
ATOM      5  C   UNL A   1      32.751  20.456  25.487  1.00  0.00     0.193 C 
BRANCH   5   6
ATOM      6  C   UNL A   1      32.576  18.944  25.332  1.00  0.00     0.048 C 
BRANCH   6   7
ATOM      7  C   UNL A   1      32.577  18.498  23.858  1.00  0.00     0.072 C 
BRANCH   7   8
ATOM      8  S   UNL A   1      33.770  17.158  23.485  1.00  0.00    -0.165 SA
ATOM      9  C   UNL A   1      33.330  15.922  24.732  1.00  0.00     0.085 C 
ENDBRANCH   7   8
ENDBRANCH   6   7
ENDBRANCH   5   6
BRANCH   5  10
ATOM     10  N   UNL A   1      32.039  21.256  24.483  1.00  0.00    -0.342 N 
ATOM     11  C   UNL A   1      31.886  22.577  24.226  1.00  0.00     0.225 C 
ATOM     12  H   UNL A   1      31.555  20.694  23.836  1.00  0.00     0.164 HD
ATOM     13  O   UNL A   1      31.391  22.876  23.137  1.00  0.00    -0.275 OA
BRANCH  11  14
ATOM     14  C   UNL A   1      32.358  23.655  25.194  1.00  0.00     0.143 C 
BRANCH  14  15
ATOM     15  C   UNL A   1      32.207  25.089  24.719  1.00  0.00     0.051 A 
ATOM     16  C   UNL A   1      31.055  25.791  24.850  1.00  0.00    -0.029 A 
ATOM     17  C   UNL A   1      33.411  25.715  24.100  1.00  0.00     0.340 A 
ATOM     18  C   UNL A   1      29.893  25.257  25.644  1.00  0.00     0.046 C 
ATOM     19  C   UNL A   1      30.899  27.067  24.122  1.00  0.00     0.021 A 
ATOM     20  O   UNL A   1      33.259  26.980  23.548  1.00  0.00    -0.422 OA
ATOM     21  O   UNL A   1      34.509  25.178  24.102  1.00  0.00    -0.246 OA
ATOM     22  C   UNL A   1      29.663  27.699  23.910  1.00  0.00     0.016 A 
ATOM     23  C   UNL A   1      32.002  27.593  23.453  1.00  0.00     0.142 A 
ATOM     24  C   UNL A   1      29.536  28.755  22.995  1.00  0.00     0.047 A 
ATOM     25  C   UNL A   1      31.902  28.661  22.557  1.00  0.00     0.094 A 
ATOM     26  C   UNL A   1      30.653  29.202  22.301  1.00  0.00     0.119 A 
BRANCH  26  27
ATOM     27  O   UNL A   1      30.549  30.135  21.312  1.00  0.00    -0.508 OA
ATOM     28  H   UNL A   1      29.802  30.135  20.747  1.00  0.00     0.293 HD
ENDBRANCH  26  27
ENDBRANCH  14  15
ENDBRANCH  11  14
ENDBRANCH   5  10
ENDBRANCH   3   5
ENDBRANCH   2   3
ENDBRANCH   1   2
BRANCH   1  29
ATOM     29  C   UNL A   1      37.309  21.340  24.638  1.00  0.00     0.275 C 
BRANCH  29  30
ATOM     30  O   UNL A   1      37.819  21.921  25.843  1.00  0.00    -0.458 OA
BRANCH  30  31
ATOM     31  C   UNL A   1      39.060  21.515  26.201  1.00  0.00     0.338 C 
ATOM     32  O   UNL A   1      39.651  20.497  25.915  1.00  0.00    -0.246 OA
BRANCH  31  33
ATOM     33  C   UNL A   1      39.716  22.717  26.718  1.00  0.00     0.060 A 
ATOM     34  C   UNL A   1      39.241  23.963  26.288  1.00  0.00     0.016 A 
ATOM     35  C   UNL A   1      40.715  22.608  27.681  1.00  0.00     0.016 A 
ATOM     36  C   UNL A   1      39.801  25.123  26.792  1.00  0.00     0.010 A 
ATOM     37  C   UNL A   1      41.258  23.764  28.205  1.00  0.00     0.010 A 
ATOM     38  C   UNL A   1      40.825  25.016  27.733  1.00  0.00    -0.014 A 
BRANCH  38  39
ATOM     39  C   UNL A   1      41.600  26.193  28.138  1.00  0.00     0.031 A 
ATOM     40  C   UNL A   1      40.870  27.254  28.897  1.00  0.00     0.074 A 
ATOM     41  C   UNL A   1      42.871  26.325  27.733  1.00  0.00     0.049 A 
ATOM     42  N   UNL A   1      41.201  28.495  29.108  1.00  0.00    -0.248 NA
ATOM     43  C   UNL A   1      39.560  26.868  29.455  1.00  0.00     0.031 C 
ATOM     44  C   UNL A   1      43.647  25.304  27.027  1.00  0.00     0.029 A 
ATOM     45  N   UNL A   1      43.716  27.394  27.821  1.00  0.00    -0.354 N 
ATOM     46  C   UNL A   1      40.123  29.052  29.784  1.00  0.00     0.074 A 
ATOM     47  C   UNL A   1      39.117  28.025  29.922  1.00  0.00     0.031 C 
ATOM     48  C   UNL A   1      44.852  25.811  26.719  1.00  0.00     0.029 A 
ATOM     49  C   UNL A   1      44.898  27.204  27.151  1.00  0.00     0.049 A 
ATOM     50  H   UNL A   1      43.499  28.218  28.315  1.00  0.00     0.167 HD
ATOM     51  C   UNL A   1      40.001  30.317  30.242  1.00  0.00     0.037 A 
ATOM     52  C   UNL A   1      45.875  28.087  26.879  1.00  0.00     0.037 A 
ATOM     53  C   UNL A   1      41.036  31.301  30.081  1.00  0.00     0.049 A 
ATOM     54  C   UNL A   1      45.697  29.502  27.358  1.00  0.00     0.074 A 
ATOM     55  C   UNL A   1      41.058  32.613  30.506  1.00  0.00     0.029 A 
ATOM     56  N   UNL A   1      42.242  31.063  29.431  1.00  0.00    -0.354 N 
ATOM     57  N   UNL A   1      44.682  30.036  27.999  1.00  0.00    -0.248 NA
ATOM     58  C   UNL A   1      46.789  30.440  27.074  1.00  0.00     0.031 C 
ATOM     59  C   UNL A   1      42.257  33.184  30.073  1.00  0.00     0.029 A 
ATOM     60  C   UNL A   1      43.012  32.209  29.433  1.00  0.00     0.049 A 
ATOM     61  H   UNL A   1      42.508  30.205  29.028  1.00  0.00     0.167 HD
ATOM     62  C   UNL A   1      45.031  31.357  28.236  1.00  0.00     0.074 A 
ATOM     63  C   UNL A   1      46.351  31.544  27.664  1.00  0.00     0.031 C 
ATOM     64  C   UNL A   1      44.335  32.332  28.873  1.00  0.00     0.037 A 
BRANCH  51  65
ATOM     65  C   UNL A   1      38.715  30.692  30.917  1.00  0.00     0.057 A 
ATOM     66  C   UNL A   1      38.505  30.489  32.288  1.00  0.00     0.134 A 
ATOM     67  C   UNL A   1      37.666  31.264  30.186  1.00  0.00     0.134 A 
ATOM     68  F   UNL A   1      39.458  29.924  33.045  1.00  0.00    -0.206 F 
ATOM     69  C   UNL A   1      37.292  30.813  32.900  1.00  0.00     0.040 A 
ATOM     70  C   UNL A   1      36.461  31.623  30.792  1.00  0.00     0.040 A 
ATOM     71  F   UNL A   1      37.794  31.484  28.867  1.00  0.00    -0.206 F 
ATOM     72  C   UNL A   1      36.269  31.389  32.152  1.00  0.00     0.006 A 
ENDBRANCH  51  65
BRANCH  52  73
ATOM     73  C   UNL A   1      47.080  27.659  26.127  1.00  0.00     0.057 A 
ATOM     74  C   UNL A   1      47.096  27.681  24.728  1.00  0.00     0.134 A 
ATOM     75  C   UNL A   1      48.249  27.241  26.776  1.00  0.00     0.134 A 
ATOM     76  F   UNL A   1      46.006  28.065  24.047  1.00  0.00    -0.206 F 
ATOM     77  C   UNL A   1      48.219  27.283  24.001  1.00  0.00     0.040 A 
ATOM     78  C   UNL A   1      49.389  26.865  26.062  1.00  0.00     0.040 A 
ATOM     79  F   UNL A   1      48.307  27.211  28.116  1.00  0.00    -0.206 F 
ATOM     80  C   UNL A   1      49.373  26.879  24.670  1.00  0.00     0.006 A 
ENDBRANCH  52  73
BRANCH  64  81
ATOM     81  C   UNL A   1      45.017  33.654  29.050  1.00  0.00     0.057 A 
ATOM     82  C   UNL A   1      44.848  34.704  28.141  1.00  0.00     0.134 A 
ATOM     83  C   UNL A   1      45.776  33.900  30.201  1.00  0.00     0.134 A 
ATOM     84  F   UNL A   1      44.141  34.523  27.015  1.00  0.00    -0.206 F 
ATOM     85  C   UNL A   1      45.423  35.954  28.366  1.00  0.00     0.040 A 
ATOM     86  C   UNL A   1      46.329  35.153  30.452  1.00  0.00     0.040 A 
ATOM     87  F   UNL A   1      45.963  32.934  31.115  1.00  0.00    -0.206 F 
ATOM     88  C   UNL A   1      46.155  36.184  29.531  1.00  0.00     0.006 A 
ENDBRANCH  64  81
ENDBRANCH  38  39
ENDBRANCH  31  33
ENDBRANCH  30  31
ENDBRANCH  29  30
ENDBRANCH   1  29
TORSDOF 18
ENDMDL
