MODEL 1
REMARK VINA RESULT:     -11.9      0.000      0.000
REMARK SMILES O=C(OCCOC(=O)c1ccc(F)cc1-c1ccc(F)c(Cl)c1)c1ccc(-c2c3nc(c(-c4c(F)cccc4F)c4ccc([nH]4)c(-c4c(F)cccc4F)c4nc(c(-c5c(F)cccc5F)c5ccc2[nH]5)C=C4)C=C3)cc1
REMARK SMILES IDX 4 1 3 2 2 3 1 4 24 5 25 6 77 7 26 8 76 9 27 10 28 11 29 12
REMARK SMILES IDX 70 13 30 14 75 15 69 16 71 17 31 18 74 19 68 20 67 21 32 23
REMARK SMILES IDX 58 24 41 25 57 26 42 27 45 28 56 29 72 30 43 31 44 32 55 34
REMARK SMILES IDX 73 35 46 36 33 37 34 38 39 39 35 40 36 41 38 42 40 43 37 44
REMARK SMILES IDX 59 45 60 46 65 47 61 48 62 49 64 50 66 51 63 52 47 53 48 54
REMARK SMILES IDX 53 55 49 56 50 57 52 58 54 59 51 60 5 61 6 62 7 63 8 64 9 65
REMARK SMILES IDX 10 66 15 67 11 68 14 69 12 70 13 71 16 72 17 73 23 74 18 75
REMARK SMILES IDX 21 76 19 77 22 78 20 79
REMARK H PARENT 71 22 45 33
REMARK Flexibility Score: inf
ROOT
ATOM      1  C   UNL A   1      37.729  20.459  24.910  1.00  0.00     0.275 C 
ENDROOT
BRANCH   1   2
ATOM      2  O   UNL A   1      38.294  21.264  25.942  1.00  0.00    -0.458 OA
BRANCH   2   3
ATOM      3  C   UNL A   1      39.609  21.050  26.184  1.00  0.00     0.338 C 
ATOM      4  O   UNL A   1      40.173  19.974  26.251  1.00  0.00    -0.246 OA
BRANCH   3   5
ATOM      5  C   UNL A   1      40.179  22.345  26.636  1.00  0.00     0.060 A 
ATOM      6  C   UNL A   1      39.639  23.549  26.165  1.00  0.00     0.016 A 
ATOM      7  C   UNL A   1      41.136  22.361  27.655  1.00  0.00     0.016 A 
ATOM      8  C   UNL A   1      40.058  24.751  26.697  1.00  0.00     0.010 A 
ATOM      9  C   UNL A   1      41.497  23.559  28.253  1.00  0.00     0.010 A 
ATOM     10  C   UNL A   1      40.992  24.754  27.735  1.00  0.00    -0.014 A 
BRANCH  10  11
ATOM     11  C   UNL A   1      41.591  26.036  28.116  1.00  0.00     0.031 A 
ATOM     12  C   UNL A   1      42.987  26.305  27.646  1.00  0.00     0.074 A 
ATOM     13  C   UNL A   1      40.848  26.939  28.773  1.00  0.00     0.049 A 
ATOM     14  N   UNL A   1      43.686  27.402  27.735  1.00  0.00    -0.248 NA
ATOM     15  C   UNL A   1      43.693  25.195  26.978  1.00  0.00     0.031 C 
ATOM     16  C   UNL A   1      39.473  26.729  29.230  1.00  0.00     0.029 A 
ATOM     17  N   UNL A   1      41.136  28.217  29.157  1.00  0.00    -0.354 N 
ATOM     18  C   UNL A   1      44.891  27.118  27.109  1.00  0.00     0.074 A 
ATOM     19  C   UNL A   1      44.877  25.728  26.731  1.00  0.00     0.031 C 
ATOM     20  C   UNL A   1      39.042  27.836  29.855  1.00  0.00     0.029 A 
ATOM     21  C   UNL A   1      40.106  28.833  29.822  1.00  0.00     0.049 A 
ATOM     22  H   UNL A   1      42.000  28.653  28.976  1.00  0.00     0.167 HD
ATOM     23  C   UNL A   1      45.898  27.972  26.827  1.00  0.00     0.037 A 
ATOM     24  C   UNL A   1      40.039  30.078  30.324  1.00  0.00     0.037 A 
ATOM     25  C   UNL A   1      45.868  29.352  27.211  1.00  0.00     0.049 A 
ATOM     26  C   UNL A   1      41.199  30.996  30.055  1.00  0.00     0.074 A 
ATOM     27  C   UNL A   1      46.809  30.335  26.988  1.00  0.00     0.029 A 
ATOM     28  N   UNL A   1      44.820  29.938  27.913  1.00  0.00    -0.354 N 
ATOM     29  N   UNL A   1      42.316  30.739  29.414  1.00  0.00    -0.248 NA
ATOM     30  C   UNL A   1      41.082  32.375  30.537  1.00  0.00     0.031 C 
ATOM     31  C   UNL A   1      46.345  31.511  27.585  1.00  0.00     0.029 A 
ATOM     32  C   UNL A   1      45.095  31.271  28.143  1.00  0.00     0.049 A 
ATOM     33  H   UNL A   1      44.002  29.473  28.202  1.00  0.00     0.167 HD
ATOM     34  C   UNL A   1      43.023  31.930  29.383  1.00  0.00     0.074 A 
ATOM     35  C   UNL A   1      42.203  32.911  30.071  1.00  0.00     0.031 C 
ATOM     36  C   UNL A   1      44.233  32.200  28.832  1.00  0.00     0.037 A 
BRANCH  23  37
ATOM     37  C   UNL A   1      47.069  27.424  26.068  1.00  0.00     0.057 A 
ATOM     38  C   UNL A   1      47.088  27.427  24.670  1.00  0.00     0.134 A 
ATOM     39  C   UNL A   1      48.198  26.913  26.728  1.00  0.00     0.134 A 
ATOM     40  F   UNL A   1      46.048  27.912  23.976  1.00  0.00    -0.206 F 
ATOM     41  C   UNL A   1      48.185  26.943  23.954  1.00  0.00     0.040 A 
ATOM     42  C   UNL A   1      49.311  26.449  26.024  1.00  0.00     0.040 A 
ATOM     43  F   UNL A   1      48.259  26.910  28.069  1.00  0.00    -0.206 F 
ATOM     44  C   UNL A   1      49.303  26.458  24.631  1.00  0.00     0.006 A 
ENDBRANCH  23  37
BRANCH  24  45
ATOM     45  C   UNL A   1      38.821  30.510  31.050  1.00  0.00     0.057 A 
ATOM     46  C   UNL A   1      38.686  30.298  32.429  1.00  0.00     0.134 A 
ATOM     47  C   UNL A   1      37.731  31.074  30.379  1.00  0.00     0.134 A 
ATOM     48  F   UNL A   1      39.686  29.743  33.129  1.00  0.00    -0.206 F 
ATOM     49  C   UNL A   1      37.510  30.618  33.110  1.00  0.00     0.040 A 
ATOM     50  C   UNL A   1      36.554  31.415  31.050  1.00  0.00     0.040 A 
ATOM     51  F   UNL A   1      37.795  31.301  29.058  1.00  0.00    -0.206 F 
ATOM     52  C   UNL A   1      36.439  31.181  32.419  1.00  0.00     0.006 A 
ENDBRANCH  24  45
BRANCH  36  53
ATOM     53  C   UNL A   1      44.725  33.608  28.935  1.00  0.00     0.057 A 
ATOM     54  C   UNL A   1      44.442  34.532  27.923  1.00  0.00     0.134 A 
ATOM     55  C   UNL A   1      45.564  34.011  29.980  1.00  0.00     0.134 A 
ATOM     56  F   UNL A   1      43.656  34.194  26.889  1.00  0.00    -0.206 F 
ATOM     57  C   UNL A   1      44.996  35.811  27.936  1.00  0.00     0.040 A 
ATOM     58  C   UNL A   1      46.103  35.295  30.016  1.00  0.00     0.040 A 
ATOM     59  F   UNL A   1      45.860  33.167  30.978  1.00  0.00    -0.206 F 
ATOM     60  C   UNL A   1      45.829  36.195  28.985  1.00  0.00     0.006 A 
ENDBRANCH  36  53
ENDBRANCH  10  11
ENDBRANCH   3   5
ENDBRANCH   2   3
ENDBRANCH   1   2
BRANCH   1  61
ATOM     61  C   UNL A   1      36.195  20.335  25.012  1.00  0.00     0.275 C 
BRANCH  61  62
ATOM     62  O   UNL A   1      35.527  21.506  25.527  1.00  0.00    -0.458 OA
BRANCH  62  63
ATOM     63  C   UNL A   1      34.849  22.300  24.659  1.00  0.00     0.338 C 
ATOM     64  O   UNL A   1      35.249  22.722  23.591  1.00  0.00    -0.246 OA
BRANCH  63  65
ATOM     65  C   UNL A   1      33.533  22.644  25.266  1.00  0.00     0.068 A 
ATOM     66  C   UNL A   1      33.387  23.939  25.813  1.00  0.00     0.019 A 
ATOM     67  C   UNL A   1      32.438  21.751  25.259  1.00  0.00    -0.001 A 
ATOM     68  C   UNL A   1      32.174  24.343  26.376  1.00  0.00     0.040 A 
ATOM     69  C   UNL A   1      31.237  22.178  25.872  1.00  0.00     0.048 A 
ATOM     70  C   UNL A   1      31.117  23.451  26.418  1.00  0.00     0.123 A 
ATOM     71  F   UNL A   1      29.960  23.821  26.982  1.00  0.00    -0.207 F 
BRANCH  67  72
ATOM     72  C   UNL A   1      32.440  20.405  24.659  1.00  0.00    -0.016 A 
ATOM     73  C   UNL A   1      32.284  20.214  23.279  1.00  0.00     0.012 A 
ATOM     74  C   UNL A   1      32.737  19.280  25.443  1.00  0.00     0.032 A 
ATOM     75  C   UNL A   1      32.452  18.963  22.684  1.00  0.00     0.041 A 
ATOM     76  C   UNL A   1      32.896  18.021  24.854  1.00  0.00     0.077 A 
ATOM     77  C   UNL A   1      32.764  17.872  23.475  1.00  0.00     0.141 A 
ATOM     78  Cl  UNL A   1      33.294  16.670  25.842  1.00  0.00    -0.081 Cl
ATOM     79  F   UNL A   1      32.948  16.681  22.886  1.00  0.00    -0.205 F 
ENDBRANCH  67  72
ENDBRANCH  63  65
ENDBRANCH  62  63
ENDBRANCH  61  62
ENDBRANCH   1  61
TORSDOF 12
ENDMDL
MODEL 2
REMARK VINA RESULT:     -11.9      1.795      3.195
REMARK SMILES O=C(OCCOC(=O)c1ccc(F)cc1-c1ccc(F)c(Cl)c1)c1ccc(-c2c3nc(c(-c4c(F)cccc4F)c4ccc([nH]4)c(-c4c(F)cccc4F)c4nc(c(-c5c(F)cccc5F)c5ccc2[nH]5)C=C4)C=C3)cc1
REMARK SMILES IDX 4 1 3 2 2 3 1 4 24 5 25 6 77 7 26 8 76 9 27 10 28 11 29 12
REMARK SMILES IDX 70 13 30 14 75 15 69 16 71 17 31 18 74 19 68 20 67 21 32 23
REMARK SMILES IDX 58 24 41 25 57 26 42 27 45 28 56 29 72 30 43 31 44 32 55 34
REMARK SMILES IDX 73 35 46 36 33 37 34 38 39 39 35 40 36 41 38 42 40 43 37 44
REMARK SMILES IDX 59 45 60 46 65 47 61 48 62 49 64 50 66 51 63 52 47 53 48 54
REMARK SMILES IDX 53 55 49 56 50 57 52 58 54 59 51 60 5 61 6 62 7 63 8 64 9 65
REMARK SMILES IDX 10 66 15 67 11 68 14 69 12 70 13 71 16 72 17 73 23 74 18 75
REMARK SMILES IDX 21 76 19 77 22 78 20 79
REMARK H PARENT 71 22 45 33
REMARK Flexibility Score: inf
ROOT
ATOM      1  C   UNL A   1      38.564  20.067  25.010  1.00  0.00     0.275 C 
ENDROOT
BRANCH   1   2
ATOM      2  O   UNL A   1      39.322  19.783  26.183  1.00  0.00    -0.458 OA
BRANCH   2   3
ATOM      3  C   UNL A   1      40.666  19.801  26.017  1.00  0.00     0.338 C 
ATOM      4  O   UNL A   1      41.380  18.857  25.736  1.00  0.00    -0.246 OA
BRANCH   3   5
ATOM      5  C   UNL A   1      41.143  21.115  26.519  1.00  0.00     0.060 A 
ATOM      6  C   UNL A   1      41.297  21.324  27.895  1.00  0.00     0.016 A 
ATOM      7  C   UNL A   1      41.597  22.078  25.612  1.00  0.00     0.016 A 
ATOM      8  C   UNL A   1      41.885  22.482  28.359  1.00  0.00     0.010 A 
ATOM      9  C   UNL A   1      42.266  23.204  26.069  1.00  0.00     0.010 A 
ATOM     10  C   UNL A   1      42.361  23.424  27.445  1.00  0.00    -0.014 A 
BRANCH  10  11
ATOM     11  C   UNL A   1      42.762  24.737  27.957  1.00  0.00     0.031 A 
ATOM     12  C   UNL A   1      44.224  25.059  27.942  1.00  0.00     0.074 A 
ATOM     13  C   UNL A   1      41.818  25.618  28.319  1.00  0.00     0.049 A 
ATOM     14  N   UNL A   1      44.819  26.186  28.213  1.00  0.00    -0.248 NA
ATOM     15  C   UNL A   1      45.145  23.970  27.563  1.00  0.00     0.031 C 
ATOM     16  C   UNL A   1      40.377  25.355  28.326  1.00  0.00     0.029 A 
ATOM     17  N   UNL A   1      41.923  26.913  28.736  1.00  0.00    -0.354 N 
ATOM     18  C   UNL A   1      46.170  25.945  28.008  1.00  0.00     0.074 A 
ATOM     19  C   UNL A   1      46.326  24.549  27.686  1.00  0.00     0.031 C 
ATOM     20  C   UNL A   1      39.732  26.453  28.750  1.00  0.00     0.029 A 
ATOM     21  C   UNL A   1      40.714  27.495  29.024  1.00  0.00     0.049 A 
ATOM     22  H   UNL A   1      42.784  27.383  28.823  1.00  0.00     0.167 HD
ATOM     23  C   UNL A   1      47.183  26.837  28.031  1.00  0.00     0.037 A 
ATOM     24  C   UNL A   1      40.448  28.744  29.442  1.00  0.00     0.037 A 
ATOM     25  C   UNL A   1      46.983  28.221  28.345  1.00  0.00     0.049 A 
ATOM     26  C   UNL A   1      41.599  29.707  29.525  1.00  0.00     0.074 A 
ATOM     27  C   UNL A   1      47.911  29.240  28.400  1.00  0.00     0.029 A 
ATOM     28  N   UNL A   1      45.747  28.773  28.663  1.00  0.00    -0.354 N 
ATOM     29  N   UNL A   1      42.870  29.488  29.275  1.00  0.00    -0.248 NA
ATOM     30  C   UNL A   1      41.286  31.088  29.904  1.00  0.00     0.031 C 
ATOM     31  C   UNL A   1      47.239  30.406  28.785  1.00  0.00     0.029 A 
ATOM     32  C   UNL A   1      45.887  30.120  28.928  1.00  0.00     0.049 A 
ATOM     33  H   UNL A   1      44.897  28.277  28.694  1.00  0.00     0.167 HD
ATOM     34  C   UNL A   1      43.507  30.709  29.433  1.00  0.00     0.074 A 
ATOM     35  C   UNL A   1      42.477  31.664  29.799  1.00  0.00     0.031 C 
ATOM     36  C   UNL A   1      44.818  31.022  29.282  1.00  0.00     0.037 A 
BRANCH  23  37
ATOM     37  C   UNL A   1      48.553  26.328  27.696  1.00  0.00     0.057 A 
ATOM     38  C   UNL A   1      49.367  25.754  28.676  1.00  0.00     0.134 A 
ATOM     39  C   UNL A   1      49.058  26.384  26.388  1.00  0.00     0.134 A 
ATOM     40  F   UNL A   1      48.942  25.657  29.945  1.00  0.00    -0.206 F 
ATOM     41  C   UNL A   1      50.635  25.252  28.370  1.00  0.00     0.040 A 
ATOM     42  C   UNL A   1      50.313  25.864  26.064  1.00  0.00     0.040 A 
ATOM     43  F   UNL A   1      48.315  26.893  25.393  1.00  0.00    -0.206 F 
ATOM     44  C   UNL A   1      51.108  25.301  27.059  1.00  0.00     0.006 A 
ENDBRANCH  23  37
BRANCH  24  45
ATOM     45  C   UNL A   1      39.047  29.135  29.734  1.00  0.00     0.057 A 
ATOM     46  C   UNL A   1      38.512  29.001  31.023  1.00  0.00     0.134 A 
ATOM     47  C   UNL A   1      38.186  29.578  28.726  1.00  0.00     0.134 A 
ATOM     48  F   UNL A   1      39.279  28.561  32.031  1.00  0.00    -0.206 F 
ATOM     49  C   UNL A   1      37.171  29.280  31.295  1.00  0.00     0.040 A 
ATOM     50  C   UNL A   1      36.846  29.877  28.986  1.00  0.00     0.040 A 
ATOM     51  F   UNL A   1      38.636  29.726  27.471  1.00  0.00    -0.206 F 
ATOM     52  C   UNL A   1      36.334  29.722  30.273  1.00  0.00     0.006 A 
ENDBRANCH  24  45
BRANCH  36  53
ATOM     53  C   UNL A   1      45.202  32.452  29.493  1.00  0.00     0.057 A 
ATOM     54  C   UNL A   1      45.194  33.352  28.421  1.00  0.00     0.134 A 
ATOM     55  C   UNL A   1      45.677  32.903  30.729  1.00  0.00     0.134 A 
ATOM     56  F   UNL A   1      44.762  32.967  27.210  1.00  0.00    -0.206 F 
ATOM     57  C   UNL A   1      45.667  34.654  28.567  1.00  0.00     0.040 A 
ATOM     58  C   UNL A   1      46.129  34.210  30.892  1.00  0.00     0.040 A 
ATOM     59  F   UNL A   1      45.698  32.084  31.790  1.00  0.00    -0.206 F 
ATOM     60  C   UNL A   1      46.137  35.086  29.806  1.00  0.00     0.006 A 
ENDBRANCH  36  53
ENDBRANCH  10  11
ENDBRANCH   3   5
ENDBRANCH   2   3
ENDBRANCH   1   2
BRANCH   1  61
ATOM     61  C   UNL A   1      37.789  21.398  25.099  1.00  0.00     0.275 C 
BRANCH  61  62
ATOM     62  O   UNL A   1      36.445  21.351  24.576  1.00  0.00    -0.458 OA
BRANCH  62  63
ATOM     63  C   UNL A   1      35.433  21.009  25.415  1.00  0.00     0.338 C 
ATOM     64  O   UNL A   1      35.231  21.448  26.531  1.00  0.00    -0.246 OA
BRANCH  63  65
ATOM     65  C   UNL A   1      34.631  19.932  24.770  1.00  0.00     0.068 A 
ATOM     66  C   UNL A   1      35.202  18.641  24.712  1.00  0.00     0.019 A 
ATOM     67  C   UNL A   1      33.324  20.150  24.278  1.00  0.00    -0.001 A 
ATOM     68  C   UNL A   1      34.500  17.574  24.146  1.00  0.00     0.040 A 
ATOM     69  C   UNL A   1      32.657  19.059  23.677  1.00  0.00     0.048 A 
ATOM     70  C   UNL A   1      33.242  17.799  23.616  1.00  0.00     0.123 A 
ATOM     71  F   UNL A   1      32.573  16.788  23.046  1.00  0.00    -0.207 F 
BRANCH  67  72
ATOM     72  C   UNL A   1      32.592  21.427  24.344  1.00  0.00    -0.016 A 
ATOM     73  C   UNL A   1      32.525  22.296  23.245  1.00  0.00     0.012 A 
ATOM     74  C   UNL A   1      31.822  21.746  25.473  1.00  0.00     0.032 A 
ATOM     75  C   UNL A   1      31.699  23.420  23.243  1.00  0.00     0.041 A 
ATOM     76  C   UNL A   1      30.999  22.878  25.481  1.00  0.00     0.077 A 
ATOM     77  C   UNL A   1      30.934  23.703  24.360  1.00  0.00     0.141 A 
ATOM     78  Cl  UNL A   1      30.044  23.218  26.870  1.00  0.00    -0.081 Cl
ATOM     79  F   UNL A   1      30.125  24.772  24.334  1.00  0.00    -0.205 F 
ENDBRANCH  67  72
ENDBRANCH  63  65
ENDBRANCH  62  63
ENDBRANCH  61  62
ENDBRANCH   1  61
TORSDOF 12
ENDMDL
MODEL 3
REMARK VINA RESULT:     -11.9      5.105      9.604
REMARK SMILES O=C(OCCOC(=O)c1ccc(F)cc1-c1ccc(F)c(Cl)c1)c1ccc(-c2c3nc(c(-c4c(F)cccc4F)c4ccc([nH]4)c(-c4c(F)cccc4F)c4nc(c(-c5c(F)cccc5F)c5ccc2[nH]5)C=C4)C=C3)cc1
REMARK SMILES IDX 4 1 3 2 2 3 1 4 24 5 25 6 77 7 26 8 76 9 27 10 28 11 29 12
REMARK SMILES IDX 70 13 30 14 75 15 69 16 71 17 31 18 74 19 68 20 67 21 32 23
REMARK SMILES IDX 58 24 41 25 57 26 42 27 45 28 56 29 72 30 43 31 44 32 55 34
REMARK SMILES IDX 73 35 46 36 33 37 34 38 39 39 35 40 36 41 38 42 40 43 37 44
REMARK SMILES IDX 59 45 60 46 65 47 61 48 62 49 64 50 66 51 63 52 47 53 48 54
REMARK SMILES IDX 53 55 49 56 50 57 52 58 54 59 51 60 5 61 6 62 7 63 8 64 9 65
REMARK SMILES IDX 10 66 15 67 11 68 14 69 12 70 13 71 16 72 17 73 23 74 18 75
REMARK SMILES IDX 21 76 19 77 22 78 20 79
REMARK H PARENT 71 22 45 33
REMARK Flexibility Score: inf
ROOT
ATOM      1  C   UNL A   1      31.881  31.441  26.835  1.00  0.00     0.275 C 
ENDROOT
BRANCH   1   2
ATOM      2  O   UNL A   1      33.252  31.833  26.812  1.00  0.00    -0.458 OA
BRANCH   2   3
ATOM      3  C   UNL A   1      33.613  32.716  27.772  1.00  0.00     0.338 C 
ATOM      4  O   UNL A   1      33.147  33.825  27.956  1.00  0.00    -0.246 OA
BRANCH   3   5
ATOM      5  C   UNL A   1      34.872  32.206  28.374  1.00  0.00     0.060 A 
ATOM      6  C   UNL A   1      34.960  30.868  28.780  1.00  0.00     0.016 A 
ATOM      7  C   UNL A   1      36.014  33.012  28.376  1.00  0.00     0.016 A 
ATOM      8  C   UNL A   1      36.169  30.348  29.194  1.00  0.00     0.010 A 
ATOM      9  C   UNL A   1      37.247  32.472  28.709  1.00  0.00     0.010 A 
ATOM     10  C   UNL A   1      37.309  31.153  29.165  1.00  0.00    -0.014 A 
BRANCH  10  11
ATOM     11  C   UNL A   1      38.518  30.656  29.825  1.00  0.00     0.031 A 
ATOM     12  C   UNL A   1      38.754  31.091  31.238  1.00  0.00     0.074 A 
ATOM     13  C   UNL A   1      39.300  29.771  29.187  1.00  0.00     0.049 A 
ATOM     14  N   UNL A   1      39.667  30.693  32.079  1.00  0.00    -0.248 NA
ATOM     15  C   UNL A   1      37.834  32.106  31.787  1.00  0.00     0.031 C 
ATOM     16  C   UNL A   1      39.094  29.300  27.816  1.00  0.00     0.029 A 
ATOM     17  N   UNL A   1      40.411  29.102  29.608  1.00  0.00    -0.354 N 
ATOM     18  C   UNL A   1      39.409  31.385  33.254  1.00  0.00     0.074 A 
ATOM     19  C   UNL A   1      38.323  32.298  33.000  1.00  0.00     0.031 C 
ATOM     20  C   UNL A   1      40.066  28.428  27.501  1.00  0.00     0.029 A 
ATOM     21  C   UNL A   1      40.944  28.273  28.654  1.00  0.00     0.049 A 
ATOM     22  H   UNL A   1      40.794  29.205  30.509  1.00  0.00     0.167 HD
ATOM     23  C   UNL A   1      39.999  31.222  34.457  1.00  0.00     0.037 A 
ATOM     24  C   UNL A   1      42.015  27.464  28.729  1.00  0.00     0.037 A 
ATOM     25  C   UNL A   1      41.070  30.294  34.670  1.00  0.00     0.049 A 
ATOM     26  C   UNL A   1      42.700  27.344  30.061  1.00  0.00     0.074 A 
ATOM     27  C   UNL A   1      41.757  30.015  35.832  1.00  0.00     0.029 A 
ATOM     28  N   UNL A   1      41.608  29.489  33.671  1.00  0.00    -0.354 N 
ATOM     29  N   UNL A   1      42.417  27.960  31.187  1.00  0.00    -0.248 NA
ATOM     30  C   UNL A   1      43.817  26.400  30.154  1.00  0.00     0.031 C 
ATOM     31  C   UNL A   1      42.737  29.064  35.529  1.00  0.00     0.029 A 
ATOM     32  C   UNL A   1      42.630  28.719  34.187  1.00  0.00     0.049 A 
ATOM     33  H   UNL A   1      41.304  29.470  32.735  1.00  0.00     0.167 HD
ATOM     34  C   UNL A   1      43.297  27.456  32.131  1.00  0.00     0.074 A 
ATOM     35  C   UNL A   1      44.122  26.480  31.442  1.00  0.00     0.031 C 
ATOM     36  C   UNL A   1      43.413  27.758  33.449  1.00  0.00     0.037 A 
BRANCH  23  37
ATOM     37  C   UNL A   1      39.478  32.048  35.593  1.00  0.00     0.057 A 
ATOM     38  C   UNL A   1      39.978  33.331  35.840  1.00  0.00     0.134 A 
ATOM     39  C   UNL A   1      38.455  31.582  36.433  1.00  0.00     0.134 A 
ATOM     40  F   UNL A   1      40.947  33.844  35.068  1.00  0.00    -0.206 F 
ATOM     41  C   UNL A   1      39.481  34.120  36.880  1.00  0.00     0.040 A 
ATOM     42  C   UNL A   1      37.934  32.370  37.461  1.00  0.00     0.040 A 
ATOM     43  F   UNL A   1      37.908  30.372  36.232  1.00  0.00    -0.206 F 
ATOM     44  C   UNL A   1      38.452  33.642  37.690  1.00  0.00     0.006 A 
ENDBRANCH  23  37
BRANCH  24  45
ATOM     45  C   UNL A   1      42.431  26.687  27.537  1.00  0.00     0.057 A 
ATOM     46  C   UNL A   1      43.247  27.256  26.549  1.00  0.00     0.134 A 
ATOM     47  C   UNL A   1      41.965  25.388  27.312  1.00  0.00     0.134 A 
ATOM     48  F   UNL A   1      43.710  28.506  26.693  1.00  0.00    -0.206 F 
ATOM     49  C   UNL A   1      43.573  26.568  25.378  1.00  0.00     0.040 A 
ATOM     50  C   UNL A   1      42.296  24.680  26.154  1.00  0.00     0.040 A 
ATOM     51  F   UNL A   1      41.179  24.787  28.218  1.00  0.00    -0.206 F 
ATOM     52  C   UNL A   1      43.098  25.273  25.179  1.00  0.00     0.006 A 
ENDBRANCH  24  45
BRANCH  36  53
ATOM     53  C   UNL A   1      44.450  27.013  34.226  1.00  0.00     0.057 A 
ATOM     54  C   UNL A   1      44.128  25.809  34.863  1.00  0.00     0.134 A 
ATOM     55  C   UNL A   1      45.730  27.542  34.427  1.00  0.00     0.134 A 
ATOM     56  F   UNL A   1      42.910  25.264  34.717  1.00  0.00    -0.206 F 
ATOM     57  C   UNL A   1      45.041  25.164  35.695  1.00  0.00     0.040 A 
ATOM     58  C   UNL A   1      46.659  26.894  35.237  1.00  0.00     0.040 A 
ATOM     59  F   UNL A   1      46.092  28.689  33.833  1.00  0.00    -0.206 F 
ATOM     60  C   UNL A   1      46.311  25.707  35.883  1.00  0.00     0.006 A 
ENDBRANCH  36  53
ENDBRANCH  10  11
ENDBRANCH   3   5
ENDBRANCH   2   3
ENDBRANCH   1   2
BRANCH   1  61
ATOM     61  C   UNL A   1      31.606  30.157  26.025  1.00  0.00     0.275 C 
BRANCH  61  62
ATOM     62  O   UNL A   1      32.472  29.047  26.340  1.00  0.00    -0.458 OA
BRANCH  62  63
ATOM     63  C   UNL A   1      31.919  27.818  26.504  1.00  0.00     0.338 C 
ATOM     64  O   UNL A   1      31.069  27.503  27.315  1.00  0.00    -0.246 OA
BRANCH  63  65
ATOM     65  C   UNL A   1      32.583  26.873  25.563  1.00  0.00     0.068 A 
ATOM     66  C   UNL A   1      33.816  26.313  25.965  1.00  0.00     0.019 A 
ATOM     67  C   UNL A   1      31.999  26.491  24.334  1.00  0.00    -0.001 A 
ATOM     68  C   UNL A   1      34.485  25.399  25.148  1.00  0.00     0.040 A 
ATOM     69  C   UNL A   1      32.721  25.594  23.514  1.00  0.00     0.048 A 
ATOM     70  C   UNL A   1      33.940  25.064  23.921  1.00  0.00     0.123 A 
ATOM     71  F   UNL A   1      34.590  24.211  23.118  1.00  0.00    -0.207 F 
BRANCH  67  72
ATOM     72  C   UNL A   1      30.689  26.946  23.835  1.00  0.00    -0.016 A 
ATOM     73  C   UNL A   1      29.497  26.307  24.203  1.00  0.00     0.012 A 
ATOM     74  C   UNL A   1      30.589  28.126  23.081  1.00  0.00     0.032 A 
ATOM     75  C   UNL A   1      28.247  26.830  23.873  1.00  0.00     0.041 A 
ATOM     76  C   UNL A   1      29.338  28.649  22.737  1.00  0.00     0.077 A 
ATOM     77  C   UNL A   1      28.173  28.004  23.146  1.00  0.00     0.141 A 
ATOM     78  Cl  UNL A   1      29.254  30.115  21.841  1.00  0.00    -0.081 Cl
ATOM     79  F   UNL A   1      26.964  28.509  22.858  1.00  0.00    -0.205 F 
ENDBRANCH  67  72
ENDBRANCH  63  65
ENDBRANCH  62  63
ENDBRANCH  61  62
ENDBRANCH   1  61
TORSDOF 12
ENDMDL
