MODEL 1
REMARK VINA RESULT:     -12.2      0.000      0.000
REMARK SMILES CC(C)=C1[C@H]2CC[C@@H]1[C@H](C(=O)NNC(=O)c1ccoc1C)[C@H]2C(=O)OCCOC(=O)c1ccc(-c2c3nc(c(-c4c(F)cccc4F)c4ccc([nH]4)c(-c4c(F)cccc4F)c4nc(c(-c5c(F)cccc5F)c5ccc2[nH]5)C=C4)C=C3)cc1
REMARK SMILES IDX 26 1 25 2 23 3 24 4 22 5 1 6 2 7 3 8 4 9 5 10 8 11 6 12 7 13
REMARK SMILES IDX 9 14 10 15 11 16 12 17 13 19 14 20 15 22 16 23 17 24 20 25
REMARK SMILES IDX 18 26 19 27 21 28 27 29 28 30 29 31 30 32 31 33 32 34 84 35
REMARK SMILES IDX 33 36 83 37 34 38 35 39 36 40 77 41 37 42 82 43 76 44 78 45
REMARK SMILES IDX 38 46 81 47 75 48 74 49 39 51 65 52 48 53 64 54 49 55 52 56
REMARK SMILES IDX 63 57 79 58 50 59 51 60 62 62 80 63 53 64 40 65 41 66 46 67
REMARK SMILES IDX 42 68 43 69 45 70 47 71 44 72 66 73 67 74 72 75 68 76 69 77
REMARK SMILES IDX 71 78 73 79 70 80 54 81 55 82 60 83 56 84 57 85 59 86 61 87
REMARK SMILES IDX 58 88
REMARK H PARENT 12 18 13 21 78 50 52 61
REMARK Flexibility Score: inf
ROOT
ATOM      1  C   UNL A   1      31.798  29.951  26.788  1.00  0.00     0.274 C 
ENDROOT
BRANCH   1   2
ATOM      2  O   UNL A   1      32.919  29.666  25.932  1.00  0.00    -0.462 OA
BRANCH   2   3
ATOM      3  C   UNL A   1      33.311  28.378  25.878  1.00  0.00     0.310 C 
ATOM      4  O   UNL A   1      33.708  27.746  26.852  1.00  0.00    -0.252 OA
BRANCH   3   5
ATOM      5  C   UNL A   1      33.347  27.758  24.490  1.00  0.00     0.119 C 
ATOM      6  C   UNL A   1      30.364  24.728  26.113  1.00  0.00     0.039 C 
ATOM      7  C   UNL A   1      31.793  25.000  25.760  1.00  0.00    -0.077 C 
ATOM      8  C   UNL A   1      32.812  24.316  26.645  1.00  0.00     0.039 C 
ATOM      9  C   UNL A   1      32.175  25.801  24.752  1.00  0.00    -0.064 C 
ATOM     10  C   UNL A   1      33.569  26.240  24.418  1.00  0.00     0.030 C 
ATOM     11  C   UNL A   1      31.461  26.529  23.626  1.00  0.00     0.029 C 
ATOM     12  C   UNL A   1      33.654  25.771  22.956  1.00  0.00     0.009 C 
ATOM     13  C   UNL A   1      32.189  25.797  22.486  1.00  0.00     0.009 C 
ATOM     14  C   UNL A   1      31.966  27.989  23.836  1.00  0.00     0.102 C 
BRANCH  14  15
ATOM     15  C   UNL A   1      32.112  28.866  22.585  1.00  0.00     0.243 C 
ATOM     16  O   UNL A   1      33.198  29.091  22.052  1.00  0.00    -0.273 OA
ATOM     17  N   UNL A   1      30.999  29.443  22.013  1.00  0.00    -0.267 N 
ATOM     18  H   UNL A   1      31.140  30.243  21.457  1.00  0.00     0.191 HD
BRANCH  17  19
ATOM     19  N   UNL A   1      29.689  28.988  22.155  1.00  0.00    -0.263 N 
ATOM     20  C   UNL A   1      28.565  29.747  22.434  1.00  0.00     0.273 C 
ATOM     21  H   UNL A   1      29.546  28.020  22.045  1.00  0.00     0.191 HD
ATOM     22  O   UNL A   1      27.508  29.170  22.689  1.00  0.00    -0.267 OA
BRANCH  20  23
ATOM     23  C   UNL A   1      28.630  31.196  22.486  1.00  0.00     0.082 A 
ATOM     24  C   UNL A   1      28.931  31.957  23.660  1.00  0.00     0.056 A 
ATOM     25  C   UNL A   1      28.291  32.134  21.524  1.00  0.00     0.113 A 
ATOM     26  C   UNL A   1      28.823  33.280  23.317  1.00  0.00     0.196 A 
ATOM     27  O   UNL A   1      28.446  33.396  22.021  1.00  0.00    -0.469 OA
ATOM     28  C   UNL A   1      27.762  32.074  20.144  1.00  0.00     0.088 C 
ENDBRANCH  20  23
ENDBRANCH  17  19
ENDBRANCH  14  15
ENDBRANCH   3   5
ENDBRANCH   2   3
ENDBRANCH   1   2
BRANCH   1  29
ATOM     29  C   UNL A   1      31.558  31.455  26.869  1.00  0.00     0.275 C 
BRANCH  29  30
ATOM     30  O   UNL A   1      32.763  32.176  26.553  1.00  0.00    -0.458 OA
BRANCH  30  31
ATOM     31  C   UNL A   1      33.257  32.933  27.561  1.00  0.00     0.338 C 
ATOM     32  O   UNL A   1      32.721  33.868  28.128  1.00  0.00    -0.246 OA
BRANCH  31  33
ATOM     33  C   UNL A   1      34.554  32.398  27.992  1.00  0.00     0.060 A 
ATOM     34  C   UNL A   1      34.599  31.091  28.476  1.00  0.00     0.016 A 
ATOM     35  C   UNL A   1      35.670  33.222  28.089  1.00  0.00     0.016 A 
ATOM     36  C   UNL A   1      35.741  30.601  29.093  1.00  0.00     0.010 A 
ATOM     37  C   UNL A   1      36.836  32.723  28.680  1.00  0.00     0.010 A 
ATOM     38  C   UNL A   1      36.868  31.420  29.213  1.00  0.00    -0.014 A 
BRANCH  38  39
ATOM     39  C   UNL A   1      38.036  30.945  29.989  1.00  0.00     0.031 A 
ATOM     40  C   UNL A   1      39.021  30.013  29.341  1.00  0.00     0.074 A 
ATOM     41  C   UNL A   1      38.235  31.373  31.249  1.00  0.00     0.049 A 
ATOM     42  N   UNL A   1      40.014  29.352  29.878  1.00  0.00    -0.248 NA
ATOM     43  C   UNL A   1      38.863  29.794  27.894  1.00  0.00     0.031 C 
ATOM     44  C   UNL A   1      37.394  32.338  31.958  1.00  0.00     0.029 A 
ATOM     45  N   UNL A   1      39.210  31.047  32.156  1.00  0.00    -0.354 N 
ATOM     46  C   UNL A   1      40.566  28.601  28.847  1.00  0.00     0.074 A 
ATOM     47  C   UNL A   1      39.800  28.889  27.653  1.00  0.00     0.031 C 
ATOM     48  C   UNL A   1      37.892  32.529  33.191  1.00  0.00     0.029 A 
ATOM     49  C   UNL A   1      39.043  31.652  33.377  1.00  0.00     0.049 A 
ATOM     50  H   UNL A   1      39.957  30.439  31.951  1.00  0.00     0.167 HD
ATOM     51  C   UNL A   1      41.614  27.746  28.897  1.00  0.00     0.037 A 
ATOM     52  C   UNL A   1      39.720  31.484  34.529  1.00  0.00     0.037 A 
ATOM     53  C   UNL A   1      42.391  27.494  30.083  1.00  0.00     0.049 A 
ATOM     54  C   UNL A   1      40.856  30.501  34.572  1.00  0.00     0.074 A 
ATOM     55  C   UNL A   1      43.465  26.638  30.249  1.00  0.00     0.029 A 
ATOM     56  N   UNL A   1      42.183  28.118  31.305  1.00  0.00    -0.354 N 
ATOM     57  N   UNL A   1      41.331  29.745  33.611  1.00  0.00    -0.248 NA
ATOM     58  C   UNL A   1      41.544  30.342  35.860  1.00  0.00     0.031 C 
ATOM     59  C   UNL A   1      43.889  26.722  31.581  1.00  0.00     0.029 A 
ATOM     60  C   UNL A   1      43.106  27.662  32.232  1.00  0.00     0.049 A 
ATOM     61  H   UNL A   1      41.482  28.784  31.487  1.00  0.00     0.167 HD
ATOM     62  C   UNL A   1      42.385  29.036  34.171  1.00  0.00     0.074 A 
ATOM     63  C   UNL A   1      42.489  29.464  35.551  1.00  0.00     0.031 C 
ATOM     64  C   UNL A   1      43.194  28.113  33.597  1.00  0.00     0.037 A 
BRANCH  51  65
ATOM     65  C   UNL A   1      41.950  26.990  27.645  1.00  0.00     0.057 A 
ATOM     66  C   UNL A   1      41.417  25.724  27.372  1.00  0.00     0.134 A 
ATOM     67  C   UNL A   1      42.811  27.549  26.691  1.00  0.00     0.134 A 
ATOM     68  F   UNL A   1      40.602  25.125  28.253  1.00  0.00    -0.206 F 
ATOM     69  C   UNL A   1      41.744  25.033  26.204  1.00  0.00     0.040 A 
ATOM     70  C   UNL A   1      43.126  26.877  25.509  1.00  0.00     0.040 A 
ATOM     71  F   UNL A   1      43.356  28.758  26.890  1.00  0.00    -0.206 F 
ATOM     72  C   UNL A   1      42.597  25.612  25.266  1.00  0.00     0.006 A 
ENDBRANCH  51  65
BRANCH  52  73
ATOM     73  C   UNL A   1      39.316  32.238  35.741  1.00  0.00     0.057 A 
ATOM     74  C   UNL A   1      38.414  31.698  36.664  1.00  0.00     0.134 A 
ATOM     75  C   UNL A   1      39.824  33.516  36.007  1.00  0.00     0.134 A 
ATOM     76  F   UNL A   1      37.877  30.488  36.453  1.00  0.00    -0.206 F 
ATOM     77  C   UNL A   1      38.024  32.404  37.803  1.00  0.00     0.040 A 
ATOM     78  C   UNL A   1      39.463  34.223  37.154  1.00  0.00     0.040 A 
ATOM     79  F   UNL A   1      40.695  34.088  35.162  1.00  0.00    -0.206 F 
ATOM     80  C   UNL A   1      38.555  33.668  38.054  1.00  0.00     0.006 A 
ENDBRANCH  52  73
BRANCH  64  81
ATOM     81  C   UNL A   1      44.286  27.544  34.453  1.00  0.00     0.057 A 
ATOM     82  C   UNL A   1      44.115  26.360  35.182  1.00  0.00     0.134 A 
ATOM     83  C   UNL A   1      45.530  28.184  34.535  1.00  0.00     0.134 A 
ATOM     84  F   UNL A   1      42.943  25.710  35.155  1.00  0.00    -0.206 F 
ATOM     85  C   UNL A   1      45.136  25.848  35.984  1.00  0.00     0.040 A 
ATOM     86  C   UNL A   1      46.564  27.668  35.315  1.00  0.00     0.040 A 
ATOM     87  F   UNL A   1      45.758  29.318  33.854  1.00  0.00    -0.206 F 
ATOM     88  C   UNL A   1      46.365  26.500  36.049  1.00  0.00     0.006 A 
ENDBRANCH  64  81
ENDBRANCH  38  39
ENDBRANCH  31  33
ENDBRANCH  30  31
ENDBRANCH  29  30
ENDBRANCH   1  29
TORSDOF 14
ENDMDL
MODEL 2
REMARK VINA RESULT:     -12.1      2.732      5.256
REMARK SMILES CC(C)=C1[C@H]2CC[C@@H]1[C@H](C(=O)NNC(=O)c1ccoc1C)[C@H]2C(=O)OCCOC(=O)c1ccc(-c2c3nc(c(-c4c(F)cccc4F)c4ccc([nH]4)c(-c4c(F)cccc4F)c4nc(c(-c5c(F)cccc5F)c5ccc2[nH]5)C=C4)C=C3)cc1
REMARK SMILES IDX 26 1 25 2 23 3 24 4 22 5 1 6 2 7 3 8 4 9 5 10 8 11 6 12 7 13
REMARK SMILES IDX 9 14 10 15 11 16 12 17 13 19 14 20 15 22 16 23 17 24 20 25
REMARK SMILES IDX 18 26 19 27 21 28 27 29 28 30 29 31 30 32 31 33 32 34 84 35
REMARK SMILES IDX 33 36 83 37 34 38 35 39 36 40 77 41 37 42 82 43 76 44 78 45
REMARK SMILES IDX 38 46 81 47 75 48 74 49 39 51 65 52 48 53 64 54 49 55 52 56
REMARK SMILES IDX 63 57 79 58 50 59 51 60 62 62 80 63 53 64 40 65 41 66 46 67
REMARK SMILES IDX 42 68 43 69 45 70 47 71 44 72 66 73 67 74 72 75 68 76 69 77
REMARK SMILES IDX 71 78 73 79 70 80 54 81 55 82 60 83 56 84 57 85 59 86 61 87
REMARK SMILES IDX 58 88
REMARK H PARENT 12 18 13 21 78 50 52 61
REMARK Flexibility Score: inf
ROOT
ATOM      1  C   UNL A   1      32.212  27.699  25.392  1.00  0.00     0.274 C 
ENDROOT
BRANCH   1   2
ATOM      2  O   UNL A   1      32.350  26.706  26.424  1.00  0.00    -0.462 OA
BRANCH   2   3
ATOM      3  C   UNL A   1      33.210  25.701  26.169  1.00  0.00     0.310 C 
ATOM      4  O   UNL A   1      34.359  25.872  25.774  1.00  0.00    -0.252 OA
BRANCH   3   5
ATOM      5  C   UNL A   1      32.638  24.297  26.293  1.00  0.00     0.119 C 
ATOM      6  C   UNL A   1      32.972  24.105  21.758  1.00  0.00     0.039 C 
ATOM      7  C   UNL A   1      32.065  24.312  22.930  1.00  0.00    -0.077 C 
ATOM      8  C   UNL A   1      30.940  25.298  22.702  1.00  0.00     0.039 C 
ATOM      9  C   UNL A   1      32.222  23.699  24.116  1.00  0.00    -0.064 C 
ATOM     10  C   UNL A   1      31.455  23.952  25.378  1.00  0.00     0.030 C 
ATOM     11  C   UNL A   1      33.129  22.604  24.648  1.00  0.00     0.029 C 
ATOM     12  C   UNL A   1      30.941  22.531  25.666  1.00  0.00     0.009 C 
ATOM     13  C   UNL A   1      31.995  21.628  25.003  1.00  0.00     0.009 C 
ATOM     14  C   UNL A   1      33.751  23.300  25.897  1.00  0.00     0.102 C 
BRANCH  14  15
ATOM     15  C   UNL A   1      34.110  22.405  27.091  1.00  0.00     0.243 C 
ATOM     16  O   UNL A   1      33.474  22.413  28.145  1.00  0.00    -0.273 OA
ATOM     17  N   UNL A   1      35.186  21.548  27.012  1.00  0.00    -0.267 N 
ATOM     18  H   UNL A   1      35.596  21.259  27.859  1.00  0.00     0.191 HD
BRANCH  17  19
ATOM     19  N   UNL A   1      35.744  21.057  25.833  1.00  0.00    -0.263 N 
ATOM     20  C   UNL A   1      36.917  21.472  25.225  1.00  0.00     0.273 C 
ATOM     21  H   UNL A   1      35.250  20.334  25.382  1.00  0.00     0.191 HD
ATOM     22  O   UNL A   1      37.184  21.048  24.101  1.00  0.00    -0.267 OA
BRANCH  20  23
ATOM     23  C   UNL A   1      37.795  22.435  25.864  1.00  0.00     0.082 A 
ATOM     24  C   UNL A   1      37.510  23.831  26.005  1.00  0.00     0.056 A 
ATOM     25  C   UNL A   1      39.093  22.283  26.322  1.00  0.00     0.113 A 
ATOM     26  C   UNL A   1      38.608  24.405  26.591  1.00  0.00     0.196 A 
ATOM     27  O   UNL A   1      39.568  23.472  26.796  1.00  0.00    -0.469 OA
ATOM     28  C   UNL A   1      40.068  21.170  26.357  1.00  0.00     0.088 C 
ENDBRANCH  20  23
ENDBRANCH  17  19
ENDBRANCH  14  15
ENDBRANCH   3   5
ENDBRANCH   2   3
ENDBRANCH   1   2
BRANCH   1  29
ATOM     29  C   UNL A   1      31.930  29.068  26.003  1.00  0.00     0.275 C 
BRANCH  29  30
ATOM     30  O   UNL A   1      33.045  29.955  25.790  1.00  0.00    -0.458 OA
BRANCH  30  31
ATOM     31  C   UNL A   1      33.266  30.844  26.786  1.00  0.00     0.338 C 
ATOM     32  O   UNL A   1      32.477  31.629  27.279  1.00  0.00    -0.246 OA
BRANCH  31  33
ATOM     33  C   UNL A   1      34.626  30.671  27.312  1.00  0.00     0.060 A 
ATOM     34  C   UNL A   1      35.048  29.381  27.633  1.00  0.00     0.016 A 
ATOM     35  C   UNL A   1      35.406  31.771  27.651  1.00  0.00     0.016 A 
ATOM     36  C   UNL A   1      36.231  29.174  28.327  1.00  0.00     0.010 A 
ATOM     37  C   UNL A   1      36.617  31.566  28.321  1.00  0.00     0.010 A 
ATOM     38  C   UNL A   1      37.021  30.268  28.690  1.00  0.00    -0.014 A 
BRANCH  38  39
ATOM     39  C   UNL A   1      38.212  30.058  29.546  1.00  0.00     0.031 A 
ATOM     40  C   UNL A   1      39.351  29.224  29.030  1.00  0.00     0.074 A 
ATOM     41  C   UNL A   1      38.289  30.639  30.757  1.00  0.00     0.049 A 
ATOM     42  N   UNL A   1      40.405  28.779  29.663  1.00  0.00    -0.248 NA
ATOM     43  C   UNL A   1      39.290  28.837  27.611  1.00  0.00     0.031 C 
ATOM     44  C   UNL A   1      37.285  31.533  31.334  1.00  0.00     0.029 A 
ATOM     45  N   UNL A   1      39.261  30.559  31.721  1.00  0.00    -0.354 N 
ATOM     46  C   UNL A   1      41.107  28.019  28.735  1.00  0.00     0.074 A 
ATOM     47  C   UNL A   1      40.360  28.064  27.497  1.00  0.00     0.031 C 
ATOM     48  C   UNL A   1      37.694  31.923  32.552  1.00  0.00     0.029 A 
ATOM     49  C   UNL A   1      38.953  31.254  32.864  1.00  0.00     0.049 A 
ATOM     50  H   UNL A   1      40.098  30.053  31.604  1.00  0.00     0.167 HD
ATOM     51  C   UNL A   1      42.267  27.342  28.908  1.00  0.00     0.037 A 
ATOM     52  C   UNL A   1      39.596  31.309  34.046  1.00  0.00     0.037 A 
ATOM     53  C   UNL A   1      43.019  27.334  30.135  1.00  0.00     0.049 A 
ATOM     54  C   UNL A   1      40.861  30.519  34.227  1.00  0.00     0.074 A 
ATOM     55  C   UNL A   1      44.199  26.671  30.423  1.00  0.00     0.029 A 
ATOM     56  N   UNL A   1      42.667  28.041  31.276  1.00  0.00    -0.354 N 
ATOM     57  N   UNL A   1      41.484  29.749  33.368  1.00  0.00    -0.248 NA
ATOM     58  C   UNL A   1      41.508  30.600  35.543  1.00  0.00     0.031 C 
ATOM     59  C   UNL A   1      44.547  26.955  31.749  1.00  0.00     0.029 A 
ATOM     60  C   UNL A   1      43.607  27.828  32.272  1.00  0.00     0.049 A 
ATOM     61  H   UNL A   1      41.869  28.609  31.365  1.00  0.00     0.167 HD
ATOM     62  C   UNL A   1      42.606  29.269  34.030  1.00  0.00     0.074 A 
ATOM     63  C   UNL A   1      42.585  29.848  35.359  1.00  0.00     0.031 C 
ATOM     64  C   UNL A   1      43.567  28.425  33.582  1.00  0.00     0.037 A 
BRANCH  51  65
ATOM     65  C   UNL A   1      42.765  26.521  27.755  1.00  0.00     0.057 A 
ATOM     66  C   UNL A   1      42.509  25.148  27.650  1.00  0.00     0.134 A 
ATOM     67  C   UNL A   1      43.501  27.121  26.725  1.00  0.00     0.134 A 
ATOM     68  F   UNL A   1      41.826  24.509  28.612  1.00  0.00    -0.206 F 
ATOM     69  C   UNL A   1      42.984  24.398  26.573  1.00  0.00     0.040 A 
ATOM     70  C   UNL A   1      43.961  26.387  25.631  1.00  0.00     0.040 A 
ATOM     71  F   UNL A   1      43.782  28.433  26.762  1.00  0.00    -0.206 F 
ATOM     72  C   UNL A   1      43.709  25.019  25.556  1.00  0.00     0.006 A 
ENDBRANCH  51  65
BRANCH  52  73
ATOM     73  C   UNL A   1      39.032  32.114  35.157  1.00  0.00     0.057 A 
ATOM     74  C   UNL A   1      38.299  31.515  36.187  1.00  0.00     0.134 A 
ATOM     75  C   UNL A   1      39.216  33.502  35.219  1.00  0.00     0.134 A 
ATOM     76  F   UNL A   1      38.071  30.194  36.173  1.00  0.00    -0.206 F 
ATOM     77  C   UNL A   1      37.760  32.267  37.233  1.00  0.00     0.040 A 
ATOM     78  C   UNL A   1      38.704  34.262  36.270  1.00  0.00     0.040 A 
ATOM     79  F   UNL A   1      39.911  34.136  34.262  1.00  0.00    -0.206 F 
ATOM     80  C   UNL A   1      37.968  33.644  37.279  1.00  0.00     0.006 A 
ENDBRANCH  52  73
BRANCH  64  81
ATOM     81  C   UNL A   1      44.692  28.119  34.525  1.00  0.00     0.057 A 
ATOM     82  C   UNL A   1      45.844  28.914  34.586  1.00  0.00     0.134 A 
ATOM     83  C   UNL A   1      44.612  27.022  35.393  1.00  0.00     0.134 A 
ATOM     84  F   UNL A   1      45.985  29.969  33.770  1.00  0.00    -0.206 F 
ATOM     85  C   UNL A   1      46.889  28.612  35.460  1.00  0.00     0.040 A 
ATOM     86  C   UNL A   1      45.641  26.725  36.287  1.00  0.00     0.040 A 
ATOM     87  F   UNL A   1      43.531  26.226  35.388  1.00  0.00    -0.206 F 
ATOM     88  C   UNL A   1      46.787  27.517  36.316  1.00  0.00     0.006 A 
ENDBRANCH  64  81
ENDBRANCH  38  39
ENDBRANCH  31  33
ENDBRANCH  30  31
ENDBRANCH  29  30
ENDBRANCH   1  29
TORSDOF 14
ENDMDL
MODEL 3
REMARK VINA RESULT:     -12.1      1.392      2.276
REMARK SMILES CC(C)=C1[C@H]2CC[C@@H]1[C@H](C(=O)NNC(=O)c1ccoc1C)[C@H]2C(=O)OCCOC(=O)c1ccc(-c2c3nc(c(-c4c(F)cccc4F)c4ccc([nH]4)c(-c4c(F)cccc4F)c4nc(c(-c5c(F)cccc5F)c5ccc2[nH]5)C=C4)C=C3)cc1
REMARK SMILES IDX 26 1 25 2 23 3 24 4 22 5 1 6 2 7 3 8 4 9 5 10 8 11 6 12 7 13
REMARK SMILES IDX 9 14 10 15 11 16 12 17 13 19 14 20 15 22 16 23 17 24 20 25
REMARK SMILES IDX 18 26 19 27 21 28 27 29 28 30 29 31 30 32 31 33 32 34 84 35
REMARK SMILES IDX 33 36 83 37 34 38 35 39 36 40 77 41 37 42 82 43 76 44 78 45
REMARK SMILES IDX 38 46 81 47 75 48 74 49 39 51 65 52 48 53 64 54 49 55 52 56
REMARK SMILES IDX 63 57 79 58 50 59 51 60 62 62 80 63 53 64 40 65 41 66 46 67
REMARK SMILES IDX 42 68 43 69 45 70 47 71 44 72 66 73 67 74 72 75 68 76 69 77
REMARK SMILES IDX 71 78 73 79 70 80 54 81 55 82 60 83 56 84 57 85 59 86 61 87
REMARK SMILES IDX 58 88
REMARK H PARENT 12 18 13 21 78 50 52 61
REMARK Flexibility Score: inf
ROOT
ATOM      1  C   UNL A   1      32.846  30.085  27.229  1.00  0.00     0.274 C 
ENDROOT
BRANCH   1   2
ATOM      2  O   UNL A   1      32.508  29.107  26.229  1.00  0.00    -0.462 OA
BRANCH   2   3
ATOM      3  C   UNL A   1      33.447  28.177  25.969  1.00  0.00     0.310 C 
ATOM      4  O   UNL A   1      34.295  27.819  26.779  1.00  0.00    -0.252 OA
BRANCH   3   5
ATOM      5  C   UNL A   1      33.477  27.654  24.541  1.00  0.00     0.119 C 
ATOM      6  C   UNL A   1      30.490  24.526  25.962  1.00  0.00     0.039 C 
ATOM      7  C   UNL A   1      31.919  24.818  25.623  1.00  0.00    -0.077 C 
ATOM      8  C   UNL A   1      32.939  24.072  26.456  1.00  0.00     0.039 C 
ATOM      9  C   UNL A   1      32.300  25.686  24.671  1.00  0.00    -0.064 C 
ATOM     10  C   UNL A   1      33.694  26.144  24.364  1.00  0.00     0.030 C 
ATOM     11  C   UNL A   1      31.585  26.491  23.601  1.00  0.00     0.029 C 
ATOM     12  C   UNL A   1      33.773  25.777  22.872  1.00  0.00     0.009 C 
ATOM     13  C   UNL A   1      32.306  25.838  22.411  1.00  0.00     0.009 C 
ATOM     14  C   UNL A   1      32.094  27.933  23.909  1.00  0.00     0.102 C 
BRANCH  14  15
ATOM     15  C   UNL A   1      32.239  28.893  22.721  1.00  0.00     0.243 C 
ATOM     16  O   UNL A   1      33.328  29.184  22.227  1.00  0.00    -0.273 OA
ATOM     17  N   UNL A   1      31.120  29.474  22.163  1.00  0.00    -0.267 N 
ATOM     18  H   UNL A   1      31.248  30.313  21.664  1.00  0.00     0.191 HD
BRANCH  17  19
ATOM     19  N   UNL A   1      29.821  28.974  22.248  1.00  0.00    -0.263 N 
ATOM     20  C   UNL A   1      28.659  29.695  22.459  1.00  0.00     0.273 C 
ATOM     21  H   UNL A   1      29.719  28.000  22.145  1.00  0.00     0.191 HD
ATOM     22  O   UNL A   1      27.612  29.084  22.671  1.00  0.00    -0.267 OA
BRANCH  20  23
ATOM     23  C   UNL A   1      28.669  31.147  22.493  1.00  0.00     0.082 A 
ATOM     24  C   UNL A   1      28.908  31.933  23.665  1.00  0.00     0.056 A 
ATOM     25  C   UNL A   1      28.326  32.058  21.508  1.00  0.00     0.113 A 
ATOM     26  C   UNL A   1      28.762  33.246  23.300  1.00  0.00     0.196 A 
ATOM     27  O   UNL A   1      28.420  33.332  21.992  1.00  0.00    -0.469 OA
ATOM     28  C   UNL A   1      27.840  31.961  20.115  1.00  0.00     0.088 C 
ENDBRANCH  20  23
ENDBRANCH  17  19
ENDBRANCH  14  15
ENDBRANCH   3   5
ENDBRANCH   2   3
ENDBRANCH   1   2
BRANCH   1  29
ATOM     29  C   UNL A   1      32.092  31.388  26.978  1.00  0.00     0.275 C 
BRANCH  29  30
ATOM     30  O   UNL A   1      33.016  32.463  26.724  1.00  0.00    -0.458 OA
BRANCH  30  31
ATOM     31  C   UNL A   1      33.094  33.392  27.705  1.00  0.00     0.338 C 
ATOM     32  O   UNL A   1      32.260  34.222  28.019  1.00  0.00    -0.246 OA
BRANCH  31  33
ATOM     33  C   UNL A   1      34.336  33.207  28.466  1.00  0.00     0.060 A 
ATOM     34  C   UNL A   1      35.536  33.589  27.868  1.00  0.00     0.016 A 
ATOM     35  C   UNL A   1      34.339  32.507  29.668  1.00  0.00     0.016 A 
ATOM     36  C   UNL A   1      36.754  33.247  28.440  1.00  0.00     0.010 A 
ATOM     37  C   UNL A   1      35.563  32.190  30.266  1.00  0.00     0.010 A 
ATOM     38  C   UNL A   1      36.778  32.531  29.640  1.00  0.00    -0.014 A 
BRANCH  38  39
ATOM     39  C   UNL A   1      38.072  32.051  30.178  1.00  0.00     0.031 A 
ATOM     40  C   UNL A   1      38.711  30.831  29.577  1.00  0.00     0.074 A 
ATOM     41  C   UNL A   1      38.688  32.723  31.167  1.00  0.00     0.049 A 
ATOM     42  N   UNL A   1      39.746  30.148  29.993  1.00  0.00    -0.248 NA
ATOM     43  C   UNL A   1      38.097  30.308  28.346  1.00  0.00     0.031 C 
ATOM     44  C   UNL A   1      38.207  33.964  31.776  1.00  0.00     0.029 A 
ATOM     45  N   UNL A   1      39.854  32.451  31.835  1.00  0.00    -0.354 N 
ATOM     46  C   UNL A   1      39.877  29.087  29.104  1.00  0.00     0.074 A 
ATOM     47  C   UNL A   1      38.818  29.217  28.127  1.00  0.00     0.031 C 
ATOM     48  C   UNL A   1      39.074  34.348  32.727  1.00  0.00     0.029 A 
ATOM     49  C   UNL A   1      40.130  33.348  32.837  1.00  0.00     0.049 A 
ATOM     50  H   UNL A   1      40.436  31.687  31.617  1.00  0.00     0.167 HD
ATOM     51  C   UNL A   1      40.797  28.094  29.111  1.00  0.00     0.037 A 
ATOM     52  C   UNL A   1      41.104  33.338  33.767  1.00  0.00     0.037 A 
ATOM     53  C   UNL A   1      41.868  27.995  30.068  1.00  0.00     0.049 A 
ATOM     54  C   UNL A   1      42.092  32.206  33.778  1.00  0.00     0.074 A 
ATOM     55  C   UNL A   1      42.847  27.023  30.175  1.00  0.00     0.029 A 
ATOM     56  N   UNL A   1      42.107  28.917  31.077  1.00  0.00    -0.354 N 
ATOM     57  N   UNL A   1      42.171  31.171  32.976  1.00  0.00    -0.248 NA
ATOM     58  C   UNL A   1      43.120  32.235  34.827  1.00  0.00     0.031 C 
ATOM     59  C   UNL A   1      43.663  27.342  31.266  1.00  0.00     0.029 A 
ATOM     60  C   UNL A   1      43.217  28.535  31.812  1.00  0.00     0.049 A 
ATOM     61  H   UNL A   1      41.569  29.723  31.245  1.00  0.00     0.167 HD
ATOM     62  C   UNL A   1      43.267  30.437  33.410  1.00  0.00     0.074 A 
ATOM     63  C   UNL A   1      43.830  31.154  34.536  1.00  0.00     0.031 C 
ATOM     64  C   UNL A   1      43.763  29.273  32.923  1.00  0.00     0.037 A 
BRANCH  51  65
ATOM     65  C   UNL A   1      40.656  27.015  28.077  1.00  0.00     0.057 A 
ATOM     66  C   UNL A   1      41.353  27.049  26.863  1.00  0.00     0.134 A 
ATOM     67  C   UNL A   1      39.819  25.916  28.311  1.00  0.00     0.134 A 
ATOM     68  F   UNL A   1      42.156  28.083  26.569  1.00  0.00    -0.206 F 
ATOM     69  C   UNL A   1      41.206  26.040  25.910  1.00  0.00     0.040 A 
ATOM     70  C   UNL A   1      39.682  24.889  27.376  1.00  0.00     0.040 A 
ATOM     71  F   UNL A   1      39.123  25.821  29.454  1.00  0.00    -0.206 F 
ATOM     72  C   UNL A   1      40.372  24.953  26.168  1.00  0.00     0.006 A 
ENDBRANCH  51  65
BRANCH  52  73
ATOM     73  C   UNL A   1      41.169  34.419  34.781  1.00  0.00     0.057 A 
ATOM     74  C   UNL A   1      41.904  35.587  34.550  1.00  0.00     0.134 A 
ATOM     75  C   UNL A   1      40.495  34.312  36.004  1.00  0.00     0.134 A 
ATOM     76  F   UNL A   1      42.588  35.738  33.407  1.00  0.00    -0.206 F 
ATOM     77  C   UNL A   1      41.975  36.605  35.502  1.00  0.00     0.040 A 
ATOM     78  C   UNL A   1      40.536  35.332  36.954  1.00  0.00     0.040 A 
ATOM     79  F   UNL A   1      39.771  33.218  36.285  1.00  0.00    -0.206 F 
ATOM     80  C   UNL A   1      41.284  36.482  36.706  1.00  0.00     0.006 A 
ENDBRANCH  52  73
BRANCH  64  81
ATOM     81  C   UNL A   1      44.999  28.736  33.580  1.00  0.00     0.057 A 
ATOM     82  C   UNL A   1      46.282  29.105  33.157  1.00  0.00     0.134 A 
ATOM     83  C   UNL A   1      44.900  27.850  34.660  1.00  0.00     0.134 A 
ATOM     84  F   UNL A   1      46.442  29.939  32.119  1.00  0.00    -0.206 F 
ATOM     85  C   UNL A   1      47.425  28.589  33.770  1.00  0.00     0.040 A 
ATOM     86  C   UNL A   1      46.035  27.347  35.295  1.00  0.00     0.040 A 
ATOM     87  F   UNL A   1      43.698  27.464  35.117  1.00  0.00    -0.206 F 
ATOM     88  C   UNL A   1      47.302  27.711  34.844  1.00  0.00     0.006 A 
ENDBRANCH  64  81
ENDBRANCH  38  39
ENDBRANCH  31  33
ENDBRANCH  30  31
ENDBRANCH  29  30
ENDBRANCH   1  29
TORSDOF 14
ENDMDL
