MODEL 1
REMARK VINA RESULT:     -11.4      0.000      0.000
REMARK SMILES CC(C)=CCc1cccc2c(C(=O)OCCOC(=O)c3ccc(-c4c5nc(c(-c6c(F)cccc6F)c6ccc([nH]6)c(-c6c(F)cccc6F)c6nc(c(-c7c(F)cccc7F)c7ccc4[nH]7)C=C6)C=C5)cc3)c[nH]c12
REMARK SMILES IDX 15 1 14 2 12 3 13 4 11 5 6 6 7 7 76 8 8 9 10 10 75 11 9 12
REMARK SMILES IDX 74 13 5 15 4 16 1 17 2 18 3 19 16 20 17 21 18 22 19 23 20 24
REMARK SMILES IDX 21 25 73 26 22 27 72 28 23 29 24 30 25 31 66 32 26 33 71 34
REMARK SMILES IDX 65 35 67 36 27 37 70 38 64 39 63 40 28 42 54 43 37 44 53 45
REMARK SMILES IDX 38 46 41 47 52 48 68 49 39 50 40 51 51 53 69 54 42 55 29 56
REMARK SMILES IDX 30 57 35 58 31 59 32 60 34 61 36 62 33 63 55 64 56 65 61 66
REMARK SMILES IDX 57 67 58 68 60 69 62 70 59 71 43 72 44 73 49 74 45 75 46 76
REMARK SMILES IDX 48 77 50 78 47 79
REMARK H PARENT 75 14 67 41 41 52
REMARK Flexibility Score: inf
ROOT
ATOM      1  C   UNL A   1      43.106  20.529  26.123  1.00  0.00     0.275 C 
ENDROOT
BRANCH   1   2
ATOM      2  O   UNL A   1      41.797  19.995  25.848  1.00  0.00    -0.458 OA
BRANCH   2   3
ATOM      3  C   UNL A   1      40.794  20.392  26.688  1.00  0.00     0.340 C 
ATOM      4  O   UNL A   1      40.944  20.598  27.886  1.00  0.00    -0.246 OA
BRANCH   3   5
ATOM      5  C   UNL A   1      39.529  20.640  26.002  1.00  0.00     0.085 A 
ATOM      6  C   UNL A   1      36.601  22.500  24.866  1.00  0.00    -0.020 A 
ATOM      7  C   UNL A   1      36.798  23.781  25.423  1.00  0.00     0.006 A 
ATOM      8  C   UNL A   1      37.597  21.551  25.174  1.00  0.00     0.050 A 
ATOM      9  C   UNL A   1      37.905  24.088  26.212  1.00  0.00     0.001 A 
ATOM     10  C   UNL A   1      38.720  21.822  25.965  1.00  0.00     0.014 A 
ATOM     11  N   UNL A   1      37.693  20.233  24.793  1.00  0.00    -0.360 N 
ATOM     12  C   UNL A   1      38.865  23.117  26.499  1.00  0.00     0.011 A 
ATOM     13  C   UNL A   1      38.896  19.719  25.181  1.00  0.00     0.099 A 
ATOM     14  H   UNL A   1      36.996  19.733  24.311  1.00  0.00     0.166 HD
BRANCH   6  15
ATOM     15  C   UNL A   1      35.380  22.164  24.031  1.00  0.00     0.065 C 
BRANCH  15  16
ATOM     16  C   UNL A   1      34.745  23.345  23.351  1.00  0.00    -0.024 C 
ATOM     17  C   UNL A   1      32.598  22.232  22.671  1.00  0.00     0.039 C 
ATOM     18  C   UNL A   1      33.542  23.398  22.744  1.00  0.00    -0.080 C 
ATOM     19  C   UNL A   1      33.117  24.671  22.067  1.00  0.00     0.039 C 
ENDBRANCH  15  16
ENDBRANCH   6  15
ENDBRANCH   3   5
ENDBRANCH   2   3
ENDBRANCH   1   2
BRANCH   1  20
ATOM     20  C   UNL A   1      43.582  21.475  25.016  1.00  0.00     0.275 C 
BRANCH  20  21
ATOM     21  O   UNL A   1      42.810  22.691  25.003  1.00  0.00    -0.458 OA
BRANCH  21  22
ATOM     22  C   UNL A   1      43.530  23.830  25.091  1.00  0.00     0.338 C 
ATOM     23  O   UNL A   1      44.509  24.146  24.434  1.00  0.00    -0.246 OA
BRANCH  22  24
ATOM     24  C   UNL A   1      42.898  24.748  26.047  1.00  0.00     0.060 A 
ATOM     25  C   UNL A   1      43.295  26.080  26.011  1.00  0.00     0.016 A 
ATOM     26  C   UNL A   1      42.059  24.297  27.061  1.00  0.00     0.016 A 
ATOM     27  C   UNL A   1      42.924  26.963  27.015  1.00  0.00     0.010 A 
ATOM     28  C   UNL A   1      41.625  25.203  28.039  1.00  0.00     0.010 A 
ATOM     29  C   UNL A   1      42.078  26.538  28.043  1.00  0.00    -0.014 A 
BRANCH  29  30
ATOM     30  C   UNL A   1      41.722  27.474  29.142  1.00  0.00     0.031 A 
ATOM     31  C   UNL A   1      42.527  27.477  30.412  1.00  0.00     0.074 A 
ATOM     32  C   UNL A   1      40.702  28.343  28.994  1.00  0.00     0.049 A 
ATOM     33  N   UNL A   1      42.288  28.088  31.545  1.00  0.00    -0.248 NA
ATOM     34  C   UNL A   1      43.761  26.676  30.412  1.00  0.00     0.031 C 
ATOM     35  C   UNL A   1      39.886  28.497  27.788  1.00  0.00     0.029 A 
ATOM     36  N   UNL A   1      40.176  29.261  29.869  1.00  0.00    -0.354 N 
ATOM     37  C   UNL A   1      43.311  27.708  32.405  1.00  0.00     0.074 A 
ATOM     38  C   UNL A   1      44.168  26.804  31.667  1.00  0.00     0.031 C 
ATOM     39  C   UNL A   1      38.974  29.460  27.993  1.00  0.00     0.029 A 
ATOM     40  C   UNL A   1      39.083  29.929  29.370  1.00  0.00     0.049 A 
ATOM     41  H   UNL A   1      40.545  29.425  30.767  1.00  0.00     0.167 HD
ATOM     42  C   UNL A   1      43.515  28.079  33.691  1.00  0.00     0.037 A 
ATOM     43  C   UNL A   1      38.232  30.784  29.967  1.00  0.00     0.037 A 
ATOM     44  C   UNL A   1      42.677  29.009  34.405  1.00  0.00     0.049 A 
ATOM     45  C   UNL A   1      38.436  31.125  31.416  1.00  0.00     0.074 A 
ATOM     46  C   UNL A   1      42.805  29.461  35.707  1.00  0.00     0.029 A 
ATOM     47  N   UNL A   1      41.557  29.633  33.874  1.00  0.00    -0.354 N 
ATOM     48  N   UNL A   1      39.384  30.732  32.232  1.00  0.00    -0.248 NA
ATOM     49  C   UNL A   1      37.445  32.019  32.032  1.00  0.00     0.031 C 
ATOM     50  C   UNL A   1      41.733  30.318  35.980  1.00  0.00     0.029 A 
ATOM     51  C   UNL A   1      40.972  30.447  34.830  1.00  0.00     0.049 A 
ATOM     52  H   UNL A   1      41.228  29.514  32.953  1.00  0.00     0.167 HD
ATOM     53  C   UNL A   1      39.118  31.347  33.449  1.00  0.00     0.074 A 
ATOM     54  C   UNL A   1      37.929  32.154  33.257  1.00  0.00     0.031 C 
ATOM     55  C   UNL A   1      39.793  31.250  34.619  1.00  0.00     0.037 A 
BRANCH  42  56
ATOM     56  C   UNL A   1      44.665  27.448  34.424  1.00  0.00     0.057 A 
ATOM     57  C   UNL A   1      44.547  26.224  35.093  1.00  0.00     0.134 A 
ATOM     58  C   UNL A   1      45.921  28.069  34.435  1.00  0.00     0.134 A 
ATOM     59  F   UNL A   1      43.371  25.581  35.134  1.00  0.00    -0.206 F 
ATOM     60  C   UNL A   1      45.629  25.654  35.769  1.00  0.00     0.040 A 
ATOM     61  C   UNL A   1      47.017  27.496  35.082  1.00  0.00     0.040 A 
ATOM     62  F   UNL A   1      46.108  29.241  33.808  1.00  0.00    -0.206 F 
ATOM     63  C   UNL A   1      46.871  26.288  35.758  1.00  0.00     0.006 A 
ENDBRANCH  42  56
BRANCH  43  64
ATOM     64  C   UNL A   1      37.078  31.338  29.210  1.00  0.00     0.057 A 
ATOM     65  C   UNL A   1      35.931  30.573  28.974  1.00  0.00     0.134 A 
ATOM     66  C   UNL A   1      37.100  32.641  28.696  1.00  0.00     0.134 A 
ATOM     67  F   UNL A   1      35.858  29.310  29.420  1.00  0.00    -0.206 F 
ATOM     68  C   UNL A   1      34.854  31.077  28.242  1.00  0.00     0.040 A 
ATOM     69  C   UNL A   1      36.018  33.167  27.989  1.00  0.00     0.040 A 
ATOM     70  F   UNL A   1      38.170  33.427  28.886  1.00  0.00    -0.206 F 
ATOM     71  C   UNL A   1      34.894  32.381  27.753  1.00  0.00     0.006 A 
ENDBRANCH  43  64
BRANCH  55  72
ATOM     72  C   UNL A   1      39.290  32.072  35.771  1.00  0.00     0.057 A 
ATOM     73  C   UNL A   1      38.345  31.578  36.679  1.00  0.00     0.134 A 
ATOM     74  C   UNL A   1      39.783  33.365  35.990  1.00  0.00     0.134 A 
ATOM     75  F   UNL A   1      37.821  30.354  36.517  1.00  0.00    -0.206 F 
ATOM     76  C   UNL A   1      37.888  32.350  37.748  1.00  0.00     0.040 A 
ATOM     77  C   UNL A   1      39.356  34.135  37.073  1.00  0.00     0.040 A 
ATOM     78  F   UNL A   1      40.696  33.896  35.163  1.00  0.00    -0.206 F 
ATOM     79  C   UNL A   1      38.401  33.631  37.951  1.00  0.00     0.006 A 
ENDBRANCH  55  72
ENDBRANCH  29  30
ENDBRANCH  22  24
ENDBRANCH  21  22
ENDBRANCH  20  21
ENDBRANCH   1  20
TORSDOF 13
ENDMDL
MODEL 2
REMARK VINA RESULT:     -11.0      4.670      9.507
REMARK SMILES CC(C)=CCc1cccc2c(C(=O)OCCOC(=O)c3ccc(-c4c5nc(c(-c6c(F)cccc6F)c6ccc([nH]6)c(-c6c(F)cccc6F)c6nc(c(-c7c(F)cccc7F)c7ccc4[nH]7)C=C6)C=C5)cc3)c[nH]c12
REMARK SMILES IDX 15 1 14 2 12 3 13 4 11 5 6 6 7 7 76 8 8 9 10 10 75 11 9 12
REMARK SMILES IDX 74 13 5 15 4 16 1 17 2 18 3 19 16 20 17 21 18 22 19 23 20 24
REMARK SMILES IDX 21 25 73 26 22 27 72 28 23 29 24 30 25 31 66 32 26 33 71 34
REMARK SMILES IDX 65 35 67 36 27 37 70 38 64 39 63 40 28 42 54 43 37 44 53 45
REMARK SMILES IDX 38 46 41 47 52 48 68 49 39 50 40 51 51 53 69 54 42 55 29 56
REMARK SMILES IDX 30 57 35 58 31 59 32 60 34 61 36 62 33 63 55 64 56 65 61 66
REMARK SMILES IDX 57 67 58 68 60 69 62 70 59 71 43 72 44 73 49 74 45 75 46 76
REMARK SMILES IDX 48 77 50 78 47 79
REMARK H PARENT 75 14 67 41 41 52
REMARK Flexibility Score: inf
ROOT
ATOM      1  C   UNL A   1      33.998  35.194  28.940  1.00  0.00     0.275 C 
ENDROOT
BRANCH   1   2
ATOM      2  O   UNL A   1      33.482  33.930  28.483  1.00  0.00    -0.458 OA
BRANCH   2   3
ATOM      3  C   UNL A   1      34.036  32.813  29.044  1.00  0.00     0.340 C 
ATOM      4  O   UNL A   1      34.318  32.710  30.231  1.00  0.00    -0.246 OA
BRANCH   3   5
ATOM      5  C   UNL A   1      34.180  31.704  28.105  1.00  0.00     0.085 A 
ATOM      6  C   UNL A   1      33.226  29.313  25.517  1.00  0.00    -0.020 A 
ATOM      7  C   UNL A   1      31.892  29.666  25.229  1.00  0.00     0.006 A 
ATOM      8  C   UNL A   1      33.847  30.079  26.525  1.00  0.00     0.050 A 
ATOM      9  C   UNL A   1      31.238  30.708  25.887  1.00  0.00     0.001 A 
ATOM     10  C   UNL A   1      33.222  31.129  27.208  1.00  0.00     0.014 A 
ATOM     11  N   UNL A   1      35.122  29.984  27.031  1.00  0.00    -0.360 N 
ATOM     12  C   UNL A   1      31.886  31.438  26.883  1.00  0.00     0.011 A 
ATOM     13  C   UNL A   1      35.367  31.020  27.884  1.00  0.00     0.099 A 
ATOM     14  H   UNL A   1      35.765  29.272  26.811  1.00  0.00     0.166 HD
BRANCH   6  15
ATOM     15  C   UNL A   1      33.923  28.162  24.818  1.00  0.00     0.065 C 
BRANCH  15  16
ATOM     16  C   UNL A   1      33.874  26.857  25.564  1.00  0.00    -0.024 C 
ATOM     17  C   UNL A   1      33.504  25.349  23.589  1.00  0.00     0.039 C 
ATOM     18  C   UNL A   1      33.683  25.623  25.055  1.00  0.00    -0.080 C 
ATOM     19  C   UNL A   1      33.608  24.447  25.989  1.00  0.00     0.039 C 
ENDBRANCH  15  16
ENDBRANCH   6  15
ENDBRANCH   3   5
ENDBRANCH   2   3
ENDBRANCH   1   2
BRANCH   1  20
ATOM     20  C   UNL A   1      32.927  36.024  29.655  1.00  0.00     0.275 C 
BRANCH  20  21
ATOM     21  O   UNL A   1      32.427  35.337  30.818  1.00  0.00    -0.458 OA
BRANCH  21  22
ATOM     22  C   UNL A   1      32.748  35.901  32.002  1.00  0.00     0.338 C 
ATOM     23  O   UNL A   1      32.186  36.826  32.564  1.00  0.00    -0.246 OA
BRANCH  22  24
ATOM     24  C   UNL A   1      33.849  35.157  32.627  1.00  0.00     0.060 A 
ATOM     25  C   UNL A   1      35.133  35.668  32.474  1.00  0.00     0.016 A 
ATOM     26  C   UNL A   1      33.660  33.908  33.211  1.00  0.00     0.016 A 
ATOM     27  C   UNL A   1      36.247  34.921  32.832  1.00  0.00     0.010 A 
ATOM     28  C   UNL A   1      34.779  33.179  33.638  1.00  0.00     0.010 A 
ATOM     29  C   UNL A   1      36.085  33.666  33.425  1.00  0.00    -0.014 A 
BRANCH  29  30
ATOM     30  C   UNL A   1      37.281  32.850  33.762  1.00  0.00     0.031 A 
ATOM     31  C   UNL A   1      38.002  33.079  35.062  1.00  0.00     0.074 A 
ATOM     32  C   UNL A   1      37.706  31.882  32.924  1.00  0.00     0.049 A 
ATOM     33  N   UNL A   1      39.148  32.599  35.472  1.00  0.00    -0.248 NA
ATOM     34  C   UNL A   1      37.350  33.979  36.027  1.00  0.00     0.031 C 
ATOM     35  C   UNL A   1      37.058  31.505  31.667  1.00  0.00     0.029 A 
ATOM     36  N   UNL A   1      38.787  31.041  33.004  1.00  0.00    -0.354 N 
ATOM     37  C   UNL A   1      39.378  33.174  36.716  1.00  0.00     0.074 A 
ATOM     38  C   UNL A   1      38.257  34.048  36.990  1.00  0.00     0.031 C 
ATOM     39  C   UNL A   1      37.744  30.500  31.102  1.00  0.00     0.029 A 
ATOM     40  C   UNL A   1      38.926  30.221  31.910  1.00  0.00     0.049 A 
ATOM     41  H   UNL A   1      39.404  31.025  33.772  1.00  0.00     0.167 HD
ATOM     42  C   UNL A   1      40.429  32.989  37.551  1.00  0.00     0.037 A 
ATOM     43  C   UNL A   1      39.918  29.377  31.568  1.00  0.00     0.037 A 
ATOM     44  C   UNL A   1      41.521  32.088  37.286  1.00  0.00     0.049 A 
ATOM     45  C   UNL A   1      41.107  29.243  32.476  1.00  0.00     0.074 A 
ATOM     46  C   UNL A   1      42.628  31.819  38.073  1.00  0.00     0.029 A 
ATOM     47  N   UNL A   1      41.642  31.306  36.146  1.00  0.00    -0.354 N 
ATOM     48  N   UNL A   1      41.335  29.819  33.631  1.00  0.00    -0.248 NA
ATOM     49  C   UNL A   1      42.186  28.351  32.026  1.00  0.00     0.031 C 
ATOM     50  C   UNL A   1      43.443  30.913  37.387  1.00  0.00     0.029 A 
ATOM     51  C   UNL A   1      42.815  30.572  36.199  1.00  0.00     0.049 A 
ATOM     52  H   UNL A   1      40.989  31.277  35.409  1.00  0.00     0.167 HD
ATOM     53  C   UNL A   1      42.568  29.343  34.058  1.00  0.00     0.074 A 
ATOM     54  C   UNL A   1      43.031  28.417  33.044  1.00  0.00     0.031 C 
ATOM     55  C   UNL A   1      43.257  29.647  35.185  1.00  0.00     0.037 A 
BRANCH  42  56
ATOM     56  C   UNL A   1      40.468  33.807  38.811  1.00  0.00     0.057 A 
ATOM     57  C   UNL A   1      41.161  35.021  38.895  1.00  0.00     0.134 A 
ATOM     58  C   UNL A   1      39.777  33.380  39.952  1.00  0.00     0.134 A 
ATOM     59  F   UNL A   1      41.855  35.483  37.845  1.00  0.00    -0.206 F 
ATOM     60  C   UNL A   1      41.186  35.767  40.077  1.00  0.00     0.040 A 
ATOM     61  C   UNL A   1      39.770  34.131  41.129  1.00  0.00     0.040 A 
ATOM     62  F   UNL A   1      39.086  32.230  39.940  1.00  0.00    -0.206 F 
ATOM     63  C   UNL A   1      40.484  35.325  41.196  1.00  0.00     0.006 A 
ENDBRANCH  42  56
BRANCH  43  64
ATOM     64  C   UNL A   1      39.853  28.633  30.283  1.00  0.00     0.057 A 
ATOM     65  C   UNL A   1      39.187  27.405  30.189  1.00  0.00     0.134 A 
ATOM     66  C   UNL A   1      40.464  29.124  29.123  1.00  0.00     0.134 A 
ATOM     67  F   UNL A   1      38.601  26.870  31.270  1.00  0.00    -0.206 F 
ATOM     68  C   UNL A   1      39.144  26.687  28.993  1.00  0.00     0.040 A 
ATOM     69  C   UNL A   1      40.402  28.431  27.913  1.00  0.00     0.040 A 
ATOM     70  F   UNL A   1      41.119  30.294  29.144  1.00  0.00    -0.206 F 
ATOM     71  C   UNL A   1      39.747  27.204  27.848  1.00  0.00     0.006 A 
ENDBRANCH  43  64
BRANCH  55  72
ATOM     72  C   UNL A   1      44.563  28.938  35.402  1.00  0.00     0.057 A 
ATOM     73  C   UNL A   1      44.636  27.703  36.060  1.00  0.00     0.134 A 
ATOM     74  C   UNL A   1      45.758  29.484  34.917  1.00  0.00     0.134 A 
ATOM     75  F   UNL A   1      43.530  27.133  36.562  1.00  0.00    -0.206 F 
ATOM     76  C   UNL A   1      45.854  27.051  36.251  1.00  0.00     0.040 A 
ATOM     77  C   UNL A   1      46.978  28.827  35.076  1.00  0.00     0.040 A 
ATOM     78  F   UNL A   1      45.757  30.660  34.270  1.00  0.00    -0.206 F 
ATOM     79  C   UNL A   1      47.030  27.610  35.751  1.00  0.00     0.006 A 
ENDBRANCH  55  72
ENDBRANCH  29  30
ENDBRANCH  22  24
ENDBRANCH  21  22
ENDBRANCH  20  21
ENDBRANCH   1  20
TORSDOF 13
ENDMDL
MODEL 3
REMARK VINA RESULT:     -10.9      3.743      7.990
REMARK SMILES CC(C)=CCc1cccc2c(C(=O)OCCOC(=O)c3ccc(-c4c5nc(c(-c6c(F)cccc6F)c6ccc([nH]6)c(-c6c(F)cccc6F)c6nc(c(-c7c(F)cccc7F)c7ccc4[nH]7)C=C6)C=C5)cc3)c[nH]c12
REMARK SMILES IDX 15 1 14 2 12 3 13 4 11 5 6 6 7 7 76 8 8 9 10 10 75 11 9 12
REMARK SMILES IDX 74 13 5 15 4 16 1 17 2 18 3 19 16 20 17 21 18 22 19 23 20 24
REMARK SMILES IDX 21 25 73 26 22 27 72 28 23 29 24 30 25 31 66 32 26 33 71 34
REMARK SMILES IDX 65 35 67 36 27 37 70 38 64 39 63 40 28 42 54 43 37 44 53 45
REMARK SMILES IDX 38 46 41 47 52 48 68 49 39 50 40 51 51 53 69 54 42 55 29 56
REMARK SMILES IDX 30 57 35 58 31 59 32 60 34 61 36 62 33 63 55 64 56 65 61 66
REMARK SMILES IDX 57 67 58 68 60 69 62 70 59 71 43 72 44 73 49 74 45 75 46 76
REMARK SMILES IDX 48 77 50 78 47 79
REMARK H PARENT 75 14 67 41 41 52
REMARK Flexibility Score: inf
ROOT
ATOM      1  C   UNL A   1      31.478  28.989  25.015  1.00  0.00     0.275 C 
ENDROOT
BRANCH   1   2
ATOM      2  O   UNL A   1      32.311  28.061  25.736  1.00  0.00    -0.458 OA
BRANCH   2   3
ATOM      3  C   UNL A   1      31.661  27.137  26.505  1.00  0.00     0.340 C 
ATOM      4  O   UNL A   1      31.079  27.401  27.549  1.00  0.00    -0.246 OA
BRANCH   3   5
ATOM      5  C   UNL A   1      31.645  25.801  25.913  1.00  0.00     0.085 A 
ATOM      6  C   UNL A   1      32.969  22.719  24.475  1.00  0.00    -0.020 A 
ATOM      7  C   UNL A   1      34.364  22.925  24.504  1.00  0.00     0.006 A 
ATOM      8  C   UNL A   1      32.194  23.791  24.962  1.00  0.00     0.050 A 
ATOM      9  C   UNL A   1      34.934  24.100  24.991  1.00  0.00     0.001 A 
ATOM     10  C   UNL A   1      32.731  24.986  25.456  1.00  0.00     0.014 A 
ATOM     11  N   UNL A   1      30.827  23.903  25.064  1.00  0.00    -0.360 N 
ATOM     12  C   UNL A   1      34.131  25.140  25.458  1.00  0.00     0.011 A 
ATOM     13  C   UNL A   1      30.497  25.042  25.737  1.00  0.00     0.099 A 
ATOM     14  H   UNL A   1      30.180  23.254  24.704  1.00  0.00     0.166 HD
BRANCH   6  15
ATOM     15  C   UNL A   1      32.353  21.450  23.919  1.00  0.00     0.065 C 
BRANCH  15  16
ATOM     16  C   UNL A   1      32.479  20.250  24.817  1.00  0.00    -0.024 C 
ATOM     17  C   UNL A   1      32.476  18.485  23.029  1.00  0.00     0.039 C 
ATOM     18  C   UNL A   1      32.524  18.952  24.456  1.00  0.00    -0.080 C 
ATOM     19  C   UNL A   1      32.592  17.895  25.522  1.00  0.00     0.039 C 
ENDBRANCH  15  16
ENDBRANCH   6  15
ENDBRANCH   3   5
ENDBRANCH   2   3
ENDBRANCH   1   2
BRANCH   1  20
ATOM     20  C   UNL A   1      31.547  30.399  25.608  1.00  0.00     0.275 C 
BRANCH  20  21
ATOM     21  O   UNL A   1      32.292  30.410  26.840  1.00  0.00    -0.458 OA
BRANCH  21  22
ATOM     22  C   UNL A   1      32.877  31.589  27.149  1.00  0.00     0.338 C 
ATOM     23  O   UNL A   1      32.369  32.698  27.137  1.00  0.00    -0.246 OA
BRANCH  22  24
ATOM     24  C   UNL A   1      34.243  31.357  27.635  1.00  0.00     0.060 A 
ATOM     25  C   UNL A   1      34.595  30.050  27.952  1.00  0.00     0.016 A 
ATOM     26  C   UNL A   1      35.110  32.405  27.930  1.00  0.00     0.016 A 
ATOM     27  C   UNL A   1      35.776  29.772  28.626  1.00  0.00     0.010 A 
ATOM     28  C   UNL A   1      36.336  32.121  28.548  1.00  0.00     0.010 A 
ATOM     29  C   UNL A   1      36.667  30.805  28.930  1.00  0.00    -0.014 A 
BRANCH  29  30
ATOM     30  C   UNL A   1      37.907  30.509  29.694  1.00  0.00     0.031 A 
ATOM     31  C   UNL A   1      38.982  29.657  29.076  1.00  0.00     0.074 A 
ATOM     32  C   UNL A   1      38.089  31.025  30.927  1.00  0.00     0.049 A 
ATOM     33  N   UNL A   1      40.055  29.146  29.625  1.00  0.00    -0.248 NA
ATOM     34  C   UNL A   1      38.823  29.327  27.651  1.00  0.00     0.031 C 
ATOM     35  C   UNL A   1      37.161  31.924  31.615  1.00  0.00     0.029 A 
ATOM     36  N   UNL A   1      39.117  30.863  31.821  1.00  0.00    -0.354 N 
ATOM     37  C   UNL A   1      40.671  28.397  28.630  1.00  0.00     0.074 A 
ATOM     38  C   UNL A   1      39.846  28.510  27.446  1.00  0.00     0.031 C 
ATOM     39  C   UNL A   1      37.669  32.246  32.815  1.00  0.00     0.029 A 
ATOM     40  C   UNL A   1      38.912  31.510  33.017  1.00  0.00     0.049 A 
ATOM     41  H   UNL A   1      39.926  30.335  31.626  1.00  0.00     0.167 HD
ATOM     42  C   UNL A   1      41.817  27.680  28.700  1.00  0.00     0.037 A 
ATOM     43  C   UNL A   1      39.614  31.474  34.164  1.00  0.00     0.037 A 
ATOM     44  C   UNL A   1      42.651  27.604  29.873  1.00  0.00     0.049 A 
ATOM     45  C   UNL A   1      40.844  30.614  34.241  1.00  0.00     0.074 A 
ATOM     46  C   UNL A   1      43.840  26.915  30.043  1.00  0.00     0.029 A 
ATOM     47  N   UNL A   1      42.384  28.243  31.076  1.00  0.00    -0.354 N 
ATOM     48  N   UNL A   1      41.398  29.879  33.307  1.00  0.00    -0.248 NA
ATOM     49  C   UNL A   1      41.540  30.569  35.534  1.00  0.00     0.031 C 
ATOM     50  C   UNL A   1      44.265  27.096  31.363  1.00  0.00     0.029 A 
ATOM     51  C   UNL A   1      43.373  27.946  31.998  1.00  0.00     0.049 A 
ATOM     52  H   UNL A   1      41.606  28.823  31.247  1.00  0.00     0.167 HD
ATOM     53  C   UNL A   1      42.518  29.302  33.892  1.00  0.00     0.074 A 
ATOM     54  C   UNL A   1      42.574  29.788  35.256  1.00  0.00     0.031 C 
ATOM     55  C   UNL A   1      43.418  28.445  33.350  1.00  0.00     0.037 A 
BRANCH  42  56
ATOM     56  C   UNL A   1      42.218  26.887  27.488  1.00  0.00     0.057 A 
ATOM     57  C   UNL A   1      43.011  27.427  26.468  1.00  0.00     0.134 A 
ATOM     58  C   UNL A   1      41.821  25.550  27.357  1.00  0.00     0.134 A 
ATOM     59  F   UNL A   1      43.414  28.704  26.523  1.00  0.00    -0.206 F 
ATOM     60  C   UNL A   1      43.372  26.672  25.348  1.00  0.00     0.040 A 
ATOM     61  C   UNL A   1      42.200  24.777  26.257  1.00  0.00     0.040 A 
ATOM     62  F   UNL A   1      41.067  24.966  28.301  1.00  0.00    -0.206 F 
ATOM     63  C   UNL A   1      42.971  25.341  25.245  1.00  0.00     0.006 A 
ENDBRANCH  42  56
BRANCH  43  64
ATOM     64  C   UNL A   1      39.143  32.235  35.350  1.00  0.00     0.057 A 
ATOM     65  C   UNL A   1      38.341  31.635  36.328  1.00  0.00     0.134 A 
ATOM     66  C   UNL A   1      39.474  33.585  35.530  1.00  0.00     0.134 A 
ATOM     67  F   UNL A   1      37.970  30.352  36.201  1.00  0.00    -0.206 F 
ATOM     68  C   UNL A   1      37.873  32.351  37.431  1.00  0.00     0.040 A 
ATOM     69  C   UNL A   1      39.039  34.304  36.644  1.00  0.00     0.040 A 
ATOM     70  F   UNL A   1      40.239  34.221  34.631  1.00  0.00    -0.206 F 
ATOM     71  C   UNL A   1      38.229  33.688  37.595  1.00  0.00     0.006 A 
ENDBRANCH  43  64
BRANCH  55  72
ATOM     72  C   UNL A   1      44.564  28.016  34.220  1.00  0.00     0.057 A 
ATOM     73  C   UNL A   1      44.510  26.853  34.998  1.00  0.00     0.134 A 
ATOM     74  C   UNL A   1      45.750  28.761  34.253  1.00  0.00     0.134 A 
ATOM     75  F   UNL A   1      43.398  26.102  35.024  1.00  0.00    -0.206 F 
ATOM     76  C   UNL A   1      45.584  26.461  35.799  1.00  0.00     0.040 A 
ATOM     77  C   UNL A   1      46.841  28.364  35.026  1.00  0.00     0.040 A 
ATOM     78  F   UNL A   1      45.871  29.882  33.524  1.00  0.00    -0.206 F 
ATOM     79  C   UNL A   1      46.757  27.215  35.807  1.00  0.00     0.006 A 
ENDBRANCH  55  72
ENDBRANCH  29  30
ENDBRANCH  22  24
ENDBRANCH  21  22
ENDBRANCH  20  21
ENDBRANCH   1  20
TORSDOF 13
ENDMDL
