MODEL 1
REMARK VINA RESULT:     -12.4      0.000      0.000
REMARK SMILES O=C(OCCOC(=O)c1ccc(-c2c3nc(c(-c4c(F)cccc4F)c4ccc([nH]4)c(-c4c(F)cccc4F)c4nc(c(-c5c(F)cccc5F)c5ccc2[nH]5)C=C4)C=C3)cc1)C1=Cc2c(ccc(Cl)c2Oc2ccccc2)O[C@H]1C(F)(F)F
REMARK SMILES IDX 4 1 3 2 2 3 1 4 63 5 64 6 80 7 65 8 79 9 66 10 71 11 67 12
REMARK SMILES IDX 69 13 68 14 70 15 81 16 82 17 83 18 84 19 72 20 73 21 74 22
REMARK SMILES IDX 78 23 75 24 77 25 76 26 5 27 6 28 7 29 8 30 9 31 10 32 62 33
REMARK SMILES IDX 11 34 61 35 12 36 13 37 14 38 55 39 15 40 60 41 54 42 56 43
REMARK SMILES IDX 16 44 59 45 53 46 52 47 17 49 43 50 26 51 42 52 27 53 30 54
REMARK SMILES IDX 41 55 57 56 28 57 29 58 40 60 58 61 31 62 18 63 19 64 24 65
REMARK SMILES IDX 20 66 21 67 23 68 25 69 22 70 44 71 45 72 50 73 46 74 47 75
REMARK SMILES IDX 49 76 51 77 48 78 32 79 33 80 38 81 34 82 35 83 37 84 39 85
REMARK SMILES IDX 36 86
REMARK H PARENT 56 48 30 59
REMARK Flexibility Score: inf
ROOT
ATOM      1  C   UNL A   1      33.413  28.904  24.096  1.00  0.00     0.275 C 
ENDROOT
BRANCH   1   2
ATOM      2  O   UNL A   1      33.985  27.599  24.038  1.00  0.00    -0.459 OA
BRANCH   2   3
ATOM      3  C   UNL A   1      33.348  26.478  23.665  1.00  0.00     0.338 C 
ATOM      4  O   UNL A   1      33.584  26.005  22.555  1.00  0.00    -0.246 OA
BRANCH   3   5
ATOM      5  C   UNL A   1      32.374  25.776  24.555  1.00  0.00     0.088 C 
ATOM      6  C   UNL A   1      32.495  24.841  25.533  1.00  0.00     0.031 C 
ATOM      7  C   UNL A   1      31.031  25.744  23.895  1.00  0.00     0.316 C 
ATOM      8  C   UNL A   1      32.684  23.494  24.969  1.00  0.00     0.062 A 
ATOM      9  O   UNL A   1      30.596  24.331  23.832  1.00  0.00    -0.475 OA
ATOM     10  C   UNL A   1      31.607  23.356  24.003  1.00  0.00     0.131 A 
ATOM     11  C   UNL A   1      33.666  22.457  25.209  1.00  0.00     0.156 A 
ATOM     12  C   UNL A   1      31.506  22.221  23.231  1.00  0.00     0.049 A 
ATOM     13  C   UNL A   1      33.488  21.327  24.368  1.00  0.00     0.084 A 
ATOM     14  C   UNL A   1      32.456  21.219  23.409  1.00  0.00     0.028 A 
ATOM     15  Cl  UNL A   1      34.577  19.966  24.443  1.00  0.00    -0.080 Cl
BRANCH   7  16
ATOM     16  C   UNL A   1      30.130  26.753  24.650  1.00  0.00     0.430 C 
ATOM     17  F   UNL A   1      30.448  26.815  25.973  1.00  0.00    -0.167 F 
ATOM     18  F   UNL A   1      30.242  28.011  24.170  1.00  0.00    -0.167 F 
ATOM     19  F   UNL A   1      28.822  26.404  24.594  1.00  0.00    -0.167 F 
ENDBRANCH   7  16
BRANCH  11  20
ATOM     20  O   UNL A   1      34.793  22.215  26.032  1.00  0.00    -0.455 OA
BRANCH  20  21
ATOM     21  C   UNL A   1      36.143  22.512  25.998  1.00  0.00     0.127 A 
ATOM     22  C   UNL A   1      36.617  23.830  26.239  1.00  0.00     0.047 A 
ATOM     23  C   UNL A   1      37.097  21.562  25.617  1.00  0.00     0.047 A 
ATOM     24  C   UNL A   1      38.008  24.092  26.396  1.00  0.00     0.004 A 
ATOM     25  C   UNL A   1      38.481  21.826  25.755  1.00  0.00     0.004 A 
ATOM     26  C   UNL A   1      38.935  23.065  26.213  1.00  0.00     0.000 A 
ENDBRANCH  20  21
ENDBRANCH  11  20
ENDBRANCH   3   5
ENDBRANCH   2   3
ENDBRANCH   1   2
BRANCH   1  27
ATOM     27  C   UNL A   1      33.000  29.327  25.483  1.00  0.00     0.275 C 
BRANCH  27  28
ATOM     28  O   UNL A   1      34.058  29.401  26.363  1.00  0.00    -0.458 OA
BRANCH  28  29
ATOM     29  C   UNL A   1      33.820  30.466  27.119  1.00  0.00     0.338 C 
ATOM     30  O   UNL A   1      32.846  31.171  27.202  1.00  0.00    -0.246 OA
BRANCH  29  31
ATOM     31  C   UNL A   1      35.085  30.631  27.753  1.00  0.00     0.060 A 
ATOM     32  C   UNL A   1      35.526  29.433  28.260  1.00  0.00     0.016 A 
ATOM     33  C   UNL A   1      35.772  31.872  27.781  1.00  0.00     0.016 A 
ATOM     34  C   UNL A   1      36.717  29.473  28.881  1.00  0.00     0.010 A 
ATOM     35  C   UNL A   1      37.016  31.889  28.327  1.00  0.00     0.010 A 
ATOM     36  C   UNL A   1      37.440  30.685  28.874  1.00  0.00    -0.014 A 
BRANCH  36  37
ATOM     37  C   UNL A   1      38.723  30.591  29.503  1.00  0.00     0.031 A 
ATOM     38  C   UNL A   1      38.776  31.086  30.889  1.00  0.00     0.074 A 
ATOM     39  C   UNL A   1      39.541  29.760  28.849  1.00  0.00     0.049 A 
ATOM     40  N   UNL A   1      39.594  30.736  31.825  1.00  0.00    -0.248 NA
ATOM     41  C   UNL A   1      37.743  32.061  31.299  1.00  0.00     0.031 C 
ATOM     42  C   UNL A   1      39.325  29.264  27.475  1.00  0.00     0.029 A 
ATOM     43  N   UNL A   1      40.609  29.067  29.298  1.00  0.00    -0.354 N 
ATOM     44  C   UNL A   1      39.171  31.426  32.944  1.00  0.00     0.074 A 
ATOM     45  C   UNL A   1      38.054  32.258  32.569  1.00  0.00     0.031 C 
ATOM     46  C   UNL A   1      40.197  28.280  27.229  1.00  0.00     0.029 A 
ATOM     47  C   UNL A   1      41.044  28.130  28.399  1.00  0.00     0.049 A 
ATOM     48  H   UNL A   1      41.028  29.220  30.174  1.00  0.00     0.167 HD
ATOM     49  C   UNL A   1      39.699  31.318  34.177  1.00  0.00     0.037 A 
ATOM     50  C   UNL A   1      42.037  27.248  28.557  1.00  0.00     0.037 A 
ATOM     51  C   UNL A   1      40.828  30.463  34.420  1.00  0.00     0.049 A 
ATOM     52  C   UNL A   1      42.653  27.226  29.922  1.00  0.00     0.074 A 
ATOM     53  C   UNL A   1      41.565  30.297  35.570  1.00  0.00     0.029 A 
ATOM     54  N   UNL A   1      41.385  29.623  33.451  1.00  0.00    -0.354 N 
ATOM     55  N   UNL A   1      42.300  27.907  30.995  1.00  0.00    -0.248 NA
ATOM     56  C   UNL A   1      43.785  26.329  30.114  1.00  0.00     0.031 C 
ATOM     57  C   UNL A   1      42.600  29.399  35.279  1.00  0.00     0.029 A 
ATOM     58  C   UNL A   1      42.471  28.950  33.968  1.00  0.00     0.049 A 
ATOM     59  H   UNL A   1      41.049  29.526  32.530  1.00  0.00     0.167 HD
ATOM     60  C   UNL A   1      43.172  27.528  31.996  1.00  0.00     0.074 A 
ATOM     61  C   UNL A   1      44.033  26.512  31.403  1.00  0.00     0.031 C 
ATOM     62  C   UNL A   1      43.281  27.970  33.277  1.00  0.00     0.037 A 
BRANCH  49  63
ATOM     63  C   UNL A   1      39.108  32.179  35.245  1.00  0.00     0.057 A 
ATOM     64  C   UNL A   1      39.431  33.537  35.377  1.00  0.00     0.134 A 
ATOM     65  C   UNL A   1      38.257  31.624  36.207  1.00  0.00     0.134 A 
ATOM     66  F   UNL A   1      40.288  34.120  34.524  1.00  0.00    -0.206 F 
ATOM     67  C   UNL A   1      38.933  34.310  36.430  1.00  0.00     0.040 A 
ATOM     68  C   UNL A   1      37.733  32.391  37.250  1.00  0.00     0.040 A 
ATOM     69  F   UNL A   1      37.940  30.321  36.165  1.00  0.00    -0.206 F 
ATOM     70  C   UNL A   1      38.074  33.737  37.365  1.00  0.00     0.006 A 
ENDBRANCH  49  63
BRANCH  50  71
ATOM     71  C   UNL A   1      42.482  26.422  27.413  1.00  0.00     0.057 A 
ATOM     72  C   UNL A   1      43.392  26.887  26.463  1.00  0.00     0.134 A 
ATOM     73  C   UNL A   1      42.012  25.106  27.265  1.00  0.00     0.134 A 
ATOM     74  F   UNL A   1      43.894  28.127  26.555  1.00  0.00    -0.206 F 
ATOM     75  C   UNL A   1      43.794  26.088  25.389  1.00  0.00     0.040 A 
ATOM     76  C   UNL A   1      42.430  24.288  26.218  1.00  0.00     0.040 A 
ATOM     77  F   UNL A   1      41.155  24.585  28.157  1.00  0.00    -0.206 F 
ATOM     78  C   UNL A   1      43.314  24.785  25.266  1.00  0.00     0.006 A 
ENDBRANCH  50  71
BRANCH  62  79
ATOM     79  C   UNL A   1      44.369  27.325  34.073  1.00  0.00     0.057 A 
ATOM     80  C   UNL A   1      45.656  27.873  34.135  1.00  0.00     0.134 A 
ATOM     81  C   UNL A   1      44.119  26.142  34.776  1.00  0.00     0.134 A 
ATOM     82  F   UNL A   1      45.950  28.998  33.465  1.00  0.00    -0.206 F 
ATOM     83  C   UNL A   1      46.676  27.233  34.831  1.00  0.00     0.040 A 
ATOM     84  C   UNL A   1      45.120  25.518  35.512  1.00  0.00     0.040 A 
ATOM     85  F   UNL A   1      42.899  25.584  34.764  1.00  0.00    -0.206 F 
ATOM     86  C   UNL A   1      46.407  26.055  35.525  1.00  0.00     0.006 A 
ENDBRANCH  62  79
ENDBRANCH  36  37
ENDBRANCH  29  31
ENDBRANCH  28  29
ENDBRANCH  27  28
ENDBRANCH   1  27
TORSDOF 14
ENDMDL
MODEL 2
REMARK VINA RESULT:     -12.4      1.360      2.358
REMARK SMILES O=C(OCCOC(=O)c1ccc(-c2c3nc(c(-c4c(F)cccc4F)c4ccc([nH]4)c(-c4c(F)cccc4F)c4nc(c(-c5c(F)cccc5F)c5ccc2[nH]5)C=C4)C=C3)cc1)C1=Cc2c(ccc(Cl)c2Oc2ccccc2)O[C@H]1C(F)(F)F
REMARK SMILES IDX 4 1 3 2 2 3 1 4 63 5 64 6 80 7 65 8 79 9 66 10 71 11 67 12
REMARK SMILES IDX 69 13 68 14 70 15 81 16 82 17 83 18 84 19 72 20 73 21 74 22
REMARK SMILES IDX 78 23 75 24 77 25 76 26 5 27 6 28 7 29 8 30 9 31 10 32 62 33
REMARK SMILES IDX 11 34 61 35 12 36 13 37 14 38 55 39 15 40 60 41 54 42 56 43
REMARK SMILES IDX 16 44 59 45 53 46 52 47 17 49 43 50 26 51 42 52 27 53 30 54
REMARK SMILES IDX 41 55 57 56 28 57 29 58 40 60 58 61 31 62 18 63 19 64 24 65
REMARK SMILES IDX 20 66 21 67 23 68 25 69 22 70 44 71 45 72 50 73 46 74 47 75
REMARK SMILES IDX 49 76 51 77 48 78 32 79 33 80 38 81 34 82 35 83 37 84 39 85
REMARK SMILES IDX 36 86
REMARK H PARENT 56 48 30 59
REMARK Flexibility Score: inf
ROOT
ATOM      1  C   UNL A   1      31.947  27.897  26.722  1.00  0.00     0.275 C 
ENDROOT
BRANCH   1   2
ATOM      2  O   UNL A   1      32.570  26.659  26.389  1.00  0.00    -0.459 OA
BRANCH   2   3
ATOM      3  C   UNL A   1      31.933  25.523  26.063  1.00  0.00     0.338 C 
ATOM      4  O   UNL A   1      31.343  24.900  26.943  1.00  0.00    -0.246 OA
BRANCH   3   5
ATOM      5  C   UNL A   1      31.904  24.995  24.665  1.00  0.00     0.088 C 
ATOM      6  C   UNL A   1      31.860  23.748  24.128  1.00  0.00     0.031 C 
ATOM      7  C   UNL A   1      32.533  25.992  23.743  1.00  0.00     0.316 C 
ATOM      8  C   UNL A   1      33.183  23.102  24.159  1.00  0.00     0.062 A 
ATOM      9  O   UNL A   1      33.617  25.303  23.008  1.00  0.00    -0.475 OA
ATOM     10  C   UNL A   1      34.075  24.085  23.564  1.00  0.00     0.131 A 
ATOM     11  C   UNL A   1      33.638  21.816  24.644  1.00  0.00     0.156 A 
ATOM     12  C   UNL A   1      35.426  23.837  23.480  1.00  0.00     0.049 A 
ATOM     13  C   UNL A   1      35.043  21.649  24.522  1.00  0.00     0.084 A 
ATOM     14  C   UNL A   1      35.904  22.626  23.973  1.00  0.00     0.028 A 
ATOM     15  Cl  UNL A   1      35.831  20.196  25.081  1.00  0.00    -0.080 Cl
BRANCH   7  16
ATOM     16  C   UNL A   1      31.389  26.637  22.922  1.00  0.00     0.430 C 
ATOM     17  F   UNL A   1      31.561  27.983  22.798  1.00  0.00    -0.167 F 
ATOM     18  F   UNL A   1      31.307  26.145  21.667  1.00  0.00    -0.167 F 
ATOM     19  F   UNL A   1      30.182  26.466  23.513  1.00  0.00    -0.167 F 
ENDBRANCH   7  16
BRANCH  11  20
ATOM     20  O   UNL A   1      33.110  20.644  25.238  1.00  0.00    -0.455 OA
BRANCH  20  21
ATOM     21  C   UNL A   1      32.973  19.314  24.886  1.00  0.00     0.127 A 
ATOM     22  C   UNL A   1      32.855  18.917  23.527  1.00  0.00     0.047 A 
ATOM     23  C   UNL A   1      32.832  18.308  25.848  1.00  0.00     0.047 A 
ATOM     24  C   UNL A   1      32.912  17.543  23.156  1.00  0.00     0.004 A 
ATOM     25  C   UNL A   1      32.869  16.941  25.481  1.00  0.00     0.004 A 
ATOM     26  C   UNL A   1      32.982  16.558  24.142  1.00  0.00     0.000 A 
ENDBRANCH  20  21
ENDBRANCH  11  20
ENDBRANCH   3   5
ENDBRANCH   2   3
ENDBRANCH   1   2
BRANCH   1  27
ATOM     27  C   UNL A   1      32.639  29.103  26.137  1.00  0.00     0.275 C 
BRANCH  27  28
ATOM     28  O   UNL A   1      33.853  29.371  26.733  1.00  0.00    -0.458 OA
BRANCH  28  29
ATOM     29  C   UNL A   1      33.725  30.574  27.279  1.00  0.00     0.338 C 
ATOM     30  O   UNL A   1      32.824  31.373  27.221  1.00  0.00    -0.246 OA
BRANCH  29  31
ATOM     31  C   UNL A   1      35.004  30.728  27.887  1.00  0.00     0.060 A 
ATOM     32  C   UNL A   1      35.426  29.536  28.421  1.00  0.00     0.016 A 
ATOM     33  C   UNL A   1      35.718  31.954  27.868  1.00  0.00     0.016 A 
ATOM     34  C   UNL A   1      36.628  29.567  29.022  1.00  0.00     0.010 A 
ATOM     35  C   UNL A   1      36.971  31.958  28.392  1.00  0.00     0.010 A 
ATOM     36  C   UNL A   1      37.378  30.761  28.967  1.00  0.00    -0.014 A 
BRANCH  36  37
ATOM     37  C   UNL A   1      38.670  30.656  29.577  1.00  0.00     0.031 A 
ATOM     38  C   UNL A   1      38.744  31.138  30.966  1.00  0.00     0.074 A 
ATOM     39  C   UNL A   1      39.474  29.828  28.903  1.00  0.00     0.049 A 
ATOM     40  N   UNL A   1      39.574  30.776  31.887  1.00  0.00    -0.248 NA
ATOM     41  C   UNL A   1      37.721  32.113  31.400  1.00  0.00     0.031 C 
ATOM     42  C   UNL A   1      39.238  29.347  27.528  1.00  0.00     0.029 A 
ATOM     43  N   UNL A   1      40.546  29.127  29.331  1.00  0.00    -0.354 N 
ATOM     44  C   UNL A   1      39.169  31.457  33.019  1.00  0.00     0.074 A 
ATOM     45  C   UNL A   1      38.050  32.297  32.667  1.00  0.00     0.031 C 
ATOM     46  C   UNL A   1      40.102  28.361  27.261  1.00  0.00     0.029 A 
ATOM     47  C   UNL A   1      40.965  28.197  28.418  1.00  0.00     0.049 A 
ATOM     48  H   UNL A   1      40.978  29.270  30.203  1.00  0.00     0.167 HD
ATOM     49  C   UNL A   1      39.713  31.335  34.243  1.00  0.00     0.037 A 
ATOM     50  C   UNL A   1      41.956  27.309  28.553  1.00  0.00     0.037 A 
ATOM     51  C   UNL A   1      40.843  30.473  34.462  1.00  0.00     0.049 A 
ATOM     52  C   UNL A   1      42.591  27.273  29.909  1.00  0.00     0.074 A 
ATOM     53  C   UNL A   1      41.594  30.294  35.600  1.00  0.00     0.029 A 
ATOM     54  N   UNL A   1      41.383  29.640  33.478  1.00  0.00    -0.354 N 
ATOM     55  N   UNL A   1      42.256  27.944  30.993  1.00  0.00    -0.248 NA
ATOM     56  C   UNL A   1      43.722  26.369  30.077  1.00  0.00     0.031 C 
ATOM     57  C   UNL A   1      42.622  29.395  35.286  1.00  0.00     0.029 A 
ATOM     58  C   UNL A   1      42.473  28.959  33.973  1.00  0.00     0.049 A 
ATOM     59  H   UNL A   1      41.034  29.553  32.560  1.00  0.00     0.167 HD
ATOM     60  C   UNL A   1      43.140  27.553  31.978  1.00  0.00     0.074 A 
ATOM     61  C   UNL A   1      43.990  26.539  31.363  1.00  0.00     0.031 C 
ATOM     62  C   UNL A   1      43.269  27.982  33.262  1.00  0.00     0.037 A 
BRANCH  49  63
ATOM     63  C   UNL A   1      39.141  32.188  35.328  1.00  0.00     0.057 A 
ATOM     64  C   UNL A   1      39.498  33.535  35.490  1.00  0.00     0.134 A 
ATOM     65  C   UNL A   1      38.273  31.635  36.275  1.00  0.00     0.134 A 
ATOM     66  F   UNL A   1      40.373  34.113  34.652  1.00  0.00    -0.206 F 
ATOM     67  C   UNL A   1      39.016  34.297  36.557  1.00  0.00     0.040 A 
ATOM     68  C   UNL A   1      37.764  32.393  37.332  1.00  0.00     0.040 A 
ATOM     69  F   UNL A   1      37.922  30.342  36.204  1.00  0.00    -0.206 F 
ATOM     70  C   UNL A   1      38.139  33.727  37.477  1.00  0.00     0.006 A 
ENDBRANCH  49  63
BRANCH  50  71
ATOM     71  C   UNL A   1      42.382  26.493  27.395  1.00  0.00     0.057 A 
ATOM     72  C   UNL A   1      43.300  26.954  26.450  1.00  0.00     0.134 A 
ATOM     73  C   UNL A   1      41.885  25.190  27.227  1.00  0.00     0.134 A 
ATOM     74  F   UNL A   1      43.827  28.181  26.561  1.00  0.00    -0.206 F 
ATOM     75  C   UNL A   1      43.683  26.164  25.364  1.00  0.00     0.040 A 
ATOM     76  C   UNL A   1      42.284  24.379  26.167  1.00  0.00     0.040 A 
ATOM     77  F   UNL A   1      41.019  24.673  28.113  1.00  0.00    -0.206 F 
ATOM     78  C   UNL A   1      43.176  24.873  25.221  1.00  0.00     0.006 A 
ENDBRANCH  50  71
BRANCH  62  79
ATOM     79  C   UNL A   1      44.366  27.325  34.036  1.00  0.00     0.057 A 
ATOM     80  C   UNL A   1      45.657  27.866  34.081  1.00  0.00     0.134 A 
ATOM     81  C   UNL A   1      44.120  26.139  34.735  1.00  0.00     0.134 A 
ATOM     82  F   UNL A   1      45.947  28.993  33.414  1.00  0.00    -0.206 F 
ATOM     83  C   UNL A   1      46.684  27.215  34.757  1.00  0.00     0.040 A 
ATOM     84  C   UNL A   1      45.129  25.505  35.452  1.00  0.00     0.040 A 
ATOM     85  F   UNL A   1      42.896  25.589  34.739  1.00  0.00    -0.206 F 
ATOM     86  C   UNL A   1      46.419  26.033  35.448  1.00  0.00     0.006 A 
ENDBRANCH  62  79
ENDBRANCH  36  37
ENDBRANCH  29  31
ENDBRANCH  28  29
ENDBRANCH  27  28
ENDBRANCH   1  27
TORSDOF 14
ENDMDL
MODEL 3
REMARK VINA RESULT:     -12.2      2.416      4.659
REMARK SMILES O=C(OCCOC(=O)c1ccc(-c2c3nc(c(-c4c(F)cccc4F)c4ccc([nH]4)c(-c4c(F)cccc4F)c4nc(c(-c5c(F)cccc5F)c5ccc2[nH]5)C=C4)C=C3)cc1)C1=Cc2c(ccc(Cl)c2Oc2ccccc2)O[C@H]1C(F)(F)F
REMARK SMILES IDX 4 1 3 2 2 3 1 4 63 5 64 6 80 7 65 8 79 9 66 10 71 11 67 12
REMARK SMILES IDX 69 13 68 14 70 15 81 16 82 17 83 18 84 19 72 20 73 21 74 22
REMARK SMILES IDX 78 23 75 24 77 25 76 26 5 27 6 28 7 29 8 30 9 31 10 32 62 33
REMARK SMILES IDX 11 34 61 35 12 36 13 37 14 38 55 39 15 40 60 41 54 42 56 43
REMARK SMILES IDX 16 44 59 45 53 46 52 47 17 49 43 50 26 51 42 52 27 53 30 54
REMARK SMILES IDX 41 55 57 56 28 57 29 58 40 60 58 61 31 62 18 63 19 64 24 65
REMARK SMILES IDX 20 66 21 67 23 68 25 69 22 70 44 71 45 72 50 73 46 74 47 75
REMARK SMILES IDX 49 76 51 77 48 78 32 79 33 80 38 81 34 82 35 83 37 84 39 85
REMARK SMILES IDX 36 86
REMARK H PARENT 56 48 30 59
REMARK Flexibility Score: inf
ROOT
ATOM      1  C   UNL A   1      31.908  29.784  25.435  1.00  0.00     0.275 C 
ENDROOT
BRANCH   1   2
ATOM      2  O   UNL A   1      33.096  29.156  24.957  1.00  0.00    -0.459 OA
BRANCH   2   3
ATOM      3  C   UNL A   1      33.378  27.847  25.038  1.00  0.00     0.338 C 
ATOM      4  O   UNL A   1      33.996  27.433  26.017  1.00  0.00    -0.246 OA
BRANCH   3   5
ATOM      5  C   UNL A   1      32.956  26.870  23.988  1.00  0.00     0.088 C 
ATOM      6  C   UNL A   1      32.213  26.967  22.855  1.00  0.00     0.031 C 
ATOM      7  C   UNL A   1      32.936  25.491  24.570  1.00  0.00     0.316 C 
ATOM      8  C   UNL A   1      30.772  26.999  23.157  1.00  0.00     0.062 A 
ATOM      9  O   UNL A   1      31.587  24.928  24.342  1.00  0.00    -0.475 OA
ATOM     10  C   UNL A   1      30.564  25.856  24.031  1.00  0.00     0.131 A 
ATOM     11  C   UNL A   1      29.705  27.896  22.766  1.00  0.00     0.156 A 
ATOM     12  C   UNL A   1      29.321  25.606  24.566  1.00  0.00     0.049 A 
ATOM     13  C   UNL A   1      28.461  27.566  23.366  1.00  0.00     0.084 A 
ATOM     14  C   UNL A   1      28.280  26.471  24.240  1.00  0.00     0.028 A 
ATOM     15  Cl  UNL A   1      27.037  28.531  23.079  1.00  0.00    -0.080 Cl
BRANCH   7  16
ATOM     16  C   UNL A   1      34.153  24.733  23.984  1.00  0.00     0.430 C 
ATOM     17  F   UNL A   1      34.426  25.135  22.712  1.00  0.00    -0.167 F 
ATOM     18  F   UNL A   1      35.282  24.930  24.699  1.00  0.00    -0.167 F 
ATOM     19  F   UNL A   1      33.934  23.398  23.918  1.00  0.00    -0.167 F 
ENDBRANCH   7  16
BRANCH  11  20
ATOM     20  O   UNL A   1      29.510  29.046  21.962  1.00  0.00    -0.455 OA
BRANCH  20  21
ATOM     21  C   UNL A   1      29.095  30.350  22.159  1.00  0.00     0.127 A 
ATOM     22  C   UNL A   1      29.238  30.990  23.420  1.00  0.00     0.047 A 
ATOM     23  C   UNL A   1      28.415  31.065  21.167  1.00  0.00     0.047 A 
ATOM     24  C   UNL A   1      28.993  32.384  23.567  1.00  0.00     0.004 A 
ATOM     25  C   UNL A   1      28.152  32.447  21.318  1.00  0.00     0.004 A 
ATOM     26  C   UNL A   1      28.507  33.124  22.487  1.00  0.00     0.000 A 
ENDBRANCH  20  21
ENDBRANCH  11  20
ENDBRANCH   3   5
ENDBRANCH   2   3
ENDBRANCH   1   2
BRANCH   1  27
ATOM     27  C   UNL A   1      32.144  30.748  26.571  1.00  0.00     0.275 C 
BRANCH  27  28
ATOM     28  O   UNL A   1      33.294  30.476  27.280  1.00  0.00    -0.458 OA
BRANCH  28  29
ATOM     29  C   UNL A   1      33.745  31.654  27.694  1.00  0.00     0.338 C 
ATOM     30  O   UNL A   1      33.281  32.760  27.576  1.00  0.00    -0.246 OA
BRANCH  29  31
ATOM     31  C   UNL A   1      35.007  31.279  28.239  1.00  0.00     0.060 A 
ATOM     32  C   UNL A   1      35.853  32.359  28.274  1.00  0.00     0.016 A 
ATOM     33  C   UNL A   1      35.278  29.968  28.710  1.00  0.00     0.016 A 
ATOM     34  C   UNL A   1      37.077  32.117  28.774  1.00  0.00     0.010 A 
ATOM     35  C   UNL A   1      36.482  29.750  29.301  1.00  0.00     0.010 A 
ATOM     36  C   UNL A   1      37.349  30.835  29.298  1.00  0.00    -0.014 A 
BRANCH  36  37
ATOM     37  C   UNL A   1      38.658  30.713  29.866  1.00  0.00     0.031 A 
ATOM     38  C   UNL A   1      38.774  31.162  31.264  1.00  0.00     0.074 A 
ATOM     39  C   UNL A   1      39.440  29.899  29.151  1.00  0.00     0.049 A 
ATOM     40  N   UNL A   1      39.629  30.777  32.152  1.00  0.00    -0.248 NA
ATOM     41  C   UNL A   1      37.766  32.130  31.750  1.00  0.00     0.031 C 
ATOM     42  C   UNL A   1      39.162  29.450  27.773  1.00  0.00     0.029 A 
ATOM     43  N   UNL A   1      40.521  29.186  29.531  1.00  0.00    -0.354 N 
ATOM     44  C   UNL A   1      39.259  31.434  33.310  1.00  0.00     0.074 A 
ATOM     45  C   UNL A   1      38.134  32.284  33.011  1.00  0.00     0.031 C 
ATOM     46  C   UNL A   1      40.015  28.468  27.458  1.00  0.00     0.029 A 
ATOM     47  C   UNL A   1      40.910  28.275  28.585  1.00  0.00     0.049 A 
ATOM     48  H   UNL A   1      40.979  29.308  30.393  1.00  0.00     0.167 HD
ATOM     49  C   UNL A   1      39.838  31.283  34.515  1.00  0.00     0.037 A 
ATOM     50  C   UNL A   1      41.903  27.383  28.671  1.00  0.00     0.037 A 
ATOM     51  C   UNL A   1      40.971  30.413  34.681  1.00  0.00     0.049 A 
ATOM     52  C   UNL A   1      42.576  27.313  30.008  1.00  0.00     0.074 A 
ATOM     53  C   UNL A   1      41.755  30.205  35.792  1.00  0.00     0.029 A 
ATOM     54  N   UNL A   1      41.479  29.601  33.663  1.00  0.00    -0.354 N 
ATOM     55  N   UNL A   1      42.275  27.961  31.116  1.00  0.00    -0.248 NA
ATOM     56  C   UNL A   1      43.709  26.403  30.121  1.00  0.00     0.031 C 
ATOM     57  C   UNL A   1      42.770  29.311  35.428  1.00  0.00     0.029 A 
ATOM     58  C   UNL A   1      42.582  28.906  34.111  1.00  0.00     0.049 A 
ATOM     59  H   UNL A   1      41.104  29.536  32.754  1.00  0.00     0.167 HD
ATOM     60  C   UNL A   1      43.186  27.545  32.066  1.00  0.00     0.074 A 
ATOM     61  C   UNL A   1      44.014  26.543  31.403  1.00  0.00     0.031 C 
ATOM     62  C   UNL A   1      43.353  27.944  33.354  1.00  0.00     0.037 A 
BRANCH  49  63
ATOM     63  C   UNL A   1      39.301  32.112  35.635  1.00  0.00     0.057 A 
ATOM     64  C   UNL A   1      39.744  33.420  35.879  1.00  0.00     0.134 A 
ATOM     65  C   UNL A   1      38.376  31.568  36.533  1.00  0.00     0.134 A 
ATOM     66  F   UNL A   1      40.674  33.982  35.092  1.00  0.00    -0.206 F 
ATOM     67  C   UNL A   1      39.290  34.153  36.979  1.00  0.00     0.040 A 
ATOM     68  C   UNL A   1      37.896  32.300  37.621  1.00  0.00     0.040 A 
ATOM     69  F   UNL A   1      37.941  30.308  36.382  1.00  0.00    -0.206 F 
ATOM     70  C   UNL A   1      38.356  33.595  37.848  1.00  0.00     0.006 A 
ENDBRANCH  49  63
BRANCH  50  71
ATOM     71  C   UNL A   1      42.292  26.592  27.483  1.00  0.00     0.057 A 
ATOM     72  C   UNL A   1      41.751  25.336  27.208  1.00  0.00     0.134 A 
ATOM     73  C   UNL A   1      43.219  27.110  26.562  1.00  0.00     0.134 A 
ATOM     74  F   UNL A   1      40.847  24.792  28.035  1.00  0.00    -0.206 F 
ATOM     75  C   UNL A   1      42.139  24.609  26.080  1.00  0.00     0.040 A 
ATOM     76  C   UNL A   1      43.590  26.409  25.417  1.00  0.00     0.040 A 
ATOM     77  F   UNL A   1      43.760  28.324  26.751  1.00  0.00    -0.206 F 
ATOM     78  C   UNL A   1      43.059  25.146  25.181  1.00  0.00     0.006 A 
ENDBRANCH  50  71
BRANCH  62  79
ATOM     79  C   UNL A   1      44.471  27.267  34.081  1.00  0.00     0.057 A 
ATOM     80  C   UNL A   1      44.277  26.059  34.762  1.00  0.00     0.134 A 
ATOM     81  C   UNL A   1      45.747  27.839  34.097  1.00  0.00     0.134 A 
ATOM     82  F   UNL A   1      43.068  25.479  34.790  1.00  0.00    -0.206 F 
ATOM     83  C   UNL A   1      45.310  25.469  35.483  1.00  0.00     0.040 A 
ATOM     84  C   UNL A   1      46.798  27.233  34.776  1.00  0.00     0.040 A 
ATOM     85  F   UNL A   1      45.990  28.986  33.445  1.00  0.00    -0.206 F 
ATOM     86  C   UNL A   1      46.575  26.055  35.487  1.00  0.00     0.006 A 
ENDBRANCH  62  79
ENDBRANCH  36  37
ENDBRANCH  29  31
ENDBRANCH  28  29
ENDBRANCH  27  28
ENDBRANCH   1  27
TORSDOF 14
ENDMDL
