MODEL 1
REMARK VINA RESULT:     -11.2      0.000      0.000
REMARK SMILES CCCC[C@H](C(=O)OCCOC(=O)c1ccc(-c2c3nc(c(-c4c(F)cccc4F)c4ccc([nH]4)c(-c4c(F)cccc4F)c4nc(c(-c5c(F)cccc5F)c5ccc2[nH]5)C=C4)C=C3)cc1)N1C(=O)/C(=C/c2ccc(C)cc2)SC1=S
REMARK SMILES IDX 9 1 8 2 6 3 7 4 5 5 4 6 3 7 2 8 1 9 68 10 69 11 81 12 70 13
REMARK SMILES IDX 71 14 80 15 82 16 72 17 73 18 74 19 79 20 75 21 78 22 76 23
REMARK SMILES IDX 77 24 10 25 11 26 12 27 13 28 14 29 15 30 67 31 16 32 66 33
REMARK SMILES IDX 17 34 18 35 19 36 60 37 20 38 65 39 59 40 61 41 21 42 64 43
REMARK SMILES IDX 58 44 57 45 22 47 48 48 31 49 47 50 32 51 35 52 46 53 62 54
REMARK SMILES IDX 33 55 34 56 45 58 63 59 36 60 23 61 24 62 29 63 25 64 26 65
REMARK SMILES IDX 28 66 30 67 27 68 49 69 50 70 55 71 51 72 52 73 54 74 56 75
REMARK SMILES IDX 53 76 37 77 38 78 43 79 39 80 40 81 42 82 44 83 41 84
REMARK H PARENT 61 46 35 57
REMARK Flexibility Score: inf
ROOT
ATOM      1  C   UNL A   1      37.233  21.410  25.489  1.00  0.00     0.274 C 
ENDROOT
BRANCH   1   2
ATOM      2  O   UNL A   1      36.572  21.994  24.346  1.00  0.00    -0.461 OA
BRANCH   2   3
ATOM      3  C   UNL A   1      35.602  22.908  24.619  1.00  0.00     0.329 C 
ATOM      4  O   UNL A   1      35.772  23.906  25.315  1.00  0.00    -0.250 OA
BRANCH   3   5
ATOM      5  C   UNL A   1      34.239  22.597  23.952  1.00  0.00     0.202 C 
BRANCH   5   6
ATOM      6  C   UNL A   1      33.838  21.165  24.381  1.00  0.00     0.038 C 
BRANCH   6   7
ATOM      7  C   UNL A   1      32.629  20.446  23.776  1.00  0.00     0.002 C 
BRANCH   7   8
ATOM      8  C   UNL A   1      32.560  18.937  23.941  1.00  0.00    -0.003 C 
ATOM      9  C   UNL A   1      32.434  18.223  22.609  1.00  0.00     0.004 C 
ENDBRANCH   7   8
ENDBRANCH   6   7
ENDBRANCH   5   6
BRANCH   5  10
ATOM     10  N   UNL A   1      33.251  23.679  24.102  1.00  0.00    -0.278 N 
ATOM     11  C   UNL A   1      33.260  24.664  23.110  1.00  0.00     0.266 C 
ATOM     12  C   UNL A   1      32.366  23.927  25.126  1.00  0.00     0.149 C 
ATOM     13  O   UNL A   1      34.037  24.738  22.168  1.00  0.00    -0.268 OA
ATOM     14  C   UNL A   1      32.218  25.682  23.405  1.00  0.00     0.081 C 
ATOM     15  S   UNL A   1      31.102  24.976  24.507  1.00  0.00    -0.054 SA
ATOM     16  S   UNL A   1      32.367  23.472  26.725  1.00  0.00    -0.052 S 
ATOM     17  C   UNL A   1      32.243  26.953  22.973  1.00  0.00     0.029 C 
BRANCH  17  18
ATOM     18  C   UNL A   1      31.197  27.933  23.309  1.00  0.00    -0.024 A 
ATOM     19  C   UNL A   1      31.497  28.965  24.198  1.00  0.00     0.008 A 
ATOM     20  C   UNL A   1      29.950  27.930  22.667  1.00  0.00     0.008 A 
ATOM     21  C   UNL A   1      30.626  30.051  24.331  1.00  0.00     0.004 A 
ATOM     22  C   UNL A   1      29.097  29.028  22.770  1.00  0.00     0.004 A 
ATOM     23  C   UNL A   1      29.451  30.116  23.571  1.00  0.00    -0.051 A 
ATOM     24  C   UNL A   1      28.601  31.351  23.602  1.00  0.00     0.044 C 
ENDBRANCH  17  18
ENDBRANCH   5  10
ENDBRANCH   3   5
ENDBRANCH   2   3
ENDBRANCH   1   2
BRANCH   1  25
ATOM     25  C   UNL A   1      38.687  21.861  25.556  1.00  0.00     0.275 C 
BRANCH  25  26
ATOM     26  O   UNL A   1      38.810  22.935  26.504  1.00  0.00    -0.458 OA
BRANCH  26  27
ATOM     27  C   UNL A   1      40.013  23.544  26.523  1.00  0.00     0.338 C 
ATOM     28  O   UNL A   1      41.063  23.118  26.051  1.00  0.00    -0.246 OA
BRANCH  27  29
ATOM     29  C   UNL A   1      39.923  24.849  27.192  1.00  0.00     0.060 A 
ATOM     30  C   UNL A   1      40.694  25.925  26.755  1.00  0.00     0.016 A 
ATOM     31  C   UNL A   1      39.182  24.953  28.367  1.00  0.00     0.016 A 
ATOM     32  C   UNL A   1      40.840  27.048  27.571  1.00  0.00     0.010 A 
ATOM     33  C   UNL A   1      39.226  26.133  29.110  1.00  0.00     0.010 A 
ATOM     34  C   UNL A   1      40.096  27.178  28.752  1.00  0.00    -0.014 A 
BRANCH  34  35
ATOM     35  C   UNL A   1      40.223  28.371  29.640  1.00  0.00     0.031 A 
ATOM     36  C   UNL A   1      41.320  28.426  30.675  1.00  0.00     0.074 A 
ATOM     37  C   UNL A   1      39.343  29.389  29.567  1.00  0.00     0.049 A 
ATOM     38  N   UNL A   1      41.423  29.185  31.737  1.00  0.00    -0.248 NA
ATOM     39  C   UNL A   1      42.439  27.485  30.501  1.00  0.00     0.031 C 
ATOM     40  C   UNL A   1      38.262  29.516  28.590  1.00  0.00     0.029 A 
ATOM     41  N   UNL A   1      39.210  30.512  30.350  1.00  0.00    -0.354 N 
ATOM     42  C   UNL A   1      42.568  28.759  32.400  1.00  0.00     0.074 A 
ATOM     43  C   UNL A   1      43.136  27.685  31.612  1.00  0.00     0.031 C 
ATOM     44  C   UNL A   1      37.597  30.659  28.810  1.00  0.00     0.029 A 
ATOM     45  C   UNL A   1      38.132  31.292  30.009  1.00  0.00     0.049 A 
ATOM     46  H   UNL A   1      39.829  30.735  31.083  1.00  0.00     0.167 HD
ATOM     47  C   UNL A   1      43.090  29.215  33.564  1.00  0.00     0.037 A 
ATOM     48  C   UNL A   1      37.587  32.359  30.623  1.00  0.00     0.037 A 
ATOM     49  C   UNL A   1      42.562  30.333  34.305  1.00  0.00     0.049 A 
ATOM     50  C   UNL A   1      38.169  32.842  31.918  1.00  0.00     0.074 A 
ATOM     51  C   UNL A   1      43.023  30.880  35.491  1.00  0.00     0.029 A 
ATOM     52  N   UNL A   1      41.471  31.092  33.913  1.00  0.00    -0.354 N 
ATOM     53  N   UNL A   1      39.194  32.375  32.586  1.00  0.00    -0.248 NA
ATOM     54  C   UNL A   1      37.503  33.986  32.557  1.00  0.00     0.031 C 
ATOM     55  C   UNL A   1      42.197  31.958  35.827  1.00  0.00     0.029 A 
ATOM     56  C   UNL A   1      41.244  32.103  34.832  1.00  0.00     0.049 A 
ATOM     57  H   UNL A   1      40.936  30.936  33.101  1.00  0.00     0.167 HD
ATOM     58  C   UNL A   1      39.308  33.175  33.714  1.00  0.00     0.074 A 
ATOM     59  C   UNL A   1      38.254  34.165  33.636  1.00  0.00     0.031 C 
ATOM     60  C   UNL A   1      40.204  33.092  34.728  1.00  0.00     0.037 A 
BRANCH  47  61
ATOM     61  C   UNL A   1      44.272  28.488  34.136  1.00  0.00     0.057 A 
ATOM     62  C   UNL A   1      45.590  28.898  33.897  1.00  0.00     0.134 A 
ATOM     63  C   UNL A   1      44.083  27.387  34.982  1.00  0.00     0.134 A 
ATOM     64  F   UNL A   1      45.842  29.939  33.089  1.00  0.00    -0.206 F 
ATOM     65  C   UNL A   1      46.676  28.227  34.464  1.00  0.00     0.040 A 
ATOM     66  C   UNL A   1      45.159  26.723  35.573  1.00  0.00     0.040 A 
ATOM     67  F   UNL A   1      42.846  26.947  35.260  1.00  0.00    -0.206 F 
ATOM     68  C   UNL A   1      46.462  27.141  35.310  1.00  0.00     0.006 A 
ENDBRANCH  47  61
BRANCH  48  69
ATOM     69  C   UNL A   1      36.386  33.007  30.038  1.00  0.00     0.057 A 
ATOM     70  C   UNL A   1      35.113  32.780  30.571  1.00  0.00     0.134 A 
ATOM     71  C   UNL A   1      36.485  33.886  28.951  1.00  0.00     0.134 A 
ATOM     72  F   UNL A   1      34.953  31.932  31.597  1.00  0.00    -0.206 F 
ATOM     73  C   UNL A   1      33.981  33.402  30.046  1.00  0.00     0.040 A 
ATOM     74  C   UNL A   1      35.365  34.536  28.433  1.00  0.00     0.040 A 
ATOM     75  F   UNL A   1      37.679  34.148  28.398  1.00  0.00    -0.206 F 
ATOM     76  C   UNL A   1      34.107  34.291  28.979  1.00  0.00     0.006 A 
ENDBRANCH  48  69
BRANCH  60  77
ATOM     77  C   UNL A   1      40.115  34.130  35.803  1.00  0.00     0.057 A 
ATOM     78  C   UNL A   1      40.696  35.396  35.656  1.00  0.00     0.134 A 
ATOM     79  C   UNL A   1      39.408  33.870  36.983  1.00  0.00     0.134 A 
ATOM     80  F   UNL A   1      41.399  35.699  34.555  1.00  0.00    -0.206 F 
ATOM     81  C   UNL A   1      40.586  36.365  36.656  1.00  0.00     0.040 A 
ATOM     82  C   UNL A   1      39.276  34.837  37.980  1.00  0.00     0.040 A 
ATOM     83  F   UNL A   1      38.826  32.678  37.179  1.00  0.00    -0.206 F 
ATOM     84  C   UNL A   1      39.870  36.088  37.819  1.00  0.00     0.006 A 
ENDBRANCH  60  77
ENDBRANCH  34  35
ENDBRANCH  27  29
ENDBRANCH  26  27
ENDBRANCH  25  26
ENDBRANCH   1  25
TORSDOF 16
ENDMDL
MODEL 2
REMARK VINA RESULT:     -10.8      4.025      7.368
REMARK SMILES CCCC[C@H](C(=O)OCCOC(=O)c1ccc(-c2c3nc(c(-c4c(F)cccc4F)c4ccc([nH]4)c(-c4c(F)cccc4F)c4nc(c(-c5c(F)cccc5F)c5ccc2[nH]5)C=C4)C=C3)cc1)N1C(=O)/C(=C/c2ccc(C)cc2)SC1=S
REMARK SMILES IDX 9 1 8 2 6 3 7 4 5 5 4 6 3 7 2 8 1 9 68 10 69 11 81 12 70 13
REMARK SMILES IDX 71 14 80 15 82 16 72 17 73 18 74 19 79 20 75 21 78 22 76 23
REMARK SMILES IDX 77 24 10 25 11 26 12 27 13 28 14 29 15 30 67 31 16 32 66 33
REMARK SMILES IDX 17 34 18 35 19 36 60 37 20 38 65 39 59 40 61 41 21 42 64 43
REMARK SMILES IDX 58 44 57 45 22 47 48 48 31 49 47 50 32 51 35 52 46 53 62 54
REMARK SMILES IDX 33 55 34 56 45 58 63 59 36 60 23 61 24 62 29 63 25 64 26 65
REMARK SMILES IDX 28 66 30 67 27 68 49 69 50 70 55 71 51 72 52 73 54 74 56 75
REMARK SMILES IDX 53 76 37 77 38 78 43 79 39 80 40 81 42 82 44 83 41 84
REMARK H PARENT 61 46 35 57
REMARK Flexibility Score: inf
ROOT
ATOM      1  C   UNL A   1      35.517  21.697  26.109  1.00  0.00     0.274 C 
ENDROOT
BRANCH   1   2
ATOM      2  O   UNL A   1      34.833  22.834  25.541  1.00  0.00    -0.461 OA
BRANCH   2   3
ATOM      3  C   UNL A   1      33.562  23.047  25.979  1.00  0.00     0.329 C 
ATOM      4  O   UNL A   1      33.243  23.100  27.164  1.00  0.00    -0.250 OA
BRANCH   3   5
ATOM      5  C   UNL A   1      32.529  23.242  24.842  1.00  0.00     0.202 C 
BRANCH   5   6
ATOM      6  C   UNL A   1      31.610  21.998  24.843  1.00  0.00     0.038 C 
BRANCH   6   7
ATOM      7  C   UNL A   1      32.158  20.585  25.059  1.00  0.00     0.002 C 
BRANCH   7   8
ATOM      8  C   UNL A   1      32.838  19.910  23.880  1.00  0.00    -0.003 C 
ATOM      9  C   UNL A   1      33.475  18.589  24.267  1.00  0.00     0.004 C 
ENDBRANCH   7   8
ENDBRANCH   6   7
ENDBRANCH   5   6
BRANCH   5  10
ATOM     10  N   UNL A   1      31.906  24.577  24.837  1.00  0.00    -0.278 N 
ATOM     11  C   UNL A   1      30.777  24.728  24.028  1.00  0.00     0.266 C 
ATOM     12  C   UNL A   1      32.318  25.742  25.443  1.00  0.00     0.149 C 
ATOM     13  O   UNL A   1      30.293  23.880  23.292  1.00  0.00    -0.268 OA
ATOM     14  C   UNL A   1      30.273  26.123  24.126  1.00  0.00     0.081 C 
ATOM     15  S   UNL A   1      30.931  26.812  25.558  1.00  0.00    -0.054 SA
ATOM     16  S   UNL A   1      33.812  26.249  25.966  1.00  0.00    -0.052 S 
ATOM     17  C   UNL A   1      29.542  26.742  23.185  1.00  0.00     0.029 C 
BRANCH  17  18
ATOM     18  C   UNL A   1      29.083  28.135  23.317  1.00  0.00    -0.024 A 
ATOM     19  C   UNL A   1      30.030  29.151  23.450  1.00  0.00     0.008 A 
ATOM     20  C   UNL A   1      27.730  28.480  23.190  1.00  0.00     0.008 A 
ATOM     21  C   UNL A   1      29.648  30.488  23.309  1.00  0.00     0.004 A 
ATOM     22  C   UNL A   1      27.351  29.811  23.015  1.00  0.00     0.004 A 
ATOM     23  C   UNL A   1      28.316  30.821  23.029  1.00  0.00    -0.051 A 
ATOM     24  C   UNL A   1      27.942  32.241  22.727  1.00  0.00     0.044 C 
ENDBRANCH  17  18
ENDBRANCH   5  10
ENDBRANCH   3   5
ENDBRANCH   2   3
ENDBRANCH   1   2
BRANCH   1  25
ATOM     25  C   UNL A   1      36.285  20.940  25.032  1.00  0.00     0.275 C 
BRANCH  25  26
ATOM     26  O   UNL A   1      37.540  21.598  24.790  1.00  0.00    -0.458 OA
BRANCH  26  27
ATOM     27  C   UNL A   1      38.552  21.206  25.590  1.00  0.00     0.338 C 
ATOM     28  O   UNL A   1      38.981  20.064  25.732  1.00  0.00    -0.246 OA
BRANCH  27  29
ATOM     29  C   UNL A   1      39.129  22.356  26.299  1.00  0.00     0.060 A 
ATOM     30  C   UNL A   1      38.613  23.638  26.112  1.00  0.00     0.016 A 
ATOM     31  C   UNL A   1      40.299  22.175  27.033  1.00  0.00     0.016 A 
ATOM     32  C   UNL A   1      39.348  24.748  26.530  1.00  0.00     0.010 A 
ATOM     33  C   UNL A   1      40.959  23.284  27.567  1.00  0.00     0.010 A 
ATOM     34  C   UNL A   1      40.522  24.589  27.280  1.00  0.00    -0.014 A 
BRANCH  34  35
ATOM     35  C   UNL A   1      41.325  25.756  27.750  1.00  0.00     0.031 A 
ATOM     36  C   UNL A   1      40.683  26.814  28.615  1.00  0.00     0.074 A 
ATOM     37  C   UNL A   1      42.612  25.911  27.377  1.00  0.00     0.049 A 
ATOM     38  N   UNL A   1      41.078  28.037  28.862  1.00  0.00    -0.248 NA
ATOM     39  C   UNL A   1      39.415  26.450  29.269  1.00  0.00     0.031 C 
ATOM     40  C   UNL A   1      43.395  24.956  26.593  1.00  0.00     0.029 A 
ATOM     41  N   UNL A   1      43.486  26.948  27.600  1.00  0.00    -0.354 N 
ATOM     42  C   UNL A   1      40.072  28.613  29.629  1.00  0.00     0.074 A 
ATOM     43  C   UNL A   1      39.054  27.601  29.820  1.00  0.00     0.031 C 
ATOM     44  C   UNL A   1      44.635  25.434  26.424  1.00  0.00     0.029 A 
ATOM     45  C   UNL A   1      44.705  26.775  26.991  1.00  0.00     0.049 A 
ATOM     46  H   UNL A   1      43.260  27.737  28.144  1.00  0.00     0.167 HD
ATOM     47  C   UNL A   1      40.000  29.875  30.118  1.00  0.00     0.037 A 
ATOM     48  C   UNL A   1      45.744  27.618  26.842  1.00  0.00     0.037 A 
ATOM     49  C   UNL A   1      41.049  30.856  29.987  1.00  0.00     0.049 A 
ATOM     50  C   UNL A   1      45.642  29.016  27.378  1.00  0.00     0.074 A 
ATOM     51  C   UNL A   1      41.078  32.158  30.455  1.00  0.00     0.029 A 
ATOM     52  N   UNL A   1      42.266  30.627  29.365  1.00  0.00    -0.354 N 
ATOM     53  N   UNL A   1      44.650  29.582  28.018  1.00  0.00    -0.248 NA
ATOM     54  C   UNL A   1      46.795  29.899  27.148  1.00  0.00     0.031 C 
ATOM     55  C   UNL A   1      42.306  32.726  30.096  1.00  0.00     0.029 A 
ATOM     56  C   UNL A   1      43.054  31.763  29.438  1.00  0.00     0.049 A 
ATOM     57  H   UNL A   1      42.531  29.782  28.935  1.00  0.00     0.167 HD
ATOM     58  C   UNL A   1      45.062  30.881  28.284  1.00  0.00     0.074 A 
ATOM     59  C   UNL A   1      46.399  31.016  27.743  1.00  0.00     0.031 C 
ATOM     60  C   UNL A   1      44.390  31.874  28.914  1.00  0.00     0.037 A 
BRANCH  47  61
ATOM     61  C   UNL A   1      38.734  30.289  30.809  1.00  0.00     0.057 A 
ATOM     62  C   UNL A   1      37.663  30.875  30.123  1.00  0.00     0.134 A 
ATOM     63  C   UNL A   1      38.567  30.050  32.180  1.00  0.00     0.134 A 
ATOM     64  F   UNL A   1      37.760  31.139  28.812  1.00  0.00    -0.206 F 
ATOM     65  C   UNL A   1      36.480  31.224  30.779  1.00  0.00     0.040 A 
ATOM     66  C   UNL A   1      37.382  30.373  32.843  1.00  0.00     0.040 A 
ATOM     67  F   UNL A   1      39.551  29.484  32.897  1.00  0.00    -0.206 F 
ATOM     68  C   UNL A   1      36.334  30.967  32.141  1.00  0.00     0.006 A 
ENDBRANCH  47  61
BRANCH  48  69
ATOM     69  C   UNL A   1      46.952  27.171  26.104  1.00  0.00     0.057 A 
ATOM     70  C   UNL A   1      48.000  26.520  26.765  1.00  0.00     0.134 A 
ATOM     71  C   UNL A   1      47.077  27.360  24.722  1.00  0.00     0.134 A 
ATOM     72  F   UNL A   1      47.946  26.331  28.091  1.00  0.00    -0.206 F 
ATOM     73  C   UNL A   1      49.129  26.074  26.078  1.00  0.00     0.040 A 
ATOM     74  C   UNL A   1      48.189  26.895  24.019  1.00  0.00     0.040 A 
ATOM     75  F   UNL A   1      46.105  27.974  24.031  1.00  0.00    -0.206 F 
ATOM     76  C   UNL A   1      49.221  26.253  24.699  1.00  0.00     0.006 A 
ENDBRANCH  48  69
BRANCH  60  77
ATOM     77  C   UNL A   1      45.109  33.174  29.100  1.00  0.00     0.057 A 
ATOM     78  C   UNL A   1      45.913  33.419  30.220  1.00  0.00     0.134 A 
ATOM     79  C   UNL A   1      45.025  34.177  28.126  1.00  0.00     0.134 A 
ATOM     80  F   UNL A   1      46.020  32.503  31.194  1.00  0.00    -0.206 F 
ATOM     81  C   UNL A   1      46.598  34.627  30.371  1.00  0.00     0.040 A 
ATOM     82  C   UNL A   1      45.720  35.378  28.257  1.00  0.00     0.040 A 
ATOM     83  F   UNL A   1      44.274  33.998  27.028  1.00  0.00    -0.206 F 
ATOM     84  C   UNL A   1      46.507  35.607  29.385  1.00  0.00     0.006 A 
ENDBRANCH  60  77
ENDBRANCH  34  35
ENDBRANCH  27  29
ENDBRANCH  26  27
ENDBRANCH  25  26
ENDBRANCH   1  25
TORSDOF 16
ENDMDL
MODEL 3
REMARK VINA RESULT:     -10.7      7.791     14.347
REMARK SMILES CCCC[C@H](C(=O)OCCOC(=O)c1ccc(-c2c3nc(c(-c4c(F)cccc4F)c4ccc([nH]4)c(-c4c(F)cccc4F)c4nc(c(-c5c(F)cccc5F)c5ccc2[nH]5)C=C4)C=C3)cc1)N1C(=O)/C(=C/c2ccc(C)cc2)SC1=S
REMARK SMILES IDX 9 1 8 2 6 3 7 4 5 5 4 6 3 7 2 8 1 9 68 10 69 11 81 12 70 13
REMARK SMILES IDX 71 14 80 15 82 16 72 17 73 18 74 19 79 20 75 21 78 22 76 23
REMARK SMILES IDX 77 24 10 25 11 26 12 27 13 28 14 29 15 30 67 31 16 32 66 33
REMARK SMILES IDX 17 34 18 35 19 36 60 37 20 38 65 39 59 40 61 41 21 42 64 43
REMARK SMILES IDX 58 44 57 45 22 47 48 48 31 49 47 50 32 51 35 52 46 53 62 54
REMARK SMILES IDX 33 55 34 56 45 58 63 59 36 60 23 61 24 62 29 63 25 64 26 65
REMARK SMILES IDX 28 66 30 67 27 68 49 69 50 70 55 71 51 72 52 73 54 74 56 75
REMARK SMILES IDX 53 76 37 77 38 78 43 79 39 80 40 81 42 82 44 83 41 84
REMARK H PARENT 61 46 35 57
REMARK Flexibility Score: inf
ROOT
ATOM      1  C   UNL A   1      46.144  23.039  39.729  1.00  0.00     0.274 C 
ENDROOT
BRANCH   1   2
ATOM      2  O   UNL A   1      46.853  21.813  40.015  1.00  0.00    -0.461 OA
BRANCH   2   3
ATOM      3  C   UNL A   1      46.116  20.811  40.566  1.00  0.00     0.329 C 
ATOM      4  O   UNL A   1      45.067  20.986  41.180  1.00  0.00    -0.250 OA
BRANCH   3   5
ATOM      5  C   UNL A   1      46.705  19.397  40.336  1.00  0.00     0.202 C 
BRANCH   5   6
ATOM      6  C   UNL A   1      48.192  19.448  40.760  1.00  0.00     0.038 C 
BRANCH   6   7
ATOM      7  C   UNL A   1      49.324  19.096  39.792  1.00  0.00     0.002 C 
BRANCH   7   8
ATOM      8  C   UNL A   1      49.145  19.486  38.334  1.00  0.00    -0.003 C 
ATOM      9  C   UNL A   1      49.435  20.956  38.097  1.00  0.00     0.004 C 
ENDBRANCH   7   8
ENDBRANCH   6   7
ENDBRANCH   5   6
BRANCH   5  10
ATOM     10  N   UNL A   1      45.858  18.315  40.866  1.00  0.00    -0.278 N 
ATOM     11  C   UNL A   1      45.016  17.684  39.946  1.00  0.00     0.266 C 
ATOM     12  C   UNL A   1      45.696  17.878  42.160  1.00  0.00     0.149 C 
ATOM     13  O   UNL A   1      44.881  17.978  38.766  1.00  0.00    -0.268 OA
ATOM     14  C   UNL A   1      44.227  16.627  40.630  1.00  0.00     0.081 C 
ATOM     15  S   UNL A   1      45.031  16.254  42.104  1.00  0.00    -0.054 SA
ATOM     16  S   UNL A   1      45.955  18.627  43.621  1.00  0.00    -0.052 S 
ATOM     17  C   UNL A   1      43.040  16.162  40.210  1.00  0.00     0.029 C 
BRANCH  17  18
ATOM     18  C   UNL A   1      42.284  15.127  40.935  1.00  0.00    -0.024 A 
ATOM     19  C   UNL A   1      41.967  13.936  40.280  1.00  0.00     0.008 A 
ATOM     20  C   UNL A   1      41.982  15.254  42.298  1.00  0.00     0.008 A 
ATOM     21  C   UNL A   1      41.493  12.841  41.008  1.00  0.00     0.004 A 
ATOM     22  C   UNL A   1      41.543  14.152  43.032  1.00  0.00     0.004 A 
ATOM     23  C   UNL A   1      41.338  12.925  42.397  1.00  0.00    -0.051 A 
ATOM     24  C   UNL A   1      40.978  11.705  43.190  1.00  0.00     0.044 C 
ENDBRANCH  17  18
ENDBRANCH   5  10
ENDBRANCH   3   5
ENDBRANCH   2   3
ENDBRANCH   1   2
BRANCH   1  25
ATOM     25  C   UNL A   1      45.825  23.140  38.242  1.00  0.00     0.275 C 
BRANCH  25  26
ATOM     26  O   UNL A   1      45.320  24.455  37.952  1.00  0.00    -0.458 OA
BRANCH  26  27
ATOM     27  C   UNL A   1      46.137  25.226  37.206  1.00  0.00     0.338 C 
ATOM     28  O   UNL A   1      47.342  25.397  37.368  1.00  0.00    -0.246 OA
BRANCH  27  29
ATOM     29  C   UNL A   1      45.392  25.863  36.112  1.00  0.00     0.060 A 
ATOM     30  C   UNL A   1      45.944  26.928  35.402  1.00  0.00     0.016 A 
ATOM     31  C   UNL A   1      44.064  25.497  35.900  1.00  0.00     0.016 A 
ATOM     32  C   UNL A   1      45.127  27.719  34.593  1.00  0.00     0.010 A 
ATOM     33  C   UNL A   1      43.288  26.210  34.985  1.00  0.00     0.010 A 
ATOM     34  C   UNL A   1      43.791  27.363  34.357  1.00  0.00    -0.014 A 
BRANCH  34  35
ATOM     35  C   UNL A   1      42.895  28.183  33.490  1.00  0.00     0.031 A 
ATOM     36  C   UNL A   1      42.044  29.271  34.100  1.00  0.00     0.074 A 
ATOM     37  C   UNL A   1      42.794  27.940  32.168  1.00  0.00     0.049 A 
ATOM     38  N   UNL A   1      40.987  29.870  33.612  1.00  0.00    -0.248 NA
ATOM     39  C   UNL A   1      42.423  29.727  35.448  1.00  0.00     0.031 C 
ATOM     40  C   UNL A   1      43.585  26.965  31.415  1.00  0.00     0.029 A 
ATOM     41  N   UNL A   1      41.964  28.490  31.220  1.00  0.00    -0.354 N 
ATOM     42  C   UNL A   1      40.528  30.710  34.620  1.00  0.00     0.074 A 
ATOM     43  C   UNL A   1      41.431  30.556  35.742  1.00  0.00     0.031 C 
ATOM     44  C   UNL A   1      43.225  27.005  30.125  1.00  0.00     0.029 A 
ATOM     45  C   UNL A   1      42.105  27.925  29.976  1.00  0.00     0.049 A 
ATOM     46  H   UNL A   1      41.331  29.218  31.415  1.00  0.00     0.167 HD
ATOM     47  C   UNL A   1      39.446  31.525  34.613  1.00  0.00     0.037 A 
ATOM     48  C   UNL A   1      41.378  28.075  28.852  1.00  0.00     0.037 A 
ATOM     49  C   UNL A   1      38.594  31.730  33.468  1.00  0.00     0.049 A 
ATOM     50  C   UNL A   1      40.175  28.971  28.866  1.00  0.00     0.074 A 
ATOM     51  C   UNL A   1      37.479  32.543  33.355  1.00  0.00     0.029 A 
ATOM     52  N   UNL A   1      38.784  31.138  32.230  1.00  0.00    -0.354 N 
ATOM     53  N   UNL A   1      39.693  29.688  29.850  1.00  0.00    -0.248 NA
ATOM     54  C   UNL A   1      39.402  29.060  27.619  1.00  0.00     0.031 C 
ATOM     55  C   UNL A   1      36.981  32.425  32.052  1.00  0.00     0.029 A 
ATOM     56  C   UNL A   1      37.808  31.567  31.346  1.00  0.00     0.049 A 
ATOM     57  H   UNL A   1      39.506  30.505  32.011  1.00  0.00     0.167 HD
ATOM     58  C   UNL A   1      38.571  30.326  29.340  1.00  0.00     0.074 A 
ATOM     59  C   UNL A   1      38.449  29.920  27.956  1.00  0.00     0.031 C 
ATOM     60  C   UNL A   1      37.714  31.169  29.966  1.00  0.00     0.037 A 
BRANCH  47  61
ATOM     61  C   UNL A   1      39.092  32.234  35.888  1.00  0.00     0.057 A 
ATOM     62  C   UNL A   1      39.528  33.535  36.167  1.00  0.00     0.134 A 
ATOM     63  C   UNL A   1      38.258  31.617  36.831  1.00  0.00     0.134 A 
ATOM     64  F   UNL A   1      40.336  34.178  35.312  1.00  0.00    -0.206 F 
ATOM     65  C   UNL A   1      39.162  34.189  37.346  1.00  0.00     0.040 A 
ATOM     66  C   UNL A   1      37.866  32.268  38.001  1.00  0.00     0.040 A 
ATOM     67  F   UNL A   1      37.797  30.374  36.621  1.00  0.00    -0.206 F 
ATOM     68  C   UNL A   1      38.323  33.558  38.263  1.00  0.00     0.006 A 
ENDBRANCH  47  61
BRANCH  48  69
ATOM     69  C   UNL A   1      41.745  27.310  27.634  1.00  0.00     0.057 A 
ATOM     70  C   UNL A   1      41.216  26.036  27.397  1.00  0.00     0.134 A 
ATOM     71  C   UNL A   1      42.609  27.841  26.669  1.00  0.00     0.134 A 
ATOM     72  F   UNL A   1      40.400  25.467  28.296  1.00  0.00    -0.206 F 
ATOM     73  C   UNL A   1      41.534  25.318  26.244  1.00  0.00     0.040 A 
ATOM     74  C   UNL A   1      42.915  27.145  25.499  1.00  0.00     0.040 A 
ATOM     75  F   UNL A   1      43.146  29.059  26.837  1.00  0.00    -0.206 F 
ATOM     76  C   UNL A   1      42.379  25.877  25.286  1.00  0.00     0.006 A 
ENDBRANCH  48  69
BRANCH  60  77
ATOM     77  C   UNL A   1      36.605  31.749  29.145  1.00  0.00     0.057 A 
ATOM     78  C   UNL A   1      35.453  31.015  28.836  1.00  0.00     0.134 A 
ATOM     79  C   UNL A   1      36.676  33.072  28.689  1.00  0.00     0.134 A 
ATOM     80  F   UNL A   1      35.334  29.739  29.231  1.00  0.00    -0.206 F 
ATOM     81  C   UNL A   1      34.415  31.575  28.089  1.00  0.00     0.040 A 
ATOM     82  C   UNL A   1      35.637  33.646  27.960  1.00  0.00     0.040 A 
ATOM     83  F   UNL A   1      37.753  33.826  28.958  1.00  0.00    -0.206 F 
ATOM     84  C   UNL A   1      34.503  32.895  27.654  1.00  0.00     0.006 A 
ENDBRANCH  60  77
ENDBRANCH  34  35
ENDBRANCH  27  29
ENDBRANCH  26  27
ENDBRANCH  25  26
ENDBRANCH   1  25
TORSDOF 16
ENDMDL
