MODEL 1
REMARK VINA RESULT:     -12.4      0.000      0.000
REMARK SMILES Cc1ccnc(C(=O)c2[nH]c3ccc(F)cc3c2CC(=O)OCCOC(=O)c2ccc(-c3c4nc(c(-c5c(F)cccc5F)c5ccc([nH]5)c(-c5c(F)cccc5F)c5nc(c(-c6c(F)cccc6F)c6ccc3[nH]6)C=C5)C=C4)cc2)c1
REMARK SMILES IDX 23 1 22 2 20 3 21 4 19 5 18 6 9 7 10 8 11 9 17 11 12 12
REMARK SMILES IDX 16 13 13 14 14 15 15 16 7 17 8 18 6 19 1 20 2 21 3 22 82 23
REMARK SMILES IDX 4 24 5 25 24 26 25 27 26 28 27 29 28 30 29 31 81 32 30 33
REMARK SMILES IDX 80 34 31 35 32 36 33 37 74 38 34 39 79 40 73 41 75 42 35 43
REMARK SMILES IDX 78 44 72 45 71 46 36 48 62 49 45 50 61 51 46 52 49 53 60 54
REMARK SMILES IDX 76 55 47 56 48 57 59 59 77 60 50 61 37 62 38 63 43 64 39 65
REMARK SMILES IDX 40 66 42 67 44 68 41 69 63 70 64 71 69 72 65 73 66 74 68 75
REMARK SMILES IDX 70 76 67 77 51 78 52 79 57 80 53 81 54 82 56 83 58 84 55 85
REMARK H PARENT 10 10 75 47 49 58
REMARK Flexibility Score: inf
ROOT
ATOM      1  C   UNL A   1      31.591  31.515  26.554  1.00  0.00     0.274 C 
ENDROOT
BRANCH   1   2
ATOM      2  O   UNL A   1      32.216  30.460  25.791  1.00  0.00    -0.462 OA
BRANCH   2   3
ATOM      3  C   UNL A   1      32.108  29.211  26.317  1.00  0.00     0.310 C 
ATOM      4  O   UNL A   1      32.676  28.853  27.346  1.00  0.00    -0.252 OA
BRANCH   3   5
ATOM      5  C   UNL A   1      31.089  28.323  25.635  1.00  0.00     0.161 C 
BRANCH   5   6
ATOM      6  C   UNL A   1      31.361  27.869  24.233  1.00  0.00     0.000 A 
ATOM      7  C   UNL A   1      30.544  28.016  23.106  1.00  0.00     0.093 A 
ATOM      8  N   UNL A   1      31.064  27.192  22.133  1.00  0.00    -0.352 N 
ATOM      9  C   UNL A   1      32.146  26.486  22.607  1.00  0.00     0.046 A 
ATOM     10  H   UNL A   1      30.708  27.117  21.218  1.00  0.00     0.167 HD
ATOM     11  C   UNL A   1      32.407  26.951  23.892  1.00  0.00     0.007 A 
ATOM     12  C   UNL A   1      32.869  25.439  22.019  1.00  0.00     0.030 A 
ATOM     13  C   UNL A   1      33.474  26.382  24.617  1.00  0.00     0.049 A 
ATOM     14  C   UNL A   1      33.902  24.868  22.769  1.00  0.00     0.041 A 
ATOM     15  C   UNL A   1      34.203  25.347  24.036  1.00  0.00     0.123 A 
ATOM     16  F   UNL A   1      35.196  24.779  24.734  1.00  0.00    -0.207 F 
BRANCH   7  17
ATOM     17  C   UNL A   1      29.214  28.604  22.967  1.00  0.00     0.227 C 
ATOM     18  O   UNL A   1      28.229  27.943  23.295  1.00  0.00    -0.285 OA
BRANCH  17  19
ATOM     19  C   UNL A   1      29.009  29.984  22.373  1.00  0.00     0.113 A 
ATOM     20  C   UNL A   1      29.072  33.669  23.284  1.00  0.00     0.044 C 
ATOM     21  C   UNL A   1      28.911  32.389  22.517  1.00  0.00    -0.047 A 
ATOM     22  C   UNL A   1      28.157  32.390  21.341  1.00  0.00     0.023 A 
ATOM     23  C   UNL A   1      29.379  31.163  23.024  1.00  0.00     0.036 A 
ATOM     24  C   UNL A   1      27.906  31.183  20.715  1.00  0.00     0.112 A 
ATOM     25  N   UNL A   1      28.311  29.992  21.199  1.00  0.00    -0.253 NA
ENDBRANCH  17  19
ENDBRANCH   7  17
ENDBRANCH   5   6
ENDBRANCH   3   5
ENDBRANCH   2   3
ENDBRANCH   1   2
BRANCH   1  26
ATOM     26  C   UNL A   1      32.637  32.387  27.269  1.00  0.00     0.275 C 
BRANCH  26  27
ATOM     27  O   UNL A   1      32.232  33.769  27.420  1.00  0.00    -0.458 OA
BRANCH  27  28
ATOM     28  C   UNL A   1      32.998  34.440  28.305  1.00  0.00     0.338 C 
ATOM     29  O   UNL A   1      32.755  35.541  28.758  1.00  0.00    -0.246 OA
BRANCH  28  30
ATOM     30  C   UNL A   1      34.164  33.727  28.809  1.00  0.00     0.060 A 
ATOM     31  C   UNL A   1      33.973  32.810  29.843  1.00  0.00     0.016 A 
ATOM     32  C   UNL A   1      35.440  34.198  28.488  1.00  0.00     0.016 A 
ATOM     33  C   UNL A   1      35.071  32.357  30.565  1.00  0.00     0.010 A 
ATOM     34  C   UNL A   1      36.548  33.697  29.174  1.00  0.00     0.010 A 
ATOM     35  C   UNL A   1      36.368  32.768  30.211  1.00  0.00    -0.014 A 
BRANCH  35  36
ATOM     36  C   UNL A   1      37.521  32.038  30.777  1.00  0.00     0.031 A 
ATOM     37  C   UNL A   1      38.261  30.977  30.026  1.00  0.00     0.074 A 
ATOM     38  C   UNL A   1      37.886  32.382  32.025  1.00  0.00     0.049 A 
ATOM     39  N   UNL A   1      39.296  30.277  30.420  1.00  0.00    -0.248 NA
ATOM     40  C   UNL A   1      37.789  30.650  28.674  1.00  0.00     0.031 C 
ATOM     41  C   UNL A   1      37.216  33.402  32.839  1.00  0.00     0.029 A 
ATOM     42  N   UNL A   1      38.903  31.933  32.822  1.00  0.00    -0.354 N 
ATOM     43  C   UNL A   1      39.601  29.422  29.370  1.00  0.00     0.074 A 
ATOM     44  C   UNL A   1      38.628  29.680  28.326  1.00  0.00     0.031 C 
ATOM     45  C   UNL A   1      37.858  33.522  34.007  1.00  0.00     0.029 A 
ATOM     46  C   UNL A   1      38.951  32.560  34.042  1.00  0.00     0.049 A 
ATOM     47  H   UNL A   1      39.537  31.232  32.548  1.00  0.00     0.167 HD
ATOM     48  C   UNL A   1      40.604  28.513  29.295  1.00  0.00     0.037 A 
ATOM     49  C   UNL A   1      39.775  32.373  35.085  1.00  0.00     0.037 A 
ATOM     50  C   UNL A   1      41.571  28.278  30.341  1.00  0.00     0.049 A 
ATOM     51  C   UNL A   1      40.863  31.355  34.975  1.00  0.00     0.074 A 
ATOM     52  C   UNL A   1      42.653  27.412  30.337  1.00  0.00     0.029 A 
ATOM     53  N   UNL A   1      41.571  28.906  31.578  1.00  0.00    -0.354 N 
ATOM     54  N   UNL A   1      41.155  30.572  33.966  1.00  0.00    -0.248 NA
ATOM     55  C   UNL A   1      41.731  31.188  36.146  1.00  0.00     0.031 C 
ATOM     56  C   UNL A   1      43.283  27.490  31.584  1.00  0.00     0.029 A 
ATOM     57  C   UNL A   1      42.617  28.429  32.354  1.00  0.00     0.049 A 
ATOM     58  H   UNL A   1      40.923  29.590  31.864  1.00  0.00     0.167 HD
ATOM     59  C   UNL A   1      42.245  29.822  34.374  1.00  0.00     0.074 A 
ATOM     60  C   UNL A   1      42.573  30.258  35.719  1.00  0.00     0.031 C 
ATOM     61  C   UNL A   1      42.913  28.857  33.697  1.00  0.00     0.037 A 
BRANCH  48  62
ATOM     62  C   UNL A   1      40.713  27.689  28.046  1.00  0.00     0.057 A 
ATOM     63  C   UNL A   1      41.483  28.104  26.954  1.00  0.00     0.134 A 
ATOM     64  C   UNL A   1      40.110  26.427  27.971  1.00  0.00     0.134 A 
ATOM     65  F   UNL A   1      42.088  29.301  26.964  1.00  0.00    -0.206 F 
ATOM     66  C   UNL A   1      41.643  27.296  25.825  1.00  0.00     0.040 A 
ATOM     67  C   UNL A   1      40.277  25.603  26.856  1.00  0.00     0.040 A 
ATOM     68  F   UNL A   1      39.368  25.964  28.988  1.00  0.00    -0.206 F 
ATOM     69  C   UNL A   1      41.045  26.037  25.778  1.00  0.00     0.006 A 
ENDBRANCH  48  62
BRANCH  49  70
ATOM     70  C   UNL A   1      39.585  33.190  36.303  1.00  0.00     0.057 A 
ATOM     71  C   UNL A   1      40.242  34.414  36.460  1.00  0.00     0.134 A 
ATOM     72  C   UNL A   1      38.676  32.805  37.297  1.00  0.00     0.134 A 
ATOM     73  F   UNL A   1      41.127  34.827  35.541  1.00  0.00    -0.206 F 
ATOM     74  C   UNL A   1      40.001  35.231  37.564  1.00  0.00     0.040 A 
ATOM     75  C   UNL A   1      38.410  33.621  38.395  1.00  0.00     0.040 A 
ATOM     76  F   UNL A   1      38.003  31.650  37.188  1.00  0.00    -0.206 F 
ATOM     77  C   UNL A   1      39.074  34.839  38.530  1.00  0.00     0.006 A 
ENDBRANCH  49  70
BRANCH  61  78
ATOM     78  C   UNL A   1      44.059  28.214  34.414  1.00  0.00     0.057 A 
ATOM     79  C   UNL A   1      45.349  28.752  34.357  1.00  0.00     0.134 A 
ATOM     80  C   UNL A   1      43.872  27.044  35.161  1.00  0.00     0.134 A 
ATOM     81  F   UNL A   1      45.593  29.861  33.641  1.00  0.00    -0.206 F 
ATOM     82  C   UNL A   1      46.424  28.136  35.000  1.00  0.00     0.040 A 
ATOM     83  C   UNL A   1      44.935  26.430  35.823  1.00  0.00     0.040 A 
ATOM     84  F   UNL A   1      42.658  26.481  35.253  1.00  0.00    -0.206 F 
ATOM     85  C   UNL A   1      46.216  26.972  35.738  1.00  0.00     0.006 A 
ENDBRANCH  61  78
ENDBRANCH  35  36
ENDBRANCH  28  30
ENDBRANCH  27  28
ENDBRANCH  26  27
ENDBRANCH   1  26
TORSDOF 14
ENDMDL
MODEL 2
REMARK VINA RESULT:     -12.3      2.143      7.384
REMARK SMILES Cc1ccnc(C(=O)c2[nH]c3ccc(F)cc3c2CC(=O)OCCOC(=O)c2ccc(-c3c4nc(c(-c5c(F)cccc5F)c5ccc([nH]5)c(-c5c(F)cccc5F)c5nc(c(-c6c(F)cccc6F)c6ccc3[nH]6)C=C5)C=C4)cc2)c1
REMARK SMILES IDX 23 1 22 2 20 3 21 4 19 5 18 6 9 7 10 8 11 9 17 11 12 12
REMARK SMILES IDX 16 13 13 14 14 15 15 16 7 17 8 18 6 19 1 20 2 21 3 22 82 23
REMARK SMILES IDX 4 24 5 25 24 26 25 27 26 28 27 29 28 30 29 31 81 32 30 33
REMARK SMILES IDX 80 34 31 35 32 36 33 37 74 38 34 39 79 40 73 41 75 42 35 43
REMARK SMILES IDX 78 44 72 45 71 46 36 48 62 49 45 50 61 51 46 52 49 53 60 54
REMARK SMILES IDX 76 55 47 56 48 57 59 59 77 60 50 61 37 62 38 63 43 64 39 65
REMARK SMILES IDX 40 66 42 67 44 68 41 69 63 70 64 71 69 72 65 73 66 74 68 75
REMARK SMILES IDX 70 76 67 77 51 78 52 79 57 80 53 81 54 82 56 83 58 84 55 85
REMARK H PARENT 10 10 75 47 49 58
REMARK Flexibility Score: inf
ROOT
ATOM      1  C   UNL A   1      31.867  27.956  26.902  1.00  0.00     0.274 C 
ENDROOT
BRANCH   1   2
ATOM      2  O   UNL A   1      30.749  27.095  26.592  1.00  0.00    -0.462 OA
BRANCH   2   3
ATOM      3  C   UNL A   1      31.070  25.847  26.158  1.00  0.00     0.310 C 
ATOM      4  O   UNL A   1      31.550  24.977  26.881  1.00  0.00    -0.252 OA
BRANCH   3   5
ATOM      5  C   UNL A   1      30.633  25.537  24.742  1.00  0.00     0.161 C 
BRANCH   5   6
ATOM      6  C   UNL A   1      30.788  26.599  23.697  1.00  0.00     0.000 A 
ATOM      7  C   UNL A   1      31.973  27.138  23.185  1.00  0.00     0.093 A 
ATOM      8  N   UNL A   1      31.621  28.272  22.487  1.00  0.00    -0.352 N 
ATOM      9  C   UNL A   1      30.268  28.508  22.575  1.00  0.00     0.046 A 
ATOM     10  H   UNL A   1      32.254  28.840  21.990  1.00  0.00     0.167 HD
ATOM     11  C   UNL A   1      29.709  27.432  23.256  1.00  0.00     0.007 A 
ATOM     12  C   UNL A   1      29.516  29.614  22.158  1.00  0.00     0.030 A 
ATOM     13  C   UNL A   1      28.319  27.426  23.493  1.00  0.00     0.049 A 
ATOM     14  C   UNL A   1      28.145  29.602  22.432  1.00  0.00     0.041 A 
ATOM     15  C   UNL A   1      27.562  28.518  23.073  1.00  0.00     0.123 A 
ATOM     16  F   UNL A   1      26.246  28.534  23.326  1.00  0.00    -0.207 F 
BRANCH   7  17
ATOM     17  C   UNL A   1      33.367  26.863  23.526  1.00  0.00     0.227 C 
ATOM     18  O   UNL A   1      34.164  27.800  23.593  1.00  0.00    -0.285 OA
BRANCH  17  19
ATOM     19  C   UNL A   1      33.874  25.450  23.740  1.00  0.00     0.113 A 
ATOM     20  C   UNL A   1      36.209  23.414  25.934  1.00  0.00     0.044 C 
ATOM     21  C   UNL A   1      35.239  23.807  24.858  1.00  0.00    -0.047 A 
ATOM     22  C   UNL A   1      35.085  22.978  23.745  1.00  0.00     0.023 A 
ATOM     23  C   UNL A   1      34.589  25.054  24.873  1.00  0.00     0.036 A 
ATOM     24  C   UNL A   1      34.291  23.414  22.700  1.00  0.00     0.112 A 
ATOM     25  N   UNL A   1      33.687  24.618  22.673  1.00  0.00    -0.253 NA
ENDBRANCH  17  19
ENDBRANCH   7  17
ENDBRANCH   5   6
ENDBRANCH   3   5
ENDBRANCH   2   3
ENDBRANCH   1   2
BRANCH   1  26
ATOM     26  C   UNL A   1      31.790  29.279  26.122  1.00  0.00     0.275 C 
BRANCH  26  27
ATOM     27  O   UNL A   1      33.077  29.918  25.940  1.00  0.00    -0.458 OA
BRANCH  27  28
ATOM     28  C   UNL A   1      33.307  30.887  26.851  1.00  0.00     0.338 C 
ATOM     29  O   UNL A   1      32.574  31.829  27.079  1.00  0.00    -0.246 OA
BRANCH  28  30
ATOM     30  C   UNL A   1      34.497  30.721  27.674  1.00  0.00     0.060 A 
ATOM     31  C   UNL A   1      35.298  31.840  27.900  1.00  0.00     0.016 A 
ATOM     32  C   UNL A   1      34.968  29.431  27.933  1.00  0.00     0.016 A 
ATOM     33  C   UNL A   1      36.586  31.670  28.391  1.00  0.00     0.010 A 
ATOM     34  C   UNL A   1      36.240  29.265  28.484  1.00  0.00     0.010 A 
ATOM     35  C   UNL A   1      37.051  30.385  28.722  1.00  0.00    -0.014 A 
BRANCH  35  36
ATOM     36  C   UNL A   1      38.284  30.265  29.528  1.00  0.00     0.031 A 
ATOM     37  C   UNL A   1      38.407  30.810  30.915  1.00  0.00     0.074 A 
ATOM     38  C   UNL A   1      39.313  29.623  28.946  1.00  0.00     0.049 A 
ATOM     39  N   UNL A   1      39.438  30.753  31.722  1.00  0.00    -0.248 NA
ATOM     40  C   UNL A   1      37.241  31.510  31.473  1.00  0.00     0.031 C 
ATOM     41  C   UNL A   1      39.288  29.065  27.589  1.00  0.00     0.029 A 
ATOM     42  N   UNL A   1      40.564  29.321  29.409  1.00  0.00    -0.354 N 
ATOM     43  C   UNL A   1      39.053  31.411  32.881  1.00  0.00     0.074 A 
ATOM     44  C   UNL A   1      37.696  31.876  32.667  1.00  0.00     0.031 C 
ATOM     45  C   UNL A   1      40.457  28.462  27.343  1.00  0.00     0.029 A 
ATOM     46  C   UNL A   1      41.325  28.631  28.500  1.00  0.00     0.049 A 
ATOM     47  H   UNL A   1      40.886  29.573  30.304  1.00  0.00     0.167 HD
ATOM     48  C   UNL A   1      39.773  31.600  34.014  1.00  0.00     0.037 A 
ATOM     49  C   UNL A   1      42.591  28.191  28.579  1.00  0.00     0.037 A 
ATOM     50  C   UNL A   1      41.120  31.120  34.214  1.00  0.00     0.049 A 
ATOM     51  C   UNL A   1      43.363  28.427  29.836  1.00  0.00     0.074 A 
ATOM     52  C   UNL A   1      41.913  31.221  35.346  1.00  0.00     0.029 A 
ATOM     53  N   UNL A   1      41.875  30.454  33.260  1.00  0.00    -0.354 N 
ATOM     54  N   UNL A   1      42.977  29.028  30.935  1.00  0.00    -0.248 NA
ATOM     55  C   UNL A   1      44.743  27.931  29.867  1.00  0.00     0.031 C 
ATOM     56  C   UNL A   1      43.159  30.650  35.063  1.00  0.00     0.029 A 
ATOM     57  C   UNL A   1      43.132  30.160  33.767  1.00  0.00     0.049 A 
ATOM     58  H   UNL A   1      41.564  30.222  32.355  1.00  0.00     0.167 HD
ATOM     59  C   UNL A   1      44.063  28.979  31.793  1.00  0.00     0.074 A 
ATOM     60  C   UNL A   1      45.118  28.272  31.091  1.00  0.00     0.031 C 
ATOM     61  C   UNL A   1      44.176  29.478  33.047  1.00  0.00     0.037 A 
BRANCH  48  62
ATOM     62  C   UNL A   1      39.133  32.368  35.133  1.00  0.00     0.057 A 
ATOM     63  C   UNL A   1      38.384  31.732  36.129  1.00  0.00     0.134 A 
ATOM     64  C   UNL A   1      39.341  33.747  35.261  1.00  0.00     0.134 A 
ATOM     65  F   UNL A   1      38.149  30.413  36.067  1.00  0.00    -0.206 F 
ATOM     66  C   UNL A   1      37.856  32.443  37.211  1.00  0.00     0.040 A 
ATOM     67  C   UNL A   1      38.835  34.465  36.347  1.00  0.00     0.040 A 
ATOM     68  F   UNL A   1      40.060  34.416  34.346  1.00  0.00    -0.206 F 
ATOM     69  C   UNL A   1      38.089  33.812  37.325  1.00  0.00     0.006 A 
ENDBRANCH  48  62
BRANCH  49  70
ATOM     70  C   UNL A   1      43.176  27.479  27.422  1.00  0.00     0.057 A 
ATOM     71  C   UNL A   1      43.910  28.165  26.449  1.00  0.00     0.134 A 
ATOM     72  C   UNL A   1      43.088  26.086  27.310  1.00  0.00     0.134 A 
ATOM     73  F   UNL A   1      44.020  29.501  26.505  1.00  0.00    -0.206 F 
ATOM     74  C   UNL A   1      44.539  27.490  25.404  1.00  0.00     0.040 A 
ATOM     75  C   UNL A   1      43.729  25.396  26.283  1.00  0.00     0.040 A 
ATOM     76  F   UNL A   1      42.413  25.375  28.226  1.00  0.00    -0.206 F 
ATOM     77  C   UNL A   1      44.457  26.100  25.325  1.00  0.00     0.006 A 
ENDBRANCH  49  70
BRANCH  61  78
ATOM     78  C   UNL A   1      45.494  29.271  33.728  1.00  0.00     0.057 A 
ATOM     79  C   UNL A   1      45.747  28.129  34.495  1.00  0.00     0.134 A 
ATOM     80  C   UNL A   1      46.513  30.225  33.621  1.00  0.00     0.134 A 
ATOM     81  F   UNL A   1      44.801  27.190  34.650  1.00  0.00    -0.206 F 
ATOM     82  C   UNL A   1      46.964  27.951  35.154  1.00  0.00     0.040 A 
ATOM     83  C   UNL A   1      47.741  30.049  34.259  1.00  0.00     0.040 A 
ATOM     84  F   UNL A   1      46.329  31.340  32.899  1.00  0.00    -0.206 F 
ATOM     85  C   UNL A   1      47.967  28.913  35.034  1.00  0.00     0.006 A 
ENDBRANCH  61  78
ENDBRANCH  35  36
ENDBRANCH  28  30
ENDBRANCH  27  28
ENDBRANCH  26  27
ENDBRANCH   1  26
TORSDOF 14
ENDMDL
MODEL 3
REMARK VINA RESULT:     -12.3      2.106      4.338
REMARK SMILES Cc1ccnc(C(=O)c2[nH]c3ccc(F)cc3c2CC(=O)OCCOC(=O)c2ccc(-c3c4nc(c(-c5c(F)cccc5F)c5ccc([nH]5)c(-c5c(F)cccc5F)c5nc(c(-c6c(F)cccc6F)c6ccc3[nH]6)C=C5)C=C4)cc2)c1
REMARK SMILES IDX 23 1 22 2 20 3 21 4 19 5 18 6 9 7 10 8 11 9 17 11 12 12
REMARK SMILES IDX 16 13 13 14 14 15 15 16 7 17 8 18 6 19 1 20 2 21 3 22 82 23
REMARK SMILES IDX 4 24 5 25 24 26 25 27 26 28 27 29 28 30 29 31 81 32 30 33
REMARK SMILES IDX 80 34 31 35 32 36 33 37 74 38 34 39 79 40 73 41 75 42 35 43
REMARK SMILES IDX 78 44 72 45 71 46 36 48 62 49 45 50 61 51 46 52 49 53 60 54
REMARK SMILES IDX 76 55 47 56 48 57 59 59 77 60 50 61 37 62 38 63 43 64 39 65
REMARK SMILES IDX 40 66 42 67 44 68 41 69 63 70 64 71 69 72 65 73 66 74 68 75
REMARK SMILES IDX 70 76 67 77 51 78 52 79 57 80 53 81 54 82 56 83 58 84 55 85
REMARK H PARENT 10 10 75 47 49 58
REMARK Flexibility Score: inf
ROOT
ATOM      1  C   UNL A   1      31.923  27.859  26.831  1.00  0.00     0.274 C 
ENDROOT
BRANCH   1   2
ATOM      2  O   UNL A   1      30.779  27.019  26.566  1.00  0.00    -0.462 OA
BRANCH   2   3
ATOM      3  C   UNL A   1      31.061  25.757  26.145  1.00  0.00     0.310 C 
ATOM      4  O   UNL A   1      31.497  24.874  26.881  1.00  0.00    -0.252 OA
BRANCH   3   5
ATOM      5  C   UNL A   1      30.635  25.454  24.724  1.00  0.00     0.161 C 
BRANCH   5   6
ATOM      6  C   UNL A   1      30.762  26.533  23.693  1.00  0.00     0.000 A 
ATOM      7  C   UNL A   1      31.933  27.088  23.167  1.00  0.00     0.093 A 
ATOM      8  N   UNL A   1      31.560  28.231  22.494  1.00  0.00    -0.352 N 
ATOM      9  C   UNL A   1      30.209  28.457  22.613  1.00  0.00     0.046 A 
ATOM     10  H   UNL A   1      32.180  28.810  21.994  1.00  0.00     0.167 HD
ATOM     11  C   UNL A   1      29.669  27.366  23.288  1.00  0.00     0.007 A 
ATOM     12  C   UNL A   1      29.441  29.565  22.228  1.00  0.00     0.030 A 
ATOM     13  C   UNL A   1      28.284  27.348  23.552  1.00  0.00     0.049 A 
ATOM     14  C   UNL A   1      28.076  29.540  22.530  1.00  0.00     0.041 A 
ATOM     15  C   UNL A   1      27.513  28.441  23.165  1.00  0.00     0.123 A 
ATOM     16  F   UNL A   1      26.202  28.446  23.444  1.00  0.00    -0.207 F 
BRANCH   7  17
ATOM     17  C   UNL A   1      33.335  26.816  23.475  1.00  0.00     0.227 C 
ATOM     18  O   UNL A   1      34.134  27.753  23.510  1.00  0.00    -0.285 OA
BRANCH  17  19
ATOM     19  C   UNL A   1      33.847  25.405  23.694  1.00  0.00     0.113 A 
ATOM     20  C   UNL A   1      36.170  23.380  25.910  1.00  0.00     0.044 C 
ATOM     21  C   UNL A   1      35.209  23.768  24.824  1.00  0.00    -0.047 A 
ATOM     22  C   UNL A   1      35.070  22.940  23.709  1.00  0.00     0.023 A 
ATOM     23  C   UNL A   1      34.553  25.012  24.833  1.00  0.00     0.036 A 
ATOM     24  C   UNL A   1      34.285  23.372  22.657  1.00  0.00     0.112 A 
ATOM     25  N   UNL A   1      33.675  24.573  22.624  1.00  0.00    -0.253 NA
ENDBRANCH  17  19
ENDBRANCH   7  17
ENDBRANCH   5   6
ENDBRANCH   3   5
ENDBRANCH   2   3
ENDBRANCH   1   2
BRANCH   1  26
ATOM     26  C   UNL A   1      31.776  29.236  26.162  1.00  0.00     0.275 C 
BRANCH  26  27
ATOM     27  O   UNL A   1      33.042  29.883  25.885  1.00  0.00    -0.458 OA
BRANCH  27  28
ATOM     28  C   UNL A   1      33.355  30.821  26.802  1.00  0.00     0.338 C 
ATOM     29  O   UNL A   1      32.621  31.715  27.177  1.00  0.00    -0.246 OA
BRANCH  28  30
ATOM     30  C   UNL A   1      34.655  30.679  27.443  1.00  0.00     0.060 A 
ATOM     31  C   UNL A   1      34.969  29.448  28.019  1.00  0.00     0.016 A 
ATOM     32  C   UNL A   1      35.392  31.827  27.746  1.00  0.00     0.016 A 
ATOM     33  C   UNL A   1      36.034  29.362  28.908  1.00  0.00     0.010 A 
ATOM     34  C   UNL A   1      36.498  31.728  28.592  1.00  0.00     0.010 A 
ATOM     35  C   UNL A   1      36.827  30.492  29.170  1.00  0.00    -0.014 A 
BRANCH  35  36
ATOM     36  C   UNL A   1      38.122  30.303  29.857  1.00  0.00     0.031 A 
ATOM     37  C   UNL A   1      39.282  29.599  29.229  1.00  0.00     0.074 A 
ATOM     38  C   UNL A   1      38.214  30.810  31.100  1.00  0.00     0.049 A 
ATOM     39  N   UNL A   1      40.472  29.384  29.734  1.00  0.00    -0.248 NA
ATOM     40  C   UNL A   1      39.095  29.062  27.874  1.00  0.00     0.031 C 
ATOM     41  C   UNL A   1      37.128  31.507  31.799  1.00  0.00     0.029 A 
ATOM     42  N   UNL A   1      39.253  30.833  31.989  1.00  0.00    -0.354 N 
ATOM     43  C   UNL A   1      41.177  28.684  28.766  1.00  0.00     0.074 A 
ATOM     44  C   UNL A   1      40.275  28.494  27.647  1.00  0.00     0.031 C 
ATOM     45  C   UNL A   1      37.569  31.915  32.995  1.00  0.00     0.029 A 
ATOM     46  C   UNL A   1      38.945  31.470  33.164  1.00  0.00     0.049 A 
ATOM     47  H   UNL A   1      40.133  30.432  31.804  1.00  0.00     0.167 HD
ATOM     48  C   UNL A   1      42.460  28.248  28.817  1.00  0.00     0.037 A 
ATOM     49  C   UNL A   1      39.684  31.666  34.268  1.00  0.00     0.037 A 
ATOM     50  C   UNL A   1      43.349  28.456  29.936  1.00  0.00     0.049 A 
ATOM     51  C   UNL A   1      41.090  31.162  34.297  1.00  0.00     0.074 A 
ATOM     52  C   UNL A   1      44.680  28.094  30.059  1.00  0.00     0.029 A 
ATOM     53  N   UNL A   1      42.995  29.077  31.125  1.00  0.00    -0.354 N 
ATOM     54  N   UNL A   1      41.753  30.525  33.364  1.00  0.00    -0.248 NA
ATOM     55  C   UNL A   1      41.850  31.398  35.530  1.00  0.00     0.031 C 
ATOM     56  C   UNL A   1      45.120  28.461  31.337  1.00  0.00     0.029 A 
ATOM     57  C   UNL A   1      44.074  29.085  31.997  1.00  0.00     0.049 A 
ATOM     58  H   UNL A   1      42.108  29.456  31.322  1.00  0.00     0.167 HD
ATOM     59  C   UNL A   1      43.011  30.287  33.891  1.00  0.00     0.074 A 
ATOM     60  C   UNL A   1      43.023  30.866  35.221  1.00  0.00     0.031 C 
ATOM     61  C   UNL A   1      44.060  29.644  33.325  1.00  0.00     0.037 A 
BRANCH  48  62
ATOM     62  C   UNL A   1      42.992  27.491  27.636  1.00  0.00     0.057 A 
ATOM     63  C   UNL A   1      42.883  26.098  27.544  1.00  0.00     0.134 A 
ATOM     64  C   UNL A   1      43.541  28.171  26.542  1.00  0.00     0.134 A 
ATOM     65  F   UNL A   1      42.365  25.387  28.556  1.00  0.00    -0.206 F 
ATOM     66  C   UNL A   1      43.310  25.407  26.406  1.00  0.00     0.040 A 
ATOM     67  C   UNL A   1      43.954  27.493  25.392  1.00  0.00     0.040 A 
ATOM     68  F   UNL A   1      43.663  29.507  26.561  1.00  0.00    -0.206 F 
ATOM     69  C   UNL A   1      43.840  26.107  25.323  1.00  0.00     0.006 A 
ENDBRANCH  48  62
BRANCH  49  70
ATOM     70  C   UNL A   1      39.083  32.383  35.414  1.00  0.00     0.057 A 
ATOM     71  C   UNL A   1      38.356  31.697  36.391  1.00  0.00     0.134 A 
ATOM     72  C   UNL A   1      39.297  33.754  35.602  1.00  0.00     0.134 A 
ATOM     73  F   UNL A   1      38.115  30.385  36.257  1.00  0.00    -0.206 F 
ATOM     74  C   UNL A   1      37.862  32.350  37.520  1.00  0.00     0.040 A 
ATOM     75  C   UNL A   1      38.828  34.415  36.735  1.00  0.00     0.040 A 
ATOM     76  F   UNL A   1      40.005  34.458  34.706  1.00  0.00    -0.206 F 
ATOM     77  C   UNL A   1      38.107  33.711  37.699  1.00  0.00     0.006 A 
ENDBRANCH  49  70
BRANCH  61  78
ATOM     78  C   UNL A   1      45.301  29.538  34.155  1.00  0.00     0.057 A 
ATOM     79  C   UNL A   1      46.290  30.528  34.119  1.00  0.00     0.134 A 
ATOM     80  C   UNL A   1      45.513  28.434  34.990  1.00  0.00     0.134 A 
ATOM     81  F   UNL A   1      46.151  31.599  33.323  1.00  0.00    -0.206 F 
ATOM     82  C   UNL A   1      47.460  30.414  34.871  1.00  0.00     0.040 A 
ATOM     83  C   UNL A   1      46.670  28.318  35.760  1.00  0.00     0.040 A 
ATOM     84  F   UNL A   1      44.601  27.453  35.067  1.00  0.00    -0.206 F 
ATOM     85  C   UNL A   1      47.651  29.307  35.696  1.00  0.00     0.006 A 
ENDBRANCH  61  78
ENDBRANCH  35  36
ENDBRANCH  28  30
ENDBRANCH  27  28
ENDBRANCH  26  27
ENDBRANCH   1  26
TORSDOF 14
ENDMDL
