MODEL 1
REMARK VINA RESULT:     -10.1      0.000      0.000
REMARK SMILES CSc1ncc(Cl)c(C(=O)Nc2ccsc2C(=O)OCCOC(=O)c2ccc(-c3c4nc(c(-c5c(F)cccc5F)c5ccc([nH]5)c(-c5c(F)cccc5F)c5nc(c(-c6c(F)cccc6F)c6ccc3[nH]6)C=C5)C=C4)cc2)n1
REMARK SMILES IDX 20 1 19 2 17 3 18 4 16 5 12 6 13 7 14 8 15 9 11 10 9 11
REMARK SMILES IDX 10 12 8 14 3 15 4 16 79 17 5 18 6 19 7 20 2 21 1 22 21 23
REMARK SMILES IDX 22 24 23 25 24 26 25 27 26 28 78 29 27 30 77 31 28 32 29 33
REMARK SMILES IDX 30 34 71 35 31 36 76 37 70 38 72 39 32 40 75 41 69 42 68 43
REMARK SMILES IDX 33 45 59 46 42 47 58 48 43 49 46 50 57 51 73 52 44 53 45 54
REMARK SMILES IDX 56 56 74 57 47 58 34 59 35 60 40 61 36 62 37 63 39 64 41 65
REMARK SMILES IDX 38 66 60 67 61 68 66 69 62 70 63 71 65 72 67 73 64 74 48 75
REMARK SMILES IDX 49 76 54 77 50 78 51 79 53 80 55 81 52 82
REMARK H PARENT 11 13 72 44 46 55
REMARK Flexibility Score: inf
ROOT
ATOM      1  C   UNL A   1      40.918  19.968  26.518  1.00  0.00     0.275 C 
ENDROOT
BRANCH   1   2
ATOM      2  O   UNL A   1      42.109  20.267  25.758  1.00  0.00    -0.458 OA
BRANCH   2   3
ATOM      3  C   UNL A   1      42.977  19.227  25.565  1.00  0.00     0.350 C 
ATOM      4  O   UNL A   1      42.643  18.047  25.628  1.00  0.00    -0.245 OA
BRANCH   3   5
ATOM      5  C   UNL A   1      44.316  19.714  25.255  1.00  0.00     0.136 A 
ATOM      6  C   UNL A   1      44.774  20.941  24.779  1.00  0.00     0.067 A 
ATOM      7  C   UNL A   1      46.194  20.936  24.596  1.00  0.00     0.039 A 
ATOM      8  C   UNL A   1      46.762  19.713  24.869  1.00  0.00     0.068 A 
ATOM      9  S   UNL A   1      45.613  18.589  25.420  1.00  0.00    -0.135 S 
BRANCH   6  10
ATOM     10  N   UNL A   1      43.919  22.012  24.545  1.00  0.00    -0.319 N 
ATOM     11  C   UNL A   1      43.589  23.103  25.322  1.00  0.00     0.276 C 
ATOM     12  O   UNL A   1      42.581  23.748  25.020  1.00  0.00    -0.267 OA
ATOM     13  H   UNL A   1      43.470  21.987  23.670  1.00  0.00     0.170 HD
BRANCH  11  14
ATOM     14  C   UNL A   1      44.436  23.595  26.452  1.00  0.00     0.151 A 
ATOM     15  C   UNL A   1      46.464  24.542  27.007  1.00  0.00     0.188 A 
ATOM     16  N   UNL A   1      46.237  24.386  28.319  1.00  0.00    -0.230 NA
ATOM     17  N   UNL A   1      45.589  24.209  26.049  1.00  0.00    -0.216 NA
ATOM     18  C   UNL A   1      45.092  23.773  28.673  1.00  0.00     0.137 A 
ATOM     19  C   UNL A   1      44.158  23.309  27.777  1.00  0.00     0.090 A 
ATOM     20  Cl  UNL A   1      42.853  22.382  28.384  1.00  0.00    -0.080 Cl
BRANCH  15  21
ATOM     21  S   UNL A   1      48.094  25.109  26.592  1.00  0.00    -0.090 SA
ATOM     22  C   UNL A   1      48.869  25.198  28.220  1.00  0.00     0.094 C 
ENDBRANCH  15  21
ENDBRANCH  11  14
ENDBRANCH   6  10
ENDBRANCH   3   5
ENDBRANCH   2   3
ENDBRANCH   1   2
BRANCH   1  23
ATOM     23  C   UNL A   1      39.748  20.866  26.113  1.00  0.00     0.275 C 
BRANCH  23  24
ATOM     24  O   UNL A   1      40.062  22.253  26.327  1.00  0.00    -0.458 OA
BRANCH  24  25
ATOM     25  C   UNL A   1      39.024  23.109  26.185  1.00  0.00     0.338 C 
ATOM     26  O   UNL A   1      37.966  22.896  25.623  1.00  0.00    -0.246 OA
BRANCH  25  27
ATOM     27  C   UNL A   1      39.309  24.355  26.913  1.00  0.00     0.060 A 
ATOM     28  C   UNL A   1      40.029  25.356  26.258  1.00  0.00     0.016 A 
ATOM     29  C   UNL A   1      38.942  24.503  28.253  1.00  0.00     0.016 A 
ATOM     30  C   UNL A   1      40.383  26.519  26.942  1.00  0.00     0.010 A 
ATOM     31  C   UNL A   1      39.296  25.674  28.936  1.00  0.00     0.010 A 
ATOM     32  C   UNL A   1      40.025  26.687  28.288  1.00  0.00    -0.014 A 
BRANCH  32  33
ATOM     33  C   UNL A   1      40.436  27.915  29.016  1.00  0.00     0.031 A 
ATOM     34  C   UNL A   1      41.825  28.038  29.577  1.00  0.00     0.074 A 
ATOM     35  C   UNL A   1      39.561  28.928  29.167  1.00  0.00     0.049 A 
ATOM     36  N   UNL A   1      42.348  29.006  30.285  1.00  0.00    -0.248 NA
ATOM     37  C   UNL A   1      42.748  26.924  29.308  1.00  0.00     0.031 C 
ATOM     38  C   UNL A   1      38.191  28.942  28.656  1.00  0.00     0.029 A 
ATOM     39  N   UNL A   1      39.696  30.140  29.799  1.00  0.00    -0.354 N 
ATOM     40  C   UNL A   1      43.652  28.615  30.563  1.00  0.00     0.074 A 
ATOM     41  C   UNL A   1      43.838  27.312  29.957  1.00  0.00     0.031 C 
ATOM     42  C   UNL A   1      37.610  30.106  28.996  1.00  0.00     0.029 A 
ATOM     43  C   UNL A   1      38.552  30.900  29.780  1.00  0.00     0.049 A 
ATOM     44  H   UNL A   1      40.534  30.436  30.225  1.00  0.00     0.167 HD
ATOM     45  C   UNL A   1      44.606  29.281  31.255  1.00  0.00     0.037 A 
ATOM     46  C   UNL A   1      38.285  32.090  30.351  1.00  0.00     0.037 A 
ATOM     47  C   UNL A   1      44.433  30.587  31.838  1.00  0.00     0.049 A 
ATOM     48  C   UNL A   1      39.354  32.792  31.141  1.00  0.00     0.074 A 
ATOM     49  C   UNL A   1      45.361  31.354  32.523  1.00  0.00     0.029 A 
ATOM     50  N   UNL A   1      43.257  31.317  31.807  1.00  0.00    -0.354 N 
ATOM     51  N   UNL A   1      40.590  32.421  31.371  1.00  0.00    -0.248 NA
ATOM     52  C   UNL A   1      38.991  34.079  31.753  1.00  0.00     0.031 C 
ATOM     53  C   UNL A   1      44.734  32.532  32.942  1.00  0.00     0.029 A 
ATOM     54  C   UNL A   1      43.427  32.516  32.481  1.00  0.00     0.049 A 
ATOM     55  H   UNL A   1      42.422  31.028  31.371  1.00  0.00     0.167 HD
ATOM     56  C   UNL A   1      41.153  33.433  32.137  1.00  0.00     0.074 A 
ATOM     57  C   UNL A   1      40.132  34.443  32.317  1.00  0.00     0.031 C 
ATOM     58  C   UNL A   1      42.405  33.515  32.650  1.00  0.00     0.037 A 
BRANCH  45  59
ATOM     59  C   UNL A   1      45.931  28.605  31.442  1.00  0.00     0.057 A 
ATOM     60  C   UNL A   1      46.182  27.755  32.526  1.00  0.00     0.134 A 
ATOM     61  C   UNL A   1      46.944  28.751  30.485  1.00  0.00     0.134 A 
ATOM     62  F   UNL A   1      45.256  27.579  33.480  1.00  0.00    -0.206 F 
ATOM     63  C   UNL A   1      47.399  27.082  32.657  1.00  0.00     0.040 A 
ATOM     64  C   UNL A   1      48.156  28.070  30.595  1.00  0.00     0.040 A 
ATOM     65  F   UNL A   1      46.763  29.546  29.419  1.00  0.00    -0.206 F 
ATOM     66  C   UNL A   1      48.387  27.233  31.686  1.00  0.00     0.006 A 
ENDBRANCH  45  59
BRANCH  46  67
ATOM     67  C   UNL A   1      36.931  32.686  30.223  1.00  0.00     0.057 A 
ATOM     68  C   UNL A   1      36.622  33.577  29.189  1.00  0.00     0.134 A 
ATOM     69  C   UNL A   1      35.923  32.402  31.153  1.00  0.00     0.134 A 
ATOM     70  F   UNL A   1      37.554  33.909  28.283  1.00  0.00    -0.206 F 
ATOM     71  C   UNL A   1      35.365  34.177  29.094  1.00  0.00     0.040 A 
ATOM     72  C   UNL A   1      34.655  32.975  31.055  1.00  0.00     0.040 A 
ATOM     73  F   UNL A   1      36.157  31.558  32.169  1.00  0.00    -0.206 F 
ATOM     74  C   UNL A   1      34.376  33.872  30.027  1.00  0.00     0.006 A 
ENDBRANCH  46  67
BRANCH  58  75
ATOM     75  C   UNL A   1      42.747  34.748  33.431  1.00  0.00     0.057 A 
ATOM     76  C   UNL A   1      43.226  35.907  32.807  1.00  0.00     0.134 A 
ATOM     77  C   UNL A   1      42.563  34.789  34.820  1.00  0.00     0.134 A 
ATOM     78  F   UNL A   1      43.436  35.927  31.481  1.00  0.00    -0.206 F 
ATOM     79  C   UNL A   1      43.529  37.056  33.537  1.00  0.00     0.040 A 
ATOM     80  C   UNL A   1      42.842  35.939  35.558  1.00  0.00     0.040 A 
ATOM     81  F   UNL A   1      42.101  33.715  35.477  1.00  0.00    -0.206 F 
ATOM     82  C   UNL A   1      43.330  37.076  34.918  1.00  0.00     0.006 A 
ENDBRANCH  58  75
ENDBRANCH  32  33
ENDBRANCH  25  27
ENDBRANCH  24  25
ENDBRANCH  23  24
ENDBRANCH   1  23
TORSDOF 14
ENDMDL
MODEL 2
REMARK VINA RESULT:     -10.1      5.389     10.337
REMARK SMILES CSc1ncc(Cl)c(C(=O)Nc2ccsc2C(=O)OCCOC(=O)c2ccc(-c3c4nc(c(-c5c(F)cccc5F)c5ccc([nH]5)c(-c5c(F)cccc5F)c5nc(c(-c6c(F)cccc6F)c6ccc3[nH]6)C=C5)C=C4)cc2)n1
REMARK SMILES IDX 20 1 19 2 17 3 18 4 16 5 12 6 13 7 14 8 15 9 11 10 9 11
REMARK SMILES IDX 10 12 8 14 3 15 4 16 79 17 5 18 6 19 7 20 2 21 1 22 21 23
REMARK SMILES IDX 22 24 23 25 24 26 25 27 26 28 78 29 27 30 77 31 28 32 29 33
REMARK SMILES IDX 30 34 71 35 31 36 76 37 70 38 72 39 32 40 75 41 69 42 68 43
REMARK SMILES IDX 33 45 59 46 42 47 58 48 43 49 46 50 57 51 73 52 44 53 45 54
REMARK SMILES IDX 56 56 74 57 47 58 34 59 35 60 40 61 36 62 37 63 39 64 41 65
REMARK SMILES IDX 38 66 60 67 61 68 66 69 62 70 63 71 65 72 67 73 64 74 48 75
REMARK SMILES IDX 49 76 54 77 50 78 51 79 53 80 55 81 52 82
REMARK H PARENT 11 13 72 44 46 55
REMARK Flexibility Score: inf
ROOT
ATOM      1  C   UNL A   1      31.987  29.210  26.335  1.00  0.00     0.275 C 
ENDROOT
BRANCH   1   2
ATOM      2  O   UNL A   1      31.391  28.331  25.357  1.00  0.00    -0.458 OA
BRANCH   2   3
ATOM      3  C   UNL A   1      31.235  27.026  25.737  1.00  0.00     0.350 C 
ATOM      4  O   UNL A   1      31.052  26.677  26.900  1.00  0.00    -0.245 OA
BRANCH   3   5
ATOM      5  C   UNL A   1      31.293  26.135  24.583  1.00  0.00     0.136 A 
ATOM      6  C   UNL A   1      30.957  24.792  24.425  1.00  0.00     0.067 A 
ATOM      7  C   UNL A   1      31.222  24.339  23.093  1.00  0.00     0.039 A 
ATOM      8  C   UNL A   1      31.801  25.307  22.305  1.00  0.00     0.068 A 
ATOM      9  S   UNL A   1      31.958  26.785  23.130  1.00  0.00    -0.135 S 
BRANCH   6  10
ATOM     10  N   UNL A   1      30.416  24.037  25.458  1.00  0.00    -0.319 N 
ATOM     11  C   UNL A   1      30.671  22.747  25.877  1.00  0.00     0.276 C 
ATOM     12  O   UNL A   1      29.849  22.204  26.619  1.00  0.00    -0.267 OA
ATOM     13  H   UNL A   1      29.729  24.504  25.985  1.00  0.00     0.170 HD
BRANCH  11  14
ATOM     14  C   UNL A   1      31.933  22.011  25.553  1.00  0.00     0.151 A 
ATOM     15  C   UNL A   1      32.815  19.970  24.945  1.00  0.00     0.188 A 
ATOM     16  N   UNL A   1      34.072  20.408  25.102  1.00  0.00    -0.230 NA
ATOM     17  N   UNL A   1      31.727  20.734  25.113  1.00  0.00    -0.216 NA
ATOM     18  C   UNL A   1      34.229  21.670  25.542  1.00  0.00     0.137 A 
ATOM     19  C   UNL A   1      33.189  22.520  25.831  1.00  0.00     0.090 A 
ATOM     20  Cl  UNL A   1      33.558  24.024  26.563  1.00  0.00    -0.080 Cl
BRANCH  15  21
ATOM     21  S   UNL A   1      32.663  18.231  24.625  1.00  0.00    -0.090 SA
ATOM     22  C   UNL A   1      32.448  18.212  22.833  1.00  0.00     0.094 C 
ENDBRANCH  15  21
ENDBRANCH  11  14
ENDBRANCH   6  10
ENDBRANCH   3   5
ENDBRANCH   2   3
ENDBRANCH   1   2
BRANCH   1  23
ATOM     23  C   UNL A   1      33.516  29.166  26.279  1.00  0.00     0.275 C 
BRANCH  23  24
ATOM     24  O   UNL A   1      34.079  29.073  27.600  1.00  0.00    -0.458 OA
BRANCH  24  25
ATOM     25  C   UNL A   1      34.695  30.194  28.045  1.00  0.00     0.338 C 
ATOM     26  O   UNL A   1      34.186  31.279  28.255  1.00  0.00    -0.246 OA
BRANCH  25  27
ATOM     27  C   UNL A   1      36.102  29.894  28.348  1.00  0.00     0.060 A 
ATOM     28  C   UNL A   1      37.052  30.076  27.341  1.00  0.00     0.016 A 
ATOM     29  C   UNL A   1      36.473  29.363  29.586  1.00  0.00     0.016 A 
ATOM     30  C   UNL A   1      38.383  29.731  27.568  1.00  0.00     0.010 A 
ATOM     31  C   UNL A   1      37.812  29.021  29.814  1.00  0.00     0.010 A 
ATOM     32  C   UNL A   1      38.775  29.195  28.805  1.00  0.00    -0.014 A 
BRANCH  32  33
ATOM     33  C   UNL A   1      40.191  28.800  29.026  1.00  0.00     0.031 A 
ATOM     34  C   UNL A   1      41.158  29.762  29.658  1.00  0.00     0.074 A 
ATOM     35  C   UNL A   1      40.608  27.571  28.666  1.00  0.00     0.049 A 
ATOM     36  N   UNL A   1      42.439  29.618  29.884  1.00  0.00    -0.248 NA
ATOM     37  C   UNL A   1      40.612  31.057  30.094  1.00  0.00     0.031 C 
ATOM     38  C   UNL A   1      39.767  26.540  28.060  1.00  0.00     0.029 A 
ATOM     39  N   UNL A   1      41.847  26.986  28.754  1.00  0.00    -0.354 N 
ATOM     40  C   UNL A   1      42.859  30.806  30.469  1.00  0.00     0.074 A 
ATOM     41  C   UNL A   1      41.698  31.667  30.554  1.00  0.00     0.031 C 
ATOM     42  C   UNL A   1      40.515  25.447  27.830  1.00  0.00     0.029 A 
ATOM     43  C   UNL A   1      41.892  25.715  28.235  1.00  0.00     0.049 A 
ATOM     44  H   UNL A   1      42.628  27.434  29.153  1.00  0.00     0.167 HD
ATOM     45  C   UNL A   1      44.098  31.145  30.899  1.00  0.00     0.037 A 
ATOM     46  C   UNL A   1      42.931  24.871  28.079  1.00  0.00     0.037 A 
ATOM     47  C   UNL A   1      45.250  30.283  30.839  1.00  0.00     0.049 A 
ATOM     48  C   UNL A   1      44.300  25.287  28.537  1.00  0.00     0.074 A 
ATOM     49  C   UNL A   1      46.536  30.532  31.289  1.00  0.00     0.029 A 
ATOM     50  N   UNL A   1      45.257  29.009  30.294  1.00  0.00    -0.354 N 
ATOM     51  N   UNL A   1      44.676  26.403  29.113  1.00  0.00    -0.248 NA
ATOM     52  C   UNL A   1      45.393  24.327  28.322  1.00  0.00     0.031 C 
ATOM     53  C   UNL A   1      47.331  29.423  30.981  1.00  0.00     0.029 A 
ATOM     54  C   UNL A   1      46.530  28.468  30.376  1.00  0.00     0.049 A 
ATOM     55  H   UNL A   1      44.474  28.555  29.907  1.00  0.00     0.167 HD
ATOM     56  C   UNL A   1      46.040  26.272  29.343  1.00  0.00     0.074 A 
ATOM     57  C   UNL A   1      46.423  24.962  28.862  1.00  0.00     0.031 C 
ATOM     58  C   UNL A   1      46.898  27.161  29.899  1.00  0.00     0.037 A 
BRANCH  45  59
ATOM     59  C   UNL A   1      44.286  32.522  31.462  1.00  0.00     0.057 A 
ATOM     60  C   UNL A   1      44.177  32.782  32.834  1.00  0.00     0.134 A 
ATOM     61  C   UNL A   1      44.653  33.586  30.628  1.00  0.00     0.134 A 
ATOM     62  F   UNL A   1      43.822  31.807  33.684  1.00  0.00    -0.206 F 
ATOM     63  C   UNL A   1      44.415  34.055  33.355  1.00  0.00     0.040 A 
ATOM     64  C   UNL A   1      44.912  34.858  31.139  1.00  0.00     0.040 A 
ATOM     65  F   UNL A   1      44.782  33.400  29.305  1.00  0.00    -0.206 F 
ATOM     66  C   UNL A   1      44.792  35.096  32.507  1.00  0.00     0.006 A 
ENDBRANCH  45  59
BRANCH  46  67
ATOM     67  C   UNL A   1      42.724  23.552  27.431  1.00  0.00     0.057 A 
ATOM     68  C   UNL A   1      42.858  23.391  26.047  1.00  0.00     0.134 A 
ATOM     69  C   UNL A   1      42.357  22.427  28.179  1.00  0.00     0.134 A 
ATOM     70  F   UNL A   1      43.180  24.438  25.274  1.00  0.00    -0.206 F 
ATOM     71  C   UNL A   1      42.616  22.163  25.429  1.00  0.00     0.040 A 
ATOM     72  C   UNL A   1      42.138  21.187  27.577  1.00  0.00     0.040 A 
ATOM     73  F   UNL A   1      42.211  22.516  29.510  1.00  0.00    -0.206 F 
ATOM     74  C   UNL A   1      42.260  21.055  26.196  1.00  0.00     0.006 A 
ENDBRANCH  46  67
BRANCH  58  75
ATOM     75  C   UNL A   1      48.329  26.736  30.040  1.00  0.00     0.057 A 
ATOM     76  C   UNL A   1      48.771  25.987  31.138  1.00  0.00     0.134 A 
ATOM     77  C   UNL A   1      49.270  27.050  29.050  1.00  0.00     0.134 A 
ATOM     78  F   UNL A   1      47.921  25.666  32.126  1.00  0.00    -0.206 F 
ATOM     79  C   UNL A   1      50.100  25.583  31.257  1.00  0.00     0.040 A 
ATOM     80  C   UNL A   1      50.597  26.632  29.147  1.00  0.00     0.040 A 
ATOM     81  F   UNL A   1      48.909  27.759  27.968  1.00  0.00    -0.206 F 
ATOM     82  C   UNL A   1      51.017  25.900  30.255  1.00  0.00     0.006 A 
ENDBRANCH  58  75
ENDBRANCH  32  33
ENDBRANCH  25  27
ENDBRANCH  24  25
ENDBRANCH  23  24
ENDBRANCH   1  23
TORSDOF 14
ENDMDL
MODEL 3
REMARK VINA RESULT:     -10.0      1.772      6.415
REMARK SMILES CSc1ncc(Cl)c(C(=O)Nc2ccsc2C(=O)OCCOC(=O)c2ccc(-c3c4nc(c(-c5c(F)cccc5F)c5ccc([nH]5)c(-c5c(F)cccc5F)c5nc(c(-c6c(F)cccc6F)c6ccc3[nH]6)C=C5)C=C4)cc2)n1
REMARK SMILES IDX 20 1 19 2 17 3 18 4 16 5 12 6 13 7 14 8 15 9 11 10 9 11
REMARK SMILES IDX 10 12 8 14 3 15 4 16 79 17 5 18 6 19 7 20 2 21 1 22 21 23
REMARK SMILES IDX 22 24 23 25 24 26 25 27 26 28 78 29 27 30 77 31 28 32 29 33
REMARK SMILES IDX 30 34 71 35 31 36 76 37 70 38 72 39 32 40 75 41 69 42 68 43
REMARK SMILES IDX 33 45 59 46 42 47 58 48 43 49 46 50 57 51 73 52 44 53 45 54
REMARK SMILES IDX 56 56 74 57 47 58 34 59 35 60 40 61 36 62 37 63 39 64 41 65
REMARK SMILES IDX 38 66 60 67 61 68 66 69 62 70 63 71 65 72 67 73 64 74 48 75
REMARK SMILES IDX 49 76 54 77 50 78 51 79 53 80 55 81 52 82
REMARK H PARENT 11 13 72 44 46 55
REMARK Flexibility Score: inf
ROOT
ATOM      1  C   UNL A   1      41.683  20.307  26.997  1.00  0.00     0.275 C 
ENDROOT
BRANCH   1   2
ATOM      2  O   UNL A   1      42.239  20.159  25.673  1.00  0.00    -0.458 OA
BRANCH   2   3
ATOM      3  C   UNL A   1      43.079  19.094  25.489  1.00  0.00     0.350 C 
ATOM      4  O   UNL A   1      42.705  17.925  25.524  1.00  0.00    -0.245 OA
BRANCH   3   5
ATOM      5  C   UNL A   1      44.441  19.542  25.225  1.00  0.00     0.136 A 
ATOM      6  C   UNL A   1      44.951  20.754  24.762  1.00  0.00     0.067 A 
ATOM      7  C   UNL A   1      46.375  20.707  24.629  1.00  0.00     0.039 A 
ATOM      8  C   UNL A   1      46.899  19.470  24.924  1.00  0.00     0.068 A 
ATOM      9  S   UNL A   1      45.699  18.381  25.438  1.00  0.00    -0.135 S 
BRANCH   6  10
ATOM     10  N   UNL A   1      44.136  21.847  24.496  1.00  0.00    -0.319 N 
ATOM     11  C   UNL A   1      43.799  22.943  25.264  1.00  0.00     0.276 C 
ATOM     12  O   UNL A   1      42.823  23.616  24.920  1.00  0.00    -0.267 OA
ATOM     13  H   UNL A   1      43.725  21.839  23.602  1.00  0.00     0.170 HD
BRANCH  11  14
ATOM     14  C   UNL A   1      44.607  23.408  26.433  1.00  0.00     0.151 A 
ATOM     15  C   UNL A   1      44.651  23.603  28.730  1.00  0.00     0.188 A 
ATOM     16  N   UNL A   1      45.780  24.326  28.699  1.00  0.00    -0.230 NA
ATOM     17  N   UNL A   1      44.058  23.091  27.644  1.00  0.00    -0.216 NA
ATOM     18  C   UNL A   1      46.284  24.621  27.487  1.00  0.00     0.137 A 
ATOM     19  C   UNL A   1      45.716  24.225  26.299  1.00  0.00     0.090 A 
ATOM     20  Cl  UNL A   1      46.375  24.846  24.846  1.00  0.00    -0.080 Cl
BRANCH  15  21
ATOM     21  S   UNL A   1      43.890  23.473  30.328  1.00  0.00    -0.090 SA
ATOM     22  C   UNL A   1      44.838  24.679  31.279  1.00  0.00     0.094 C 
ENDBRANCH  15  21
ENDBRANCH  11  14
ENDBRANCH   6  10
ENDBRANCH   3   5
ENDBRANCH   2   3
ENDBRANCH   1   2
BRANCH   1  23
ATOM     23  C   UNL A   1      40.289  20.938  26.958  1.00  0.00     0.275 C 
BRANCH  23  24
ATOM     24  O   UNL A   1      40.275  22.106  26.118  1.00  0.00    -0.458 OA
BRANCH  24  25
ATOM     25  C   UNL A   1      39.167  22.877  26.222  1.00  0.00     0.338 C 
ATOM     26  O   UNL A   1      38.020  22.555  25.974  1.00  0.00    -0.246 OA
BRANCH  25  27
ATOM     27  C   UNL A   1      39.529  24.184  26.790  1.00  0.00     0.060 A 
ATOM     28  C   UNL A   1      40.082  25.146  25.942  1.00  0.00     0.016 A 
ATOM     29  C   UNL A   1      39.400  24.433  28.158  1.00  0.00     0.016 A 
ATOM     30  C   UNL A   1      40.507  26.369  26.460  1.00  0.00     0.010 A 
ATOM     31  C   UNL A   1      39.824  25.664  28.676  1.00  0.00     0.010 A 
ATOM     32  C   UNL A   1      40.388  26.638  27.833  1.00  0.00    -0.014 A 
BRANCH  32  33
ATOM     33  C   UNL A   1      40.873  27.931  28.379  1.00  0.00     0.031 A 
ATOM     34  C   UNL A   1      39.896  28.964  28.867  1.00  0.00     0.074 A 
ATOM     35  C   UNL A   1      42.196  28.176  28.447  1.00  0.00     0.049 A 
ATOM     36  N   UNL A   1      40.126  30.168  29.327  1.00  0.00    -0.248 NA
ATOM     37  C   UNL A   1      38.472  28.596  28.833  1.00  0.00     0.031 C 
ATOM     38  C   UNL A   1      43.247  27.252  28.024  1.00  0.00     0.029 A 
ATOM     39  N   UNL A   1      42.880  29.280  28.892  1.00  0.00    -0.354 N 
ATOM     40  C   UNL A   1      38.881  30.710  29.619  1.00  0.00     0.074 A 
ATOM     41  C   UNL A   1      37.895  29.707  29.274  1.00  0.00     0.031 C 
ATOM     42  C   UNL A   1      44.443  27.828  28.229  1.00  0.00     0.029 A 
ATOM     43  C   UNL A   1      44.242  29.173  28.760  1.00  0.00     0.049 A 
ATOM     44  H   UNL A   1      42.435  30.074  29.271  1.00  0.00     0.167 HD
ATOM     45  C   UNL A   1      38.588  31.928  30.132  1.00  0.00     0.037 A 
ATOM     46  C   UNL A   1      45.218  30.067  29.014  1.00  0.00     0.037 A 
ATOM     47  C   UNL A   1      39.567  32.919  30.500  1.00  0.00     0.049 A 
ATOM     48  C   UNL A   1      44.860  31.424  29.553  1.00  0.00     0.074 A 
ATOM     49  C   UNL A   1      39.359  34.166  31.064  1.00  0.00     0.029 A 
ATOM     50  N   UNL A   1      40.935  32.777  30.339  1.00  0.00    -0.354 N 
ATOM     51  N   UNL A   1      43.679  31.911  29.849  1.00  0.00    -0.248 NA
ATOM     52  C   UNL A   1      45.970  32.358  29.791  1.00  0.00     0.031 C 
ATOM     53  C   UNL A   1      40.600  34.795  31.208  1.00  0.00     0.029 A 
ATOM     54  C   UNL A   1      41.583  33.922  30.771  1.00  0.00     0.049 A 
ATOM     55  H   UNL A   1      41.382  31.979  29.972  1.00  0.00     0.167 HD
ATOM     56  C   UNL A   1      43.907  33.197  30.323  1.00  0.00     0.074 A 
ATOM     57  C   UNL A   1      45.338  33.408  30.293  1.00  0.00     0.031 C 
ATOM     58  C   UNL A   1      43.008  34.120  30.741  1.00  0.00     0.037 A 
BRANCH  45  59
ATOM     59  C   UNL A   1      37.141  32.277  30.314  1.00  0.00     0.057 A 
ATOM     60  C   UNL A   1      36.468  32.038  31.518  1.00  0.00     0.134 A 
ATOM     61  C   UNL A   1      36.433  32.926  29.294  1.00  0.00     0.134 A 
ATOM     62  F   UNL A   1      37.087  31.413  32.531  1.00  0.00    -0.206 F 
ATOM     63  C   UNL A   1      35.138  32.423  31.698  1.00  0.00     0.040 A 
ATOM     64  C   UNL A   1      35.110  33.333  29.468  1.00  0.00     0.040 A 
ATOM     65  F   UNL A   1      37.024  33.191  28.118  1.00  0.00    -0.206 F 
ATOM     66  C   UNL A   1      34.458  33.080  30.673  1.00  0.00     0.006 A 
ENDBRANCH  45  59
BRANCH  46  67
ATOM     67  C   UNL A   1      46.633  29.720  28.733  1.00  0.00     0.057 A 
ATOM     68  C   UNL A   1      47.452  29.148  29.714  1.00  0.00     0.134 A 
ATOM     69  C   UNL A   1      47.209  29.980  27.483  1.00  0.00     0.134 A 
ATOM     70  F   UNL A   1      46.965  28.900  30.939  1.00  0.00    -0.206 F 
ATOM     71  C   UNL A   1      48.796  28.865  29.468  1.00  0.00     0.040 A 
ATOM     72  C   UNL A   1      48.545  29.678  27.216  1.00  0.00     0.040 A 
ATOM     73  F   UNL A   1      46.478  30.528  26.501  1.00  0.00    -0.206 F 
ATOM     74  C   UNL A   1      49.345  29.126  28.213  1.00  0.00     0.006 A 
ENDBRANCH  46  67
BRANCH  58  75
ATOM     75  C   UNL A   1      43.548  35.434  31.223  1.00  0.00     0.057 A 
ATOM     76  C   UNL A   1      43.780  36.501  30.346  1.00  0.00     0.134 A 
ATOM     77  C   UNL A   1      43.808  35.645  32.583  1.00  0.00     0.134 A 
ATOM     78  F   UNL A   1      43.563  36.358  29.029  1.00  0.00    -0.206 F 
ATOM     79  C   UNL A   1      44.269  37.725  30.802  1.00  0.00     0.040 A 
ATOM     80  C   UNL A   1      44.276  36.871  33.054  1.00  0.00     0.040 A 
ATOM     81  F   UNL A   1      43.600  34.665  33.476  1.00  0.00    -0.206 F 
ATOM     82  C   UNL A   1      44.512  37.915  32.161  1.00  0.00     0.006 A 
ENDBRANCH  58  75
ENDBRANCH  32  33
ENDBRANCH  25  27
ENDBRANCH  24  25
ENDBRANCH  23  24
ENDBRANCH   1  23
TORSDOF 14
ENDMDL
