MODEL 1
REMARK VINA RESULT:     -11.9      0.000      0.000
REMARK SMILES C[C@H]1[C@@H](C(=O)OCCOC(=O)c2ccc(-c3c4nc(c(-c5c(F)cccc5F)c5ccc([nH]5)c(-c5c(F)cccc5F)c5nc(c(-c6c(F)cccc6F)c6ccc3[nH]6)C=C5)C=C4)cc2)CCN1S(=O)(=O)c1ccc(Cl)cc1
REMARK SMILES IDX 7 1 6 2 4 3 5 4 3 5 1 6 2 7 68 8 66 9 67 10 69 11 70 12
REMARK SMILES IDX 71 13 72 14 73 15 78 16 74 17 77 18 75 19 76 20 8 21 9 22
REMARK SMILES IDX 10 23 11 24 12 25 13 26 65 27 14 28 64 29 15 30 16 31 17 32
REMARK SMILES IDX 58 33 18 34 63 35 57 36 59 37 19 38 62 39 56 40 55 41 20 43
REMARK SMILES IDX 46 44 29 45 45 46 30 47 33 48 44 49 60 50 31 51 32 52 43 54
REMARK SMILES IDX 61 55 34 56 21 57 22 58 27 59 23 60 24 61 26 62 28 63 25 64
REMARK SMILES IDX 47 65 48 66 53 67 49 68 50 69 52 70 54 71 51 72 35 73 36 74
REMARK SMILES IDX 41 75 37 76 38 77 40 78 42 79 39 80
REMARK H PARENT 59 42 33 53
REMARK Flexibility Score: inf
ROOT
ATOM      1  C   UNL A   1      34.801  21.015  24.612  1.00  0.00     0.274 C 
ENDROOT
BRANCH   1   2
ATOM      2  O   UNL A   1      33.895  20.908  25.731  1.00  0.00    -0.462 OA
BRANCH   2   3
ATOM      3  C   UNL A   1      32.580  21.121  25.505  1.00  0.00     0.310 C 
ATOM      4  O   UNL A   1      31.814  20.265  25.080  1.00  0.00    -0.252 OA
BRANCH   3   5
ATOM      5  C   UNL A   1      32.094  22.508  25.890  1.00  0.00     0.118 C 
ATOM      6  C   UNL A   1      32.183  23.369  23.391  1.00  0.00     0.027 C 
ATOM      7  C   UNL A   1      31.679  23.527  24.820  1.00  0.00     0.084 C 
ATOM      8  N   UNL A   1      32.173  24.860  25.320  1.00  0.00    -0.194 NA
ATOM      9  C   UNL A   1      33.036  23.259  26.829  1.00  0.00     0.034 C 
ATOM     10  C   UNL A   1      33.385  24.547  26.118  1.00  0.00     0.104 C 
BRANCH   8  11
ATOM     11  S   UNL A   1      31.056  25.860  26.141  1.00  0.00     0.243 S 
ATOM     12  O   UNL A   1      29.867  25.074  26.406  1.00  0.00    -0.207 OA
ATOM     13  O   UNL A   1      31.763  26.528  27.211  1.00  0.00    -0.207 OA
BRANCH  11  14
ATOM     14  C   UNL A   1      30.640  27.081  24.920  1.00  0.00     0.082 A 
ATOM     15  C   UNL A   1      31.393  28.255  24.827  1.00  0.00     0.023 A 
ATOM     16  C   UNL A   1      29.523  26.885  24.101  1.00  0.00     0.023 A 
ATOM     17  C   UNL A   1      31.046  29.216  23.875  1.00  0.00     0.022 A 
ATOM     18  C   UNL A   1      29.207  27.829  23.125  1.00  0.00     0.022 A 
ATOM     19  C   UNL A   1      29.967  28.991  23.019  1.00  0.00     0.041 A 
ATOM     20  Cl  UNL A   1      29.557  30.165  21.830  1.00  0.00    -0.084 Cl
ENDBRANCH  11  14
ENDBRANCH   8  11
ENDBRANCH   3   5
ENDBRANCH   2   3
ENDBRANCH   1   2
BRANCH   1  21
ATOM     21  C   UNL A   1      36.193  20.535  25.018  1.00  0.00     0.275 C 
BRANCH  21  22
ATOM     22  O   UNL A   1      36.955  21.633  25.551  1.00  0.00    -0.458 OA
BRANCH  22  23
ATOM     23  C   UNL A   1      38.261  21.360  25.747  1.00  0.00     0.338 C 
ATOM     24  O   UNL A   1      38.889  20.384  25.370  1.00  0.00    -0.246 OA
BRANCH  23  25
ATOM     25  C   UNL A   1      38.908  22.476  26.441  1.00  0.00     0.060 A 
ATOM     26  C   UNL A   1      38.495  23.778  26.155  1.00  0.00     0.016 A 
ATOM     27  C   UNL A   1      40.055  22.240  27.191  1.00  0.00     0.016 A 
ATOM     28  C   UNL A   1      39.306  24.849  26.502  1.00  0.00     0.010 A 
ATOM     29  C   UNL A   1      40.788  23.327  27.662  1.00  0.00     0.010 A 
ATOM     30  C   UNL A   1      40.437  24.640  27.298  1.00  0.00    -0.014 A 
BRANCH  30  31
ATOM     31  C   UNL A   1      41.240  25.784  27.794  1.00  0.00     0.031 A 
ATOM     32  C   UNL A   1      40.586  26.867  28.602  1.00  0.00     0.074 A 
ATOM     33  C   UNL A   1      42.538  25.880  27.443  1.00  0.00     0.049 A 
ATOM     34  N   UNL A   1      41.006  28.080  28.852  1.00  0.00    -0.248 NA
ATOM     35  C   UNL A   1      39.273  26.550  29.189  1.00  0.00     0.031 C 
ATOM     36  C   UNL A   1      43.301  24.864  26.713  1.00  0.00     0.029 A 
ATOM     37  N   UNL A   1      43.438  26.899  27.626  1.00  0.00    -0.354 N 
ATOM     38  C   UNL A   1      39.988  28.690  29.574  1.00  0.00     0.074 A 
ATOM     39  C   UNL A   1      38.929  27.714  29.722  1.00  0.00     0.031 C 
ATOM     40  C   UNL A   1      44.549  25.308  26.509  1.00  0.00     0.029 A 
ATOM     41  C   UNL A   1      44.638  26.676  26.994  1.00  0.00     0.049 A 
ATOM     42  H   UNL A   1      43.245  27.705  28.156  1.00  0.00     0.167 HD
ATOM     43  C   UNL A   1      39.949  29.955  30.055  1.00  0.00     0.037 A 
ATOM     44  C   UNL A   1      45.670  27.506  26.758  1.00  0.00     0.037 A 
ATOM     45  C   UNL A   1      41.034  30.893  29.916  1.00  0.00     0.049 A 
ATOM     46  C   UNL A   1      45.576  28.924  27.236  1.00  0.00     0.074 A 
ATOM     47  C   UNL A   1      41.114  32.195  30.379  1.00  0.00     0.029 A 
ATOM     48  N   UNL A   1      42.232  30.624  29.269  1.00  0.00    -0.354 N 
ATOM     49  N   UNL A   1      44.597  29.512  27.879  1.00  0.00    -0.248 NA
ATOM     50  C   UNL A   1      46.717  29.798  26.942  1.00  0.00     0.031 C 
ATOM     51  C   UNL A   1      42.337  32.729  29.965  1.00  0.00     0.029 A 
ATOM     52  C   UNL A   1      43.047  31.740  29.302  1.00  0.00     0.049 A 
ATOM     53  H   UNL A   1      42.466  29.764  28.851  1.00  0.00     0.167 HD
ATOM     54  C   UNL A   1      45.019  30.814  28.104  1.00  0.00     0.074 A 
ATOM     55  C   UNL A   1      46.341  30.929  27.522  1.00  0.00     0.031 C 
ATOM     56  C   UNL A   1      44.372  31.821  28.738  1.00  0.00     0.037 A 
BRANCH  43  57
ATOM     57  C   UNL A   1      38.689  30.414  30.732  1.00  0.00     0.057 A 
ATOM     58  C   UNL A   1      38.472  30.248  32.106  1.00  0.00     0.134 A 
ATOM     59  C   UNL A   1      37.692  31.073  29.999  1.00  0.00     0.134 A 
ATOM     60  F   UNL A   1      39.380  29.618  32.866  1.00  0.00    -0.206 F 
ATOM     61  C   UNL A   1      37.301  30.697  32.720  1.00  0.00     0.040 A 
ATOM     62  C   UNL A   1      36.530  31.553  30.608  1.00  0.00     0.040 A 
ATOM     63  F   UNL A   1      37.835  31.272  28.681  1.00  0.00    -0.206 F 
ATOM     64  C   UNL A   1      36.329  31.359  31.972  1.00  0.00     0.006 A 
ENDBRANCH  43  57
BRANCH  44  65
ATOM     65  C   UNL A   1      46.848  27.020  25.996  1.00  0.00     0.057 A 
ATOM     66  C   UNL A   1      46.944  27.223  24.616  1.00  0.00     0.134 A 
ATOM     67  C   UNL A   1      47.915  26.368  26.629  1.00  0.00     0.134 A 
ATOM     68  F   UNL A   1      45.949  27.829  23.952  1.00  0.00    -0.206 F 
ATOM     69  C   UNL A   1      48.053  26.785  23.890  1.00  0.00     0.040 A 
ATOM     70  C   UNL A   1      49.043  25.952  25.920  1.00  0.00     0.040 A 
ATOM     71  F   UNL A   1      47.891  26.154  27.952  1.00  0.00    -0.206 F 
ATOM     72  C   UNL A   1      49.110  26.154  24.543  1.00  0.00     0.006 A 
ENDBRANCH  44  65
BRANCH  56  73
ATOM     73  C   UNL A   1      45.111  33.114  28.904  1.00  0.00     0.057 A 
ATOM     74  C   UNL A   1      45.990  33.337  29.969  1.00  0.00     0.134 A 
ATOM     75  C   UNL A   1      44.992  34.120  27.935  1.00  0.00     0.134 A 
ATOM     76  F   UNL A   1      46.133  32.420  30.937  1.00  0.00    -0.206 F 
ATOM     77  C   UNL A   1      46.720  34.522  30.070  1.00  0.00     0.040 A 
ATOM     78  C   UNL A   1      45.736  35.295  28.010  1.00  0.00     0.040 A 
ATOM     79  F   UNL A   1      44.169  33.961  26.887  1.00  0.00    -0.206 F 
ATOM     80  C   UNL A   1      46.603  35.499  29.082  1.00  0.00     0.006 A 
ENDBRANCH  56  73
ENDBRANCH  30  31
ENDBRANCH  23  25
ENDBRANCH  22  23
ENDBRANCH  21  22
ENDBRANCH   1  21
TORSDOF 13
ENDMDL
MODEL 2
REMARK VINA RESULT:     -11.8      4.079      8.940
REMARK SMILES C[C@H]1[C@@H](C(=O)OCCOC(=O)c2ccc(-c3c4nc(c(-c5c(F)cccc5F)c5ccc([nH]5)c(-c5c(F)cccc5F)c5nc(c(-c6c(F)cccc6F)c6ccc3[nH]6)C=C5)C=C4)cc2)CCN1S(=O)(=O)c1ccc(Cl)cc1
REMARK SMILES IDX 7 1 6 2 4 3 5 4 3 5 1 6 2 7 68 8 66 9 67 10 69 11 70 12
REMARK SMILES IDX 71 13 72 14 73 15 78 16 74 17 77 18 75 19 76 20 8 21 9 22
REMARK SMILES IDX 10 23 11 24 12 25 13 26 65 27 14 28 64 29 15 30 16 31 17 32
REMARK SMILES IDX 58 33 18 34 63 35 57 36 59 37 19 38 62 39 56 40 55 41 20 43
REMARK SMILES IDX 46 44 29 45 45 46 30 47 33 48 44 49 60 50 31 51 32 52 43 54
REMARK SMILES IDX 61 55 34 56 21 57 22 58 27 59 23 60 24 61 26 62 28 63 25 64
REMARK SMILES IDX 47 65 48 66 53 67 49 68 50 69 52 70 54 71 51 72 35 73 36 74
REMARK SMILES IDX 41 75 37 76 38 77 40 78 42 79 39 80
REMARK H PARENT 59 42 33 53
REMARK Flexibility Score: inf
ROOT
ATOM      1  C   UNL A   1      31.102  29.337  24.525  1.00  0.00     0.274 C 
ENDROOT
BRANCH   1   2
ATOM      2  O   UNL A   1      31.818  28.943  23.334  1.00  0.00    -0.462 OA
BRANCH   2   3
ATOM      3  C   UNL A   1      31.334  27.905  22.618  1.00  0.00     0.310 C 
ATOM      4  O   UNL A   1      30.274  27.935  22.003  1.00  0.00    -0.252 OA
BRANCH   3   5
ATOM      5  C   UNL A   1      32.251  26.695  22.569  1.00  0.00     0.118 C 
ATOM      6  C   UNL A   1      30.622  25.245  24.066  1.00  0.00     0.027 C 
ATOM      7  C   UNL A   1      31.784  25.326  23.084  1.00  0.00     0.084 C 
ATOM      8  N   UNL A   1      32.984  24.720  23.764  1.00  0.00    -0.194 NA
ATOM      9  C   UNL A   1      33.620  26.926  23.204  1.00  0.00     0.034 C 
ATOM     10  C   UNL A   1      33.756  25.875  24.284  1.00  0.00     0.104 C 
BRANCH   8  11
ATOM     11  S   UNL A   1      33.930  23.617  22.863  1.00  0.00     0.243 S 
ATOM     12  O   UNL A   1      33.373  23.541  21.527  1.00  0.00    -0.207 OA
ATOM     13  O   UNL A   1      35.321  23.952  23.075  1.00  0.00    -0.207 OA
BRANCH  11  14
ATOM     14  C   UNL A   1      33.615  22.068  23.673  1.00  0.00     0.082 A 
ATOM     15  C   UNL A   1      32.415  21.391  23.437  1.00  0.00     0.023 A 
ATOM     16  C   UNL A   1      34.546  21.566  24.590  1.00  0.00     0.023 A 
ATOM     17  C   UNL A   1      32.170  20.183  24.093  1.00  0.00     0.022 A 
ATOM     18  C   UNL A   1      34.315  20.340  25.210  1.00  0.00     0.022 A 
ATOM     19  C   UNL A   1      33.127  19.656  24.962  1.00  0.00     0.041 A 
ATOM     20  Cl  UNL A   1      32.835  18.155  25.750  1.00  0.00    -0.084 Cl
ENDBRANCH  11  14
ENDBRANCH   8  11
ENDBRANCH   3   5
ENDBRANCH   2   3
ENDBRANCH   1   2
BRANCH   1  21
ATOM     21  C   UNL A   1      31.949  29.051  25.763  1.00  0.00     0.275 C 
BRANCH  21  22
ATOM     22  O   UNL A   1      33.100  29.915  25.781  1.00  0.00    -0.458 OA
BRANCH  22  23
ATOM     23  C   UNL A   1      33.047  30.892  26.710  1.00  0.00     0.338 C 
ATOM     24  O   UNL A   1      32.166  31.718  26.881  1.00  0.00    -0.246 OA
BRANCH  23  25
ATOM     25  C   UNL A   1      34.205  30.798  27.602  1.00  0.00     0.060 A 
ATOM     26  C   UNL A   1      34.994  31.931  27.803  1.00  0.00     0.016 A 
ATOM     27  C   UNL A   1      34.622  29.549  28.047  1.00  0.00     0.016 A 
ATOM     28  C   UNL A   1      36.270  31.795  28.331  1.00  0.00     0.010 A 
ATOM     29  C   UNL A   1      35.845  29.443  28.709  1.00  0.00     0.010 A 
ATOM     30  C   UNL A   1      36.693  30.559  28.830  1.00  0.00    -0.014 A 
BRANCH  30  31
ATOM     31  C   UNL A   1      37.998  30.423  29.520  1.00  0.00     0.031 A 
ATOM     32  C   UNL A   1      39.071  29.554  28.930  1.00  0.00     0.074 A 
ATOM     33  C   UNL A   1      38.179  31.019  30.715  1.00  0.00     0.049 A 
ATOM     34  N   UNL A   1      40.130  29.045  29.504  1.00  0.00    -0.248 NA
ATOM     35  C   UNL A   1      38.920  29.189  27.512  1.00  0.00     0.031 C 
ATOM     36  C   UNL A   1      37.236  31.936  31.361  1.00  0.00     0.029 A 
ATOM     37  N   UNL A   1      39.208  30.916  31.616  1.00  0.00    -0.354 N 
ATOM     38  C   UNL A   1      40.741  28.256  28.537  1.00  0.00     0.074 A 
ATOM     39  C   UNL A   1      39.934  28.352  27.340  1.00  0.00     0.031 C 
ATOM     40  C   UNL A   1      37.726  32.309  32.551  1.00  0.00     0.029 A 
ATOM     41  C   UNL A   1      38.958  31.576  32.796  1.00  0.00     0.049 A 
ATOM     42  H   UNL A   1      40.039  30.422  31.437  1.00  0.00     0.167 HD
ATOM     43  C   UNL A   1      41.868  27.515  28.655  1.00  0.00     0.037 A 
ATOM     44  C   UNL A   1      39.602  31.534  33.975  1.00  0.00     0.037 A 
ATOM     45  C   UNL A   1      42.667  27.465  29.853  1.00  0.00     0.049 A 
ATOM     46  C   UNL A   1      40.806  30.650  34.106  1.00  0.00     0.074 A 
ATOM     47  C   UNL A   1      43.838  26.764  30.082  1.00  0.00     0.029 A 
ATOM     48  N   UNL A   1      42.375  28.151  31.024  1.00  0.00    -0.354 N 
ATOM     49  N   UNL A   1      41.357  29.872  33.206  1.00  0.00    -0.248 NA
ATOM     50  C   UNL A   1      41.468  30.623  35.415  1.00  0.00     0.031 C 
ATOM     51  C   UNL A   1      44.224  26.983  31.407  1.00  0.00     0.029 A 
ATOM     52  C   UNL A   1      43.331  27.872  31.984  1.00  0.00     0.049 A 
ATOM     53  H   UNL A   1      41.603  28.748  31.151  1.00  0.00     0.167 HD
ATOM     54  C   UNL A   1      42.454  29.293  33.826  1.00  0.00     0.074 A 
ATOM     55  C   UNL A   1      42.486  29.807  35.181  1.00  0.00     0.031 C 
ATOM     56  C   UNL A   1      43.355  28.419  33.318  1.00  0.00     0.037 A 
BRANCH  43  57
ATOM     57  C   UNL A   1      42.281  26.669  27.484  1.00  0.00     0.057 A 
ATOM     58  C   UNL A   1      43.104  27.155  26.460  1.00  0.00     0.134 A 
ATOM     59  C   UNL A   1      41.881  25.328  27.404  1.00  0.00     0.134 A 
ATOM     60  F   UNL A   1      43.518  28.431  26.468  1.00  0.00    -0.206 F 
ATOM     61  C   UNL A   1      43.492  26.347  25.389  1.00  0.00     0.040 A 
ATOM     62  C   UNL A   1      42.287  24.502  26.354  1.00  0.00     0.040 A 
ATOM     63  F   UNL A   1      41.098  24.793  28.353  1.00  0.00    -0.206 F 
ATOM     64  C   UNL A   1      43.089  25.014  25.338  1.00  0.00     0.006 A 
ENDBRANCH  43  57
BRANCH  44  65
ATOM     65  C   UNL A   1      39.086  32.318  35.126  1.00  0.00     0.057 A 
ATOM     66  C   UNL A   1      38.243  31.732  36.075  1.00  0.00     0.134 A 
ATOM     67  C   UNL A   1      39.444  33.659  35.321  1.00  0.00     0.134 A 
ATOM     68  F   UNL A   1      37.854  30.457  35.935  1.00  0.00    -0.206 F 
ATOM     69  C   UNL A   1      37.763  32.454  37.169  1.00  0.00     0.040 A 
ATOM     70  C   UNL A   1      38.996  34.383  36.426  1.00  0.00     0.040 A 
ATOM     71  F   UNL A   1      40.261  34.277  34.455  1.00  0.00    -0.206 F 
ATOM     72  C   UNL A   1      38.145  33.781  37.351  1.00  0.00     0.006 A 
ENDBRANCH  44  65
BRANCH  56  73
ATOM     73  C   UNL A   1      44.496  28.018  34.204  1.00  0.00     0.057 A 
ATOM     74  C   UNL A   1      45.669  28.774  34.294  1.00  0.00     0.134 A 
ATOM     75  C   UNL A   1      44.380  26.894  35.033  1.00  0.00     0.134 A 
ATOM     76  F   UNL A   1      45.847  29.851  33.514  1.00  0.00    -0.206 F 
ATOM     77  C   UNL A   1      46.693  28.422  35.174  1.00  0.00     0.040 A 
ATOM     78  C   UNL A   1      45.383  26.548  35.935  1.00  0.00     0.040 A 
ATOM     79  F   UNL A   1      43.276  26.132  34.996  1.00  0.00    -0.206 F 
ATOM     80  C   UNL A   1      46.546  27.313  36.007  1.00  0.00     0.006 A 
ENDBRANCH  56  73
ENDBRANCH  30  31
ENDBRANCH  23  25
ENDBRANCH  22  23
ENDBRANCH  21  22
ENDBRANCH   1  21
TORSDOF 13
ENDMDL
MODEL 3
REMARK VINA RESULT:     -11.8      4.069      8.984
REMARK SMILES C[C@H]1[C@@H](C(=O)OCCOC(=O)c2ccc(-c3c4nc(c(-c5c(F)cccc5F)c5ccc([nH]5)c(-c5c(F)cccc5F)c5nc(c(-c6c(F)cccc6F)c6ccc3[nH]6)C=C5)C=C4)cc2)CCN1S(=O)(=O)c1ccc(Cl)cc1
REMARK SMILES IDX 7 1 6 2 4 3 5 4 3 5 1 6 2 7 68 8 66 9 67 10 69 11 70 12
REMARK SMILES IDX 71 13 72 14 73 15 78 16 74 17 77 18 75 19 76 20 8 21 9 22
REMARK SMILES IDX 10 23 11 24 12 25 13 26 65 27 14 28 64 29 15 30 16 31 17 32
REMARK SMILES IDX 58 33 18 34 63 35 57 36 59 37 19 38 62 39 56 40 55 41 20 43
REMARK SMILES IDX 46 44 29 45 45 46 30 47 33 48 44 49 60 50 31 51 32 52 43 54
REMARK SMILES IDX 61 55 34 56 21 57 22 58 27 59 23 60 24 61 26 62 28 63 25 64
REMARK SMILES IDX 47 65 48 66 53 67 49 68 50 69 52 70 54 71 51 72 35 73 36 74
REMARK SMILES IDX 41 75 37 76 38 77 40 78 42 79 39 80
REMARK H PARENT 59 42 33 53
REMARK Flexibility Score: inf
ROOT
ATOM      1  C   UNL A   1      31.425  28.963  25.165  1.00  0.00     0.274 C 
ENDROOT
BRANCH   1   2
ATOM      2  O   UNL A   1      31.269  28.936  23.729  1.00  0.00    -0.462 OA
BRANCH   2   3
ATOM      3  C   UNL A   1      30.922  27.765  23.151  1.00  0.00     0.310 C 
ATOM      4  O   UNL A   1      30.488  27.671  22.009  1.00  0.00    -0.252 OA
BRANCH   3   5
ATOM      5  C   UNL A   1      31.178  26.540  24.012  1.00  0.00     0.118 C 
ATOM      6  C   UNL A   1      33.357  25.892  22.662  1.00  0.00     0.027 C 
ATOM      7  C   UNL A   1      32.498  25.764  23.913  1.00  0.00     0.084 C 
ATOM      8  N   UNL A   1      32.123  24.310  24.047  1.00  0.00    -0.194 NA
ATOM      9  C   UNL A   1      30.076  25.486  23.935  1.00  0.00     0.034 C 
ATOM     10  C   UNL A   1      30.754  24.212  23.482  1.00  0.00     0.104 C 
BRANCH   8  11
ATOM     11  S   UNL A   1      32.275  23.594  25.593  1.00  0.00     0.243 S 
ATOM     12  O   UNL A   1      33.278  24.336  26.330  1.00  0.00    -0.207 OA
ATOM     13  O   UNL A   1      30.944  23.405  26.125  1.00  0.00    -0.207 OA
BRANCH  11  14
ATOM     14  C   UNL A   1      32.945  21.991  25.224  1.00  0.00     0.082 A 
ATOM     15  C   UNL A   1      34.325  21.784  25.284  1.00  0.00     0.023 A 
ATOM     16  C   UNL A   1      32.088  20.962  24.816  1.00  0.00     0.023 A 
ATOM     17  C   UNL A   1      34.843  20.524  24.975  1.00  0.00     0.022 A 
ATOM     18  C   UNL A   1      32.606  19.696  24.549  1.00  0.00     0.022 A 
ATOM     19  C   UNL A   1      33.981  19.484  24.626  1.00  0.00     0.041 A 
ATOM     20  Cl  UNL A   1      34.618  17.926  24.271  1.00  0.00    -0.084 Cl
ENDBRANCH  11  14
ENDBRANCH   8  11
ENDBRANCH   3   5
ENDBRANCH   2   3
ENDBRANCH   1   2
BRANCH   1  21
ATOM     21  C   UNL A   1      31.753  30.381  25.628  1.00  0.00     0.275 C 
BRANCH  21  22
ATOM     22  O   UNL A   1      32.469  30.338  26.874  1.00  0.00    -0.458 OA
BRANCH  22  23
ATOM     23  C   UNL A   1      33.074  31.497  27.209  1.00  0.00     0.338 C 
ATOM     24  O   UNL A   1      32.592  32.617  27.228  1.00  0.00    -0.246 OA
BRANCH  23  25
ATOM     25  C   UNL A   1      34.446  31.236  27.651  1.00  0.00     0.060 A 
ATOM     26  C   UNL A   1      34.806  29.934  28.001  1.00  0.00     0.016 A 
ATOM     27  C   UNL A   1      35.288  32.308  27.927  1.00  0.00     0.016 A 
ATOM     28  C   UNL A   1      35.951  29.715  28.753  1.00  0.00     0.010 A 
ATOM     29  C   UNL A   1      36.508  32.062  28.555  1.00  0.00     0.010 A 
ATOM     30  C   UNL A   1      36.837  30.769  29.000  1.00  0.00    -0.014 A 
BRANCH  30  31
ATOM     31  C   UNL A   1      38.131  30.530  29.684  1.00  0.00     0.031 A 
ATOM     32  C   UNL A   1      39.154  29.626  29.060  1.00  0.00     0.074 A 
ATOM     33  C   UNL A   1      38.343  31.066  30.902  1.00  0.00     0.049 A 
ATOM     34  N   UNL A   1      40.181  29.035  29.612  1.00  0.00    -0.248 NA
ATOM     35  C   UNL A   1      38.986  29.328  27.628  1.00  0.00     0.031 C 
ATOM     36  C   UNL A   1      37.452  32.009  31.585  1.00  0.00     0.029 A 
ATOM     37  N   UNL A   1      39.362  30.868  31.798  1.00  0.00    -0.354 N 
ATOM     38  C   UNL A   1      40.748  28.252  28.615  1.00  0.00     0.074 A 
ATOM     39  C   UNL A   1      39.951  28.442  27.422  1.00  0.00     0.031 C 
ATOM     40  C   UNL A   1      37.959  32.305  32.789  1.00  0.00     0.029 A 
ATOM     41  C   UNL A   1      39.147  31.493  33.003  1.00  0.00     0.049 A 
ATOM     42  H   UNL A   1      40.164  30.335  31.599  1.00  0.00     0.167 HD
ATOM     43  C   UNL A   1      41.831  27.444  28.702  1.00  0.00     0.037 A 
ATOM     44  C   UNL A   1      39.785  31.368  34.181  1.00  0.00     0.037 A 
ATOM     45  C   UNL A   1      42.622  27.300  29.898  1.00  0.00     0.049 A 
ATOM     46  C   UNL A   1      40.936  30.412  34.276  1.00  0.00     0.074 A 
ATOM     47  C   UNL A   1      43.751  26.524  30.098  1.00  0.00     0.029 A 
ATOM     48  N   UNL A   1      42.368  27.953  31.095  1.00  0.00    -0.354 N 
ATOM     49  N   UNL A   1      41.444  29.641  33.345  1.00  0.00    -0.248 NA
ATOM     50  C   UNL A   1      41.593  30.295  35.583  1.00  0.00     0.031 C 
ATOM     51  C   UNL A   1      44.146  26.668  31.430  1.00  0.00     0.029 A 
ATOM     52  C   UNL A   1      43.304  27.582  32.044  1.00  0.00     0.049 A 
ATOM     53  H   UNL A   1      41.631  28.588  31.247  1.00  0.00     0.167 HD
ATOM     54  C   UNL A   1      42.505  28.975  33.941  1.00  0.00     0.074 A 
ATOM     55  C   UNL A   1      42.563  29.432  35.316  1.00  0.00     0.031 C 
ATOM     56  C   UNL A   1      43.356  28.073  33.399  1.00  0.00     0.037 A 
BRANCH  43  57
ATOM     57  C   UNL A   1      42.198  26.623  27.498  1.00  0.00     0.057 A 
ATOM     58  C   UNL A   1      43.035  27.109  26.486  1.00  0.00     0.134 A 
ATOM     59  C   UNL A   1      41.738  25.305  27.374  1.00  0.00     0.134 A 
ATOM     60  F   UNL A   1      43.504  28.365  26.536  1.00  0.00    -0.206 F 
ATOM     61  C   UNL A   1      43.379  26.325  25.382  1.00  0.00     0.040 A 
ATOM     62  C   UNL A   1      42.099  24.501  26.291  1.00  0.00     0.040 A 
ATOM     63  F   UNL A   1      40.939  24.771  28.309  1.00  0.00    -0.206 F 
ATOM     64  C   UNL A   1      42.916  25.013  25.287  1.00  0.00     0.006 A 
ENDBRANCH  43  57
BRANCH  44  65
ATOM     65  C   UNL A   1      39.312  32.133  35.362  1.00  0.00     0.057 A 
ATOM     66  C   UNL A   1      39.702  33.460  35.562  1.00  0.00     0.134 A 
ATOM     67  C   UNL A   1      38.438  31.568  36.301  1.00  0.00     0.134 A 
ATOM     68  F   UNL A   1      40.548  34.051  34.705  1.00  0.00    -0.206 F 
ATOM     69  C   UNL A   1      39.253  34.196  36.660  1.00  0.00     0.040 A 
ATOM     70  C   UNL A   1      37.956  32.301  37.386  1.00  0.00     0.040 A 
ATOM     71  F   UNL A   1      38.014  30.304  36.160  1.00  0.00    -0.206 F 
ATOM     72  C   UNL A   1      38.371  33.619  37.572  1.00  0.00     0.006 A 
ENDBRANCH  44  65
BRANCH  56  73
ATOM     73  C   UNL A   1      44.470  27.572  34.268  1.00  0.00     0.057 A 
ATOM     74  C   UNL A   1      45.684  28.257  34.389  1.00  0.00     0.134 A 
ATOM     75  C   UNL A   1      44.289  26.422  35.048  1.00  0.00     0.134 A 
ATOM     76  F   UNL A   1      45.924  29.353  33.654  1.00  0.00    -0.206 F 
ATOM     77  C   UNL A   1      46.684  27.811  35.255  1.00  0.00     0.040 A 
ATOM     78  C   UNL A   1      45.269  25.984  35.936  1.00  0.00     0.040 A 
ATOM     79  F   UNL A   1      43.144  25.726  34.980  1.00  0.00    -0.206 F 
ATOM     80  C   UNL A   1      46.472  26.679  36.040  1.00  0.00     0.006 A 
ENDBRANCH  56  73
ENDBRANCH  30  31
ENDBRANCH  23  25
ENDBRANCH  22  23
ENDBRANCH  21  22
ENDBRANCH   1  21
TORSDOF 13
ENDMDL
