MODEL 1
REMARK VINA RESULT:     -11.0      0.000      0.000
REMARK SMILES CC[C@H]1CC(=O)N(CCn2cc(C(=O)OCCOC(=O)c3ccc(-c4c5nc(c(-c6c(F)cccc6F)c6ccc([nH]6)c(-c6c(F)cccc6F)c6nc(c(-c7c(F)cccc7F)c7ccc4[nH]7)C=C6)C=C5)cc3)nn2)C1
REMARK SMILES IDX 16 1 15 2 13 3 14 4 12 5 10 6 11 7 76 8 75 9 9 10 8 11 7 12
REMARK SMILES IDX 3 13 4 14 77 15 5 16 6 17 2 18 1 19 17 20 18 21 19 22 20 23
REMARK SMILES IDX 21 24 22 25 74 26 23 27 73 28 24 29 25 30 26 31 67 32 27 33
REMARK SMILES IDX 72 34 66 35 68 36 28 37 71 38 65 39 64 40 29 42 55 43 38 44
REMARK SMILES IDX 54 45 39 46 42 47 53 48 69 49 40 50 41 51 52 53 70 54 43 55
REMARK SMILES IDX 30 56 31 57 36 58 32 59 33 60 35 61 37 62 34 63 56 64 57 65
REMARK SMILES IDX 62 66 58 67 59 68 61 69 63 70 60 71 44 72 45 73 50 74 46 75
REMARK SMILES IDX 47 76 49 77 51 78 48 79
REMARK H PARENT 68 41 42 52
REMARK Flexibility Score: inf
ROOT
ATOM      1  C   UNL A   1      41.876  19.139  26.489  1.00  0.00     0.275 C 
ENDROOT
BRANCH   1   2
ATOM      2  O   UNL A   1      40.771  19.813  25.866  1.00  0.00    -0.457 OA
BRANCH   2   3
ATOM      3  C   UNL A   1      40.448  21.024  26.431  1.00  0.00     0.360 C 
ATOM      4  O   UNL A   1      41.183  21.641  27.182  1.00  0.00    -0.244 OA
BRANCH   3   5
ATOM      5  C   UNL A   1      39.148  21.518  26.004  1.00  0.00     0.190 A 
ATOM      6  N   UNL A   1      37.168  21.836  25.177  1.00  0.00    -0.250 N 
ATOM      7  C   UNL A   1      38.105  20.862  25.375  1.00  0.00     0.147 A 
ATOM      8  N   UNL A   1      37.572  23.001  25.707  1.00  0.00    -0.066 NA
ATOM      9  N   UNL A   1      38.798  22.835  26.171  1.00  0.00    -0.123 NA
BRANCH   6  10
ATOM     10  C   UNL A   1      35.870  21.707  24.546  1.00  0.00     0.167 C 
BRANCH  10  11
ATOM     11  C   UNL A   1      34.741  21.170  25.444  1.00  0.00     0.143 C 
BRANCH  11  12
ATOM     12  N   UNL A   1      34.099  19.954  24.949  1.00  0.00    -0.341 N 
ATOM     13  C   UNL A   1      33.818  17.887  23.860  1.00  0.00     0.017 C 
ATOM     14  C   UNL A   1      32.478  18.344  24.441  1.00  0.00     0.105 C 
ATOM     15  C   UNL A   1      34.841  18.782  24.554  1.00  0.00     0.123 C 
ATOM     16  C   UNL A   1      32.731  19.767  24.871  1.00  0.00     0.222 C 
ATOM     17  O   UNL A   1      31.870  20.581  25.163  1.00  0.00    -0.275 OA
BRANCH  13  18
ATOM     18  C   UNL A   1      34.156  16.406  24.057  1.00  0.00     0.002 C 
ATOM     19  C   UNL A   1      33.536  15.787  25.298  1.00  0.00     0.004 C 
ENDBRANCH  13  18
ENDBRANCH  11  12
ENDBRANCH  10  11
ENDBRANCH   6  10
ENDBRANCH   3   5
ENDBRANCH   2   3
ENDBRANCH   1   2
BRANCH   1  20
ATOM     20  C   UNL A   1      43.057  19.050  25.535  1.00  0.00     0.275 C 
BRANCH  20  21
ATOM     21  O   UNL A   1      44.010  20.086  25.778  1.00  0.00    -0.458 OA
BRANCH  21  22
ATOM     22  C   UNL A   1      44.334  20.838  24.701  1.00  0.00     0.338 C 
ATOM     23  O   UNL A   1      44.729  20.442  23.616  1.00  0.00    -0.246 OA
BRANCH  22  24
ATOM     24  C   UNL A   1      44.423  22.242  25.126  1.00  0.00     0.060 A 
ATOM     25  C   UNL A   1      45.270  22.551  26.196  1.00  0.00     0.016 A 
ATOM     26  C   UNL A   1      43.465  23.153  24.660  1.00  0.00     0.016 A 
ATOM     27  C   UNL A   1      45.053  23.723  26.895  1.00  0.00     0.010 A 
ATOM     28  C   UNL A   1      43.227  24.300  25.376  1.00  0.00     0.010 A 
ATOM     29  C   UNL A   1      43.983  24.544  26.520  1.00  0.00    -0.014 A 
BRANCH  29  30
ATOM     30  C   UNL A   1      43.743  25.773  27.248  1.00  0.00     0.031 A 
ATOM     31  C   UNL A   1      44.759  26.812  26.947  1.00  0.00     0.074 A 
ATOM     32  C   UNL A   1      42.615  25.978  27.956  1.00  0.00     0.049 A 
ATOM     33  N   UNL A   1      45.620  27.333  27.755  1.00  0.00    -0.248 NA
ATOM     34  C   UNL A   1      44.961  27.187  25.535  1.00  0.00     0.031 C 
ATOM     35  C   UNL A   1      41.444  25.099  28.052  1.00  0.00     0.029 A 
ATOM     36  N   UNL A   1      42.229  27.074  28.666  1.00  0.00    -0.354 N 
ATOM     37  C   UNL A   1      46.321  28.266  26.995  1.00  0.00     0.074 A 
ATOM     38  C   UNL A   1      46.029  27.980  25.619  1.00  0.00     0.031 C 
ATOM     39  C   UNL A   1      40.409  25.786  28.588  1.00  0.00     0.029 A 
ATOM     40  C   UNL A   1      40.875  27.102  28.989  1.00  0.00     0.049 A 
ATOM     41  H   UNL A   1      42.854  27.787  28.928  1.00  0.00     0.167 HD
ATOM     42  C   UNL A   1      46.838  29.383  27.575  1.00  0.00     0.037 A 
ATOM     43  C   UNL A   1      40.191  28.157  29.503  1.00  0.00     0.037 A 
ATOM     44  C   UNL A   1      46.931  29.217  29.004  1.00  0.00     0.049 A 
ATOM     45  C   UNL A   1      41.190  29.095  30.063  1.00  0.00     0.074 A 
ATOM     46  C   UNL A   1      47.634  28.398  29.860  1.00  0.00     0.029 A 
ATOM     47  N   UNL A   1      45.900  29.753  29.732  1.00  0.00    -0.354 N 
ATOM     48  N   UNL A   1      41.905  28.846  31.122  1.00  0.00    -0.248 NA
ATOM     49  C   UNL A   1      41.693  30.158  29.207  1.00  0.00     0.031 C 
ATOM     50  C   UNL A   1      46.768  28.180  30.972  1.00  0.00     0.029 A 
ATOM     51  C   UNL A   1      45.599  28.916  30.771  1.00  0.00     0.049 A 
ATOM     52  H   UNL A   1      45.448  30.605  29.537  1.00  0.00     0.167 HD
ATOM     53  C   UNL A   1      43.148  29.388  30.839  1.00  0.00     0.074 A 
ATOM     54  C   UNL A   1      42.917  30.298  29.721  1.00  0.00     0.031 C 
ATOM     55  C   UNL A   1      44.278  28.816  31.348  1.00  0.00     0.037 A 
BRANCH  42  56
ATOM     56  C   UNL A   1      46.796  30.756  26.935  1.00  0.00     0.057 A 
ATOM     57  C   UNL A   1      47.965  31.539  26.944  1.00  0.00     0.134 A 
ATOM     58  C   UNL A   1      45.616  31.460  26.609  1.00  0.00     0.134 A 
ATOM     59  F   UNL A   1      49.154  30.996  27.250  1.00  0.00    -0.206 F 
ATOM     60  C   UNL A   1      47.947  32.924  26.737  1.00  0.00     0.040 A 
ATOM     61  C   UNL A   1      45.595  32.832  26.348  1.00  0.00     0.040 A 
ATOM     62  F   UNL A   1      44.405  30.893  26.622  1.00  0.00    -0.206 F 
ATOM     63  C   UNL A   1      46.757  33.577  26.447  1.00  0.00     0.006 A 
ENDBRANCH  42  56
BRANCH  43  64
ATOM     64  C   UNL A   1      38.779  28.560  29.316  1.00  0.00     0.057 A 
ATOM     65  C   UNL A   1      37.892  28.623  30.403  1.00  0.00     0.134 A 
ATOM     66  C   UNL A   1      38.347  29.181  28.133  1.00  0.00     0.134 A 
ATOM     67  F   UNL A   1      38.228  28.092  31.587  1.00  0.00    -0.206 F 
ATOM     68  C   UNL A   1      36.664  29.294  30.329  1.00  0.00     0.040 A 
ATOM     69  C   UNL A   1      37.121  29.852  28.044  1.00  0.00     0.040 A 
ATOM     70  F   UNL A   1      39.141  29.240  27.054  1.00  0.00    -0.206 F 
ATOM     71  C   UNL A   1      36.282  29.924  29.149  1.00  0.00     0.006 A 
ENDBRANCH  43  64
BRANCH  55  72
ATOM     72  C   UNL A   1      44.100  27.839  32.478  1.00  0.00     0.057 A 
ATOM     73  C   UNL A   1      43.986  26.450  32.319  1.00  0.00     0.134 A 
ATOM     74  C   UNL A   1      44.154  28.326  33.787  1.00  0.00     0.134 A 
ATOM     75  F   UNL A   1      44.015  25.884  31.107  1.00  0.00    -0.206 F 
ATOM     76  C   UNL A   1      43.886  25.590  33.417  1.00  0.00     0.040 A 
ATOM     77  C   UNL A   1      44.091  27.475  34.892  1.00  0.00     0.040 A 
ATOM     78  F   UNL A   1      44.312  29.639  34.014  1.00  0.00    -0.206 F 
ATOM     79  C   UNL A   1      43.944  26.102  34.709  1.00  0.00     0.006 A 
ENDBRANCH  55  72
ENDBRANCH  29  30
ENDBRANCH  22  24
ENDBRANCH  21  22
ENDBRANCH  20  21
ENDBRANCH   1  20
TORSDOF 15
ENDMDL
MODEL 2
REMARK VINA RESULT:     -10.7      5.453     11.240
REMARK SMILES CC[C@H]1CC(=O)N(CCn2cc(C(=O)OCCOC(=O)c3ccc(-c4c5nc(c(-c6c(F)cccc6F)c6ccc([nH]6)c(-c6c(F)cccc6F)c6nc(c(-c7c(F)cccc7F)c7ccc4[nH]7)C=C6)C=C5)cc3)nn2)C1
REMARK SMILES IDX 16 1 15 2 13 3 14 4 12 5 10 6 11 7 76 8 75 9 9 10 8 11 7 12
REMARK SMILES IDX 3 13 4 14 77 15 5 16 6 17 2 18 1 19 17 20 18 21 19 22 20 23
REMARK SMILES IDX 21 24 22 25 74 26 23 27 73 28 24 29 25 30 26 31 67 32 27 33
REMARK SMILES IDX 72 34 66 35 68 36 28 37 71 38 65 39 64 40 29 42 55 43 38 44
REMARK SMILES IDX 54 45 39 46 42 47 53 48 69 49 40 50 41 51 52 53 70 54 43 55
REMARK SMILES IDX 30 56 31 57 36 58 32 59 33 60 35 61 37 62 34 63 56 64 57 65
REMARK SMILES IDX 62 66 58 67 59 68 61 69 63 70 60 71 44 72 45 73 50 74 46 75
REMARK SMILES IDX 47 76 49 77 51 78 48 79
REMARK H PARENT 68 41 42 52
REMARK Flexibility Score: inf
ROOT
ATOM      1  C   UNL A   1      33.186  34.228  27.983  1.00  0.00     0.275 C 
ENDROOT
BRANCH   1   2
ATOM      2  O   UNL A   1      32.648  34.584  29.267  1.00  0.00    -0.457 OA
BRANCH   2   3
ATOM      3  C   UNL A   1      32.938  35.864  29.673  1.00  0.00     0.360 C 
ATOM      4  O   UNL A   1      32.729  36.855  28.996  1.00  0.00    -0.244 OA
BRANCH   3   5
ATOM      5  C   UNL A   1      33.483  35.920  31.021  1.00  0.00     0.190 A 
ATOM      6  N   UNL A   1      34.402  35.561  32.952  1.00  0.00    -0.250 N 
ATOM      7  C   UNL A   1      34.208  34.981  31.731  1.00  0.00     0.147 A 
ATOM      8  N   UNL A   1      33.890  36.801  32.977  1.00  0.00    -0.066 NA
ATOM      9  N   UNL A   1      33.284  37.016  31.824  1.00  0.00    -0.123 NA
BRANCH   6  10
ATOM     10  C   UNL A   1      35.098  35.011  34.099  1.00  0.00     0.167 C 
BRANCH  10  11
ATOM     11  C   UNL A   1      35.330  33.490  34.073  1.00  0.00     0.143 C 
BRANCH  11  12
ATOM     12  N   UNL A   1      36.729  33.092  33.927  1.00  0.00    -0.341 N 
ATOM     13  C   UNL A   1      38.762  32.490  32.908  1.00  0.00     0.017 C 
ATOM     14  C   UNL A   1      38.911  32.411  34.430  1.00  0.00     0.105 C 
ATOM     15  C   UNL A   1      37.474  33.282  32.707  1.00  0.00     0.123 C 
ATOM     16  C   UNL A   1      37.501  32.560  34.943  1.00  0.00     0.222 C 
ATOM     17  O   UNL A   1      37.135  32.316  36.081  1.00  0.00    -0.275 OA
BRANCH  13  18
ATOM     18  C   UNL A   1      39.932  33.136  32.160  1.00  0.00     0.002 C 
ATOM     19  C   UNL A   1      39.543  34.340  31.318  1.00  0.00     0.004 C 
ENDBRANCH  13  18
ENDBRANCH  11  12
ENDBRANCH  10  11
ENDBRANCH   6  10
ENDBRANCH   3   5
ENDBRANCH   2   3
ENDBRANCH   1   2
BRANCH   1  20
ATOM     20  C   UNL A   1      34.607  33.709  28.121  1.00  0.00     0.275 C 
BRANCH  20  21
ATOM     21  O   UNL A   1      34.639  32.286  28.241  1.00  0.00    -0.458 OA
BRANCH  21  22
ATOM     22  C   UNL A   1      35.134  31.814  29.408  1.00  0.00     0.338 C 
ATOM     23  O   UNL A   1      34.750  32.082  30.535  1.00  0.00    -0.246 OA
BRANCH  22  24
ATOM     24  C   UNL A   1      36.414  31.145  29.132  1.00  0.00     0.060 A 
ATOM     25  C   UNL A   1      36.451  29.748  29.196  1.00  0.00     0.016 A 
ATOM     26  C   UNL A   1      37.587  31.912  29.109  1.00  0.00     0.016 A 
ATOM     27  C   UNL A   1      37.670  29.126  29.386  1.00  0.00     0.010 A 
ATOM     28  C   UNL A   1      38.794  31.296  29.334  1.00  0.00     0.010 A 
ATOM     29  C   UNL A   1      38.816  29.918  29.529  1.00  0.00    -0.014 A 
BRANCH  29  30
ATOM     30  C   UNL A   1      40.099  29.278  29.734  1.00  0.00     0.031 A 
ATOM     31  C   UNL A   1      40.528  29.319  31.153  1.00  0.00     0.074 A 
ATOM     32  C   UNL A   1      40.711  28.571  28.762  1.00  0.00     0.049 A 
ATOM     33  N   UNL A   1      41.549  29.929  31.654  1.00  0.00    -0.248 NA
ATOM     34  C   UNL A   1      39.610  28.762  32.165  1.00  0.00     0.031 C 
ATOM     35  C   UNL A   1      40.197  28.252  27.426  1.00  0.00     0.029 A 
ATOM     36  N   UNL A   1      41.892  27.894  28.801  1.00  0.00    -0.354 N 
ATOM     37  C   UNL A   1      41.520  29.642  33.016  1.00  0.00     0.074 A 
ATOM     38  C   UNL A   1      40.214  29.118  33.298  1.00  0.00     0.031 C 
ATOM     39  C   UNL A   1      40.952  27.275  26.874  1.00  0.00     0.029 A 
ATOM     40  C   UNL A   1      42.071  26.992  27.756  1.00  0.00     0.049 A 
ATOM     41  H   UNL A   1      42.562  28.032  29.507  1.00  0.00     0.167 HD
ATOM     42  C   UNL A   1      42.673  29.573  33.734  1.00  0.00     0.037 A 
ATOM     43  C   UNL A   1      43.047  26.052  27.663  1.00  0.00     0.037 A 
ATOM     44  C   UNL A   1      43.747  30.231  33.033  1.00  0.00     0.049 A 
ATOM     45  C   UNL A   1      44.117  26.436  28.611  1.00  0.00     0.074 A 
ATOM     46  C   UNL A   1      44.024  31.521  32.635  1.00  0.00     0.029 A 
ATOM     47  N   UNL A   1      44.573  29.411  32.308  1.00  0.00    -0.354 N 
ATOM     48  N   UNL A   1      44.888  27.473  28.453  1.00  0.00    -0.248 NA
ATOM     49  C   UNL A   1      44.070  25.894  29.960  1.00  0.00     0.031 C 
ATOM     50  C   UNL A   1      44.740  31.392  31.407  1.00  0.00     0.029 A 
ATOM     51  C   UNL A   1      44.915  30.034  31.139  1.00  0.00     0.049 A 
ATOM     52  H   UNL A   1      44.872  28.515  32.585  1.00  0.00     0.167 HD
ATOM     53  C   UNL A   1      45.062  27.977  29.732  1.00  0.00     0.074 A 
ATOM     54  C   UNL A   1      44.659  26.892  30.622  1.00  0.00     0.031 C 
ATOM     55  C   UNL A   1      45.229  29.318  29.924  1.00  0.00     0.037 A 
BRANCH  42  56
ATOM     56  C   UNL A   1      42.941  28.524  34.793  1.00  0.00     0.057 A 
ATOM     57  C   UNL A   1      43.376  28.945  36.064  1.00  0.00     0.134 A 
ATOM     58  C   UNL A   1      43.102  27.144  34.542  1.00  0.00     0.134 A 
ATOM     59  F   UNL A   1      43.290  30.234  36.427  1.00  0.00    -0.206 F 
ATOM     60  C   UNL A   1      44.003  28.081  36.971  1.00  0.00     0.040 A 
ATOM     61  C   UNL A   1      43.678  26.263  35.461  1.00  0.00     0.040 A 
ATOM     62  F   UNL A   1      42.810  26.581  33.364  1.00  0.00    -0.206 F 
ATOM     63  C   UNL A   1      44.165  26.737  36.666  1.00  0.00     0.006 A 
ENDBRANCH  42  56
BRANCH  43  64
ATOM     64  C   UNL A   1      43.024  24.713  27.032  1.00  0.00     0.057 A 
ATOM     65  C   UNL A   1      42.237  23.675  27.560  1.00  0.00     0.134 A 
ATOM     66  C   UNL A   1      43.526  24.506  25.738  1.00  0.00     0.134 A 
ATOM     67  F   UNL A   1      41.681  23.793  28.774  1.00  0.00    -0.206 F 
ATOM     68  C   UNL A   1      41.939  22.517  26.829  1.00  0.00     0.040 A 
ATOM     69  C   UNL A   1      43.239  23.352  24.998  1.00  0.00     0.040 A 
ATOM     70  F   UNL A   1      44.232  25.458  25.111  1.00  0.00    -0.206 F 
ATOM     71  C   UNL A   1      42.429  22.360  25.537  1.00  0.00     0.006 A 
ENDBRANCH  43  64
BRANCH  55  72
ATOM     72  C   UNL A   1      45.573  30.144  28.715  1.00  0.00     0.057 A 
ATOM     73  C   UNL A   1      46.863  30.278  28.182  1.00  0.00     0.134 A 
ATOM     74  C   UNL A   1      44.527  30.739  28.003  1.00  0.00     0.134 A 
ATOM     75  F   UNL A   1      47.914  29.670  28.745  1.00  0.00    -0.206 F 
ATOM     76  C   UNL A   1      47.105  31.010  27.016  1.00  0.00     0.040 A 
ATOM     77  C   UNL A   1      44.750  31.442  26.818  1.00  0.00     0.040 A 
ATOM     78  F   UNL A   1      43.261  30.608  28.427  1.00  0.00    -0.206 F 
ATOM     79  C   UNL A   1      46.045  31.590  26.327  1.00  0.00     0.006 A 
ENDBRANCH  55  72
ENDBRANCH  29  30
ENDBRANCH  22  24
ENDBRANCH  21  22
ENDBRANCH  20  21
ENDBRANCH   1  20
TORSDOF 15
ENDMDL
MODEL 3
REMARK VINA RESULT:     -10.7      5.468     11.388
REMARK SMILES CC[C@H]1CC(=O)N(CCn2cc(C(=O)OCCOC(=O)c3ccc(-c4c5nc(c(-c6c(F)cccc6F)c6ccc([nH]6)c(-c6c(F)cccc6F)c6nc(c(-c7c(F)cccc7F)c7ccc4[nH]7)C=C6)C=C5)cc3)nn2)C1
REMARK SMILES IDX 16 1 15 2 13 3 14 4 12 5 10 6 11 7 76 8 75 9 9 10 8 11 7 12
REMARK SMILES IDX 3 13 4 14 77 15 5 16 6 17 2 18 1 19 17 20 18 21 19 22 20 23
REMARK SMILES IDX 21 24 22 25 74 26 23 27 73 28 24 29 25 30 26 31 67 32 27 33
REMARK SMILES IDX 72 34 66 35 68 36 28 37 71 38 65 39 64 40 29 42 55 43 38 44
REMARK SMILES IDX 54 45 39 46 42 47 53 48 69 49 40 50 41 51 52 53 70 54 43 55
REMARK SMILES IDX 30 56 31 57 36 58 32 59 33 60 35 61 37 62 34 63 56 64 57 65
REMARK SMILES IDX 62 66 58 67 59 68 61 69 63 70 60 71 44 72 45 73 50 74 46 75
REMARK SMILES IDX 47 76 49 77 51 78 48 79
REMARK H PARENT 68 41 42 52
REMARK Flexibility Score: inf
ROOT
ATOM      1  C   UNL A   1      33.470  35.130  28.507  1.00  0.00     0.275 C 
ENDROOT
BRANCH   1   2
ATOM      2  O   UNL A   1      32.994  34.700  29.793  1.00  0.00    -0.457 OA
BRANCH   2   3
ATOM      3  C   UNL A   1      33.014  35.672  30.764  1.00  0.00     0.360 C 
ATOM      4  O   UNL A   1      32.348  36.691  30.720  1.00  0.00    -0.244 OA
BRANCH   3   5
ATOM      5  C   UNL A   1      33.888  35.338  31.879  1.00  0.00     0.190 A 
ATOM      6  N   UNL A   1      35.100  34.405  33.416  1.00  0.00    -0.250 N 
ATOM      7  C   UNL A   1      34.381  34.114  32.292  1.00  0.00     0.147 A 
ATOM      8  N   UNL A   1      35.108  35.727  33.647  1.00  0.00    -0.066 NA
ATOM      9  N   UNL A   1      34.333  36.304  32.747  1.00  0.00    -0.123 NA
BRANCH   6  10
ATOM     10  C   UNL A   1      35.831  33.488  34.268  1.00  0.00     0.167 C 
BRANCH  10  11
ATOM     11  C   UNL A   1      37.164  34.014  34.828  1.00  0.00     0.143 C 
BRANCH  11  12
ATOM     12  N   UNL A   1      38.337  33.669  34.027  1.00  0.00    -0.341 N 
ATOM     13  C   UNL A   1      39.744  33.427  32.157  1.00  0.00     0.017 C 
ATOM     14  C   UNL A   1      40.423  32.822  33.389  1.00  0.00     0.105 C 
ATOM     15  C   UNL A   1      38.606  34.260  32.739  1.00  0.00     0.123 C 
ATOM     16  C   UNL A   1      39.337  32.805  34.434  1.00  0.00     0.222 C 
ATOM     17  O   UNL A   1      39.377  32.187  35.485  1.00  0.00    -0.275 OA
BRANCH  13  18
ATOM     18  C   UNL A   1      40.644  34.274  31.253  1.00  0.00     0.002 C 
ATOM     19  C   UNL A   1      41.556  33.464  30.348  1.00  0.00     0.004 C 
ENDBRANCH  13  18
ENDBRANCH  11  12
ENDBRANCH  10  11
ENDBRANCH   6  10
ENDBRANCH   3   5
ENDBRANCH   2   3
ENDBRANCH   1   2
BRANCH   1  20
ATOM     20  C   UNL A   1      34.556  34.197  27.997  1.00  0.00     0.275 C 
BRANCH  20  21
ATOM     21  O   UNL A   1      34.883  33.193  28.959  1.00  0.00    -0.458 OA
BRANCH  21  22
ATOM     22  C   UNL A   1      35.004  31.938  28.469  1.00  0.00     0.338 C 
ATOM     23  O   UNL A   1      34.173  31.311  27.831  1.00  0.00    -0.246 OA
BRANCH  22  24
ATOM     24  C   UNL A   1      36.190  31.316  29.074  1.00  0.00     0.060 A 
ATOM     25  C   UNL A   1      37.294  32.131  29.342  1.00  0.00     0.016 A 
ATOM     26  C   UNL A   1      36.288  29.917  29.088  1.00  0.00     0.016 A 
ATOM     27  C   UNL A   1      38.536  31.541  29.479  1.00  0.00     0.010 A 
ATOM     28  C   UNL A   1      37.526  29.333  29.190  1.00  0.00     0.010 A 
ATOM     29  C   UNL A   1      38.643  30.153  29.324  1.00  0.00    -0.014 A 
BRANCH  29  30
ATOM     30  C   UNL A   1      39.941  29.523  29.462  1.00  0.00     0.031 A 
ATOM     31  C   UNL A   1      40.361  29.407  30.879  1.00  0.00     0.074 A 
ATOM     32  C   UNL A   1      40.573  28.950  28.419  1.00  0.00     0.049 A 
ATOM     33  N   UNL A   1      41.365  29.978  31.456  1.00  0.00    -0.248 NA
ATOM     34  C   UNL A   1      39.452  28.715  31.812  1.00  0.00     0.031 C 
ATOM     35  C   UNL A   1      40.073  28.778  27.051  1.00  0.00     0.029 A 
ATOM     36  N   UNL A   1      41.770  28.300  28.386  1.00  0.00    -0.354 N 
ATOM     37  C   UNL A   1      41.337  29.532  32.775  1.00  0.00     0.074 A 
ATOM     38  C   UNL A   1      40.042  28.949  32.984  1.00  0.00     0.031 C 
ATOM     39  C   UNL A   1      40.854  27.890  26.394  1.00  0.00     0.029 A 
ATOM     40  C   UNL A   1      41.975  27.532  27.245  1.00  0.00     0.049 A 
ATOM     41  H   UNL A   1      42.433  28.369  29.109  1.00  0.00     0.167 HD
ATOM     42  C   UNL A   1      42.488  29.407  33.488  1.00  0.00     0.037 A 
ATOM     43  C   UNL A   1      42.973  26.631  27.049  1.00  0.00     0.037 A 
ATOM     44  C   UNL A   1      43.550  30.167  32.877  1.00  0.00     0.049 A 
ATOM     45  C   UNL A   1      44.030  26.926  28.044  1.00  0.00     0.074 A 
ATOM     46  C   UNL A   1      43.798  31.500  32.635  1.00  0.00     0.029 A 
ATOM     47  N   UNL A   1      44.398  29.456  32.067  1.00  0.00    -0.354 N 
ATOM     48  N   UNL A   1      44.777  27.991  28.014  1.00  0.00    -0.248 NA
ATOM     49  C   UNL A   1      43.989  26.228  29.319  1.00  0.00     0.031 C 
ATOM     50  C   UNL A   1      44.522  31.533  31.406  1.00  0.00     0.029 A 
ATOM     51  C   UNL A   1      44.731  30.220  30.982  1.00  0.00     0.049 A 
ATOM     52  H   UNL A   1      44.717  28.541  32.239  1.00  0.00     0.167 HD
ATOM     53  C   UNL A   1      44.933  28.345  29.345  1.00  0.00     0.074 A 
ATOM     54  C   UNL A   1      44.552  27.155  30.098  1.00  0.00     0.031 C 
ATOM     55  C   UNL A   1      45.067  29.658  29.694  1.00  0.00     0.037 A 
BRANCH  42  56
ATOM     56  C   UNL A   1      42.775  28.246  34.419  1.00  0.00     0.057 A 
ATOM     57  C   UNL A   1      42.912  26.958  33.868  1.00  0.00     0.134 A 
ATOM     58  C   UNL A   1      42.607  28.274  35.821  1.00  0.00     0.134 A 
ATOM     59  F   UNL A   1      43.066  26.790  32.546  1.00  0.00    -0.206 F 
ATOM     60  C   UNL A   1      42.798  25.793  34.637  1.00  0.00     0.040 A 
ATOM     61  C   UNL A   1      42.545  27.119  36.604  1.00  0.00     0.040 A 
ATOM     62  F   UNL A   1      42.391  29.402  36.505  1.00  0.00    -0.206 F 
ATOM     63  C   UNL A   1      42.603  25.871  36.009  1.00  0.00     0.006 A 
ENDBRANCH  42  56
BRANCH  43  64
ATOM     64  C   UNL A   1      42.985  25.375  26.266  1.00  0.00     0.057 A 
ATOM     65  C   UNL A   1      43.956  25.143  25.278  1.00  0.00     0.134 A 
ATOM     66  C   UNL A   1      42.240  24.255  26.671  1.00  0.00     0.134 A 
ATOM     67  F   UNL A   1      44.743  26.140  24.851  1.00  0.00    -0.206 F 
ATOM     68  C   UNL A   1      44.197  23.867  24.751  1.00  0.00     0.040 A 
ATOM     69  C   UNL A   1      42.468  22.975  26.150  1.00  0.00     0.040 A 
ATOM     70  F   UNL A   1      41.334  24.348  27.656  1.00  0.00    -0.206 F 
ATOM     71  C   UNL A   1      43.460  22.775  25.198  1.00  0.00     0.006 A 
ENDBRANCH  43  64
BRANCH  55  72
ATOM     72  C   UNL A   1      45.397  30.628  28.592  1.00  0.00     0.057 A 
ATOM     73  C   UNL A   1      44.445  31.306  27.817  1.00  0.00     0.134 A 
ATOM     74  C   UNL A   1      46.739  30.963  28.387  1.00  0.00     0.134 A 
ATOM     75  F   UNL A   1      43.133  31.116  28.004  1.00  0.00    -0.206 F 
ATOM     76  C   UNL A   1      44.817  32.244  26.850  1.00  0.00     0.040 A 
ATOM     77  C   UNL A   1      47.121  31.925  27.450  1.00  0.00     0.040 A 
ATOM     78  F   UNL A   1      47.699  30.391  29.128  1.00  0.00    -0.206 F 
ATOM     79  C   UNL A   1      46.160  32.560  26.668  1.00  0.00     0.006 A 
ENDBRANCH  55  72
ENDBRANCH  29  30
ENDBRANCH  22  24
ENDBRANCH  21  22
ENDBRANCH  20  21
ENDBRANCH   1  20
TORSDOF 15
ENDMDL
