MODEL 1
REMARK VINA RESULT:     -10.7      0.000      0.000
REMARK SMILES CC(C)[C@H](NC(=O)CCC1=c2ccccc2=NC1)C(=O)OCCOC(=O)c1ccc(-c2c3nc(c(-c4c(F)cccc4F)c4ccc([nH]4)c(-c4c(F)cccc4F)c4nc(c(-c5c(F)cccc5F)c5ccc2[nH]5)C=C4)C=C3)cc1
REMARK SMILES IDX 22 1 21 2 19 3 20 4 4 5 2 6 1 7 3 8 5 9 6 10 7 12 8 13 9 14
REMARK SMILES IDX 10 15 11 16 18 17 12 18 16 19 17 20 13 21 15 22 14 23 23 24
REMARK SMILES IDX 24 25 25 26 26 27 27 28 28 29 80 30 29 31 79 32 30 33 31 34
REMARK SMILES IDX 32 35 73 36 33 37 78 38 72 39 74 40 34 41 77 42 71 43 70 44
REMARK SMILES IDX 35 46 61 47 44 48 60 49 45 50 48 51 59 52 75 53 46 54 47 55
REMARK SMILES IDX 58 57 76 58 49 59 36 60 37 61 42 62 38 63 39 64 41 65 43 66
REMARK SMILES IDX 40 67 62 68 63 69 68 70 64 71 65 72 67 73 69 74 66 75 50 76
REMARK SMILES IDX 51 77 56 78 52 79 53 80 55 81 57 82 54 83
REMARK H PARENT 5 11 74 45 48 56
REMARK Flexibility Score: inf
ROOT
ATOM      1  C   UNL A   1      31.711  30.182  26.726  1.00  0.00     0.274 C 
ENDROOT
BRANCH   1   2
ATOM      2  O   UNL A   1      32.022  28.900  26.141  1.00  0.00    -0.461 OA
BRANCH   2   3
ATOM      3  C   UNL A   1      31.666  27.801  26.888  1.00  0.00     0.329 C 
ATOM      4  O   UNL A   1      31.376  27.853  28.075  1.00  0.00    -0.250 OA
BRANCH   3   5
ATOM      5  C   UNL A   1      31.406  26.595  25.945  1.00  0.00     0.194 C 
BRANCH   5   6
ATOM      6  C   UNL A   1      30.746  26.801  24.550  1.00  0.00     0.017 C 
ATOM      7  C   UNL A   1      31.658  26.538  23.350  1.00  0.00     0.010 C 
ATOM      8  C   UNL A   1      29.404  26.099  24.366  1.00  0.00     0.010 C 
ENDBRANCH   5   6
BRANCH   5   9
ATOM      9  N   UNL A   1      30.851  25.401  26.605  1.00  0.00    -0.343 N 
ATOM     10  C   UNL A   1      31.392  24.172  26.804  1.00  0.00     0.221 C 
ATOM     11  H   UNL A   1      29.938  25.513  26.958  1.00  0.00     0.164 HD
ATOM     12  O   UNL A   1      30.647  23.255  27.154  1.00  0.00    -0.275 OA
BRANCH  10  13
ATOM     13  C   UNL A   1      32.882  23.965  26.674  1.00  0.00     0.104 C 
BRANCH  13  14
ATOM     14  C   UNL A   1      33.313  23.407  25.318  1.00  0.00     0.043 C 
BRANCH  14  15
ATOM     15  C   UNL A   1      34.373  22.343  25.281  1.00  0.00    -0.039 C 
ATOM     16  C   UNL A   1      35.671  22.544  25.505  1.00  0.00     0.001 A 
ATOM     17  C   UNL A   1      34.151  20.903  24.945  1.00  0.00     0.174 C 
ATOM     18  C   UNL A   1      36.458  23.672  25.873  1.00  0.00     0.010 A 
ATOM     19  C   UNL A   1      36.279  21.232  25.230  1.00  0.00     0.065 A 
ATOM     20  N   UNL A   1      35.488  20.267  24.878  1.00  0.00    -0.280 NA
ATOM     21  C   UNL A   1      37.788  23.519  25.979  1.00  0.00     0.001 A 
ATOM     22  C   UNL A   1      37.747  21.144  25.344  1.00  0.00     0.028 A 
ATOM     23  C   UNL A   1      38.430  22.243  25.706  1.00  0.00     0.002 A 
ENDBRANCH  14  15
ENDBRANCH  13  14
ENDBRANCH  10  13
ENDBRANCH   5   9
ENDBRANCH   3   5
ENDBRANCH   2   3
ENDBRANCH   1   2
BRANCH   1  24
ATOM     24  C   UNL A   1      33.001  31.013  26.897  1.00  0.00     0.275 C 
BRANCH  24  25
ATOM     25  O   UNL A   1      34.224  30.410  27.423  1.00  0.00    -0.458 OA
BRANCH  25  26
ATOM     26  C   UNL A   1      34.863  30.932  28.488  1.00  0.00     0.338 C 
ATOM     27  O   UNL A   1      34.498  31.895  29.141  1.00  0.00    -0.246 OA
BRANCH  26  28
ATOM     28  C   UNL A   1      36.184  30.290  28.762  1.00  0.00     0.060 A 
ATOM     29  C   UNL A   1      36.572  29.635  29.934  1.00  0.00     0.016 A 
ATOM     30  C   UNL A   1      37.096  30.354  27.709  1.00  0.00     0.016 A 
ATOM     31  C   UNL A   1      37.880  29.096  30.042  1.00  0.00     0.010 A 
ATOM     32  C   UNL A   1      38.324  29.706  27.771  1.00  0.00     0.010 A 
ATOM     33  C   UNL A   1      38.780  29.132  28.958  1.00  0.00    -0.014 A 
BRANCH  33  34
ATOM     34  C   UNL A   1      40.212  28.689  29.011  1.00  0.00     0.031 A 
ATOM     35  C   UNL A   1      41.287  29.645  29.517  1.00  0.00     0.074 A 
ATOM     36  C   UNL A   1      40.613  27.507  28.501  1.00  0.00     0.049 A 
ATOM     37  N   UNL A   1      42.593  29.513  29.518  1.00  0.00    -0.248 NA
ATOM     38  C   UNL A   1      40.835  30.957  30.011  1.00  0.00     0.031 C 
ATOM     39  C   UNL A   1      39.758  26.516  27.852  1.00  0.00     0.029 A 
ATOM     40  N   UNL A   1      41.868  26.945  28.446  1.00  0.00    -0.354 N 
ATOM     41  C   UNL A   1      43.098  30.742  29.933  1.00  0.00     0.074 A 
ATOM     42  C   UNL A   1      41.970  31.632  30.073  1.00  0.00     0.031 C 
ATOM     43  C   UNL A   1      40.500  25.447  27.515  1.00  0.00     0.029 A 
ATOM     44  C   UNL A   1      41.887  25.680  27.912  1.00  0.00     0.049 A 
ATOM     45  H   UNL A   1      42.679  27.408  28.759  1.00  0.00     0.167 HD
ATOM     46  C   UNL A   1      44.369  31.100  30.244  1.00  0.00     0.037 A 
ATOM     47  C   UNL A   1      42.898  24.798  27.789  1.00  0.00     0.037 A 
ATOM     48  C   UNL A   1      45.485  30.198  30.252  1.00  0.00     0.049 A 
ATOM     49  C   UNL A   1      44.279  25.153  28.273  1.00  0.00     0.074 A 
ATOM     50  C   UNL A   1      46.775  30.418  30.703  1.00  0.00     0.029 A 
ATOM     51  N   UNL A   1      45.430  28.885  29.816  1.00  0.00    -0.354 N 
ATOM     52  N   UNL A   1      44.716  26.277  28.784  1.00  0.00    -0.248 NA
ATOM     53  C   UNL A   1      45.304  24.100  28.180  1.00  0.00     0.031 C 
ATOM     54  C   UNL A   1      47.503  29.234  30.538  1.00  0.00     0.029 A 
ATOM     55  C   UNL A   1      46.660  28.278  29.996  1.00  0.00     0.049 A 
ATOM     56  H   UNL A   1      44.633  28.449  29.436  1.00  0.00     0.167 HD
ATOM     57  C   UNL A   1      46.050  26.055  29.108  1.00  0.00     0.074 A 
ATOM     58  C   UNL A   1      46.351  24.688  28.741  1.00  0.00     0.031 C 
ATOM     59  C   UNL A   1      46.944  26.910  29.659  1.00  0.00     0.037 A 
BRANCH  46  60
ATOM     60  C   UNL A   1      44.594  32.521  30.681  1.00  0.00     0.057 A 
ATOM     61  C   UNL A   1      44.929  33.517  29.756  1.00  0.00     0.134 A 
ATOM     62  C   UNL A   1      44.462  32.903  32.024  1.00  0.00     0.134 A 
ATOM     63  F   UNL A   1      45.089  33.218  28.458  1.00  0.00    -0.206 F 
ATOM     64  C   UNL A   1      45.099  34.846  30.149  1.00  0.00     0.040 A 
ATOM     65  C   UNL A   1      44.595  34.233  32.422  1.00  0.00     0.040 A 
ATOM     66  F   UNL A   1      44.136  31.998  32.959  1.00  0.00    -0.206 F 
ATOM     67  C   UNL A   1      44.916  35.210  31.483  1.00  0.00     0.006 A 
ENDBRANCH  46  60
BRANCH  47  68
ATOM     68  C   UNL A   1      42.630  23.429  27.283  1.00  0.00     0.057 A 
ATOM     69  C   UNL A   1      42.201  22.397  28.121  1.00  0.00     0.134 A 
ATOM     70  C   UNL A   1      42.763  23.148  25.917  1.00  0.00     0.134 A 
ATOM     71  F   UNL A   1      42.060  22.607  29.437  1.00  0.00    -0.206 F 
ATOM     72  C   UNL A   1      41.903  21.130  27.616  1.00  0.00     0.040 A 
ATOM     73  C   UNL A   1      42.452  21.892  25.397  1.00  0.00     0.040 A 
ATOM     74  F   UNL A   1      43.150  24.109  25.065  1.00  0.00    -0.206 F 
ATOM     75  C   UNL A   1      42.020  20.877  26.248  1.00  0.00     0.006 A 
ENDBRANCH  47  68
BRANCH  59  76
ATOM     76  C   UNL A   1      48.319  26.389  29.946  1.00  0.00     0.057 A 
ATOM     77  C   UNL A   1      48.611  25.786  31.175  1.00  0.00     0.134 A 
ATOM     78  C   UNL A   1      49.365  26.527  29.025  1.00  0.00     0.134 A 
ATOM     79  F   UNL A   1      47.654  25.631  32.102  1.00  0.00    -0.206 F 
ATOM     80  C   UNL A   1      49.899  25.342  31.482  1.00  0.00     0.040 A 
ATOM     81  C   UNL A   1      50.652  26.069  29.312  1.00  0.00     0.040 A 
ATOM     82  F   UNL A   1      49.144  27.084  27.825  1.00  0.00    -0.206 F 
ATOM     83  C   UNL A   1      50.923  25.481  30.547  1.00  0.00     0.006 A 
ENDBRANCH  59  76
ENDBRANCH  33  34
ENDBRANCH  26  28
ENDBRANCH  25  26
ENDBRANCH  24  25
ENDBRANCH   1  24
TORSDOF 16
ENDMDL
MODEL 2
REMARK VINA RESULT:     -10.6      4.145      8.965
REMARK SMILES CC(C)[C@H](NC(=O)CCC1=c2ccccc2=NC1)C(=O)OCCOC(=O)c1ccc(-c2c3nc(c(-c4c(F)cccc4F)c4ccc([nH]4)c(-c4c(F)cccc4F)c4nc(c(-c5c(F)cccc5F)c5ccc2[nH]5)C=C4)C=C3)cc1
REMARK SMILES IDX 22 1 21 2 19 3 20 4 4 5 2 6 1 7 3 8 5 9 6 10 7 12 8 13 9 14
REMARK SMILES IDX 10 15 11 16 18 17 12 18 16 19 17 20 13 21 15 22 14 23 23 24
REMARK SMILES IDX 24 25 25 26 26 27 27 28 28 29 80 30 29 31 79 32 30 33 31 34
REMARK SMILES IDX 32 35 73 36 33 37 78 38 72 39 74 40 34 41 77 42 71 43 70 44
REMARK SMILES IDX 35 46 61 47 44 48 60 49 45 50 48 51 59 52 75 53 46 54 47 55
REMARK SMILES IDX 58 57 76 58 49 59 36 60 37 61 42 62 38 63 39 64 41 65 43 66
REMARK SMILES IDX 40 67 62 68 63 69 68 70 64 71 65 72 67 73 69 74 66 75 50 76
REMARK SMILES IDX 51 77 56 78 52 79 53 80 55 81 57 82 54 83
REMARK H PARENT 5 11 74 45 48 56
REMARK Flexibility Score: inf
ROOT
ATOM      1  C   UNL A   1      37.031  21.478  24.682  1.00  0.00     0.274 C 
ENDROOT
BRANCH   1   2
ATOM      2  O   UNL A   1      35.864  22.326  24.732  1.00  0.00    -0.461 OA
BRANCH   2   3
ATOM      3  C   UNL A   1      35.552  22.980  23.563  1.00  0.00     0.329 C 
ATOM      4  O   UNL A   1      36.357  23.186  22.665  1.00  0.00    -0.250 OA
BRANCH   3   5
ATOM      5  C   UNL A   1      34.011  23.129  23.448  1.00  0.00     0.194 C 
BRANCH   5   6
ATOM      6  C   UNL A   1      33.067  21.935  23.777  1.00  0.00     0.017 C 
ATOM      7  C   UNL A   1      32.306  22.048  25.100  1.00  0.00     0.010 C 
ATOM      8  C   UNL A   1      32.121  21.536  22.648  1.00  0.00     0.010 C 
ENDBRANCH   5   6
BRANCH   5   9
ATOM      9  N   UNL A   1      33.545  23.835  22.243  1.00  0.00    -0.343 N 
ATOM     10  C   UNL A   1      33.147  25.122  22.074  1.00  0.00     0.221 C 
ATOM     11  H   UNL A   1      33.516  23.284  21.428  1.00  0.00     0.164 HD
ATOM     12  O   UNL A   1      32.559  25.420  21.033  1.00  0.00    -0.275 OA
BRANCH  10  13
ATOM     13  C   UNL A   1      33.493  26.169  23.105  1.00  0.00     0.104 C 
BRANCH  13  14
ATOM     14  C   UNL A   1      32.384  26.421  24.126  1.00  0.00     0.043 C 
BRANCH  14  15
ATOM     15  C   UNL A   1      32.150  27.826  24.605  1.00  0.00    -0.039 C 
ATOM     16  C   UNL A   1      32.870  28.448  25.537  1.00  0.00     0.001 A 
ATOM     17  C   UNL A   1      31.052  28.731  24.148  1.00  0.00     0.174 C 
ATOM     18  C   UNL A   1      34.019  28.107  26.306  1.00  0.00     0.010 A 
ATOM     19  C   UNL A   1      32.168  29.729  25.722  1.00  0.00     0.065 A 
ATOM     20  N   UNL A   1      31.116  29.945  24.995  1.00  0.00    -0.280 NA
ATOM     21  C   UNL A   1      34.470  28.990  27.211  1.00  0.00     0.001 A 
ATOM     22  C   UNL A   1      32.707  30.639  26.750  1.00  0.00     0.028 A 
ATOM     23  C   UNL A   1      33.801  30.262  27.432  1.00  0.00     0.002 A 
ENDBRANCH  14  15
ENDBRANCH  13  14
ENDBRANCH  10  13
ENDBRANCH   5   9
ENDBRANCH   3   5
ENDBRANCH   2   3
ENDBRANCH   1   2
BRANCH   1  24
ATOM     24  C   UNL A   1      38.009  21.854  25.815  1.00  0.00     0.275 C 
BRANCH  24  25
ATOM     25  O   UNL A   1      38.431  23.238  26.021  1.00  0.00    -0.458 OA
BRANCH  25  26
ATOM     26  C   UNL A   1      39.705  23.545  26.335  1.00  0.00     0.338 C 
ATOM     27  O   UNL A   1      40.679  22.834  26.151  1.00  0.00    -0.246 OA
BRANCH  26  28
ATOM     28  C   UNL A   1      39.840  24.837  27.071  1.00  0.00     0.060 A 
ATOM     29  C   UNL A   1      40.414  26.019  26.594  1.00  0.00     0.016 A 
ATOM     30  C   UNL A   1      39.311  24.835  28.361  1.00  0.00     0.016 A 
ATOM     31  C   UNL A   1      40.486  27.160  27.435  1.00  0.00     0.010 A 
ATOM     32  C   UNL A   1      39.261  25.993  29.128  1.00  0.00     0.010 A 
ATOM     33  C   UNL A   1      39.913  27.158  28.723  1.00  0.00    -0.014 A 
BRANCH  33  34
ATOM     34  C   UNL A   1      40.032  28.271  29.721  1.00  0.00     0.031 A 
ATOM     35  C   UNL A   1      38.987  29.382  29.752  1.00  0.00     0.074 A 
ATOM     36  C   UNL A   1      41.111  28.402  30.519  1.00  0.00     0.049 A 
ATOM     37  N   UNL A   1      38.974  30.501  30.439  1.00  0.00    -0.248 NA
ATOM     38  C   UNL A   1      37.849  29.254  28.827  1.00  0.00     0.031 C 
ATOM     39  C   UNL A   1      42.276  27.520  30.541  1.00  0.00     0.029 A 
ATOM     40  N   UNL A   1      41.399  29.352  31.472  1.00  0.00    -0.354 N 
ATOM     41  C   UNL A   1      37.882  31.223  29.966  1.00  0.00     0.074 A 
ATOM     42  C   UNL A   1      37.323  30.466  28.871  1.00  0.00     0.031 C 
ATOM     43  C   UNL A   1      43.126  27.937  31.496  1.00  0.00     0.029 A 
ATOM     44  C   UNL A   1      42.573  29.122  32.148  1.00  0.00     0.049 A 
ATOM     45  H   UNL A   1      40.818  30.126  31.652  1.00  0.00     0.167 HD
ATOM     46  C   UNL A   1      37.332  32.373  30.430  1.00  0.00     0.037 A 
ATOM     47  C   UNL A   1      43.121  29.772  33.193  1.00  0.00     0.037 A 
ATOM     48  C   UNL A   1      37.780  33.068  31.603  1.00  0.00     0.049 A 
ATOM     49  C   UNL A   1      42.427  30.965  33.796  1.00  0.00     0.074 A 
ATOM     50  C   UNL A   1      37.198  34.146  32.247  1.00  0.00     0.029 A 
ATOM     51  N   UNL A   1      38.907  32.726  32.329  1.00  0.00    -0.354 N 
ATOM     52  N   UNL A   1      41.323  31.561  33.418  1.00  0.00    -0.248 NA
ATOM     53  C   UNL A   1      43.050  31.562  34.988  1.00  0.00     0.031 C 
ATOM     54  C   UNL A   1      37.978  34.458  33.367  1.00  0.00     0.029 A 
ATOM     55  C   UNL A   1      39.035  33.565  33.422  1.00  0.00     0.049 A 
ATOM     56  H   UNL A   1      39.525  31.994  32.103  1.00  0.00     0.167 HD
ATOM     57  C   UNL A   1      41.101  32.573  34.344  1.00  0.00     0.074 A 
ATOM     58  C   UNL A   1      42.181  32.509  35.307  1.00  0.00     0.031 C 
ATOM     59  C   UNL A   1      40.092  33.476  34.392  1.00  0.00     0.037 A 
BRANCH  46  60
ATOM     60  C   UNL A   1      36.129  32.901  29.701  1.00  0.00     0.057 A 
ATOM     61  C   UNL A   1      34.840  32.742  30.223  1.00  0.00     0.134 A 
ATOM     62  C   UNL A   1      36.252  33.583  28.481  1.00  0.00     0.134 A 
ATOM     63  F   UNL A   1      34.646  32.083  31.376  1.00  0.00    -0.206 F 
ATOM     64  C   UNL A   1      33.721  33.265  29.572  1.00  0.00     0.040 A 
ATOM     65  C   UNL A   1      35.146  34.140  27.839  1.00  0.00     0.040 A 
ATOM     66  F   UNL A   1      37.460  33.775  27.930  1.00  0.00    -0.206 F 
ATOM     67  C   UNL A   1      33.875  33.981  28.384  1.00  0.00     0.006 A 
ENDBRANCH  46  60
BRANCH  47  68
ATOM     68  C   UNL A   1      44.353  29.245  33.830  1.00  0.00     0.057 A 
ATOM     69  C   UNL A   1      44.316  28.253  34.814  1.00  0.00     0.134 A 
ATOM     70  C   UNL A   1      45.609  29.708  33.419  1.00  0.00     0.134 A 
ATOM     71  F   UNL A   1      43.142  27.774  35.249  1.00  0.00    -0.206 F 
ATOM     72  C   UNL A   1      45.489  27.732  35.362  1.00  0.00     0.040 A 
ATOM     73  C   UNL A   1      46.789  29.185  33.946  1.00  0.00     0.040 A 
ATOM     74  F   UNL A   1      45.702  30.644  32.462  1.00  0.00    -0.206 F 
ATOM     75  C   UNL A   1      46.731  28.192  34.922  1.00  0.00     0.006 A 
ENDBRANCH  47  68
BRANCH  59  76
ATOM     76  C   UNL A   1      40.073  34.438  35.540  1.00  0.00     0.057 A 
ATOM     77  C   UNL A   1      40.796  35.636  35.478  1.00  0.00     0.134 A 
ATOM     78  C   UNL A   1      39.379  34.158  36.723  1.00  0.00     0.134 A 
ATOM     79  F   UNL A   1      41.487  35.959  34.374  1.00  0.00    -0.206 F 
ATOM     80  C   UNL A   1      40.834  36.521  36.558  1.00  0.00     0.040 A 
ATOM     81  C   UNL A   1      39.394  35.044  37.802  1.00  0.00     0.040 A 
ATOM     82  F   UNL A   1      38.658  33.033  36.838  1.00  0.00    -0.206 F 
ATOM     83  C   UNL A   1      40.129  36.226  37.723  1.00  0.00     0.006 A 
ENDBRANCH  59  76
ENDBRANCH  33  34
ENDBRANCH  26  28
ENDBRANCH  25  26
ENDBRANCH  24  25
ENDBRANCH   1  24
TORSDOF 16
ENDMDL
MODEL 3
REMARK VINA RESULT:     -10.5      1.968      6.639
REMARK SMILES CC(C)[C@H](NC(=O)CCC1=c2ccccc2=NC1)C(=O)OCCOC(=O)c1ccc(-c2c3nc(c(-c4c(F)cccc4F)c4ccc([nH]4)c(-c4c(F)cccc4F)c4nc(c(-c5c(F)cccc5F)c5ccc2[nH]5)C=C4)C=C3)cc1
REMARK SMILES IDX 22 1 21 2 19 3 20 4 4 5 2 6 1 7 3 8 5 9 6 10 7 12 8 13 9 14
REMARK SMILES IDX 10 15 11 16 18 17 12 18 16 19 17 20 13 21 15 22 14 23 23 24
REMARK SMILES IDX 24 25 25 26 26 27 27 28 28 29 80 30 29 31 79 32 30 33 31 34
REMARK SMILES IDX 32 35 73 36 33 37 78 38 72 39 74 40 34 41 77 42 71 43 70 44
REMARK SMILES IDX 35 46 61 47 44 48 60 49 45 50 48 51 59 52 75 53 46 54 47 55
REMARK SMILES IDX 58 57 76 58 49 59 36 60 37 61 42 62 38 63 39 64 41 65 43 66
REMARK SMILES IDX 40 67 62 68 63 69 68 70 64 71 65 72 67 73 69 74 66 75 50 76
REMARK SMILES IDX 51 77 56 78 52 79 53 80 55 81 57 82 54 83
REMARK H PARENT 5 11 74 45 48 56
REMARK Flexibility Score: inf
ROOT
ATOM      1  C   UNL A   1      32.542  30.004  26.640  1.00  0.00     0.274 C 
ENDROOT
BRANCH   1   2
ATOM      2  O   UNL A   1      32.757  29.511  25.301  1.00  0.00    -0.461 OA
BRANCH   2   3
ATOM      3  C   UNL A   1      31.726  28.775  24.764  1.00  0.00     0.329 C 
ATOM      4  O   UNL A   1      30.706  29.270  24.304  1.00  0.00    -0.250 OA
BRANCH   3   5
ATOM      5  C   UNL A   1      32.184  27.304  24.569  1.00  0.00     0.194 C 
BRANCH   5   6
ATOM      6  C   UNL A   1      32.851  26.516  25.735  1.00  0.00     0.017 C 
ATOM      7  C   UNL A   1      31.974  25.444  26.385  1.00  0.00     0.010 C 
ATOM      8  C   UNL A   1      34.235  25.956  25.421  1.00  0.00     0.010 C 
ENDBRANCH   5   6
BRANCH   5   9
ATOM      9  N   UNL A   1      32.884  27.037  23.302  1.00  0.00    -0.343 N 
ATOM     10  C   UNL A   1      32.937  25.911  22.545  1.00  0.00     0.221 C 
ATOM     11  H   UNL A   1      33.399  27.797  22.947  1.00  0.00     0.164 HD
ATOM     12  O   UNL A   1      33.791  25.842  21.659  1.00  0.00    -0.275 OA
BRANCH  10  13
ATOM     13  C   UNL A   1      31.920  24.813  22.740  1.00  0.00     0.104 C 
BRANCH  13  14
ATOM     14  C   UNL A   1      32.449  23.416  22.418  1.00  0.00     0.043 C 
BRANCH  14  15
ATOM     15  C   UNL A   1      33.091  22.617  23.518  1.00  0.00    -0.039 C 
ATOM     16  C   UNL A   1      34.401  22.541  23.746  1.00  0.00     0.001 A 
ATOM     17  C   UNL A   1      32.371  21.751  24.501  1.00  0.00     0.174 C 
ATOM     18  C   UNL A   1      35.554  23.140  23.163  1.00  0.00     0.010 A 
ATOM     19  C   UNL A   1      34.509  21.554  24.834  1.00  0.00     0.065 A 
ATOM     20  N   UNL A   1      33.407  21.042  25.288  1.00  0.00    -0.280 NA
ATOM     21  C   UNL A   1      36.764  22.796  23.633  1.00  0.00     0.001 A 
ATOM     22  C   UNL A   1      35.870  21.208  25.284  1.00  0.00     0.028 A 
ATOM     23  C   UNL A   1      36.915  21.818  24.699  1.00  0.00     0.002 A 
ENDBRANCH  14  15
ENDBRANCH  13  14
ENDBRANCH  10  13
ENDBRANCH   5   9
ENDBRANCH   3   5
ENDBRANCH   2   3
ENDBRANCH   1   2
BRANCH   1  24
ATOM     24  C   UNL A   1      33.837  30.645  27.183  1.00  0.00     0.275 C 
BRANCH  24  25
ATOM     25  O   UNL A   1      34.804  29.861  27.949  1.00  0.00    -0.458 OA
BRANCH  25  26
ATOM     26  C   UNL A   1      35.585  30.432  28.887  1.00  0.00     0.338 C 
ATOM     27  O   UNL A   1      35.278  31.375  29.597  1.00  0.00    -0.246 OA
BRANCH  26  28
ATOM     28  C   UNL A   1      36.970  29.876  28.925  1.00  0.00     0.060 A 
ATOM     29  C   UNL A   1      37.604  29.274  30.016  1.00  0.00     0.016 A 
ATOM     30  C   UNL A   1      37.671  29.969  27.723  1.00  0.00     0.016 A 
ATOM     31  C   UNL A   1      38.942  28.816  29.892  1.00  0.00     0.010 A 
ATOM     32  C   UNL A   1      38.929  29.396  27.570  1.00  0.00     0.010 A 
ATOM     33  C   UNL A   1      39.627  28.879  28.662  1.00  0.00    -0.014 A 
BRANCH  33  34
ATOM     34  C   UNL A   1      41.070  28.524  28.459  1.00  0.00     0.031 A 
ATOM     35  C   UNL A   1      41.455  27.110  28.035  1.00  0.00     0.074 A 
ATOM     36  C   UNL A   1      42.065  29.380  28.765  1.00  0.00     0.049 A 
ATOM     37  N   UNL A   1      42.642  26.559  27.937  1.00  0.00    -0.248 NA
ATOM     38  C   UNL A   1      40.353  26.171  27.767  1.00  0.00     0.031 C 
ATOM     39  C   UNL A   1      41.905  30.726  29.312  1.00  0.00     0.029 A 
ATOM     40  N   UNL A   1      43.429  29.227  28.662  1.00  0.00    -0.354 N 
ATOM     41  C   UNL A   1      42.413  25.210  27.678  1.00  0.00     0.074 A 
ATOM     42  C   UNL A   1      40.985  25.010  27.737  1.00  0.00     0.031 C 
ATOM     43  C   UNL A   1      43.116  31.296  29.444  1.00  0.00     0.029 A 
ATOM     44  C   UNL A   1      44.141  30.352  29.003  1.00  0.00     0.049 A 
ATOM     45  H   UNL A   1      43.856  28.389  28.372  1.00  0.00     0.167 HD
ATOM     46  C   UNL A   1      43.288  24.227  27.346  1.00  0.00     0.037 A 
ATOM     47  C   UNL A   1      45.463  30.604  28.935  1.00  0.00     0.037 A 
ATOM     48  C   UNL A   1      44.694  24.431  27.140  1.00  0.00     0.049 A 
ATOM     49  C   UNL A   1      46.412  29.551  28.426  1.00  0.00     0.074 A 
ATOM     50  C   UNL A   1      45.635  23.543  26.649  1.00  0.00     0.029 A 
ATOM     51  N   UNL A   1      45.352  25.624  27.381  1.00  0.00    -0.354 N 
ATOM     52  N   UNL A   1      46.164  28.318  28.060  1.00  0.00    -0.248 NA
ATOM     53  C   UNL A   1      47.827  29.939  28.302  1.00  0.00     0.031 C 
ATOM     54  C   UNL A   1      46.869  24.201  26.595  1.00  0.00     0.029 A 
ATOM     55  C   UNL A   1      46.688  25.500  27.041  1.00  0.00     0.049 A 
ATOM     56  H   UNL A   1      44.933  26.439  27.739  1.00  0.00     0.167 HD
ATOM     57  C   UNL A   1      47.379  27.798  27.628  1.00  0.00     0.074 A 
ATOM     58  C   UNL A   1      48.364  28.850  27.772  1.00  0.00     0.031 C 
ATOM     59  C   UNL A   1      47.653  26.558  27.156  1.00  0.00     0.037 A 
BRANCH  46  60
ATOM     60  C   UNL A   1      42.720  22.856  27.110  1.00  0.00     0.057 A 
ATOM     61  C   UNL A   1      42.550  22.358  25.813  1.00  0.00     0.134 A 
ATOM     62  C   UNL A   1      42.355  22.021  28.176  1.00  0.00     0.134 A 
ATOM     63  F   UNL A   1      42.861  23.110  24.746  1.00  0.00    -0.206 F 
ATOM     64  C   UNL A   1      42.062  21.069  25.586  1.00  0.00     0.040 A 
ATOM     65  C   UNL A   1      41.900  20.720  27.963  1.00  0.00     0.040 A 
ATOM     66  F   UNL A   1      42.500  22.435  29.444  1.00  0.00    -0.206 F 
ATOM     67  C   UNL A   1      41.751  20.241  26.664  1.00  0.00     0.006 A 
ENDBRANCH  46  60
BRANCH  47  68
ATOM     68  C   UNL A   1      45.976  31.960  29.249  1.00  0.00     0.057 A 
ATOM     69  C   UNL A   1      46.021  32.979  28.294  1.00  0.00     0.134 A 
ATOM     70  C   UNL A   1      46.396  32.267  30.550  1.00  0.00     0.134 A 
ATOM     71  F   UNL A   1      45.635  32.742  27.032  1.00  0.00    -0.206 F 
ATOM     72  C   UNL A   1      46.457  34.264  28.625  1.00  0.00     0.040 A 
ATOM     73  C   UNL A   1      46.817  33.549  30.898  1.00  0.00     0.040 A 
ATOM     74  F   UNL A   1      46.353  31.331  31.510  1.00  0.00    -0.206 F 
ATOM     75  C   UNL A   1      46.849  34.553  29.933  1.00  0.00     0.006 A 
ENDBRANCH  47  68
BRANCH  59  76
ATOM     76  C   UNL A   1      49.058  26.277  26.714  1.00  0.00     0.057 A 
ATOM     77  C   UNL A   1      49.489  26.643  25.433  1.00  0.00     0.134 A 
ATOM     78  C   UNL A   1      49.966  25.603  27.538  1.00  0.00     0.134 A 
ATOM     79  F   UNL A   1      48.663  27.285  24.594  1.00  0.00    -0.206 F 
ATOM     80  C   UNL A   1      50.776  26.342  24.984  1.00  0.00     0.040 A 
ATOM     81  C   UNL A   1      51.262  25.314  27.107  1.00  0.00     0.040 A 
ATOM     82  F   UNL A   1      49.616  25.238  28.780  1.00  0.00    -0.206 F 
ATOM     83  C   UNL A   1      51.667  25.678  25.824  1.00  0.00     0.006 A 
ENDBRANCH  59  76
ENDBRANCH  33  34
ENDBRANCH  26  28
ENDBRANCH  25  26
ENDBRANCH  24  25
ENDBRANCH   1  24
TORSDOF 16
ENDMDL
