MODEL 1
REMARK VINA RESULT:     -13.6      0.000      0.000
REMARK SMILES Cc1oc2cc3c(cc2c1C)[C@H](C)[C@@H](CC(=O)N[C@H](CC1=c2ccccc2=NC1)C(=O)OCCOC(=O)c1ccc(-c2c4nc(c(-c5c(F)cccc5F)c5ccc([nH]5)c(-c5c(F)cccc5F)c5nc(c(-c6c(F)cccc6F)c6ccc2[nH]6)C=C5)C=C4)cc1)C(=O)O3
REMARK SMILES IDX 33 1 32 2 30 3 31 4 19 5 18 6 16 7 17 8 15 10 14 11 1 12
REMARK SMILES IDX 2 13 3 14 10 15 4 16 9 17 11 18 5 19 8 20 6 21 7 22 94 23
REMARK SMILES IDX 12 24 92 25 13 26 93 27 20 28 21 29 22 30 29 31 23 32 27 33
REMARK SMILES IDX 28 34 24 35 26 36 25 37 34 38 35 39 36 40 37 41 38 42 39 43
REMARK SMILES IDX 91 44 40 45 90 46 41 47 42 48 43 49 84 50 44 51 89 52 83 53
REMARK SMILES IDX 85 54 45 55 88 56 82 57 81 58 46 60 72 61 55 62 71 63 56 64
REMARK SMILES IDX 59 65 70 66 86 67 57 68 58 69 69 71 87 72 60 73 47 74 48 75
REMARK SMILES IDX 53 76 49 77 50 78 52 79 54 80 51 81 73 82 74 83 79 84 75 85
REMARK SMILES IDX 76 86 78 87 80 88 77 89 61 90 62 91 67 92 63 93 64 94 66 95
REMARK SMILES IDX 68 96 65 97
REMARK H PARENT 18 9 85 59 59 70
REMARK Flexibility Score: inf
ROOT
ATOM      1  C   UNL A   1      36.874  21.660  25.088  1.00  0.00     0.274 C 
ENDROOT
BRANCH   1   2
ATOM      2  O   UNL A   1      35.795  20.894  25.661  1.00  0.00    -0.461 OA
BRANCH   2   3
ATOM      3  C   UNL A   1      34.667  21.520  26.067  1.00  0.00     0.329 C 
ATOM      4  O   UNL A   1      34.241  21.491  27.214  1.00  0.00    -0.250 OA
BRANCH   3   5
ATOM      5  C   UNL A   1      33.893  22.112  24.861  1.00  0.00     0.196 C 
BRANCH   5   6
ATOM      6  N   UNL A   1      32.711  22.879  25.330  1.00  0.00    -0.342 N 
ATOM      7  C   UNL A   1      32.587  24.028  26.059  1.00  0.00     0.221 C 
ATOM      8  O   UNL A   1      31.512  24.216  26.636  1.00  0.00    -0.275 OA
ATOM      9  H   UNL A   1      31.850  22.483  25.066  1.00  0.00     0.164 HD
BRANCH   7  10
ATOM     10  C   UNL A   1      33.662  25.113  26.111  1.00  0.00     0.116 C 
BRANCH  10  11
ATOM     11  C   UNL A   1      33.290  26.399  25.367  1.00  0.00     0.116 C 
ATOM     12  C   UNL A   1      28.079  31.181  20.656  1.00  0.00     0.088 C 
ATOM     13  C   UNL A   1      28.843  30.397  21.647  1.00  0.00     0.105 A 
ATOM     14  O   UNL A   1      30.057  29.965  21.217  1.00  0.00    -0.461 OA
ATOM     15  C   UNL A   1      28.622  30.002  22.957  1.00  0.00    -0.002 A 
ATOM     16  C   UNL A   1      30.630  29.293  22.245  1.00  0.00     0.138 A 
ATOM     17  C   UNL A   1      29.787  29.267  23.348  1.00  0.00     0.024 A 
ATOM     18  C   UNL A   1      27.438  30.281  23.803  1.00  0.00     0.049 C 
ATOM     19  C   UNL A   1      31.878  28.701  22.192  1.00  0.00     0.095 A 
ATOM     20  C   UNL A   1      30.203  28.578  24.512  1.00  0.00     0.020 A 
ATOM     21  C   UNL A   1      32.255  28.017  23.346  1.00  0.00     0.138 A 
ATOM     22  C   UNL A   1      31.460  27.949  24.523  1.00  0.00    -0.001 A 
ATOM     23  O   UNL A   1      33.444  27.303  23.227  1.00  0.00    -0.426 OA
ATOM     24  C   UNL A   1      31.888  27.003  25.672  1.00  0.00     0.035 C 
ATOM     25  C   UNL A   1      33.121  26.164  23.899  1.00  0.00     0.315 C 
ATOM     26  C   UNL A   1      31.812  27.626  27.064  1.00  0.00     0.014 C 
ATOM     27  O   UNL A   1      32.479  25.244  23.410  1.00  0.00    -0.251 OA
ENDBRANCH  10  11
ENDBRANCH   7  10
ENDBRANCH   5   6
BRANCH   5  28
ATOM     28  C   UNL A   1      33.531  21.118  23.730  1.00  0.00     0.070 C 
BRANCH  28  29
ATOM     29  C   UNL A   1      32.669  19.873  23.925  1.00  0.00    -0.037 C 
ATOM     30  C   UNL A   1      33.154  18.750  24.462  1.00  0.00     0.001 A 
ATOM     31  C   UNL A   1      31.935  19.502  22.642  1.00  0.00     0.174 C 
ATOM     32  C   UNL A   1      32.672  18.032  25.622  1.00  0.00     0.010 A 
ATOM     33  C   UNL A   1      33.217  17.888  23.248  1.00  0.00     0.065 A 
ATOM     34  N   UNL A   1      32.620  18.282  22.168  1.00  0.00    -0.280 NA
ATOM     35  C   UNL A   1      32.987  16.726  25.716  1.00  0.00     0.001 A 
ATOM     36  C   UNL A   1      33.939  16.620  23.462  1.00  0.00     0.028 A 
ATOM     37  C   UNL A   1      33.815  16.092  24.693  1.00  0.00     0.002 A 
ENDBRANCH  28  29
ENDBRANCH   5  28
ENDBRANCH   3   5
ENDBRANCH   2   3
ENDBRANCH   1   2
BRANCH   1  38
ATOM     38  C   UNL A   1      38.181  21.171  25.721  1.00  0.00     0.275 C 
BRANCH  38  39
ATOM     39  O   UNL A   1      38.979  22.318  26.044  1.00  0.00    -0.458 OA
BRANCH  39  40
ATOM     40  C   UNL A   1      39.990  22.090  26.926  1.00  0.00     0.338 C 
ATOM     41  O   UNL A   1      40.581  21.064  27.151  1.00  0.00    -0.246 OA
BRANCH  40  42
ATOM     42  C   UNL A   1      40.433  23.429  27.340  1.00  0.00     0.060 A 
ATOM     43  C   UNL A   1      39.497  24.365  27.767  1.00  0.00     0.016 A 
ATOM     44  C   UNL A   1      41.772  23.784  27.138  1.00  0.00     0.016 A 
ATOM     45  C   UNL A   1      39.905  25.676  27.958  1.00  0.00     0.010 A 
ATOM     46  C   UNL A   1      42.173  25.101  27.295  1.00  0.00     0.010 A 
ATOM     47  C   UNL A   1      41.236  26.050  27.706  1.00  0.00    -0.014 A 
BRANCH  47  48
ATOM     48  C   UNL A   1      41.599  27.448  27.953  1.00  0.00     0.031 A 
ATOM     49  C   UNL A   1      40.498  28.456  27.879  1.00  0.00     0.074 A 
ATOM     50  C   UNL A   1      42.657  27.706  28.742  1.00  0.00     0.049 A 
ATOM     51  N   UNL A   1      39.741  28.812  28.877  1.00  0.00    -0.248 NA
ATOM     52  C   UNL A   1      40.033  28.943  26.580  1.00  0.00     0.031 C 
ATOM     53  C   UNL A   1      42.933  27.034  30.015  1.00  0.00     0.029 A 
ATOM     54  N   UNL A   1      43.564  28.731  28.678  1.00  0.00    -0.354 N 
ATOM     55  C   UNL A   1      38.699  29.558  28.349  1.00  0.00     0.074 A 
ATOM     56  C   UNL A   1      38.922  29.611  26.921  1.00  0.00     0.031 C 
ATOM     57  C   UNL A   1      43.835  27.770  30.696  1.00  0.00     0.029 A 
ATOM     58  C   UNL A   1      44.287  28.877  29.857  1.00  0.00     0.049 A 
ATOM     59  H   UNL A   1      43.690  29.301  27.885  1.00  0.00     0.167 HD
ATOM     60  C   UNL A   1      37.706  30.109  29.097  1.00  0.00     0.037 A 
ATOM     61  C   UNL A   1      44.759  30.073  30.301  1.00  0.00     0.037 A 
ATOM     62  C   UNL A   1      37.792  29.909  30.509  1.00  0.00     0.049 A 
ATOM     63  C   UNL A   1      43.482  30.682  30.834  1.00  0.00     0.074 A 
ATOM     64  C   UNL A   1      37.264  29.056  31.453  1.00  0.00     0.029 A 
ATOM     65  N   UNL A   1      38.630  30.738  31.218  1.00  0.00    -0.354 N 
ATOM     66  N   UNL A   1      42.920  30.416  31.983  1.00  0.00    -0.248 NA
ATOM     67  C   UNL A   1      42.603  31.346  29.868  1.00  0.00     0.031 C 
ATOM     68  C   UNL A   1      38.158  29.124  32.567  1.00  0.00     0.029 A 
ATOM     69  C   UNL A   1      39.199  29.978  32.206  1.00  0.00     0.049 A 
ATOM     70  H   UNL A   1      38.792  31.695  31.046  1.00  0.00     0.167 HD
ATOM     71  C   UNL A   1      41.550  30.622  31.783  1.00  0.00     0.074 A 
ATOM     72  C   UNL A   1      41.429  31.223  30.472  1.00  0.00     0.031 C 
ATOM     73  C   UNL A   1      40.581  30.119  32.601  1.00  0.00     0.037 A 
BRANCH  60  74
ATOM     74  C   UNL A   1      36.692  31.043  28.570  1.00  0.00     0.057 A 
ATOM     75  C   UNL A   1      36.958  32.416  28.635  1.00  0.00     0.134 A 
ATOM     76  C   UNL A   1      35.407  30.641  28.206  1.00  0.00     0.134 A 
ATOM     77  F   UNL A   1      38.179  32.850  28.991  1.00  0.00    -0.206 F 
ATOM     78  C   UNL A   1      35.969  33.365  28.395  1.00  0.00     0.040 A 
ATOM     79  C   UNL A   1      34.406  31.584  27.951  1.00  0.00     0.040 A 
ATOM     80  F   UNL A   1      35.092  29.339  28.138  1.00  0.00    -0.206 F 
ATOM     81  C   UNL A   1      34.682  32.947  28.063  1.00  0.00     0.006 A 
ENDBRANCH  60  74
BRANCH  61  82
ATOM     82  C   UNL A   1      45.683  30.764  29.344  1.00  0.00     0.057 A 
ATOM     83  C   UNL A   1      46.601  29.982  28.609  1.00  0.00     0.134 A 
ATOM     84  C   UNL A   1      45.720  32.139  29.088  1.00  0.00     0.134 A 
ATOM     85  F   UNL A   1      46.729  28.669  28.857  1.00  0.00    -0.206 F 
ATOM     86  C   UNL A   1      47.399  30.514  27.592  1.00  0.00     0.040 A 
ATOM     87  C   UNL A   1      46.500  32.684  28.060  1.00  0.00     0.040 A 
ATOM     88  F   UNL A   1      44.993  33.001  29.810  1.00  0.00    -0.206 F 
ATOM     89  C   UNL A   1      47.326  31.868  27.293  1.00  0.00     0.006 A 
ENDBRANCH  61  82
BRANCH  73  90
ATOM     90  C   UNL A   1      41.058  29.467  33.851  1.00  0.00     0.057 A 
ATOM     91  C   UNL A   1      41.391  28.110  33.861  1.00  0.00     0.134 A 
ATOM     92  C   UNL A   1      41.241  30.191  35.037  1.00  0.00     0.134 A 
ATOM     93  F   UNL A   1      41.250  27.366  32.753  1.00  0.00    -0.206 F 
ATOM     94  C   UNL A   1      41.907  27.498  35.004  1.00  0.00     0.040 A 
ATOM     95  C   UNL A   1      41.781  29.596  36.177  1.00  0.00     0.040 A 
ATOM     96  F   UNL A   1      40.926  31.494  35.106  1.00  0.00    -0.206 F 
ATOM     97  C   UNL A   1      42.117  28.245  36.162  1.00  0.00     0.006 A 
ENDBRANCH  73  90
ENDBRANCH  47  48
ENDBRANCH  40  42
ENDBRANCH  39  40
ENDBRANCH  38  39
ENDBRANCH   1  38
TORSDOF 16
ENDMDL
MODEL 2
REMARK VINA RESULT:     -13.3      2.208      3.689
REMARK SMILES Cc1oc2cc3c(cc2c1C)[C@H](C)[C@@H](CC(=O)N[C@H](CC1=c2ccccc2=NC1)C(=O)OCCOC(=O)c1ccc(-c2c4nc(c(-c5c(F)cccc5F)c5ccc([nH]5)c(-c5c(F)cccc5F)c5nc(c(-c6c(F)cccc6F)c6ccc2[nH]6)C=C5)C=C4)cc1)C(=O)O3
REMARK SMILES IDX 33 1 32 2 30 3 31 4 19 5 18 6 16 7 17 8 15 10 14 11 1 12
REMARK SMILES IDX 2 13 3 14 10 15 4 16 9 17 11 18 5 19 8 20 6 21 7 22 94 23
REMARK SMILES IDX 12 24 92 25 13 26 93 27 20 28 21 29 22 30 29 31 23 32 27 33
REMARK SMILES IDX 28 34 24 35 26 36 25 37 34 38 35 39 36 40 37 41 38 42 39 43
REMARK SMILES IDX 91 44 40 45 90 46 41 47 42 48 43 49 84 50 44 51 89 52 83 53
REMARK SMILES IDX 85 54 45 55 88 56 82 57 81 58 46 60 72 61 55 62 71 63 56 64
REMARK SMILES IDX 59 65 70 66 86 67 57 68 58 69 69 71 87 72 60 73 47 74 48 75
REMARK SMILES IDX 53 76 49 77 50 78 52 79 54 80 51 81 73 82 74 83 79 84 75 85
REMARK SMILES IDX 76 86 78 87 80 88 77 89 61 90 62 91 67 92 63 93 64 94 66 95
REMARK SMILES IDX 68 96 65 97
REMARK H PARENT 18 9 85 59 59 70
REMARK Flexibility Score: inf
ROOT
ATOM      1  C   UNL A   1      36.821  21.712  24.721  1.00  0.00     0.274 C 
ENDROOT
BRANCH   1   2
ATOM      2  O   UNL A   1      35.697  20.906  25.130  1.00  0.00    -0.461 OA
BRANCH   2   3
ATOM      3  C   UNL A   1      34.699  21.460  25.855  1.00  0.00     0.329 C 
ATOM      4  O   UNL A   1      34.707  21.550  27.075  1.00  0.00    -0.250 OA
BRANCH   3   5
ATOM      5  C   UNL A   1      33.476  21.787  24.961  1.00  0.00     0.196 C 
BRANCH   5   6
ATOM      6  N   UNL A   1      32.267  22.002  25.797  1.00  0.00    -0.342 N 
ATOM      7  C   UNL A   1      31.274  22.939  25.759  1.00  0.00     0.221 C 
ATOM      8  O   UNL A   1      30.628  23.118  26.795  1.00  0.00    -0.275 OA
ATOM      9  H   UNL A   1      32.160  21.340  26.518  1.00  0.00     0.164 HD
BRANCH   7  10
ATOM     10  C   UNL A   1      30.874  23.692  24.490  1.00  0.00     0.116 C 
BRANCH  10  11
ATOM     11  C   UNL A   1      31.356  25.145  24.447  1.00  0.00     0.116 C 
ATOM     12  C   UNL A   1      34.258  32.270  28.058  1.00  0.00     0.088 C 
ATOM     13  C   UNL A   1      33.965  30.952  27.459  1.00  0.00     0.105 A 
ATOM     14  O   UNL A   1      32.757  30.862  26.846  1.00  0.00    -0.461 OA
ATOM     15  C   UNL A   1      34.656  29.755  27.351  1.00  0.00    -0.002 A 
ATOM     16  C   UNL A   1      32.660  29.611  26.334  1.00  0.00     0.138 A 
ATOM     17  C   UNL A   1      33.798  28.870  26.624  1.00  0.00     0.024 A 
ATOM     18  C   UNL A   1      36.010  29.439  27.862  1.00  0.00     0.049 C 
ATOM     19  C   UNL A   1      31.567  29.135  25.633  1.00  0.00     0.095 A 
ATOM     20  C   UNL A   1      33.866  27.522  26.196  1.00  0.00     0.020 A 
ATOM     21  C   UNL A   1      31.655  27.802  25.239  1.00  0.00     0.138 A 
ATOM     22  C   UNL A   1      32.785  26.975  25.483  1.00  0.00    -0.001 A 
ATOM     23  O   UNL A   1      30.491  27.295  24.667  1.00  0.00    -0.426 OA
ATOM     24  C   UNL A   1      32.696  25.460  25.174  1.00  0.00     0.035 C 
ATOM     25  C   UNL A   1      30.457  26.053  25.225  1.00  0.00     0.315 C 
ATOM     26  C   UNL A   1      33.908  24.894  24.436  1.00  0.00     0.014 C 
ATOM     27  O   UNL A   1      30.044  25.825  26.353  1.00  0.00    -0.251 OA
ENDBRANCH  10  11
ENDBRANCH   7  10
ENDBRANCH   5   6
BRANCH   5  28
ATOM     28  C   UNL A   1      33.208  20.810  23.790  1.00  0.00     0.070 C 
BRANCH  28  29
ATOM     29  C   UNL A   1      32.502  19.465  23.937  1.00  0.00    -0.037 C 
ATOM     30  C   UNL A   1      33.073  18.427  24.556  1.00  0.00     0.001 A 
ATOM     31  C   UNL A   1      31.961  18.975  22.600  1.00  0.00     0.174 C 
ATOM     32  C   UNL A   1      32.571  17.674  25.685  1.00  0.00     0.010 A 
ATOM     33  C   UNL A   1      33.374  17.559  23.384  1.00  0.00     0.065 A 
ATOM     34  N   UNL A   1      32.846  17.849  22.237  1.00  0.00    -0.280 NA
ATOM     35  C   UNL A   1      33.044  16.424  25.853  1.00  0.00     0.001 A 
ATOM     36  C   UNL A   1      34.231  16.404  23.710  1.00  0.00     0.028 A 
ATOM     37  C   UNL A   1      34.051  15.888  24.940  1.00  0.00     0.002 A 
ENDBRANCH  28  29
ENDBRANCH   5  28
ENDBRANCH   3   5
ENDBRANCH   2   3
ENDBRANCH   1   2
BRANCH   1  38
ATOM     38  C   UNL A   1      38.079  21.118  25.361  1.00  0.00     0.275 C 
BRANCH  38  39
ATOM     39  O   UNL A   1      38.902  22.200  25.820  1.00  0.00    -0.458 OA
BRANCH  39  40
ATOM     40  C   UNL A   1      39.968  21.833  26.581  1.00  0.00     0.338 C 
ATOM     41  O   UNL A   1      40.400  20.729  26.798  1.00  0.00    -0.246 OA
BRANCH  40  42
ATOM     42  C   UNL A   1      40.687  23.088  26.847  1.00  0.00     0.060 A 
ATOM     43  C   UNL A   1      41.965  23.274  26.330  1.00  0.00     0.016 A 
ATOM     44  C   UNL A   1      40.131  24.000  27.751  1.00  0.00     0.016 A 
ATOM     45  C   UNL A   1      42.702  24.367  26.755  1.00  0.00     0.010 A 
ATOM     46  C   UNL A   1      40.881  25.074  28.204  1.00  0.00     0.010 A 
ATOM     47  C   UNL A   1      42.171  25.258  27.704  1.00  0.00    -0.014 A 
BRANCH  47  48
ATOM     48  C   UNL A   1      43.000  26.404  28.087  1.00  0.00     0.031 A 
ATOM     49  C   UNL A   1      42.284  27.655  28.483  1.00  0.00     0.074 A 
ATOM     50  C   UNL A   1      44.219  26.168  28.603  1.00  0.00     0.049 A 
ATOM     51  N   UNL A   1      41.893  27.944  29.690  1.00  0.00    -0.248 NA
ATOM     52  C   UNL A   1      41.751  28.552  27.457  1.00  0.00     0.031 C 
ATOM     53  C   UNL A   1      44.513  25.156  29.622  1.00  0.00     0.029 A 
ATOM     54  N   UNL A   1      45.374  26.897  28.484  1.00  0.00    -0.354 N 
ATOM     55  C   UNL A   1      41.059  29.047  29.593  1.00  0.00     0.074 A 
ATOM     56  C   UNL A   1      41.000  29.387  28.189  1.00  0.00     0.031 C 
ATOM     57  C   UNL A   1      45.719  25.434  30.160  1.00  0.00     0.029 A 
ATOM     58  C   UNL A   1      46.323  26.551  29.439  1.00  0.00     0.049 A 
ATOM     59  H   UNL A   1      45.515  27.589  27.798  1.00  0.00     0.167 HD
ATOM     60  C   UNL A   1      40.462  29.643  30.659  1.00  0.00     0.037 A 
ATOM     61  C   UNL A   1      47.229  27.430  29.945  1.00  0.00     0.037 A 
ATOM     62  C   UNL A   1      40.758  29.087  31.942  1.00  0.00     0.049 A 
ATOM     63  C   UNL A   1      46.344  28.208  30.893  1.00  0.00     0.074 A 
ATOM     64  C   UNL A   1      40.184  28.201  32.827  1.00  0.00     0.029 A 
ATOM     65  N   UNL A   1      41.938  29.462  32.539  1.00  0.00    -0.354 N 
ATOM     66  N   UNL A   1      45.965  27.828  32.084  1.00  0.00    -0.248 NA
ATOM     67  C   UNL A   1      45.548  29.299  30.322  1.00  0.00     0.031 C 
ATOM     68  C   UNL A   1      41.255  27.752  33.662  1.00  0.00     0.029 A 
ATOM     69  C   UNL A   1      42.420  28.359  33.195  1.00  0.00     0.049 A 
ATOM     70  H   UNL A   1      42.358  30.352  32.501  1.00  0.00     0.167 HD
ATOM     71  C   UNL A   1      44.721  28.435  32.289  1.00  0.00     0.074 A 
ATOM     72  C   UNL A   1      44.540  29.349  31.182  1.00  0.00     0.031 C 
ATOM     73  C   UNL A   1      43.825  28.025  33.232  1.00  0.00     0.037 A 
BRANCH  60  74
ATOM     74  C   UNL A   1      39.714  30.912  30.588  1.00  0.00     0.057 A 
ATOM     75  C   UNL A   1      38.321  30.855  30.454  1.00  0.00     0.134 A 
ATOM     76  C   UNL A   1      40.336  32.152  30.439  1.00  0.00     0.134 A 
ATOM     77  F   UNL A   1      37.680  29.681  30.580  1.00  0.00    -0.206 F 
ATOM     78  C   UNL A   1      37.570  31.982  30.133  1.00  0.00     0.040 A 
ATOM     79  C   UNL A   1      39.593  33.294  30.127  1.00  0.00     0.040 A 
ATOM     80  F   UNL A   1      41.668  32.265  30.546  1.00  0.00    -0.206 F 
ATOM     81  C   UNL A   1      38.210  33.206  29.956  1.00  0.00     0.006 A 
ENDBRANCH  60  74
BRANCH  61  82
ATOM     82  C   UNL A   1      48.116  28.063  28.916  1.00  0.00     0.057 A 
ATOM     83  C   UNL A   1      48.518  27.289  27.805  1.00  0.00     0.134 A 
ATOM     84  C   UNL A   1      48.587  29.380  28.936  1.00  0.00     0.134 A 
ATOM     85  F   UNL A   1      48.218  25.982  27.741  1.00  0.00    -0.206 F 
ATOM     86  C   UNL A   1      49.221  27.829  26.724  1.00  0.00     0.040 A 
ATOM     87  C   UNL A   1      49.275  29.941  27.852  1.00  0.00     0.040 A 
ATOM     88  F   UNL A   1      48.384  30.175  29.994  1.00  0.00    -0.206 F 
ATOM     89  C   UNL A   1      49.575  29.172  26.733  1.00  0.00     0.006 A 
ENDBRANCH  61  82
BRANCH  73  90
ATOM     90  C   UNL A   1      44.307  26.983  34.179  1.00  0.00     0.057 A 
ATOM     91  C   UNL A   1      44.832  27.343  35.423  1.00  0.00     0.134 A 
ATOM     92  C   UNL A   1      44.206  25.616  33.886  1.00  0.00     0.134 A 
ATOM     93  F   UNL A   1      44.943  28.636  35.768  1.00  0.00    -0.206 F 
ATOM     94  C   UNL A   1      45.224  26.379  36.352  1.00  0.00     0.040 A 
ATOM     95  C   UNL A   1      44.569  24.643  34.818  1.00  0.00     0.040 A 
ATOM     96  F   UNL A   1      43.729  25.197  32.704  1.00  0.00    -0.206 F 
ATOM     97  C   UNL A   1      45.079  25.024  36.056  1.00  0.00     0.006 A 
ENDBRANCH  73  90
ENDBRANCH  47  48
ENDBRANCH  40  42
ENDBRANCH  39  40
ENDBRANCH  38  39
ENDBRANCH   1  38
TORSDOF 16
ENDMDL
MODEL 3
REMARK VINA RESULT:     -13.3      2.733      8.125
REMARK SMILES Cc1oc2cc3c(cc2c1C)[C@H](C)[C@@H](CC(=O)N[C@H](CC1=c2ccccc2=NC1)C(=O)OCCOC(=O)c1ccc(-c2c4nc(c(-c5c(F)cccc5F)c5ccc([nH]5)c(-c5c(F)cccc5F)c5nc(c(-c6c(F)cccc6F)c6ccc2[nH]6)C=C5)C=C4)cc1)C(=O)O3
REMARK SMILES IDX 33 1 32 2 30 3 31 4 19 5 18 6 16 7 17 8 15 10 14 11 1 12
REMARK SMILES IDX 2 13 3 14 10 15 4 16 9 17 11 18 5 19 8 20 6 21 7 22 94 23
REMARK SMILES IDX 12 24 92 25 13 26 93 27 20 28 21 29 22 30 29 31 23 32 27 33
REMARK SMILES IDX 28 34 24 35 26 36 25 37 34 38 35 39 36 40 37 41 38 42 39 43
REMARK SMILES IDX 91 44 40 45 90 46 41 47 42 48 43 49 84 50 44 51 89 52 83 53
REMARK SMILES IDX 85 54 45 55 88 56 82 57 81 58 46 60 72 61 55 62 71 63 56 64
REMARK SMILES IDX 59 65 70 66 86 67 57 68 58 69 69 71 87 72 60 73 47 74 48 75
REMARK SMILES IDX 53 76 49 77 50 78 52 79 54 80 51 81 73 82 74 83 79 84 75 85
REMARK SMILES IDX 76 86 78 87 80 88 77 89 61 90 62 91 67 92 63 93 64 94 66 95
REMARK SMILES IDX 68 96 65 97
REMARK H PARENT 18 9 85 59 59 70
REMARK Flexibility Score: inf
ROOT
ATOM      1  C   UNL A   1      32.502  30.858  26.808  1.00  0.00     0.274 C 
ENDROOT
BRANCH   1   2
ATOM      2  O   UNL A   1      33.088  30.151  25.696  1.00  0.00    -0.461 OA
BRANCH   2   3
ATOM      3  C   UNL A   1      32.298  29.448  24.853  1.00  0.00     0.329 C 
ATOM      4  O   UNL A   1      31.134  29.736  24.603  1.00  0.00    -0.250 OA
BRANCH   3   5
ATOM      5  C   UNL A   1      32.991  28.139  24.400  1.00  0.00     0.196 C 
BRANCH   5   6
ATOM      6  N   UNL A   1      32.084  27.345  23.532  1.00  0.00    -0.342 N 
ATOM      7  C   UNL A   1      32.317  26.389  22.584  1.00  0.00     0.221 C 
ATOM      8  O   UNL A   1      31.428  26.193  21.751  1.00  0.00    -0.275 OA
ATOM      9  H   UNL A   1      31.130  27.548  23.665  1.00  0.00     0.164 HD
BRANCH   7  10
ATOM     10  C   UNL A   1      33.563  25.504  22.569  1.00  0.00     0.116 C 
BRANCH  10  11
ATOM     11  C   UNL A   1      33.426  24.218  23.389  1.00  0.00     0.116 C 
ATOM     12  C   UNL A   1      35.122  16.046  24.993  1.00  0.00     0.088 C 
ATOM     13  C   UNL A   1      35.037  17.507  24.794  1.00  0.00     0.105 A 
ATOM     14  O   UNL A   1      33.800  17.966  24.470  1.00  0.00    -0.461 OA
ATOM     15  C   UNL A   1      35.937  18.557  24.884  1.00  0.00    -0.002 A 
ATOM     16  C   UNL A   1      33.891  19.312  24.351  1.00  0.00     0.138 A 
ATOM     17  C   UNL A   1      35.192  19.741  24.582  1.00  0.00     0.024 A 
ATOM     18  C   UNL A   1      37.375  18.493  25.232  1.00  0.00     0.049 C 
ATOM     19  C   UNL A   1      32.833  20.142  24.028  1.00  0.00     0.095 A 
ATOM     20  C   UNL A   1      35.488  21.121  24.470  1.00  0.00     0.020 A 
ATOM     21  C   UNL A   1      33.157  21.491  23.909  1.00  0.00     0.138 A 
ATOM     22  C   UNL A   1      34.458  22.017  24.138  1.00  0.00    -0.001 A 
ATOM     23  O   UNL A   1      32.119  22.291  23.439  1.00  0.00    -0.426 OA
ATOM     24  C   UNL A   1      34.748  23.498  23.789  1.00  0.00     0.035 C 
ATOM     25  C   UNL A   1      32.800  23.115  22.595  1.00  0.00     0.315 C 
ATOM     26  C   UNL A   1      35.524  24.260  24.861  1.00  0.00     0.014 C 
ATOM     27  O   UNL A   1      33.123  22.806  21.457  1.00  0.00    -0.251 OA
ENDBRANCH  10  11
ENDBRANCH   7  10
ENDBRANCH   5   6
BRANCH   5  28
ATOM     28  C   UNL A   1      33.622  27.279  25.523  1.00  0.00     0.070 C 
BRANCH  28  29
ATOM     29  C   UNL A   1      32.819  26.488  26.553  1.00  0.00    -0.037 C 
ATOM     30  C   UNL A   1      32.416  25.233  26.327  1.00  0.00     0.001 A 
ATOM     31  C   UNL A   1      31.620  27.284  27.050  1.00  0.00     0.174 C 
ATOM     32  C   UNL A   1      32.684  24.052  27.120  1.00  0.00     0.010 A 
ATOM     33  C   UNL A   1      30.958  25.462  26.126  1.00  0.00     0.065 A 
ATOM     34  N   UNL A   1      30.455  26.614  26.438  1.00  0.00    -0.280 NA
ATOM     35  C   UNL A   1      31.832  23.017  26.993  1.00  0.00     0.001 A 
ATOM     36  C   UNL A   1      30.239  24.276  25.623  1.00  0.00     0.028 A 
ATOM     37  C   UNL A   1      30.712  23.094  26.058  1.00  0.00     0.002 A 
ENDBRANCH  28  29
ENDBRANCH   5  28
ENDBRANCH   3   5
ENDBRANCH   2   3
ENDBRANCH   1   2
BRANCH   1  38
ATOM     38  C   UNL A   1      33.612  31.125  27.829  1.00  0.00     0.275 C 
BRANCH  38  39
ATOM     39  O   UNL A   1      34.612  31.938  27.202  1.00  0.00    -0.458 OA
BRANCH  39  40
ATOM     40  C   UNL A   1      35.355  32.699  28.051  1.00  0.00     0.338 C 
ATOM     41  O   UNL A   1      35.157  33.826  28.429  1.00  0.00    -0.246 OA
BRANCH  40  42
ATOM     42  C   UNL A   1      36.300  31.756  28.667  1.00  0.00     0.060 A 
ATOM     43  C   UNL A   1      36.590  31.856  30.024  1.00  0.00     0.016 A 
ATOM     44  C   UNL A   1      37.011  30.882  27.837  1.00  0.00     0.016 A 
ATOM     45  C   UNL A   1      37.628  31.097  30.541  1.00  0.00     0.010 A 
ATOM     46  C   UNL A   1      38.072  30.149  28.346  1.00  0.00     0.010 A 
ATOM     47  C   UNL A   1      38.381  30.256  29.702  1.00  0.00    -0.014 A 
BRANCH  47  48
ATOM     48  C   UNL A   1      39.446  29.467  30.325  1.00  0.00     0.031 A 
ATOM     49  C   UNL A   1      39.582  28.046  29.883  1.00  0.00     0.074 A 
ATOM     50  C   UNL A   1      40.538  30.109  30.779  1.00  0.00     0.049 A 
ATOM     51  N   UNL A   1      40.309  27.640  28.881  1.00  0.00    -0.248 NA
ATOM     52  C   UNL A   1      38.688  27.019  30.420  1.00  0.00     0.031 C 
ATOM     53  C   UNL A   1      41.251  31.160  30.049  1.00  0.00     0.029 A 
ATOM     54  N   UNL A   1      41.334  29.822  31.857  1.00  0.00    -0.354 N 
ATOM     55  C   UNL A   1      39.969  26.317  28.644  1.00  0.00     0.074 A 
ATOM     56  C   UNL A   1      38.959  25.978  29.622  1.00  0.00     0.031 C 
ATOM     57  C   UNL A   1      42.468  31.315  30.610  1.00  0.00     0.029 A 
ATOM     58  C   UNL A   1      42.561  30.474  31.801  1.00  0.00     0.049 A 
ATOM     59  H   UNL A   1      41.068  29.221  32.589  1.00  0.00     0.167 HD
ATOM     60  C   UNL A   1      40.531  25.553  27.670  1.00  0.00     0.037 A 
ATOM     61  C   UNL A   1      43.705  29.961  32.327  1.00  0.00     0.037 A 
ATOM     62  C   UNL A   1      41.547  26.177  26.883  1.00  0.00     0.049 A 
ATOM     63  C   UNL A   1      44.041  28.926  31.277  1.00  0.00     0.074 A 
ATOM     64  C   UNL A   1      41.649  26.811  25.665  1.00  0.00     0.029 A 
ATOM     65  N   UNL A   1      42.815  26.232  27.413  1.00  0.00    -0.354 N 
ATOM     66  N   UNL A   1      44.609  29.153  30.122  1.00  0.00    -0.248 NA
ATOM     67  C   UNL A   1      43.368  27.628  31.378  1.00  0.00     0.031 C 
ATOM     68  C   UNL A   1      42.838  27.602  25.747  1.00  0.00     0.029 A 
ATOM     69  C   UNL A   1      43.353  27.433  27.032  1.00  0.00     0.049 A 
ATOM     70  H   UNL A   1      43.252  25.541  27.962  1.00  0.00     0.167 HD
ATOM     71  C   UNL A   1      44.127  28.155  29.269  1.00  0.00     0.074 A 
ATOM     72  C   UNL A   1      43.395  27.234  30.112  1.00  0.00     0.031 C 
ATOM     73  C   UNL A   1      44.180  28.231  27.908  1.00  0.00     0.037 A 
BRANCH  60  74
ATOM     74  C   UNL A   1      40.302  24.103  27.519  1.00  0.00     0.057 A 
ATOM     75  C   UNL A   1      41.199  23.223  28.139  1.00  0.00     0.134 A 
ATOM     76  C   UNL A   1      39.372  23.570  26.627  1.00  0.00     0.134 A 
ATOM     77  F   UNL A   1      42.119  23.693  28.998  1.00  0.00    -0.206 F 
ATOM     78  C   UNL A   1      41.206  21.862  27.848  1.00  0.00     0.040 A 
ATOM     79  C   UNL A   1      39.361  22.203  26.333  1.00  0.00     0.040 A 
ATOM     80  F   UNL A   1      38.497  24.366  25.996  1.00  0.00    -0.206 F 
ATOM     81  C   UNL A   1      40.291  21.350  26.931  1.00  0.00     0.006 A 
ENDBRANCH  60  74
BRANCH  61  82
ATOM     82  C   UNL A   1      43.632  29.673  33.796  1.00  0.00     0.057 A 
ATOM     83  C   UNL A   1      44.581  28.791  34.358  1.00  0.00     0.134 A 
ATOM     84  C   UNL A   1      42.706  30.215  34.694  1.00  0.00     0.134 A 
ATOM     85  F   UNL A   1      45.445  28.129  33.572  1.00  0.00    -0.206 F 
ATOM     86  C   UNL A   1      44.686  28.574  35.735  1.00  0.00     0.040 A 
ATOM     87  C   UNL A   1      42.810  30.022  36.077  1.00  0.00     0.040 A 
ATOM     88  F   UNL A   1      41.679  30.961  34.268  1.00  0.00    -0.206 F 
ATOM     89  C   UNL A   1      43.816  29.217  36.604  1.00  0.00     0.006 A 
ENDBRANCH  61  82
BRANCH  73  90
ATOM     90  C   UNL A   1      44.950  29.376  27.350  1.00  0.00     0.057 A 
ATOM     91  C   UNL A   1      44.324  30.601  27.105  1.00  0.00     0.134 A 
ATOM     92  C   UNL A   1      46.327  29.288  27.102  1.00  0.00     0.134 A 
ATOM     93  F   UNL A   1      43.010  30.753  27.334  1.00  0.00    -0.206 F 
ATOM     94  C   UNL A   1      45.045  31.705  26.649  1.00  0.00     0.040 A 
ATOM     95  C   UNL A   1      47.062  30.392  26.673  1.00  0.00     0.040 A 
ATOM     96  F   UNL A   1      46.991  28.138  27.298  1.00  0.00    -0.206 F 
ATOM     97  C   UNL A   1      46.421  31.607  26.446  1.00  0.00     0.006 A 
ENDBRANCH  73  90
ENDBRANCH  47  48
ENDBRANCH  40  42
ENDBRANCH  39  40
ENDBRANCH  38  39
ENDBRANCH   1  38
TORSDOF 16
ENDMDL
