MODEL 1
REMARK VINA RESULT:     -12.4      0.000      0.000
REMARK SMILES O=C(OCCOC(=O)c1cccc(Nc2ccnc3ccc(F)cc23)c1)c1ccc(-c2c3nc(c(-c4c(F)cccc4F)c4ccc([nH]4)c(-c4c(F)cccc4F)c4nc(c(-c5c(F)cccc5F)c5ccc2[nH]5)C=C4)C=C3)cc1
REMARK SMILES IDX 4 1 3 2 2 3 1 4 27 5 28 6 80 7 29 8 79 9 30 10 31 11 32 12
REMARK SMILES IDX 73 13 33 14 78 15 72 16 74 17 34 18 77 19 71 20 70 21 35 23
REMARK SMILES IDX 61 24 44 25 60 26 45 27 48 28 59 29 75 30 46 31 47 32 58 34
REMARK SMILES IDX 76 35 49 36 36 37 37 38 42 39 38 40 39 41 41 42 43 43 40 44
REMARK SMILES IDX 62 45 63 46 68 47 64 48 65 49 67 50 69 51 66 52 50 53 51 54
REMARK SMILES IDX 56 55 52 56 53 57 55 58 57 59 54 60 5 61 6 62 7 63 8 64 9 65
REMARK SMILES IDX 10 66 26 67 11 68 13 69 12 70 14 71 15 73 16 74 25 75 17 76
REMARK SMILES IDX 19 77 24 78 18 79 20 80 22 81 21 82 23 83
REMARK H PARENT 74 22 48 33 14 72
REMARK Flexibility Score: inf
ROOT
ATOM      1  C   UNL A   1      43.055  21.493  25.714  1.00  0.00     0.275 C 
ENDROOT
BRANCH   1   2
ATOM      2  O   UNL A   1      42.484  22.775  25.400  1.00  0.00    -0.458 OA
BRANCH   2   3
ATOM      3  C   UNL A   1      43.088  23.990  25.411  1.00  0.00     0.338 C 
ATOM      4  O   UNL A   1      44.010  24.203  24.628  1.00  0.00    -0.246 OA
BRANCH   3   5
ATOM      5  C   UNL A   1      42.835  25.010  26.478  1.00  0.00     0.060 A 
ATOM      6  C   UNL A   1      43.411  26.277  26.560  1.00  0.00     0.016 A 
ATOM      7  C   UNL A   1      41.903  24.649  27.468  1.00  0.00     0.016 A 
ATOM      8  C   UNL A   1      42.996  27.193  27.526  1.00  0.00     0.010 A 
ATOM      9  C   UNL A   1      41.458  25.571  28.419  1.00  0.00     0.010 A 
ATOM     10  C   UNL A   1      42.010  26.851  28.452  1.00  0.00    -0.014 A 
BRANCH  10  11
ATOM     11  C   UNL A   1      41.746  27.775  29.573  1.00  0.00     0.031 A 
ATOM     12  C   UNL A   1      40.581  28.707  29.436  1.00  0.00     0.074 A 
ATOM     13  C   UNL A   1      42.448  27.687  30.717  1.00  0.00     0.049 A 
ATOM     14  N   UNL A   1      40.044  29.499  30.325  1.00  0.00    -0.248 NA
ATOM     15  C   UNL A   1      39.915  28.737  28.121  1.00  0.00     0.031 C 
ATOM     16  C   UNL A   1      43.562  26.769  30.960  1.00  0.00     0.029 A 
ATOM     17  N   UNL A   1      42.307  28.359  31.904  1.00  0.00    -0.354 N 
ATOM     18  C   UNL A   1      38.970  30.098  29.682  1.00  0.00     0.074 A 
ATOM     19  C   UNL A   1      38.967  29.635  28.315  1.00  0.00     0.031 C 
ATOM     20  C   UNL A   1      43.993  26.926  32.224  1.00  0.00     0.029 A 
ATOM     21  C   UNL A   1      43.195  27.961  32.874  1.00  0.00     0.049 A 
ATOM     22  H   UNL A   1      41.631  29.061  32.048  1.00  0.00     0.167 HD
ATOM     23  C   UNL A   1      38.045  30.938  30.197  1.00  0.00     0.037 A 
ATOM     24  C   UNL A   1      43.327  28.383  34.146  1.00  0.00     0.037 A 
ATOM     25  C   UNL A   1      38.071  31.403  31.554  1.00  0.00     0.049 A 
ATOM     26  C   UNL A   1      42.341  29.397  34.669  1.00  0.00     0.074 A 
ATOM     27  C   UNL A   1      37.208  32.277  32.185  1.00  0.00     0.029 A 
ATOM     28  N   UNL A   1      39.029  31.031  32.487  1.00  0.00    -0.354 N 
ATOM     29  N   UNL A   1      41.307  29.933  34.064  1.00  0.00    -0.248 NA
ATOM     30  C   UNL A   1      42.526  29.849  36.054  1.00  0.00     0.031 C 
ATOM     31  C   UNL A   1      37.676  32.475  33.489  1.00  0.00     0.029 A 
ATOM     32  C   UNL A   1      38.795  31.678  33.685  1.00  0.00     0.049 A 
ATOM     33  H   UNL A   1      39.767  30.401  32.320  1.00  0.00     0.167 HD
ATOM     34  C   UNL A   1      40.693  30.749  35.005  1.00  0.00     0.074 A 
ATOM     35  C   UNL A   1      41.469  30.632  36.223  1.00  0.00     0.031 C 
ATOM     36  C   UNL A   1      39.584  31.521  34.882  1.00  0.00     0.037 A 
BRANCH  23  37
ATOM     37  C   UNL A   1      36.979  31.419  29.260  1.00  0.00     0.057 A 
ATOM     38  C   UNL A   1      36.972  32.727  28.752  1.00  0.00     0.134 A 
ATOM     39  C   UNL A   1      35.911  30.585  28.913  1.00  0.00     0.134 A 
ATOM     40  F   UNL A   1      37.948  33.588  29.076  1.00  0.00    -0.206 F 
ATOM     41  C   UNL A   1      35.920  33.198  27.963  1.00  0.00     0.040 A 
ATOM     42  C   UNL A   1      34.868  31.036  28.102  1.00  0.00     0.040 A 
ATOM     43  F   UNL A   1      35.852  29.326  29.373  1.00  0.00    -0.206 F 
ATOM     44  C   UNL A   1      34.865  32.349  27.634  1.00  0.00     0.006 A 
ENDBRANCH  23  37
BRANCH  24  45
ATOM     45  C   UNL A   1      44.404  27.842  35.018  1.00  0.00     0.057 A 
ATOM     46  C   UNL A   1      45.670  28.439  35.076  1.00  0.00     0.134 A 
ATOM     47  C   UNL A   1      44.206  26.690  35.790  1.00  0.00     0.134 A 
ATOM     48  F   UNL A   1      45.932  29.537  34.352  1.00  0.00    -0.206 F 
ATOM     49  C   UNL A   1      46.704  27.896  35.844  1.00  0.00     0.040 A 
ATOM     50  C   UNL A   1      45.223  26.148  36.579  1.00  0.00     0.040 A 
ATOM     51  F   UNL A   1      43.015  26.073  35.792  1.00  0.00    -0.206 F 
ATOM     52  C   UNL A   1      46.480  26.747  36.599  1.00  0.00     0.006 A 
ENDBRANCH  24  45
BRANCH  36  53
ATOM     53  C   UNL A   1      39.120  32.250  36.108  1.00  0.00     0.057 A 
ATOM     54  C   UNL A   1      39.525  33.560  36.392  1.00  0.00     0.134 A 
ATOM     55  C   UNL A   1      38.214  31.645  36.989  1.00  0.00     0.134 A 
ATOM     56  F   UNL A   1      40.399  34.190  35.592  1.00  0.00    -0.206 F 
ATOM     57  C   UNL A   1      39.066  34.233  37.524  1.00  0.00     0.040 A 
ATOM     58  C   UNL A   1      37.724  32.319  38.106  1.00  0.00     0.040 A 
ATOM     59  F   UNL A   1      37.777  30.396  36.766  1.00  0.00    -0.206 F 
ATOM     60  C   UNL A   1      38.155  33.615  38.380  1.00  0.00     0.006 A 
ENDBRANCH  36  53
ENDBRANCH  10  11
ENDBRANCH   3   5
ENDBRANCH   2   3
ENDBRANCH   1   2
BRANCH   1  61
ATOM     61  C   UNL A   1      42.309  20.738  26.820  1.00  0.00     0.275 C 
BRANCH  61  62
ATOM     62  O   UNL A   1      40.940  21.156  26.935  1.00  0.00    -0.458 OA
BRANCH  62  63
ATOM     63  C   UNL A   1      40.054  20.528  26.117  1.00  0.00     0.338 C 
ATOM     64  O   UNL A   1      40.060  19.372  25.752  1.00  0.00    -0.246 OA
BRANCH  63  65
ATOM     65  C   UNL A   1      38.943  21.460  25.867  1.00  0.00     0.062 A 
ATOM     66  C   UNL A   1      39.066  22.726  26.447  1.00  0.00     0.016 A 
ATOM     67  C   UNL A   1      37.792  21.093  25.149  1.00  0.00     0.041 A 
ATOM     68  C   UNL A   1      38.152  23.708  26.113  1.00  0.00     0.003 A 
ATOM     69  C   UNL A   1      36.793  22.051  24.963  1.00  0.00     0.039 A 
ATOM     70  C   UNL A   1      37.097  23.387  25.272  1.00  0.00     0.026 A 
BRANCH  69  71
ATOM     71  N   UNL A   1      35.447  21.707  24.641  1.00  0.00    -0.355 N 
ATOM     72  H   UNL A   1      34.968  22.243  23.968  1.00  0.00     0.167 HD
BRANCH  71  73
ATOM     73  C   UNL A   1      34.746  20.579  25.278  1.00  0.00     0.050 A 
ATOM     74  C   UNL A   1      33.847  20.960  26.265  1.00  0.00     0.047 A 
ATOM     75  C   UNL A   1      34.271  19.527  24.483  1.00  0.00     0.027 A 
ATOM     76  C   UNL A   1      32.516  20.890  25.888  1.00  0.00     0.114 A 
ATOM     77  C   UNL A   1      32.987  19.696  23.979  1.00  0.00     0.072 A 
ATOM     78  C   UNL A   1      34.663  18.183  24.626  1.00  0.00     0.051 A 
ATOM     79  N   UNL A   1      32.103  20.418  24.678  1.00  0.00    -0.256 NA
ATOM     80  C   UNL A   1      32.519  18.838  23.005  1.00  0.00     0.032 A 
ATOM     81  C   UNL A   1      33.963  17.191  23.940  1.00  0.00     0.124 A 
ATOM     82  C   UNL A   1      32.984  17.530  23.016  1.00  0.00     0.041 A 
ATOM     83  F   UNL A   1      34.169  15.901  24.234  1.00  0.00    -0.207 F 
ENDBRANCH  71  73
ENDBRANCH  69  71
ENDBRANCH  63  65
ENDBRANCH  62  63
ENDBRANCH  61  62
ENDBRANCH   1  61
TORSDOF 13
ENDMDL
MODEL 2
REMARK VINA RESULT:     -12.3      0.682      6.277
REMARK SMILES O=C(OCCOC(=O)c1cccc(Nc2ccnc3ccc(F)cc23)c1)c1ccc(-c2c3nc(c(-c4c(F)cccc4F)c4ccc([nH]4)c(-c4c(F)cccc4F)c4nc(c(-c5c(F)cccc5F)c5ccc2[nH]5)C=C4)C=C3)cc1
REMARK SMILES IDX 4 1 3 2 2 3 1 4 27 5 28 6 80 7 29 8 79 9 30 10 31 11 32 12
REMARK SMILES IDX 73 13 33 14 78 15 72 16 74 17 34 18 77 19 71 20 70 21 35 23
REMARK SMILES IDX 61 24 44 25 60 26 45 27 48 28 59 29 75 30 46 31 47 32 58 34
REMARK SMILES IDX 76 35 49 36 36 37 37 38 42 39 38 40 39 41 41 42 43 43 40 44
REMARK SMILES IDX 62 45 63 46 68 47 64 48 65 49 67 50 69 51 66 52 50 53 51 54
REMARK SMILES IDX 56 55 52 56 53 57 55 58 57 59 54 60 5 61 6 62 7 63 8 64 9 65
REMARK SMILES IDX 10 66 26 67 11 68 13 69 12 70 14 71 15 73 16 74 25 75 17 76
REMARK SMILES IDX 19 77 24 78 18 79 20 80 22 81 21 82 23 83
REMARK H PARENT 74 22 48 33 14 72
REMARK Flexibility Score: inf
ROOT
ATOM      1  C   UNL A   1      43.878  22.082  25.059  1.00  0.00     0.275 C 
ENDROOT
BRANCH   1   2
ATOM      2  O   UNL A   1      43.519  23.418  24.664  1.00  0.00    -0.458 OA
BRANCH   2   3
ATOM      3  C   UNL A   1      44.073  24.591  25.059  1.00  0.00     0.338 C 
ATOM      4  O   UNL A   1      45.182  24.900  24.628  1.00  0.00    -0.246 OA
BRANCH   3   5
ATOM      5  C   UNL A   1      43.503  25.423  26.165  1.00  0.00     0.060 A 
ATOM      6  C   UNL A   1      43.895  26.716  26.510  1.00  0.00     0.016 A 
ATOM      7  C   UNL A   1      42.454  24.839  26.899  1.00  0.00     0.016 A 
ATOM      8  C   UNL A   1      43.198  27.445  27.474  1.00  0.00     0.010 A 
ATOM      9  C   UNL A   1      41.730  25.573  27.842  1.00  0.00     0.010 A 
ATOM     10  C   UNL A   1      42.105  26.883  28.135  1.00  0.00    -0.014 A 
BRANCH  10  11
ATOM     11  C   UNL A   1      41.526  27.612  29.281  1.00  0.00     0.031 A 
ATOM     12  C   UNL A   1      42.248  27.517  30.591  1.00  0.00     0.074 A 
ATOM     13  C   UNL A   1      40.469  28.427  29.117  1.00  0.00     0.049 A 
ATOM     14  N   UNL A   1      42.043  28.175  31.700  1.00  0.00    -0.248 NA
ATOM     15  C   UNL A   1      43.369  26.562  30.655  1.00  0.00     0.031 C 
ATOM     16  C   UNL A   1      39.740  28.626  27.863  1.00  0.00     0.029 A 
ATOM     17  N   UNL A   1      39.844  29.267  30.001  1.00  0.00    -0.354 N 
ATOM     18  C   UNL A   1      43.021  27.730  32.578  1.00  0.00     0.074 A 
ATOM     19  C   UNL A   1      43.776  26.701  31.904  1.00  0.00     0.031 C 
ATOM     20  C   UNL A   1      38.774  29.543  28.057  1.00  0.00     0.029 A 
ATOM     21  C   UNL A   1      38.811  29.984  29.448  1.00  0.00     0.049 A 
ATOM     22  H   UNL A   1      40.111  29.349  30.946  1.00  0.00     0.167 HD
ATOM     23  C   UNL A   1      43.287  28.165  33.830  1.00  0.00     0.037 A 
ATOM     24  C   UNL A   1      38.003  30.905  30.009  1.00  0.00     0.037 A 
ATOM     25  C   UNL A   1      42.517  29.177  34.493  1.00  0.00     0.049 A 
ATOM     26  C   UNL A   1      38.259  31.301  31.441  1.00  0.00     0.074 A 
ATOM     27  C   UNL A   1      42.669  29.682  35.770  1.00  0.00     0.029 A 
ATOM     28  N   UNL A   1      41.433  29.830  33.923  1.00  0.00    -0.354 N 
ATOM     29  N   UNL A   1      39.208  30.900  32.254  1.00  0.00    -0.248 NA
ATOM     30  C   UNL A   1      37.347  32.294  32.027  1.00  0.00     0.031 C 
ATOM     31  C   UNL A   1      41.642  30.606  35.990  1.00  0.00     0.029 A 
ATOM     32  C   UNL A   1      40.888  30.719  34.831  1.00  0.00     0.049 A 
ATOM     33  H   UNL A   1      41.101  29.683  33.008  1.00  0.00     0.167 HD
ATOM     34  C   UNL A   1      39.037  31.620  33.429  1.00  0.00     0.074 A 
ATOM     35  C   UNL A   1      37.895  32.487  33.219  1.00  0.00     0.031 C 
ATOM     36  C   UNL A   1      39.759  31.578  34.577  1.00  0.00     0.037 A 
BRANCH  23  37
ATOM     37  C   UNL A   1      44.426  27.502  34.543  1.00  0.00     0.057 A 
ATOM     38  C   UNL A   1      44.240  26.365  35.345  1.00  0.00     0.134 A 
ATOM     39  C   UNL A   1      45.714  28.044  34.480  1.00  0.00     0.134 A 
ATOM     40  F   UNL A   1      43.022  25.818  35.476  1.00  0.00    -0.206 F 
ATOM     41  C   UNL A   1      45.288  25.817  36.087  1.00  0.00     0.040 A 
ATOM     42  C   UNL A   1      46.775  27.487  35.195  1.00  0.00     0.040 A 
ATOM     43  F   UNL A   1      45.958  29.136  33.740  1.00  0.00    -0.206 F 
ATOM     44  C   UNL A   1      46.561  26.377  36.011  1.00  0.00     0.006 A 
ENDBRANCH  23  37
BRANCH  24  45
ATOM     45  C   UNL A   1      36.903  31.529  29.226  1.00  0.00     0.057 A 
ATOM     46  C   UNL A   1      36.999  32.841  28.743  1.00  0.00     0.134 A 
ATOM     47  C   UNL A   1      35.711  30.840  28.969  1.00  0.00     0.134 A 
ATOM     48  F   UNL A   1      38.109  33.561  28.964  1.00  0.00    -0.206 F 
ATOM     49  C   UNL A   1      35.944  33.452  28.062  1.00  0.00     0.040 A 
ATOM     50  C   UNL A   1      34.655  31.431  28.271  1.00  0.00     0.040 A 
ATOM     51  F   UNL A   1      35.554  29.577  29.391  1.00  0.00    -0.206 F 
ATOM     52  C   UNL A   1      34.767  32.745  27.824  1.00  0.00     0.006 A 
ENDBRANCH  24  45
BRANCH  36  53
ATOM     53  C   UNL A   1      39.366  32.531  35.666  1.00  0.00     0.057 A 
ATOM     54  C   UNL A   1      39.896  33.824  35.750  1.00  0.00     0.134 A 
ATOM     55  C   UNL A   1      38.403  32.161  36.615  1.00  0.00     0.134 A 
ATOM     56  F   UNL A   1      40.829  34.234  34.877  1.00  0.00    -0.206 F 
ATOM     57  C   UNL A   1      39.502  34.707  36.756  1.00  0.00     0.040 A 
ATOM     58  C   UNL A   1      37.979  33.045  37.605  1.00  0.00     0.040 A 
ATOM     59  F   UNL A   1      37.848  30.940  36.581  1.00  0.00    -0.206 F 
ATOM     60  C   UNL A   1      38.534  34.321  37.682  1.00  0.00     0.006 A 
ENDBRANCH  36  53
ENDBRANCH  10  11
ENDBRANCH   3   5
ENDBRANCH   2   3
ENDBRANCH   1   2
BRANCH   1  61
ATOM     61  C   UNL A   1      42.930  21.467  26.094  1.00  0.00     0.275 C 
BRANCH  61  62
ATOM     62  O   UNL A   1      41.565  21.465  25.646  1.00  0.00    -0.458 OA
BRANCH  62  63
ATOM     63  C   UNL A   1      40.625  21.215  26.597  1.00  0.00     0.338 C 
ATOM     64  O   UNL A   1      40.751  20.589  27.627  1.00  0.00    -0.246 OA
BRANCH  63  65
ATOM     65  C   UNL A   1      39.427  21.996  26.253  1.00  0.00     0.062 A 
ATOM     66  C   UNL A   1      39.294  23.228  26.902  1.00  0.00     0.016 A 
ATOM     67  C   UNL A   1      38.435  21.518  25.380  1.00  0.00     0.041 A 
ATOM     68  C   UNL A   1      38.291  24.091  26.500  1.00  0.00     0.003 A 
ATOM     69  C   UNL A   1      37.335  22.336  25.114  1.00  0.00     0.039 A 
ATOM     70  C   UNL A   1      37.401  23.679  25.519  1.00  0.00     0.026 A 
BRANCH  69  71
ATOM     71  N   UNL A   1      36.102  21.828  24.610  1.00  0.00    -0.355 N 
ATOM     72  H   UNL A   1      35.769  22.162  23.746  1.00  0.00     0.167 HD
BRANCH  71  73
ATOM     73  C   UNL A   1      35.307  20.822  25.335  1.00  0.00     0.050 A 
ATOM     74  C   UNL A   1      34.713  21.303  26.495  1.00  0.00     0.047 A 
ATOM     75  C   UNL A   1      34.474  19.954  24.614  1.00  0.00     0.027 A 
ATOM     76  C   UNL A   1      33.352  21.536  26.390  1.00  0.00     0.114 A 
ATOM     77  C   UNL A   1      33.185  20.421  24.384  1.00  0.00     0.072 A 
ATOM     78  C   UNL A   1      34.586  18.552  24.629  1.00  0.00     0.051 A 
ATOM     79  N   UNL A   1      32.626  21.253  25.271  1.00  0.00    -0.256 NA
ATOM     80  C   UNL A   1      32.369  19.755  23.494  1.00  0.00     0.032 A 
ATOM     81  C   UNL A   1      33.572  17.780  24.063  1.00  0.00     0.124 A 
ATOM     82  C   UNL A   1      32.534  18.382  23.366  1.00  0.00     0.041 A 
ATOM     83  F   UNL A   1      33.546  16.456  24.265  1.00  0.00    -0.207 F 
ENDBRANCH  71  73
ENDBRANCH  69  71
ENDBRANCH  63  65
ENDBRANCH  62  63
ENDBRANCH  61  62
ENDBRANCH   1  61
TORSDOF 13
ENDMDL
MODEL 3
REMARK VINA RESULT:     -12.3      0.709      6.283
REMARK SMILES O=C(OCCOC(=O)c1cccc(Nc2ccnc3ccc(F)cc23)c1)c1ccc(-c2c3nc(c(-c4c(F)cccc4F)c4ccc([nH]4)c(-c4c(F)cccc4F)c4nc(c(-c5c(F)cccc5F)c5ccc2[nH]5)C=C4)C=C3)cc1
REMARK SMILES IDX 4 1 3 2 2 3 1 4 27 5 28 6 80 7 29 8 79 9 30 10 31 11 32 12
REMARK SMILES IDX 73 13 33 14 78 15 72 16 74 17 34 18 77 19 71 20 70 21 35 23
REMARK SMILES IDX 61 24 44 25 60 26 45 27 48 28 59 29 75 30 46 31 47 32 58 34
REMARK SMILES IDX 76 35 49 36 36 37 37 38 42 39 38 40 39 41 41 42 43 43 40 44
REMARK SMILES IDX 62 45 63 46 68 47 64 48 65 49 67 50 69 51 66 52 50 53 51 54
REMARK SMILES IDX 56 55 52 56 53 57 55 58 57 59 54 60 5 61 6 62 7 63 8 64 9 65
REMARK SMILES IDX 10 66 26 67 11 68 13 69 12 70 14 71 15 73 16 74 25 75 17 76
REMARK SMILES IDX 19 77 24 78 18 79 20 80 22 81 21 82 23 83
REMARK H PARENT 74 22 48 33 14 72
REMARK Flexibility Score: inf
ROOT
ATOM      1  C   UNL A   1      43.949  22.099  25.125  1.00  0.00     0.275 C 
ENDROOT
BRANCH   1   2
ATOM      2  O   UNL A   1      43.597  23.421  24.680  1.00  0.00    -0.458 OA
BRANCH   2   3
ATOM      3  C   UNL A   1      44.130  24.608  25.064  1.00  0.00     0.338 C 
ATOM      4  O   UNL A   1      45.232  24.934  24.627  1.00  0.00    -0.246 OA
BRANCH   3   5
ATOM      5  C   UNL A   1      43.545  25.440  26.162  1.00  0.00     0.060 A 
ATOM      6  C   UNL A   1      43.906  26.746  26.488  1.00  0.00     0.016 A 
ATOM      7  C   UNL A   1      42.515  24.839  26.909  1.00  0.00     0.016 A 
ATOM      8  C   UNL A   1      43.196  27.470  27.446  1.00  0.00     0.010 A 
ATOM      9  C   UNL A   1      41.778  25.567  27.847  1.00  0.00     0.010 A 
ATOM     10  C   UNL A   1      42.122  26.890  28.121  1.00  0.00    -0.014 A 
BRANCH  10  11
ATOM     11  C   UNL A   1      41.531  27.618  29.261  1.00  0.00     0.031 A 
ATOM     12  C   UNL A   1      42.246  27.534  30.575  1.00  0.00     0.074 A 
ATOM     13  C   UNL A   1      40.468  28.424  29.088  1.00  0.00     0.049 A 
ATOM     14  N   UNL A   1      42.030  28.196  31.680  1.00  0.00    -0.248 NA
ATOM     15  C   UNL A   1      43.374  26.589  30.649  1.00  0.00     0.031 C 
ATOM     16  C   UNL A   1      39.743  28.612  27.830  1.00  0.00     0.029 A 
ATOM     17  N   UNL A   1      39.831  29.262  29.966  1.00  0.00    -0.354 N 
ATOM     18  C   UNL A   1      43.007  27.763  32.565  1.00  0.00     0.074 A 
ATOM     19  C   UNL A   1      43.774  26.737  31.899  1.00  0.00     0.031 C 
ATOM     20  C   UNL A   1      38.769  29.521  28.015  1.00  0.00     0.029 A 
ATOM     21  C   UNL A   1      38.795  29.969  29.404  1.00  0.00     0.049 A 
ATOM     22  H   UNL A   1      40.092  29.350  30.912  1.00  0.00     0.167 HD
ATOM     23  C   UNL A   1      43.263  28.204  33.817  1.00  0.00     0.037 A 
ATOM     24  C   UNL A   1      37.976  30.884  29.957  1.00  0.00     0.037 A 
ATOM     25  C   UNL A   1      42.481  29.212  34.472  1.00  0.00     0.049 A 
ATOM     26  C   UNL A   1      38.221  31.289  31.389  1.00  0.00     0.074 A 
ATOM     27  C   UNL A   1      42.622  29.724  35.747  1.00  0.00     0.029 A 
ATOM     28  N   UNL A   1      41.394  29.855  33.894  1.00  0.00    -0.354 N 
ATOM     29  N   UNL A   1      39.170  30.899  32.208  1.00  0.00    -0.248 NA
ATOM     30  C   UNL A   1      37.299  32.276  31.966  1.00  0.00     0.031 C 
ATOM     31  C   UNL A   1      41.587  30.641  35.959  1.00  0.00     0.029 A 
ATOM     32  C   UNL A   1      40.838  30.742  34.795  1.00  0.00     0.049 A 
ATOM     33  H   UNL A   1      41.068  29.700  32.977  1.00  0.00     0.167 HD
ATOM     34  C   UNL A   1      38.987  31.622  33.379  1.00  0.00     0.074 A 
ATOM     35  C   UNL A   1      37.838  32.479  33.160  1.00  0.00     0.031 C 
ATOM     36  C   UNL A   1      39.702  31.591  34.531  1.00  0.00     0.037 A 
BRANCH  23  37
ATOM     37  C   UNL A   1      44.404  27.554  34.538  1.00  0.00     0.057 A 
ATOM     38  C   UNL A   1      45.711  28.057  34.468  1.00  0.00     0.134 A 
ATOM     39  C   UNL A   1      44.205  26.371  35.259  1.00  0.00     0.134 A 
ATOM     40  F   UNL A   1      45.975  29.168  33.762  1.00  0.00    -0.206 F 
ATOM     41  C   UNL A   1      46.785  27.386  35.057  1.00  0.00     0.040 A 
ATOM     42  C   UNL A   1      45.266  25.707  35.876  1.00  0.00     0.040 A 
ATOM     43  F   UNL A   1      42.981  25.830  35.356  1.00  0.00    -0.206 F 
ATOM     44  C   UNL A   1      46.562  26.208  35.766  1.00  0.00     0.006 A 
ENDBRANCH  23  37
BRANCH  24  45
ATOM     45  C   UNL A   1      36.876  31.496  29.166  1.00  0.00     0.057 A 
ATOM     46  C   UNL A   1      36.956  32.812  28.691  1.00  0.00     0.134 A 
ATOM     47  C   UNL A   1      35.697  30.791  28.893  1.00  0.00     0.134 A 
ATOM     48  F   UNL A   1      38.052  33.548  28.928  1.00  0.00    -0.206 F 
ATOM     49  C   UNL A   1      35.899  33.411  28.003  1.00  0.00     0.040 A 
ATOM     50  C   UNL A   1      34.639  31.369  28.186  1.00  0.00     0.040 A 
ATOM     51  F   UNL A   1      35.555  29.523  29.306  1.00  0.00    -0.206 F 
ATOM     52  C   UNL A   1      34.735  32.688  27.748  1.00  0.00     0.006 A 
ENDBRANCH  24  45
BRANCH  36  53
ATOM     53  C   UNL A   1      39.296  32.546  35.614  1.00  0.00     0.057 A 
ATOM     54  C   UNL A   1      38.377  32.194  36.609  1.00  0.00     0.134 A 
ATOM     55  C   UNL A   1      39.876  33.820  35.686  1.00  0.00     0.134 A 
ATOM     56  F   UNL A   1      37.780  30.993  36.590  1.00  0.00    -0.206 F 
ATOM     57  C   UNL A   1      38.028  33.086  37.623  1.00  0.00     0.040 A 
ATOM     58  C   UNL A   1      39.558  34.707  36.712  1.00  0.00     0.040 A 
ATOM     59  F   UNL A   1      40.773  34.213  34.769  1.00  0.00    -0.206 F 
ATOM     60  C   UNL A   1      38.626  34.344  37.682  1.00  0.00     0.006 A 
ENDBRANCH  36  53
ENDBRANCH  10  11
ENDBRANCH   3   5
ENDBRANCH   2   3
ENDBRANCH   1   2
BRANCH   1  61
ATOM     61  C   UNL A   1      42.978  21.516  26.158  1.00  0.00     0.275 C 
BRANCH  61  62
ATOM     62  O   UNL A   1      41.626  21.487  25.676  1.00  0.00    -0.458 OA
BRANCH  62  63
ATOM     63  C   UNL A   1      40.668  21.207  26.601  1.00  0.00     0.338 C 
ATOM     64  O   UNL A   1      40.777  20.556  27.617  1.00  0.00    -0.246 OA
BRANCH  63  65
ATOM     65  C   UNL A   1      39.473  21.992  26.253  1.00  0.00     0.062 A 
ATOM     66  C   UNL A   1      39.337  23.220  26.907  1.00  0.00     0.016 A 
ATOM     67  C   UNL A   1      38.486  21.519  25.372  1.00  0.00     0.041 A 
ATOM     68  C   UNL A   1      38.338  24.087  26.503  1.00  0.00     0.003 A 
ATOM     69  C   UNL A   1      37.388  22.339  25.102  1.00  0.00     0.039 A 
ATOM     70  C   UNL A   1      37.453  23.680  25.515  1.00  0.00     0.026 A 
BRANCH  69  71
ATOM     71  N   UNL A   1      36.158  21.834  24.589  1.00  0.00    -0.355 N 
ATOM     72  H   UNL A   1      35.853  22.140  23.704  1.00  0.00     0.167 HD
BRANCH  71  73
ATOM     73  C   UNL A   1      35.326  20.874  25.333  1.00  0.00     0.050 A 
ATOM     74  C   UNL A   1      34.724  21.408  26.464  1.00  0.00     0.047 A 
ATOM     75  C   UNL A   1      34.485  20.002  24.627  1.00  0.00     0.027 A 
ATOM     76  C   UNL A   1      33.371  21.670  26.327  1.00  0.00     0.114 A 
ATOM     77  C   UNL A   1      33.212  20.492  24.358  1.00  0.00     0.072 A 
ATOM     78  C   UNL A   1      34.561  18.599  24.691  1.00  0.00     0.051 A 
ATOM     79  N   UNL A   1      32.658  21.367  25.205  1.00  0.00    -0.256 NA
ATOM     80  C   UNL A   1      32.395  19.816  23.476  1.00  0.00     0.032 A 
ATOM     81  C   UNL A   1      33.538  17.833  24.133  1.00  0.00     0.124 A 
ATOM     82  C   UNL A   1      32.528  18.436  23.397  1.00  0.00     0.041 A 
ATOM     83  F   UNL A   1      33.476  16.517  24.379  1.00  0.00    -0.207 F 
ENDBRANCH  71  73
ENDBRANCH  69  71
ENDBRANCH  63  65
ENDBRANCH  62  63
ENDBRANCH  61  62
ENDBRANCH   1  61
TORSDOF 13
ENDMDL
