MODEL 1
REMARK VINA RESULT:     -10.8      0.000      0.000
REMARK SMILES Cc1cc(C(=O)OCCOC(=O)c2ccc(-c3c4nc(c(-c5c(F)cccc5F)c5ccc([nH]5)c(-c5c(F)cccc5F)c5nc(c(-c6c(F)cccc6F)c6ccc3[nH]6)C=C5)C=C4)cc2)ccc1NCCCC(=O)NC1CC1
REMARK SMILES IDX 5 1 6 2 4 3 1 4 2 5 3 6 69 7 68 8 67 9 70 10 71 12 72 13
REMARK SMILES IDX 73 14 74 15 75 16 76 17 77 19 78 20 79 21 7 22 8 23 9 24
REMARK SMILES IDX 10 25 11 26 12 27 13 28 14 29 66 30 15 31 65 32 16 33 17 34
REMARK SMILES IDX 18 35 59 36 19 37 64 38 58 39 60 40 20 41 63 42 57 43 56 44
REMARK SMILES IDX 21 46 47 47 30 48 46 49 31 50 34 51 45 52 61 53 32 54 33 55
REMARK SMILES IDX 44 57 62 58 35 59 22 60 23 61 28 62 24 63 25 64 27 65 29 66
REMARK SMILES IDX 26 67 48 68 49 69 54 70 50 71 51 72 53 73 55 74 52 75 36 76
REMARK SMILES IDX 37 77 42 78 38 79 39 80 41 81 43 82 40 83
REMARK H PARENT 70 11 76 18 60 45 34 56
REMARK Flexibility Score: inf
ROOT
ATOM      1  C   UNL A   1      43.282  18.211  26.171  1.00  0.00     0.338 C 
ATOM      2  O   UNL A   1      43.080  17.326  26.998  1.00  0.00    -0.246 OA
ENDROOT
BRANCH   1   3
ATOM      3  C   UNL A   1      42.437  19.423  26.207  1.00  0.00     0.060 A 
ATOM      4  C   UNL A   1      42.134  22.714  28.079  1.00  0.00     0.046 C 
ATOM      5  C   UNL A   1      41.738  21.536  27.218  1.00  0.00    -0.027 A 
ATOM      6  C   UNL A   1      42.758  20.617  26.854  1.00  0.00     0.021 A 
ATOM      7  C   UNL A   1      40.403  21.290  26.821  1.00  0.00     0.037 A 
ATOM      8  C   UNL A   1      40.152  20.154  26.040  1.00  0.00     0.027 A 
ATOM      9  C   UNL A   1      41.138  19.221  25.762  1.00  0.00     0.018 A 
BRANCH   7  10
ATOM     10  N   UNL A   1      39.370  22.175  27.101  1.00  0.00    -0.385 N 
ATOM     11  H   UNL A   1      39.030  22.244  28.023  1.00  0.00     0.160 HD
BRANCH  10  12
ATOM     12  C   UNL A   1      38.777  23.002  26.060  1.00  0.00     0.113 C 
BRANCH  12  13
ATOM     13  C   UNL A   1      37.274  22.822  25.928  1.00  0.00     0.031 C 
BRANCH  13  14
ATOM     14  C   UNL A   1      36.803  22.067  24.689  1.00  0.00     0.102 C 
BRANCH  14  15
ATOM     15  C   UNL A   1      36.374  20.638  24.933  1.00  0.00     0.220 C 
ATOM     16  O   UNL A   1      37.212  19.735  25.002  1.00  0.00    -0.275 OA
ATOM     17  N   UNL A   1      35.062  20.317  25.121  1.00  0.00    -0.353 N 
ATOM     18  H   UNL A   1      34.906  19.423  25.501  1.00  0.00     0.163 HD
BRANCH  17  19
ATOM     19  C   UNL A   1      33.883  21.066  24.856  1.00  0.00     0.082 C 
ATOM     20  C   UNL A   1      32.852  20.460  23.931  1.00  0.00     0.027 C 
ATOM     21  C   UNL A   1      32.512  20.736  25.358  1.00  0.00     0.027 C 
ENDBRANCH  17  19
ENDBRANCH  14  15
ENDBRANCH  13  14
ENDBRANCH  12  13
ENDBRANCH  10  12
ENDBRANCH   7  10
ENDBRANCH   1   3
BRANCH   1  22
ATOM     22  O   UNL A   1      44.205  18.144  25.176  1.00  0.00    -0.458 OA
BRANCH  22  23
ATOM     23  C   UNL A   1      45.500  18.525  25.673  1.00  0.00     0.275 C 
BRANCH  23  24
ATOM     24  C   UNL A   1      46.267  19.534  24.809  1.00  0.00     0.275 C 
BRANCH  24  25
ATOM     25  O   UNL A   1      46.175  20.958  25.088  1.00  0.00    -0.458 OA
BRANCH  25  26
ATOM     26  C   UNL A   1      45.283  21.866  24.637  1.00  0.00     0.338 C 
ATOM     27  O   UNL A   1      44.616  21.676  23.621  1.00  0.00    -0.246 OA
BRANCH  26  28
ATOM     28  C   UNL A   1      45.105  23.104  25.403  1.00  0.00     0.060 A 
ATOM     29  C   UNL A   1      45.360  23.087  26.785  1.00  0.00     0.016 A 
ATOM     30  C   UNL A   1      44.770  24.283  24.749  1.00  0.00     0.016 A 
ATOM     31  C   UNL A   1      45.383  24.270  27.505  1.00  0.00     0.010 A 
ATOM     32  C   UNL A   1      44.941  25.468  25.413  1.00  0.00     0.010 A 
ATOM     33  C   UNL A   1      45.169  25.445  26.797  1.00  0.00    -0.014 A 
BRANCH  33  34
ATOM     34  C   UNL A   1      44.721  26.660  27.442  1.00  0.00     0.031 A 
ATOM     35  C   UNL A   1      43.312  27.052  27.420  1.00  0.00     0.074 A 
ATOM     36  C   UNL A   1      45.729  27.191  28.172  1.00  0.00     0.049 A 
ATOM     37  N   UNL A   1      42.897  28.228  27.718  1.00  0.00    -0.248 NA
ATOM     38  C   UNL A   1      42.228  26.168  27.000  1.00  0.00     0.031 C 
ATOM     39  C   UNL A   1      45.758  28.154  29.252  1.00  0.00     0.029 A 
ATOM     40  N   UNL A   1      47.091  26.945  27.913  1.00  0.00    -0.354 N 
ATOM     41  C   UNL A   1      41.529  28.155  27.895  1.00  0.00     0.074 A 
ATOM     42  C   UNL A   1      41.149  26.912  27.277  1.00  0.00     0.031 C 
ATOM     43  C   UNL A   1      47.010  28.652  29.339  1.00  0.00     0.029 A 
ATOM     44  C   UNL A   1      47.778  28.115  28.217  1.00  0.00     0.049 A 
ATOM     45  H   UNL A   1      47.482  26.105  27.580  1.00  0.00     0.167 HD
ATOM     46  C   UNL A   1      40.953  29.083  28.717  1.00  0.00     0.037 A 
ATOM     47  C   UNL A   1      48.265  28.831  27.160  1.00  0.00     0.037 A 
ATOM     48  C   UNL A   1      41.982  30.048  29.122  1.00  0.00     0.049 A 
ATOM     49  C   UNL A   1      47.484  30.118  27.035  1.00  0.00     0.074 A 
ATOM     50  C   UNL A   1      42.799  30.100  30.238  1.00  0.00     0.029 A 
ATOM     51  N   UNL A   1      42.579  30.848  28.153  1.00  0.00    -0.354 N 
ATOM     52  N   UNL A   1      46.207  30.238  27.294  1.00  0.00    -0.248 NA
ATOM     53  C   UNL A   1      48.138  31.389  26.758  1.00  0.00     0.031 C 
ATOM     54  C   UNL A   1      43.960  30.843  29.885  1.00  0.00     0.029 A 
ATOM     55  C   UNL A   1      43.839  31.245  28.563  1.00  0.00     0.049 A 
ATOM     56  H   UNL A   1      42.163  31.099  27.297  1.00  0.00     0.167 HD
ATOM     57  C   UNL A   1      45.889  31.571  27.325  1.00  0.00     0.074 A 
ATOM     58  C   UNL A   1      47.124  32.246  26.956  1.00  0.00     0.031 C 
ATOM     59  C   UNL A   1      44.672  32.067  27.699  1.00  0.00     0.037 A 
BRANCH  46  60
ATOM     60  C   UNL A   1      39.602  28.995  29.407  1.00  0.00     0.057 A 
ATOM     61  C   UNL A   1      38.432  29.373  28.709  1.00  0.00     0.134 A 
ATOM     62  C   UNL A   1      39.365  28.619  30.742  1.00  0.00     0.134 A 
ATOM     63  F   UNL A   1      38.463  29.706  27.411  1.00  0.00    -0.206 F 
ATOM     64  C   UNL A   1      37.161  29.435  29.300  1.00  0.00     0.040 A 
ATOM     65  C   UNL A   1      38.097  28.683  31.348  1.00  0.00     0.040 A 
ATOM     66  F   UNL A   1      40.329  28.145  31.532  1.00  0.00    -0.206 F 
ATOM     67  C   UNL A   1      36.989  29.101  30.631  1.00  0.00     0.006 A 
ENDBRANCH  46  60
BRANCH  47  68
ATOM     68  C   UNL A   1      48.789  27.985  26.031  1.00  0.00     0.057 A 
ATOM     69  C   UNL A   1      47.971  27.800  24.890  1.00  0.00     0.134 A 
ATOM     70  C   UNL A   1      50.121  27.580  25.896  1.00  0.00     0.134 A 
ATOM     71  F   UNL A   1      46.673  28.144  24.932  1.00  0.00    -0.206 F 
ATOM     72  C   UNL A   1      48.472  27.358  23.660  1.00  0.00     0.040 A 
ATOM     73  C   UNL A   1      50.629  27.103  24.672  1.00  0.00     0.040 A 
ATOM     74  F   UNL A   1      50.983  27.705  26.915  1.00  0.00    -0.206 F 
ATOM     75  C   UNL A   1      49.813  27.025  23.542  1.00  0.00     0.006 A 
ENDBRANCH  47  68
BRANCH  59  76
ATOM     76  C   UNL A   1      44.191  33.452  27.348  1.00  0.00     0.057 A 
ATOM     77  C   UNL A   1      43.778  33.817  26.059  1.00  0.00     0.134 A 
ATOM     78  C   UNL A   1      43.950  34.414  28.353  1.00  0.00     0.134 A 
ATOM     79  F   UNL A   1      43.814  32.954  25.035  1.00  0.00    -0.206 F 
ATOM     80  C   UNL A   1      43.249  35.077  25.770  1.00  0.00     0.040 A 
ATOM     81  C   UNL A   1      43.349  35.645  28.089  1.00  0.00     0.040 A 
ATOM     82  F   UNL A   1      44.252  34.192  29.640  1.00  0.00    -0.206 F 
ATOM     83  C   UNL A   1      43.019  35.990  26.789  1.00  0.00     0.006 A 
ENDBRANCH  59  76
ENDBRANCH  33  34
ENDBRANCH  26  28
ENDBRANCH  25  26
ENDBRANCH  24  25
ENDBRANCH  23  24
ENDBRANCH  22  23
ENDBRANCH   1  22
TORSDOF 17
ENDMDL
MODEL 2
REMARK VINA RESULT:     -10.7      4.593      9.790
REMARK SMILES Cc1cc(C(=O)OCCOC(=O)c2ccc(-c3c4nc(c(-c5c(F)cccc5F)c5ccc([nH]5)c(-c5c(F)cccc5F)c5nc(c(-c6c(F)cccc6F)c6ccc3[nH]6)C=C5)C=C4)cc2)ccc1NCCCC(=O)NC1CC1
REMARK SMILES IDX 5 1 6 2 4 3 1 4 2 5 3 6 69 7 68 8 67 9 70 10 71 12 72 13
REMARK SMILES IDX 73 14 74 15 75 16 76 17 77 19 78 20 79 21 7 22 8 23 9 24
REMARK SMILES IDX 10 25 11 26 12 27 13 28 14 29 66 30 15 31 65 32 16 33 17 34
REMARK SMILES IDX 18 35 59 36 19 37 64 38 58 39 60 40 20 41 63 42 57 43 56 44
REMARK SMILES IDX 21 46 47 47 30 48 46 49 31 50 34 51 45 52 61 53 32 54 33 55
REMARK SMILES IDX 44 57 62 58 35 59 22 60 23 61 28 62 24 63 25 64 27 65 29 66
REMARK SMILES IDX 26 67 48 68 49 69 54 70 50 71 51 72 53 73 55 74 52 75 36 76
REMARK SMILES IDX 37 77 42 78 38 79 39 80 41 81 43 82 40 83
REMARK H PARENT 70 11 76 18 60 45 34 56
REMARK Flexibility Score: inf
ROOT
ATOM      1  C   UNL A   1      31.652  27.776  26.038  1.00  0.00     0.338 C 
ATOM      2  O   UNL A   1      31.180  27.264  27.049  1.00  0.00    -0.246 OA
ENDROOT
BRANCH   1   3
ATOM      3  C   UNL A   1      32.575  26.980  25.203  1.00  0.00     0.060 A 
ATOM      4  C   UNL A   1      32.681  25.213  21.842  1.00  0.00     0.046 C 
ATOM      5  C   UNL A   1      33.062  25.581  23.259  1.00  0.00    -0.027 A 
ATOM      6  C   UNL A   1      32.399  26.688  23.850  1.00  0.00     0.021 A 
ATOM      7  C   UNL A   1      33.994  24.838  24.020  1.00  0.00     0.037 A 
ATOM      8  C   UNL A   1      34.253  25.262  25.331  1.00  0.00     0.027 A 
ATOM      9  C   UNL A   1      33.540  26.290  25.924  1.00  0.00     0.018 A 
BRANCH   7  10
ATOM     10  N   UNL A   1      34.713  23.777  23.485  1.00  0.00    -0.385 N 
ATOM     11  H   UNL A   1      34.680  23.612  22.514  1.00  0.00     0.160 HD
BRANCH  10  12
ATOM     12  C   UNL A   1      35.514  22.902  24.329  1.00  0.00     0.113 C 
BRANCH  12  13
ATOM     13  C   UNL A   1      34.812  21.601  24.688  1.00  0.00     0.031 C 
BRANCH  13  14
ATOM     14  C   UNL A   1      33.453  21.379  24.033  1.00  0.00     0.102 C 
BRANCH  14  15
ATOM     15  C   UNL A   1      32.410  20.737  24.920  1.00  0.00     0.220 C 
ATOM     16  O   UNL A   1      32.143  19.538  24.805  1.00  0.00    -0.275 OA
ATOM     17  N   UNL A   1      31.772  21.453  25.889  1.00  0.00    -0.353 N 
ATOM     18  H   UNL A   1      31.296  20.908  26.557  1.00  0.00     0.163 HD
BRANCH  17  19
ATOM     19  C   UNL A   1      31.681  22.857  26.090  1.00  0.00     0.082 C 
ATOM     20  C   UNL A   1      30.683  23.628  25.256  1.00  0.00     0.027 C 
ATOM     21  C   UNL A   1      30.537  23.570  26.740  1.00  0.00     0.027 C 
ENDBRANCH  17  19
ENDBRANCH  14  15
ENDBRANCH  13  14
ENDBRANCH  12  13
ENDBRANCH  10  12
ENDBRANCH   7  10
ENDBRANCH   1   3
BRANCH   1  22
ATOM     22  O   UNL A   1      31.428  29.057  25.644  1.00  0.00    -0.458 OA
BRANCH  22  23
ATOM     23  C   UNL A   1      32.646  29.820  25.717  1.00  0.00     0.275 C 
BRANCH  23  24
ATOM     24  C   UNL A   1      33.211  30.026  27.127  1.00  0.00     0.275 C 
BRANCH  24  25
ATOM     25  O   UNL A   1      34.204  31.059  27.376  1.00  0.00    -0.458 OA
BRANCH  25  26
ATOM     26  C   UNL A   1      34.944  31.292  28.480  1.00  0.00     0.338 C 
ATOM     27  O   UNL A   1      34.584  32.081  29.352  1.00  0.00    -0.246 OA
BRANCH  26  28
ATOM     28  C   UNL A   1      36.206  30.562  28.637  1.00  0.00     0.060 A 
ATOM     29  C   UNL A   1      36.411  29.809  29.805  1.00  0.00     0.016 A 
ATOM     30  C   UNL A   1      37.137  30.555  27.606  1.00  0.00     0.016 A 
ATOM     31  C   UNL A   1      37.503  28.963  29.909  1.00  0.00     0.010 A 
ATOM     32  C   UNL A   1      38.130  29.613  27.630  1.00  0.00     0.010 A 
ATOM     33  C   UNL A   1      38.347  28.884  28.809  1.00  0.00    -0.014 A 
BRANCH  33  34
ATOM     34  C   UNL A   1      39.715  28.427  28.922  1.00  0.00     0.031 A 
ATOM     35  C   UNL A   1      40.076  27.039  28.634  1.00  0.00     0.074 A 
ATOM     36  C   UNL A   1      40.537  29.485  29.120  1.00  0.00     0.049 A 
ATOM     37  N   UNL A   1      41.192  26.510  28.977  1.00  0.00    -0.248 NA
ATOM     38  C   UNL A   1      39.184  26.087  27.976  1.00  0.00     0.031 C 
ATOM     39  C   UNL A   1      41.963  29.663  28.960  1.00  0.00     0.029 A 
ATOM     40  N   UNL A   1      40.111  30.707  29.675  1.00  0.00    -0.354 N 
ATOM     41  C   UNL A   1      41.320  25.321  28.285  1.00  0.00     0.074 A 
ATOM     42  C   UNL A   1      39.989  25.028  27.819  1.00  0.00     0.031 C 
ATOM     43  C   UNL A   1      42.336  30.742  29.680  1.00  0.00     0.029 A 
ATOM     44  C   UNL A   1      41.169  31.196  30.434  1.00  0.00     0.049 A 
ATOM     45  H   UNL A   1      39.233  31.134  29.549  1.00  0.00     0.167 HD
ATOM     46  C   UNL A   1      42.587  24.865  28.051  1.00  0.00     0.037 A 
ATOM     47  C   UNL A   1      41.021  31.151  31.791  1.00  0.00     0.037 A 
ATOM     48  C   UNL A   1      43.533  25.744  28.747  1.00  0.00     0.049 A 
ATOM     49  C   UNL A   1      41.970  30.122  32.357  1.00  0.00     0.074 A 
ATOM     50  C   UNL A   1      44.242  26.852  28.312  1.00  0.00     0.029 A 
ATOM     51  N   UNL A   1      43.500  25.812  30.136  1.00  0.00    -0.354 N 
ATOM     52  N   UNL A   1      42.295  29.004  31.758  1.00  0.00    -0.248 NA
ATOM     53  C   UNL A   1      42.737  30.370  33.570  1.00  0.00     0.031 C 
ATOM     54  C   UNL A   1      44.527  27.652  29.453  1.00  0.00     0.029 A 
ATOM     55  C   UNL A   1      44.000  27.026  30.573  1.00  0.00     0.049 A 
ATOM     56  H   UNL A   1      43.168  25.097  30.725  1.00  0.00     0.167 HD
ATOM     57  C   UNL A   1      43.356  28.444  32.421  1.00  0.00     0.074 A 
ATOM     58  C   UNL A   1      43.575  29.321  33.560  1.00  0.00     0.031 C 
ATOM     59  C   UNL A   1      44.039  27.340  31.993  1.00  0.00     0.037 A 
BRANCH  46  60
ATOM     60  C   UNL A   1      43.029  23.863  26.998  1.00  0.00     0.057 A 
ATOM     61  C   UNL A   1      43.311  24.305  25.684  1.00  0.00     0.134 A 
ATOM     62  C   UNL A   1      43.145  22.471  27.161  1.00  0.00     0.134 A 
ATOM     63  F   UNL A   1      43.305  25.606  25.363  1.00  0.00    -0.206 F 
ATOM     64  C   UNL A   1      43.612  23.439  24.622  1.00  0.00     0.040 A 
ATOM     65  C   UNL A   1      43.439  21.591  26.103  1.00  0.00     0.040 A 
ATOM     66  F   UNL A   1      43.008  21.877  28.347  1.00  0.00    -0.206 F 
ATOM     67  C   UNL A   1      43.665  22.072  24.824  1.00  0.00     0.006 A 
ENDBRANCH  46  60
BRANCH  47  68
ATOM     68  C   UNL A   1      39.623  31.442  32.268  1.00  0.00     0.057 A 
ATOM     69  C   UNL A   1      38.877  30.390  32.852  1.00  0.00     0.134 A 
ATOM     70  C   UNL A   1      39.091  32.725  32.427  1.00  0.00     0.134 A 
ATOM     71  F   UNL A   1      39.301  29.120  32.735  1.00  0.00    -0.206 F 
ATOM     72  C   UNL A   1      37.744  30.610  33.644  1.00  0.00     0.040 A 
ATOM     73  C   UNL A   1      37.934  32.956  33.196  1.00  0.00     0.040 A 
ATOM     74  F   UNL A   1      39.714  33.795  31.913  1.00  0.00    -0.206 F 
ATOM     75  C   UNL A   1      37.278  31.903  33.835  1.00  0.00     0.006 A 
ENDBRANCH  47  68
BRANCH  59  76
ATOM     76  C   UNL A   1      44.904  26.494  32.890  1.00  0.00     0.057 A 
ATOM     77  C   UNL A   1      44.385  25.630  33.865  1.00  0.00     0.134 A 
ATOM     78  C   UNL A   1      46.295  26.384  32.667  1.00  0.00     0.134 A 
ATOM     79  F   UNL A   1      43.068  25.522  34.085  1.00  0.00    -0.206 F 
ATOM     80  C   UNL A   1      45.197  24.785  34.626  1.00  0.00     0.040 A 
ATOM     81  C   UNL A   1      47.101  25.486  33.366  1.00  0.00     0.040 A 
ATOM     82  F   UNL A   1      46.927  27.114  31.737  1.00  0.00    -0.206 F 
ATOM     83  C   UNL A   1      46.557  24.699  34.367  1.00  0.00     0.006 A 
ENDBRANCH  59  76
ENDBRANCH  33  34
ENDBRANCH  26  28
ENDBRANCH  25  26
ENDBRANCH  24  25
ENDBRANCH  23  24
ENDBRANCH  22  23
ENDBRANCH   1  22
TORSDOF 17
ENDMDL
MODEL 3
REMARK VINA RESULT:     -10.6      6.408     12.053
REMARK SMILES Cc1cc(C(=O)OCCOC(=O)c2ccc(-c3c4nc(c(-c5c(F)cccc5F)c5ccc([nH]5)c(-c5c(F)cccc5F)c5nc(c(-c6c(F)cccc6F)c6ccc3[nH]6)C=C5)C=C4)cc2)ccc1NCCCC(=O)NC1CC1
REMARK SMILES IDX 5 1 6 2 4 3 1 4 2 5 3 6 69 7 68 8 67 9 70 10 71 12 72 13
REMARK SMILES IDX 73 14 74 15 75 16 76 17 77 19 78 20 79 21 7 22 8 23 9 24
REMARK SMILES IDX 10 25 11 26 12 27 13 28 14 29 66 30 15 31 65 32 16 33 17 34
REMARK SMILES IDX 18 35 59 36 19 37 64 38 58 39 60 40 20 41 63 42 57 43 56 44
REMARK SMILES IDX 21 46 47 47 30 48 46 49 31 50 34 51 45 52 61 53 32 54 33 55
REMARK SMILES IDX 44 57 62 58 35 59 22 60 23 61 28 62 24 63 25 64 27 65 29 66
REMARK SMILES IDX 26 67 48 68 49 69 54 70 50 71 51 72 53 73 55 74 52 75 36 76
REMARK SMILES IDX 37 77 42 78 38 79 39 80 41 81 43 82 40 83
REMARK H PARENT 70 11 76 18 60 45 34 56
REMARK Flexibility Score: inf
ROOT
ATOM      1  C   UNL A   1      33.708  34.648  28.789  1.00  0.00     0.338 C 
ATOM      2  O   UNL A   1      34.625  35.447  28.618  1.00  0.00    -0.246 OA
ENDROOT
BRANCH   1   3
ATOM      3  C   UNL A   1      33.780  33.330  28.124  1.00  0.00     0.060 A 
ATOM      4  C   UNL A   1      31.514  30.762  26.481  1.00  0.00     0.046 C 
ATOM      5  C   UNL A   1      32.738  31.344  27.153  1.00  0.00    -0.027 A 
ATOM      6  C   UNL A   1      32.766  32.748  27.363  1.00  0.00     0.021 A 
ATOM      7  C   UNL A   1      33.807  30.546  27.625  1.00  0.00     0.037 A 
ATOM      8  C   UNL A   1      34.879  31.195  28.252  1.00  0.00     0.027 A 
ATOM      9  C   UNL A   1      34.858  32.553  28.525  1.00  0.00     0.018 A 
BRANCH   7  10
ATOM     10  N   UNL A   1      33.863  29.175  27.407  1.00  0.00    -0.385 N 
ATOM     11  H   UNL A   1      33.624  28.560  28.138  1.00  0.00     0.160 HD
BRANCH  10  12
ATOM     12  C   UNL A   1      34.269  28.629  26.120  1.00  0.00     0.113 C 
BRANCH  12  13
ATOM     13  C   UNL A   1      33.857  27.179  25.923  1.00  0.00     0.031 C 
BRANCH  13  14
ATOM     14  C   UNL A   1      32.402  26.951  25.531  1.00  0.00     0.102 C 
BRANCH  14  15
ATOM     15  C   UNL A   1      31.479  26.582  26.670  1.00  0.00     0.220 C 
ATOM     16  O   UNL A   1      31.028  27.453  27.417  1.00  0.00    -0.275 OA
ATOM     17  N   UNL A   1      31.094  25.290  26.876  1.00  0.00    -0.353 N 
ATOM     18  H   UNL A   1      30.323  25.181  27.479  1.00  0.00     0.163 HD
BRANCH  17  19
ATOM     19  C   UNL A   1      31.626  24.076  26.362  1.00  0.00     0.082 C 
ATOM     20  C   UNL A   1      30.653  22.982  25.980  1.00  0.00     0.027 C 
ATOM     21  C   UNL A   1      31.522  23.613  24.942  1.00  0.00     0.027 C 
ENDBRANCH  17  19
ENDBRANCH  14  15
ENDBRANCH  13  14
ENDBRANCH  12  13
ENDBRANCH  10  12
ENDBRANCH   7  10
ENDBRANCH   1   3
BRANCH   1  22
ATOM     22  O   UNL A   1      32.588  34.901  29.515  1.00  0.00    -0.458 OA
BRANCH  22  23
ATOM     23  C   UNL A   1      32.757  36.101  30.289  1.00  0.00     0.275 C 
BRANCH  23  24
ATOM     24  C   UNL A   1      32.586  35.939  31.804  1.00  0.00     0.275 C 
BRANCH  24  25
ATOM     25  O   UNL A   1      33.384  34.966  32.532  1.00  0.00    -0.458 OA
BRANCH  25  26
ATOM     26  C   UNL A   1      34.568  35.124  33.162  1.00  0.00     0.338 C 
ATOM     27  O   UNL A   1      34.777  36.061  33.932  1.00  0.00    -0.246 OA
BRANCH  26  28
ATOM     28  C   UNL A   1      35.619  34.131  32.923  1.00  0.00     0.060 A 
ATOM     29  C   UNL A   1      35.802  33.100  33.860  1.00  0.00     0.016 A 
ATOM     30  C   UNL A   1      36.359  34.172  31.747  1.00  0.00     0.016 A 
ATOM     31  C   UNL A   1      36.654  32.045  33.580  1.00  0.00     0.010 A 
ATOM     32  C   UNL A   1      37.082  33.065  31.393  1.00  0.00     0.010 A 
ATOM     33  C   UNL A   1      37.282  32.051  32.342  1.00  0.00    -0.014 A 
BRANCH  33  34
ATOM     34  C   UNL A   1      38.497  31.306  32.093  1.00  0.00     0.031 A 
ATOM     35  C   UNL A   1      38.483  30.080  31.294  1.00  0.00     0.074 A 
ATOM     36  C   UNL A   1      39.567  32.015  32.524  1.00  0.00     0.049 A 
ATOM     37  N   UNL A   1      39.449  29.238  31.270  1.00  0.00    -0.248 NA
ATOM     38  C   UNL A   1      37.346  29.651  30.483  1.00  0.00     0.031 C 
ATOM     39  C   UNL A   1      40.981  31.933  32.232  1.00  0.00     0.029 A 
ATOM     40  N   UNL A   1      39.493  33.006  33.522  1.00  0.00    -0.354 N 
ATOM     41  C   UNL A   1      39.236  28.391  30.199  1.00  0.00     0.074 A 
ATOM     42  C   UNL A   1      37.851  28.581  29.856  1.00  0.00     0.031 C 
ATOM     43  C   UNL A   1      41.652  32.563  33.220  1.00  0.00     0.029 A 
ATOM     44  C   UNL A   1      40.680  32.943  34.243  1.00  0.00     0.049 A 
ATOM     45  H   UNL A   1      38.743  33.625  33.679  1.00  0.00     0.167 HD
ATOM     46  C   UNL A   1      40.334  27.796  29.643  1.00  0.00     0.037 A 
ATOM     47  C   UNL A   1      40.602  32.432  35.507  1.00  0.00     0.037 A 
ATOM     48  C   UNL A   1      41.507  28.134  30.456  1.00  0.00     0.049 A 
ATOM     49  C   UNL A   1      41.295  31.090  35.540  1.00  0.00     0.074 A 
ATOM     50  C   UNL A   1      42.445  29.146  30.334  1.00  0.00     0.029 A 
ATOM     51  N   UNL A   1      41.571  27.689  31.772  1.00  0.00    -0.354 N 
ATOM     52  N   UNL A   1      41.295  30.232  34.552  1.00  0.00    -0.248 NA
ATOM     53  C   UNL A   1      42.166  30.703  36.641  1.00  0.00     0.031 C 
ATOM     54  C   UNL A   1      42.985  29.387  31.627  1.00  0.00     0.029 A 
ATOM     55  C   UNL A   1      42.382  28.518  32.525  1.00  0.00     0.049 A 
ATOM     56  H   UNL A   1      41.105  26.894  32.119  1.00  0.00     0.167 HD
ATOM     57  C   UNL A   1      42.218  29.254  34.821  1.00  0.00     0.074 A 
ATOM     58  C   UNL A   1      42.714  29.581  36.149  1.00  0.00     0.031 C 
ATOM     59  C   UNL A   1      42.579  28.270  33.945  1.00  0.00     0.037 A 
BRANCH  46  60
ATOM     60  C   UNL A   1      40.452  27.186  28.256  1.00  0.00     0.057 A 
ATOM     61  C   UNL A   1      39.909  25.903  28.006  1.00  0.00     0.134 A 
ATOM     62  C   UNL A   1      41.117  27.742  27.148  1.00  0.00     0.134 A 
ATOM     63  F   UNL A   1      39.193  25.250  28.931  1.00  0.00    -0.206 F 
ATOM     64  C   UNL A   1      40.072  25.215  26.794  1.00  0.00     0.040 A 
ATOM     65  C   UNL A   1      41.293  27.059  25.931  1.00  0.00     0.040 A 
ATOM     66  F   UNL A   1      41.614  28.979  27.162  1.00  0.00    -0.206 F 
ATOM     67  C   UNL A   1      40.778  25.786  25.751  1.00  0.00     0.006 A 
ENDBRANCH  46  60
BRANCH  47  68
ATOM     68  C   UNL A   1      39.351  32.815  36.251  1.00  0.00     0.057 A 
ATOM     69  C   UNL A   1      38.401  31.805  36.539  1.00  0.00     0.134 A 
ATOM     70  C   UNL A   1      39.165  34.032  36.915  1.00  0.00     0.134 A 
ATOM     71  F   UNL A   1      38.488  30.609  35.935  1.00  0.00    -0.206 F 
ATOM     72  C   UNL A   1      37.406  31.954  37.512  1.00  0.00     0.040 A 
ATOM     73  C   UNL A   1      38.148  34.203  37.874  1.00  0.00     0.040 A 
ATOM     74  F   UNL A   1      40.003  35.058  36.715  1.00  0.00    -0.206 F 
ATOM     75  C   UNL A   1      37.288  33.152  38.200  1.00  0.00     0.006 A 
ENDBRANCH  47  68
BRANCH  59  76
ATOM     76  C   UNL A   1      43.254  26.988  34.361  1.00  0.00     0.057 A 
ATOM     77  C   UNL A   1      42.566  25.907  34.927  1.00  0.00     0.134 A 
ATOM     78  C   UNL A   1      44.603  26.735  34.024  1.00  0.00     0.134 A 
ATOM     79  F   UNL A   1      41.249  25.955  35.167  1.00  0.00    -0.206 F 
ATOM     80  C   UNL A   1      43.191  24.693  35.223  1.00  0.00     0.040 A 
ATOM     81  C   UNL A   1      45.214  25.501  34.241  1.00  0.00     0.040 A 
ATOM     82  F   UNL A   1      45.376  27.659  33.436  1.00  0.00    -0.206 F 
ATOM     83  C   UNL A   1      44.515  24.481  34.866  1.00  0.00     0.006 A 
ENDBRANCH  59  76
ENDBRANCH  33  34
ENDBRANCH  26  28
ENDBRANCH  25  26
ENDBRANCH  24  25
ENDBRANCH  23  24
ENDBRANCH  22  23
ENDBRANCH   1  22
TORSDOF 17
ENDMDL
