MODEL 1
REMARK VINA RESULT:     -11.9      0.000      0.000
REMARK SMILES COc1ccc(/C=N/Nc2cccc(C(=O)OCCOC(=O)c3ccc(-c4c5nc(c(-c6c(F)cccc6F)c6ccc([nH]6)c(-c6c(F)cccc6F)c6nc(c(-c7c(F)cccc7F)c7ccc4[nH]7)C=C6)C=C5)cc3)c2)cc1O
REMARK SMILES IDX 18 1 17 2 15 3 16 4 14 5 10 6 11 7 77 8 12 9 13 10 9 11 8 13
REMARK SMILES IDX 7 14 6 15 3 16 4 17 79 18 5 19 78 20 2 21 1 22 80 23 19 25
REMARK SMILES IDX 20 26 21 27 22 28 23 29 24 30 76 31 25 32 75 33 26 34 27 35
REMARK SMILES IDX 28 36 69 37 29 38 74 39 68 40 70 41 30 42 73 43 67 44 66 45
REMARK SMILES IDX 31 47 57 48 40 49 56 50 41 51 44 52 55 53 71 54 42 55 43 56
REMARK SMILES IDX 54 58 72 59 45 60 32 61 33 62 38 63 34 64 35 65 37 66 39 67
REMARK SMILES IDX 36 68 58 69 59 70 64 71 60 72 61 73 63 74 65 75 62 76 46 77
REMARK SMILES IDX 47 78 52 79 48 80 49 81 51 82 53 83 50 84
REMARK H PARENT 9 12 80 24 70 46 44 57
REMARK Flexibility Score: inf
ROOT
ATOM      1  C   UNL A   1      35.132  20.268  24.960  1.00  0.00     0.275 C 
ENDROOT
BRANCH   1   2
ATOM      2  O   UNL A   1      33.979  20.779  24.261  1.00  0.00    -0.458 OA
BRANCH   2   3
ATOM      3  C   UNL A   1      32.842  20.902  24.989  1.00  0.00     0.338 C 
ATOM      4  O   UNL A   1      32.120  19.997  25.374  1.00  0.00    -0.246 OA
BRANCH   3   5
ATOM      5  C   UNL A   1      32.610  22.323  25.347  1.00  0.00     0.062 A 
ATOM      6  C   UNL A   1      31.170  24.278  25.451  1.00  0.00     0.057 A 
ATOM      7  C   UNL A   1      32.187  24.973  26.117  1.00  0.00     0.028 A 
ATOM      8  C   UNL A   1      31.416  22.966  25.019  1.00  0.00     0.043 A 
ATOM      9  C   UNL A   1      33.390  24.343  26.434  1.00  0.00     0.003 A 
ATOM     10  C   UNL A   1      33.581  23.007  26.089  1.00  0.00     0.016 A 
BRANCH   6  11
ATOM     11  N   UNL A   1      29.877  24.836  25.411  1.00  0.00    -0.278 N 
ATOM     12  H   UNL A   1      29.115  24.255  25.637  1.00  0.00     0.190 HD
BRANCH  11  13
ATOM     13  N   UNL A   1      29.617  26.134  25.079  1.00  0.00    -0.183 NA
ATOM     14  C   UNL A   1      29.291  26.345  23.839  1.00  0.00     0.141 C 
BRANCH  14  15
ATOM     15  C   UNL A   1      28.992  27.676  23.299  1.00  0.00    -0.002 A 
ATOM     16  C   UNL A   1      28.440  30.106  22.025  1.00  0.00     0.160 A 
ATOM     17  C   UNL A   1      27.431  29.405  22.702  1.00  0.00     0.051 A 
ATOM     18  C   UNL A   1      29.731  29.568  22.002  1.00  0.00     0.158 A 
ATOM     19  C   UNL A   1      27.701  28.196  23.348  1.00  0.00     0.014 A 
ATOM     20  C   UNL A   1      30.014  28.366  22.646  1.00  0.00     0.060 A 
BRANCH  16  21
ATOM     21  O   UNL A   1      28.005  31.235  21.392  1.00  0.00    -0.493 OA
ATOM     22  C   UNL A   1      28.354  32.490  21.965  1.00  0.00     0.278 C 
ENDBRANCH  16  21
BRANCH  18  23
ATOM     23  O   UNL A   1      30.765  30.116  21.300  1.00  0.00    -0.504 OA
ATOM     24  H   UNL A   1      30.909  29.870  20.407  1.00  0.00     0.293 HD
ENDBRANCH  18  23
ENDBRANCH  14  15
ENDBRANCH  11  13
ENDBRANCH   6  11
ENDBRANCH   3   5
ENDBRANCH   2   3
ENDBRANCH   1   2
BRANCH   1  25
ATOM     25  C   UNL A   1      36.374  21.077  24.593  1.00  0.00     0.275 C 
BRANCH  25  26
ATOM     26  O   UNL A   1      37.060  21.462  25.798  1.00  0.00    -0.458 OA
BRANCH  26  27
ATOM     27  C   UNL A   1      38.383  21.207  25.844  1.00  0.00     0.338 C 
ATOM     28  O   UNL A   1      38.968  20.194  25.482  1.00  0.00    -0.246 OA
BRANCH  27  29
ATOM     29  C   UNL A   1      39.072  22.377  26.405  1.00  0.00     0.060 A 
ATOM     30  C   UNL A   1      38.588  23.651  26.118  1.00  0.00     0.016 A 
ATOM     31  C   UNL A   1      40.248  22.223  27.136  1.00  0.00     0.016 A 
ATOM     32  C   UNL A   1      39.292  24.782  26.517  1.00  0.00     0.010 A 
ATOM     33  C   UNL A   1      40.925  23.359  27.593  1.00  0.00     0.010 A 
ATOM     34  C   UNL A   1      40.468  24.650  27.266  1.00  0.00    -0.014 A 
BRANCH  34  35
ATOM     35  C   UNL A   1      41.257  25.854  27.643  1.00  0.00     0.031 A 
ATOM     36  C   UNL A   1      40.638  26.905  28.523  1.00  0.00     0.074 A 
ATOM     37  C   UNL A   1      42.532  26.001  27.231  1.00  0.00     0.049 A 
ATOM     38  N   UNL A   1      41.076  28.101  28.821  1.00  0.00    -0.248 NA
ATOM     39  C   UNL A   1      39.350  26.564  29.149  1.00  0.00     0.031 C 
ATOM     40  C   UNL A   1      43.286  25.033  26.434  1.00  0.00     0.029 A 
ATOM     41  N   UNL A   1      43.423  27.026  27.438  1.00  0.00    -0.354 N 
ATOM     42  C   UNL A   1      40.099  28.674  29.625  1.00  0.00     0.074 A 
ATOM     43  C   UNL A   1      39.044  27.694  29.770  1.00  0.00     0.031 C 
ATOM     44  C   UNL A   1      44.533  25.495  26.244  1.00  0.00     0.029 A 
ATOM     45  C   UNL A   1      44.644  26.823  26.840  1.00  0.00     0.049 A 
ATOM     46  H   UNL A   1      43.207  27.829  27.964  1.00  0.00     0.167 HD
ATOM     47  C   UNL A   1      40.083  29.904  30.190  1.00  0.00     0.037 A 
ATOM     48  C   UNL A   1      45.717  27.631  26.750  1.00  0.00     0.037 A 
ATOM     49  C   UNL A   1      41.151  30.862  30.083  1.00  0.00     0.049 A 
ATOM     50  C   UNL A   1      45.659  29.007  27.349  1.00  0.00     0.074 A 
ATOM     51  C   UNL A   1      41.213  32.148  30.594  1.00  0.00     0.029 A 
ATOM     52  N   UNL A   1      42.356  30.628  29.443  1.00  0.00    -0.354 N 
ATOM     53  N   UNL A   1      44.691  29.573  28.028  1.00  0.00    -0.248 NA
ATOM     54  C   UNL A   1      46.834  29.867  27.147  1.00  0.00     0.031 C 
ATOM     55  C   UNL A   1      42.452  32.697  30.246  1.00  0.00     0.029 A 
ATOM     56  C   UNL A   1      43.172  31.742  29.547  1.00  0.00     0.049 A 
ATOM     57  H   UNL A   1      42.598  29.793  28.981  1.00  0.00     0.167 HD
ATOM     58  C   UNL A   1      45.143  30.848  28.340  1.00  0.00     0.074 A 
ATOM     59  C   UNL A   1      46.479  30.967  27.797  1.00  0.00     0.031 C 
ATOM     60  C   UNL A   1      44.502  31.837  29.009  1.00  0.00     0.037 A 
BRANCH  47  61
ATOM     61  C   UNL A   1      38.854  30.294  30.953  1.00  0.00     0.057 A 
ATOM     62  C   UNL A   1      38.718  30.032  32.321  1.00  0.00     0.134 A 
ATOM     63  C   UNL A   1      37.806  30.971  30.314  1.00  0.00     0.134 A 
ATOM     64  F   UNL A   1      39.679  29.372  32.985  1.00  0.00    -0.206 F 
ATOM     65  C   UNL A   1      37.574  30.414  33.025  1.00  0.00     0.040 A 
ATOM     66  C   UNL A   1      36.668  31.377  31.012  1.00  0.00     0.040 A 
ATOM     67  F   UNL A   1      37.877  31.255  29.006  1.00  0.00    -0.206 F 
ATOM     68  C   UNL A   1      36.548  31.096  32.372  1.00  0.00     0.006 A 
ENDBRANCH  47  61
BRANCH  48  69
ATOM     69  C   UNL A   1      46.931  27.178  26.025  1.00  0.00     0.057 A 
ATOM     70  C   UNL A   1      47.073  27.394  24.649  1.00  0.00     0.134 A 
ATOM     71  C   UNL A   1      47.964  26.499  26.682  1.00  0.00     0.134 A 
ATOM     72  F   UNL A   1      46.103  28.013  23.960  1.00  0.00    -0.206 F 
ATOM     73  C   UNL A   1      48.193  26.941  23.950  1.00  0.00     0.040 A 
ATOM     74  C   UNL A   1      49.101  26.064  26.001  1.00  0.00     0.040 A 
ATOM     75  F   UNL A   1      47.886  26.259  27.998  1.00  0.00    -0.206 F 
ATOM     76  C   UNL A   1      49.214  26.279  24.629  1.00  0.00     0.006 A 
ENDBRANCH  48  69
BRANCH  60  77
ATOM     77  C   UNL A   1      45.253  33.117  29.213  1.00  0.00     0.057 A 
ATOM     78  C   UNL A   1      45.156  34.178  28.305  1.00  0.00     0.134 A 
ATOM     79  C   UNL A   1      46.060  33.298  30.343  1.00  0.00     0.134 A 
ATOM     80  F   UNL A   1      44.410  34.058  27.198  1.00  0.00    -0.206 F 
ATOM     81  C   UNL A   1      45.852  35.370  28.504  1.00  0.00     0.040 A 
ATOM     82  C   UNL A   1      46.748  34.493  30.562  1.00  0.00     0.040 A 
ATOM     83  F   UNL A   1      46.190  32.320  31.252  1.00  0.00    -0.206 F 
ATOM     84  C   UNL A   1      46.647  35.532  29.638  1.00  0.00     0.006 A 
ENDBRANCH  60  77
ENDBRANCH  34  35
ENDBRANCH  27  29
ENDBRANCH  26  27
ENDBRANCH  25  26
ENDBRANCH   1  25
TORSDOF 16
ENDMDL
MODEL 2
REMARK VINA RESULT:     -11.8      5.463      8.418
REMARK SMILES COc1ccc(/C=N/Nc2cccc(C(=O)OCCOC(=O)c3ccc(-c4c5nc(c(-c6c(F)cccc6F)c6ccc([nH]6)c(-c6c(F)cccc6F)c6nc(c(-c7c(F)cccc7F)c7ccc4[nH]7)C=C6)C=C5)cc3)c2)cc1O
REMARK SMILES IDX 18 1 17 2 15 3 16 4 14 5 10 6 11 7 77 8 12 9 13 10 9 11 8 13
REMARK SMILES IDX 7 14 6 15 3 16 4 17 79 18 5 19 78 20 2 21 1 22 80 23 19 25
REMARK SMILES IDX 20 26 21 27 22 28 23 29 24 30 76 31 25 32 75 33 26 34 27 35
REMARK SMILES IDX 28 36 69 37 29 38 74 39 68 40 70 41 30 42 73 43 67 44 66 45
REMARK SMILES IDX 31 47 57 48 40 49 56 50 41 51 44 52 55 53 71 54 42 55 43 56
REMARK SMILES IDX 54 58 72 59 45 60 32 61 33 62 38 63 34 64 35 65 37 66 39 67
REMARK SMILES IDX 36 68 58 69 59 70 64 71 60 72 61 73 63 74 65 75 62 76 46 77
REMARK SMILES IDX 47 78 52 79 48 80 49 81 51 82 53 83 50 84
REMARK H PARENT 9 12 80 24 70 46 44 57
REMARK Flexibility Score: inf
ROOT
ATOM      1  C   UNL A   1      43.042  21.675  25.853  1.00  0.00     0.275 C 
ENDROOT
BRANCH   1   2
ATOM      2  O   UNL A   1      41.667  21.370  25.542  1.00  0.00    -0.458 OA
BRANCH   2   3
ATOM      3  C   UNL A   1      40.813  21.310  26.594  1.00  0.00     0.338 C 
ATOM      4  O   UNL A   1      40.984  20.707  27.640  1.00  0.00    -0.246 OA
BRANCH   3   5
ATOM      5  C   UNL A   1      39.628  22.168  26.345  1.00  0.00     0.062 A 
ATOM      6  C   UNL A   1      37.354  22.464  25.542  1.00  0.00     0.057 A 
ATOM      7  C   UNL A   1      37.389  23.795  25.975  1.00  0.00     0.028 A 
ATOM      8  C   UNL A   1      38.505  21.674  25.682  1.00  0.00     0.043 A 
ATOM      9  C   UNL A   1      38.514  24.302  26.625  1.00  0.00     0.003 A 
ATOM     10  C   UNL A   1      39.613  23.475  26.849  1.00  0.00     0.016 A 
BRANCH   6  11
ATOM     11  N   UNL A   1      36.117  21.903  25.166  1.00  0.00    -0.278 N 
ATOM     12  H   UNL A   1      35.412  22.511  24.844  1.00  0.00     0.190 HD
BRANCH  11  13
ATOM     13  N   UNL A   1      35.837  20.569  25.221  1.00  0.00    -0.183 NA
ATOM     14  C   UNL A   1      34.725  20.202  24.659  1.00  0.00     0.141 C 
BRANCH  14  15
ATOM     15  C   UNL A   1      34.255  18.811  24.633  1.00  0.00    -0.002 A 
ATOM     16  C   UNL A   1      33.430  16.146  24.842  1.00  0.00     0.160 A 
ATOM     17  C   UNL A   1      32.490  17.183  24.746  1.00  0.00     0.051 A 
ATOM     18  C   UNL A   1      34.790  16.470  24.827  1.00  0.00     0.158 A 
ATOM     19  C   UNL A   1      32.895  18.514  24.633  1.00  0.00     0.014 A 
ATOM     20  C   UNL A   1      35.207  17.794  24.709  1.00  0.00     0.060 A 
BRANCH  16  21
ATOM     21  O   UNL A   1      32.879  14.908  25.012  1.00  0.00    -0.493 OA
ATOM     22  C   UNL A   1      32.041  14.706  26.143  1.00  0.00     0.278 C 
ENDBRANCH  16  21
BRANCH  18  23
ATOM     23  O   UNL A   1      35.788  15.554  25.004  1.00  0.00    -0.504 OA
ATOM     24  H   UNL A   1      36.642  15.836  25.268  1.00  0.00     0.293 HD
ENDBRANCH  18  23
ENDBRANCH  14  15
ENDBRANCH  11  13
ENDBRANCH   6  11
ENDBRANCH   3   5
ENDBRANCH   2   3
ENDBRANCH   1   2
BRANCH   1  25
ATOM     25  C   UNL A   1      43.661  22.518  24.741  1.00  0.00     0.275 C 
BRANCH  25  26
ATOM     26  O   UNL A   1      43.132  23.854  24.812  1.00  0.00    -0.458 OA
BRANCH  26  27
ATOM     27  C   UNL A   1      43.974  24.811  25.253  1.00  0.00     0.338 C 
ATOM     28  O   UNL A   1      45.099  25.070  24.846  1.00  0.00    -0.246 OA
BRANCH  27  29
ATOM     29  C   UNL A   1      43.320  25.555  26.338  1.00  0.00     0.060 A 
ATOM     30  C   UNL A   1      43.517  26.931  26.430  1.00  0.00     0.016 A 
ATOM     31  C   UNL A   1      42.590  24.884  27.316  1.00  0.00     0.016 A 
ATOM     32  C   UNL A   1      43.027  27.644  27.521  1.00  0.00     0.010 A 
ATOM     33  C   UNL A   1      42.042  25.609  28.381  1.00  0.00     0.010 A 
ATOM     34  C   UNL A   1      42.277  26.992  28.507  1.00  0.00    -0.014 A 
BRANCH  34  35
ATOM     35  C   UNL A   1      41.804  27.737  29.705  1.00  0.00     0.031 A 
ATOM     36  C   UNL A   1      40.566  28.586  29.612  1.00  0.00     0.074 A 
ATOM     37  C   UNL A   1      42.452  27.636  30.882  1.00  0.00     0.049 A 
ATOM     38  N   UNL A   1      40.086  29.450  30.470  1.00  0.00    -0.248 NA
ATOM     39  C   UNL A   1      39.763  28.447  28.386  1.00  0.00     0.031 C 
ATOM     40  C   UNL A   1      43.622  26.797  31.140  1.00  0.00     0.029 A 
ATOM     41  N   UNL A   1      42.207  28.244  32.089  1.00  0.00    -0.354 N 
ATOM     42  C   UNL A   1      38.956  29.992  29.870  1.00  0.00     0.074 A 
ATOM     43  C   UNL A   1      38.821  29.361  28.575  1.00  0.00     0.031 C 
ATOM     44  C   UNL A   1      43.975  26.919  32.431  1.00  0.00     0.029 A 
ATOM     45  C   UNL A   1      43.105  27.901  33.071  1.00  0.00     0.049 A 
ATOM     46  H   UNL A   1      41.458  28.866  32.237  1.00  0.00     0.167 HD
ATOM     47  C   UNL A   1      38.110  30.932  30.354  1.00  0.00     0.037 A 
ATOM     48  C   UNL A   1      43.237  28.354  34.332  1.00  0.00     0.037 A 
ATOM     49  C   UNL A   1      38.218  31.528  31.659  1.00  0.00     0.049 A 
ATOM     50  C   UNL A   1      42.312  29.427  34.832  1.00  0.00     0.074 A 
ATOM     51  C   UNL A   1      37.427  32.513  32.228  1.00  0.00     0.029 A 
ATOM     52  N   UNL A   1      39.161  31.174  32.610  1.00  0.00    -0.354 N 
ATOM     53  N   UNL A   1      41.304  30.001  34.221  1.00  0.00    -0.248 NA
ATOM     54  C   UNL A   1      42.559  29.934  36.190  1.00  0.00     0.031 C 
ATOM     55  C   UNL A   1      37.904  32.765  33.519  1.00  0.00     0.029 A 
ATOM     56  C   UNL A   1      38.971  31.917  33.763  1.00  0.00     0.049 A 
ATOM     57  H   UNL A   1      39.863  30.495  32.484  1.00  0.00     0.167 HD
ATOM     58  C   UNL A   1      40.793  30.927  35.120  1.00  0.00     0.074 A 
ATOM     59  C   UNL A   1      41.587  30.824  36.327  1.00  0.00     0.031 C 
ATOM     60  C   UNL A   1      39.764  31.793  34.957  1.00  0.00     0.037 A 
BRANCH  47  61
ATOM     61  C   UNL A   1      37.007  31.394  29.453  1.00  0.00     0.057 A 
ATOM     62  C   UNL A   1      37.047  32.636  28.809  1.00  0.00     0.134 A 
ATOM     63  C   UNL A   1      35.903  30.569  29.202  1.00  0.00     0.134 A 
ATOM     64  F   UNL A   1      38.069  33.480  29.023  1.00  0.00    -0.206 F 
ATOM     65  C   UNL A   1      36.019  33.049  27.958  1.00  0.00     0.040 A 
ATOM     66  C   UNL A   1      34.880  30.962  28.337  1.00  0.00     0.040 A 
ATOM     67  F   UNL A   1      35.806  29.365  29.786  1.00  0.00    -0.206 F 
ATOM     68  C   UNL A   1      34.935  32.207  27.715  1.00  0.00     0.006 A 
ENDBRANCH  47  61
BRANCH  48  69
ATOM     69  C   UNL A   1      44.317  27.827  35.204  1.00  0.00     0.057 A 
ATOM     70  C   UNL A   1      45.580  28.429  35.231  1.00  0.00     0.134 A 
ATOM     71  C   UNL A   1      44.121  26.699  36.010  1.00  0.00     0.134 A 
ATOM     72  F   UNL A   1      45.837  29.495  34.459  1.00  0.00    -0.206 F 
ATOM     73  C   UNL A   1      46.614  27.920  36.019  1.00  0.00     0.040 A 
ATOM     74  C   UNL A   1      45.137  26.196  36.822  1.00  0.00     0.040 A 
ATOM     75  F   UNL A   1      42.933  26.077  36.025  1.00  0.00    -0.206 F 
ATOM     76  C   UNL A   1      46.391  26.803  36.823  1.00  0.00     0.006 A 
ENDBRANCH  48  69
BRANCH  60  77
ATOM     77  C   UNL A   1      39.425  32.672  36.121  1.00  0.00     0.057 A 
ATOM     78  C   UNL A   1      38.474  32.291  37.076  1.00  0.00     0.134 A 
ATOM     79  C   UNL A   1      40.074  33.899  36.301  1.00  0.00     0.134 A 
ATOM     80  F   UNL A   1      37.810  31.134  36.950  1.00  0.00    -0.206 F 
ATOM     81  C   UNL A   1      38.168  33.111  38.163  1.00  0.00     0.040 A 
ATOM     82  C   UNL A   1      39.789  34.720  37.393  1.00  0.00     0.040 A 
ATOM     83  F   UNL A   1      40.998  34.318  35.422  1.00  0.00    -0.206 F 
ATOM     84  C   UNL A   1      38.830  34.327  38.326  1.00  0.00     0.006 A 
ENDBRANCH  60  77
ENDBRANCH  34  35
ENDBRANCH  27  29
ENDBRANCH  26  27
ENDBRANCH  25  26
ENDBRANCH   1  25
TORSDOF 16
ENDMDL
MODEL 3
REMARK VINA RESULT:     -11.8      4.914      9.472
REMARK SMILES COc1ccc(/C=N/Nc2cccc(C(=O)OCCOC(=O)c3ccc(-c4c5nc(c(-c6c(F)cccc6F)c6ccc([nH]6)c(-c6c(F)cccc6F)c6nc(c(-c7c(F)cccc7F)c7ccc4[nH]7)C=C6)C=C5)cc3)c2)cc1O
REMARK SMILES IDX 18 1 17 2 15 3 16 4 14 5 10 6 11 7 77 8 12 9 13 10 9 11 8 13
REMARK SMILES IDX 7 14 6 15 3 16 4 17 79 18 5 19 78 20 2 21 1 22 80 23 19 25
REMARK SMILES IDX 20 26 21 27 22 28 23 29 24 30 76 31 25 32 75 33 26 34 27 35
REMARK SMILES IDX 28 36 69 37 29 38 74 39 68 40 70 41 30 42 73 43 67 44 66 45
REMARK SMILES IDX 31 47 57 48 40 49 56 50 41 51 44 52 55 53 71 54 42 55 43 56
REMARK SMILES IDX 54 58 72 59 45 60 32 61 33 62 38 63 34 64 35 65 37 66 39 67
REMARK SMILES IDX 36 68 58 69 59 70 64 71 60 72 61 73 63 74 65 75 62 76 46 77
REMARK SMILES IDX 47 78 52 79 48 80 49 81 51 82 53 83 50 84
REMARK H PARENT 9 12 80 24 70 46 44 57
REMARK Flexibility Score: inf
ROOT
ATOM      1  C   UNL A   1      46.328  22.444  24.751  1.00  0.00     0.275 C 
ENDROOT
BRANCH   1   2
ATOM      2  O   UNL A   1      46.127  21.247  25.529  1.00  0.00    -0.458 OA
BRANCH   2   3
ATOM      3  C   UNL A   1      45.628  20.176  24.863  1.00  0.00     0.338 C 
ATOM      4  O   UNL A   1      46.181  19.542  23.980  1.00  0.00    -0.246 OA
BRANCH   3   5
ATOM      5  C   UNL A   1      44.302  19.799  25.413  1.00  0.00     0.062 A 
ATOM      6  C   UNL A   1      42.094  20.399  26.230  1.00  0.00     0.057 A 
ATOM      7  C   UNL A   1      41.789  19.039  26.364  1.00  0.00     0.028 A 
ATOM      8  C   UNL A   1      43.379  20.768  25.805  1.00  0.00     0.043 A 
ATOM      9  C   UNL A   1      42.712  18.063  25.990  1.00  0.00     0.003 A 
ATOM     10  C   UNL A   1      43.949  18.444  25.473  1.00  0.00     0.016 A 
BRANCH   6  11
ATOM     11  N   UNL A   1      41.053  21.343  26.330  1.00  0.00    -0.278 N 
ATOM     12  H   UNL A   1      41.232  22.180  26.815  1.00  0.00     0.190 HD
BRANCH  11  13
ATOM     13  N   UNL A   1      39.810  21.167  25.793  1.00  0.00    -0.183 NA
ATOM     14  C   UNL A   1      39.010  22.187  25.875  1.00  0.00     0.141 C 
BRANCH  14  15
ATOM     15  C   UNL A   1      37.633  22.176  25.366  1.00  0.00    -0.002 A 
ATOM     16  C   UNL A   1      34.930  22.102  24.647  1.00  0.00     0.160 A 
ATOM     17  C   UNL A   1      35.629  23.317  24.686  1.00  0.00     0.051 A 
ATOM     18  C   UNL A   1      35.612  20.924  24.970  1.00  0.00     0.158 A 
ATOM     19  C   UNL A   1      36.981  23.360  25.035  1.00  0.00     0.014 A 
ATOM     20  C   UNL A   1      36.962  20.954  25.316  1.00  0.00     0.060 A 
BRANCH  16  21
ATOM     21  O   UNL A   1      33.603  22.231  24.351  1.00  0.00    -0.493 OA
ATOM     22  C   UNL A   1      33.258  22.681  23.046  1.00  0.00     0.278 C 
ENDBRANCH  16  21
BRANCH  18  23
ATOM     23  O   UNL A   1      35.012  19.701  25.053  1.00  0.00    -0.504 OA
ATOM     24  H   UNL A   1      34.569  19.448  25.839  1.00  0.00     0.293 HD
ENDBRANCH  18  23
ENDBRANCH  14  15
ENDBRANCH  11  13
ENDBRANCH   6  11
ENDBRANCH   3   5
ENDBRANCH   2   3
ENDBRANCH   1   2
BRANCH   1  25
ATOM     25  C   UNL A   1      45.853  23.667  25.532  1.00  0.00     0.275 C 
BRANCH  25  26
ATOM     26  O   UNL A   1      44.915  24.405  24.729  1.00  0.00    -0.458 OA
BRANCH  26  27
ATOM     27  C   UNL A   1      43.613  24.086  24.880  1.00  0.00     0.338 C 
ATOM     28  O   UNL A   1      42.983  23.203  24.312  1.00  0.00    -0.246 OA
BRANCH  27  29
ATOM     29  C   UNL A   1      43.019  24.980  25.883  1.00  0.00     0.060 A 
ATOM     30  C   UNL A   1      43.290  26.345  25.818  1.00  0.00     0.016 A 
ATOM     31  C   UNL A   1      42.274  24.463  26.939  1.00  0.00     0.016 A 
ATOM     32  C   UNL A   1      42.859  27.200  26.828  1.00  0.00     0.010 A 
ATOM     33  C   UNL A   1      41.785  25.330  27.923  1.00  0.00     0.010 A 
ATOM     34  C   UNL A   1      42.094  26.704  27.891  1.00  0.00    -0.014 A 
BRANCH  34  35
ATOM     35  C   UNL A   1      41.683  27.602  29.003  1.00  0.00     0.031 A 
ATOM     36  C   UNL A   1      42.485  27.627  30.275  1.00  0.00     0.074 A 
ATOM     37  C   UNL A   1      40.618  28.418  28.875  1.00  0.00     0.049 A 
ATOM     38  N   UNL A   1      42.206  28.191  31.422  1.00  0.00    -0.248 NA
ATOM     39  C   UNL A   1      43.775  26.917  30.254  1.00  0.00     0.031 C 
ATOM     40  C   UNL A   1      39.789  28.553  27.677  1.00  0.00     0.029 A 
ATOM     41  N   UNL A   1      40.057  29.297  29.768  1.00  0.00    -0.354 N 
ATOM     42  C   UNL A   1      43.255  27.865  32.271  1.00  0.00     0.074 A 
ATOM     43  C   UNL A   1      44.179  27.053  31.509  1.00  0.00     0.031 C 
ATOM     44  C   UNL A   1      38.844  29.482  27.898  1.00  0.00     0.029 A 
ATOM     45  C   UNL A   1      38.953  29.953  29.276  1.00  0.00     0.049 A 
ATOM     46  H   UNL A   1      40.411  29.444  30.675  1.00  0.00     0.167 HD
ATOM     47  C   UNL A   1      43.431  28.210  33.569  1.00  0.00     0.037 A 
ATOM     48  C   UNL A   1      38.103  30.805  29.878  1.00  0.00     0.037 A 
ATOM     49  C   UNL A   1      42.536  29.054  34.315  1.00  0.00     0.049 A 
ATOM     50  C   UNL A   1      38.296  31.140  31.330  1.00  0.00     0.074 A 
ATOM     51  C   UNL A   1      42.613  29.434  35.645  1.00  0.00     0.029 A 
ATOM     52  N   UNL A   1      41.414  29.671  33.787  1.00  0.00    -0.354 N 
ATOM     53  N   UNL A   1      39.241  30.750  32.150  1.00  0.00    -0.248 NA
ATOM     54  C   UNL A   1      37.288  32.015  31.948  1.00  0.00     0.031 C 
ATOM     55  C   UNL A   1      41.526  30.269  35.924  1.00  0.00     0.029 A 
ATOM     56  C   UNL A   1      40.791  30.433  34.761  1.00  0.00     0.049 A 
ATOM     57  H   UNL A   1      41.105  29.582  32.857  1.00  0.00     0.167 HD
ATOM     58  C   UNL A   1      38.947  31.336  33.374  1.00  0.00     0.074 A 
ATOM     59  C   UNL A   1      37.750  32.126  33.185  1.00  0.00     0.031 C 
ATOM     60  C   UNL A   1      39.607  31.221  34.552  1.00  0.00     0.037 A 
BRANCH  47  61
ATOM     61  C   UNL A   1      44.628  27.649  34.273  1.00  0.00     0.057 A 
ATOM     62  C   UNL A   1      44.584  26.425  34.949  1.00  0.00     0.134 A 
ATOM     63  C   UNL A   1      45.853  28.331  34.246  1.00  0.00     0.134 A 
ATOM     64  F   UNL A   1      43.437  25.732  35.026  1.00  0.00    -0.206 F 
ATOM     65  C   UNL A   1      45.711  25.904  35.589  1.00  0.00     0.040 A 
ATOM     66  C   UNL A   1      46.991  27.811  34.864  1.00  0.00     0.040 A 
ATOM     67  F   UNL A   1      45.962  29.508  33.613  1.00  0.00    -0.206 F 
ATOM     68  C   UNL A   1      46.921  26.595  35.540  1.00  0.00     0.006 A 
ENDBRANCH  47  61
BRANCH  48  69
ATOM     69  C   UNL A   1      36.960  31.375  29.122  1.00  0.00     0.057 A 
ATOM     70  C   UNL A   1      36.972  32.706  28.689  1.00  0.00     0.134 A 
ATOM     71  C   UNL A   1      35.820  30.614  28.837  1.00  0.00     0.134 A 
ATOM     72  F   UNL A   1      38.024  33.493  28.957  1.00  0.00    -0.206 F 
ATOM     73  C   UNL A   1      35.887  33.263  28.010  1.00  0.00     0.040 A 
ATOM     74  C   UNL A   1      34.739  31.150  28.137  1.00  0.00     0.040 A 
ATOM     75  F   UNL A   1      35.746  29.334  29.229  1.00  0.00    -0.206 F 
ATOM     76  C   UNL A   1      34.769  32.482  27.727  1.00  0.00     0.006 A 
ENDBRANCH  48  69
BRANCH  60  77
ATOM     77  C   UNL A   1      39.060  31.991  35.714  1.00  0.00     0.057 A 
ATOM     78  C   UNL A   1      38.187  31.405  36.638  1.00  0.00     0.134 A 
ATOM     79  C   UNL A   1      39.432  33.325  35.924  1.00  0.00     0.134 A 
ATOM     80  F   UNL A   1      37.785  30.136  36.482  1.00  0.00    -0.206 F 
ATOM     81  C   UNL A   1      37.687  32.125  37.723  1.00  0.00     0.040 A 
ATOM     82  C   UNL A   1      38.952  34.050  37.016  1.00  0.00     0.040 A 
ATOM     83  F   UNL A   1      40.269  33.941  35.076  1.00  0.00    -0.206 F 
ATOM     84  C   UNL A   1      38.074  33.451  37.917  1.00  0.00     0.006 A 
ENDBRANCH  60  77
ENDBRANCH  34  35
ENDBRANCH  27  29
ENDBRANCH  26  27
ENDBRANCH  25  26
ENDBRANCH   1  25
TORSDOF 16
ENDMDL
