MODEL 1
REMARK VINA RESULT:     -10.9      0.000      0.000
REMARK SMILES C[C@H](COc1ccccc1C(=O)OCCOC(=O)c1ccc(-c2c3nc(c(-c4c(F)cccc4F)c4ccc([nH]4)c(-c4c(F)cccc4F)c4nc(c(-c5c(F)cccc5F)c5ccc2[nH]5)C=C4)C=C3)cc1)C(N)=O
REMARK SMILES IDX 14 1 13 2 11 3 12 4 10 5 5 6 6 7 7 8 9 9 8 10 4 11 3 12 2 13
REMARK SMILES IDX 1 14 73 15 74 16 75 17 15 20 16 21 17 22 18 23 19 24 20 25
REMARK SMILES IDX 72 26 21 27 71 28 22 29 23 30 24 31 65 32 25 33 70 34 64 35
REMARK SMILES IDX 66 36 26 37 69 38 63 39 62 40 27 42 53 43 36 44 52 45 37 46
REMARK SMILES IDX 40 47 51 48 67 49 38 50 39 51 50 53 68 54 41 55 28 56 29 57
REMARK SMILES IDX 34 58 30 59 31 60 33 61 35 62 32 63 54 64 55 65 60 66 56 67
REMARK SMILES IDX 57 68 59 69 61 70 58 71 42 72 43 73 48 74 44 75 45 76 47 77
REMARK SMILES IDX 49 78 46 79
REMARK H PARENT 74 18 74 19 66 41 40 52
REMARK Flexibility Score: inf
ROOT
ATOM      1  C   UNL A   1      37.927  21.000  25.265  1.00  0.00     0.275 C 
ENDROOT
BRANCH   1   2
ATOM      2  O   UNL A   1      36.654  20.642  24.695  1.00  0.00    -0.458 OA
BRANCH   2   3
ATOM      3  C   UNL A   1      35.581  21.090  25.379  1.00  0.00     0.342 C 
ATOM      4  O   UNL A   1      35.555  21.455  26.545  1.00  0.00    -0.246 OA
BRANCH   3   5
ATOM      5  C   UNL A   1      34.402  21.163  24.495  1.00  0.00     0.102 A 
ATOM      6  C   UNL A   1      33.522  20.086  24.344  1.00  0.00     0.133 A 
ATOM      7  C   UNL A   1      32.365  20.237  23.575  1.00  0.00     0.047 A 
ATOM      8  C   UNL A   1      32.102  21.456  22.945  1.00  0.00     0.004 A 
ATOM      9  C   UNL A   1      34.136  22.384  23.864  1.00  0.00     0.019 A 
ATOM     10  C   UNL A   1      32.993  22.522  23.073  1.00  0.00     0.001 A 
BRANCH   6  11
ATOM     11  O   UNL A   1      33.860  18.859  24.833  1.00  0.00    -0.492 OA
BRANCH  11  12
ATOM     12  C   UNL A   1      32.753  17.969  25.000  1.00  0.00     0.242 C 
BRANCH  12  13
ATOM     13  C   UNL A   1      33.038  16.694  24.191  1.00  0.00     0.113 C 
ATOM     14  C   UNL A   1      34.326  16.843  23.369  1.00  0.00     0.022 C 
BRANCH  13  15
ATOM     15  C   UNL A   1      33.090  15.460  25.089  1.00  0.00     0.223 C 
ATOM     16  N   UNL A   1      31.900  15.035  25.602  1.00  0.00    -0.369 N 
ATOM     17  O   UNL A   1      34.104  14.803  25.308  1.00  0.00    -0.275 OA
ATOM     18  H   UNL A   1      31.078  15.551  25.434  1.00  0.00     0.159 HD
ATOM     19  H   UNL A   1      31.862  14.211  26.141  1.00  0.00     0.159 HD
ENDBRANCH  13  15
ENDBRANCH  12  13
ENDBRANCH  11  12
ENDBRANCH   6  11
ENDBRANCH   3   5
ENDBRANCH   2   3
ENDBRANCH   1   2
BRANCH   1  20
ATOM     20  C   UNL A   1      38.849  19.778  25.270  1.00  0.00     0.275 C 
BRANCH  20  21
ATOM     21  O   UNL A   1      39.659  19.828  26.460  1.00  0.00    -0.458 OA
BRANCH  21  22
ATOM     22  C   UNL A   1      40.984  19.681  26.227  1.00  0.00     0.338 C 
ATOM     23  O   UNL A   1      41.544  18.789  25.616  1.00  0.00    -0.246 OA
BRANCH  22  24
ATOM     24  C   UNL A   1      41.595  20.982  26.554  1.00  0.00     0.060 A 
ATOM     25  C   UNL A   1      41.932  21.211  27.894  1.00  0.00     0.016 A 
ATOM     26  C   UNL A   1      41.937  21.900  25.559  1.00  0.00     0.016 A 
ATOM     27  C   UNL A   1      42.637  22.356  28.244  1.00  0.00     0.010 A 
ATOM     28  C   UNL A   1      42.623  23.059  25.914  1.00  0.00     0.010 A 
ATOM     29  C   UNL A   1      42.969  23.291  27.256  1.00  0.00    -0.014 A 
BRANCH  29  30
ATOM     30  C   UNL A   1      43.528  24.600  27.645  1.00  0.00     0.031 A 
ATOM     31  C   UNL A   1      42.571  25.656  28.104  1.00  0.00     0.074 A 
ATOM     32  C   UNL A   1      44.850  24.833  27.588  1.00  0.00     0.049 A 
ATOM     33  N   UNL A   1      42.788  26.918  28.364  1.00  0.00    -0.248 NA
ATOM     34  C   UNL A   1      41.173  25.229  28.289  1.00  0.00     0.031 C 
ATOM     35  C   UNL A   1      45.869  23.853  27.217  1.00  0.00     0.029 A 
ATOM     36  N   UNL A   1      45.558  25.981  27.833  1.00  0.00    -0.354 N 
ATOM     37  C   UNL A   1      41.553  27.439  28.722  1.00  0.00     0.074 A 
ATOM     38  C   UNL A   1      40.589  26.363  28.640  1.00  0.00     0.031 C 
ATOM     39  C   UNL A   1      47.075  24.446  27.248  1.00  0.00     0.029 A 
ATOM     40  C   UNL A   1      46.905  25.856  27.595  1.00  0.00     0.049 A 
ATOM     41  H   UNL A   1      45.141  26.815  28.149  1.00  0.00     0.167 HD
ATOM     42  C   UNL A   1      41.250  28.709  29.079  1.00  0.00     0.037 A 
ATOM     43  C   UNL A   1      47.874  26.790  27.624  1.00  0.00     0.037 A 
ATOM     44  C   UNL A   1      42.217  29.769  29.144  1.00  0.00     0.049 A 
ATOM     45  C   UNL A   1      47.502  28.211  27.958  1.00  0.00     0.074 A 
ATOM     46  C   UNL A   1      42.022  31.099  29.465  1.00  0.00     0.029 A 
ATOM     47  N   UNL A   1      43.569  29.611  28.876  1.00  0.00    -0.354 N 
ATOM     48  N   UNL A   1      46.328  28.708  28.268  1.00  0.00    -0.248 NA
ATOM     49  C   UNL A   1      48.586  29.203  27.934  1.00  0.00     0.031 C 
ATOM     50  C   UNL A   1      43.255  31.754  29.360  1.00  0.00     0.029 A 
ATOM     51  C   UNL A   1      44.222  30.822  29.014  1.00  0.00     0.049 A 
ATOM     52  H   UNL A   1      44.000  28.762  28.626  1.00  0.00     0.167 HD
ATOM     53  C   UNL A   1      46.533  30.064  28.489  1.00  0.00     0.074 A 
ATOM     54  C   UNL A   1      47.949  30.308  28.296  1.00  0.00     0.031 C 
ATOM     55  C   UNL A   1      45.635  31.026  28.818  1.00  0.00     0.037 A 
BRANCH  42  56
ATOM     56  C   UNL A   1      39.810  29.006  29.369  1.00  0.00     0.057 A 
ATOM     57  C   UNL A   1      39.287  28.941  30.666  1.00  0.00     0.134 A 
ATOM     58  C   UNL A   1      38.930  29.331  28.330  1.00  0.00     0.134 A 
ATOM     59  F   UNL A   1      40.074  28.607  31.701  1.00  0.00    -0.206 F 
ATOM     60  C   UNL A   1      37.931  29.162  30.916  1.00  0.00     0.040 A 
ATOM     61  C   UNL A   1      37.578  29.576  28.572  1.00  0.00     0.040 A 
ATOM     62  F   UNL A   1      39.367  29.402  27.064  1.00  0.00    -0.206 F 
ATOM     63  C   UNL A   1      37.073  29.485  29.867  1.00  0.00     0.006 A 
ENDBRANCH  42  56
BRANCH  43  64
ATOM     64  C   UNL A   1      49.277  26.427  27.294  1.00  0.00     0.057 A 
ATOM     65  C   UNL A   1      50.201  26.116  28.297  1.00  0.00     0.134 A 
ATOM     66  C   UNL A   1      49.733  26.404  25.970  1.00  0.00     0.134 A 
ATOM     67  F   UNL A   1      49.832  26.147  29.587  1.00  0.00    -0.206 F 
ATOM     68  C   UNL A   1      51.530  25.810  28.000  1.00  0.00     0.040 A 
ATOM     69  C   UNL A   1      51.053  26.077  25.656  1.00  0.00     0.040 A 
ATOM     70  F   UNL A   1      48.900  26.696  24.961  1.00  0.00    -0.206 F 
ATOM     71  C   UNL A   1      51.958  25.785  26.674  1.00  0.00     0.006 A 
ENDBRANCH  43  64
BRANCH  55  72
ATOM     72  C   UNL A   1      46.165  32.414  29.014  1.00  0.00     0.057 A 
ATOM     73  C   UNL A   1      46.632  32.854  30.258  1.00  0.00     0.134 A 
ATOM     74  C   UNL A   1      46.254  33.300  27.934  1.00  0.00     0.134 A 
ATOM     75  F   UNL A   1      46.562  32.055  31.333  1.00  0.00    -0.206 F 
ATOM     76  C   UNL A   1      47.154  34.137  30.425  1.00  0.00     0.040 A 
ATOM     77  C   UNL A   1      46.795  34.577  28.084  1.00  0.00     0.040 A 
ATOM     78  F   UNL A   1      45.832  32.933  26.715  1.00  0.00    -0.206 F 
ATOM     79  C   UNL A   1      47.243  34.999  29.333  1.00  0.00     0.006 A 
ENDBRANCH  55  72
ENDBRANCH  29  30
ENDBRANCH  22  24
ENDBRANCH  21  22
ENDBRANCH  20  21
ENDBRANCH   1  20
TORSDOF 15
ENDMDL
MODEL 2
REMARK VINA RESULT:     -10.7      6.553     10.092
REMARK SMILES C[C@H](COc1ccccc1C(=O)OCCOC(=O)c1ccc(-c2c3nc(c(-c4c(F)cccc4F)c4ccc([nH]4)c(-c4c(F)cccc4F)c4nc(c(-c5c(F)cccc5F)c5ccc2[nH]5)C=C4)C=C3)cc1)C(N)=O
REMARK SMILES IDX 14 1 13 2 11 3 12 4 10 5 5 6 6 7 7 8 9 9 8 10 4 11 3 12 2 13
REMARK SMILES IDX 1 14 73 15 74 16 75 17 15 20 16 21 17 22 18 23 19 24 20 25
REMARK SMILES IDX 72 26 21 27 71 28 22 29 23 30 24 31 65 32 25 33 70 34 64 35
REMARK SMILES IDX 66 36 26 37 69 38 63 39 62 40 27 42 53 43 36 44 52 45 37 46
REMARK SMILES IDX 40 47 51 48 67 49 38 50 39 51 50 53 68 54 41 55 28 56 29 57
REMARK SMILES IDX 34 58 30 59 31 60 33 61 35 62 32 63 54 64 55 65 60 66 56 67
REMARK SMILES IDX 57 68 59 69 61 70 58 71 42 72 43 73 48 74 44 75 45 76 47 77
REMARK SMILES IDX 49 78 46 79
REMARK H PARENT 74 18 74 19 66 41 40 52
REMARK Flexibility Score: inf
ROOT
ATOM      1  C   UNL A   1      32.472  31.155  26.869  1.00  0.00     0.275 C 
ENDROOT
BRANCH   1   2
ATOM      2  O   UNL A   1      31.499  30.423  26.100  1.00  0.00    -0.458 OA
BRANCH   2   3
ATOM      3  C   UNL A   1      32.017  29.645  25.126  1.00  0.00     0.342 C 
ATOM      4  O   UNL A   1      33.147  29.702  24.665  1.00  0.00    -0.246 OA
BRANCH   3   5
ATOM      5  C   UNL A   1      31.040  28.619  24.714  1.00  0.00     0.102 A 
ATOM      6  C   UNL A   1      30.096  28.857  23.709  1.00  0.00     0.133 A 
ATOM      7  C   UNL A   1      29.259  27.822  23.284  1.00  0.00     0.047 A 
ATOM      8  C   UNL A   1      29.354  26.560  23.877  1.00  0.00     0.004 A 
ATOM      9  C   UNL A   1      31.134  27.354  25.307  1.00  0.00     0.019 A 
ATOM     10  C   UNL A   1      30.276  26.331  24.899  1.00  0.00     0.001 A 
BRANCH   6  11
ATOM     11  O   UNL A   1      29.905  30.124  23.242  1.00  0.00    -0.492 OA
BRANCH  11  12
ATOM     12  C   UNL A   1      29.227  30.189  21.985  1.00  0.00     0.242 C 
BRANCH  12  13
ATOM     13  C   UNL A   1      27.945  31.015  22.175  1.00  0.00     0.113 C 
ATOM     14  C   UNL A   1      27.632  31.207  23.666  1.00  0.00     0.022 C 
BRANCH  13  15
ATOM     15  C   UNL A   1      28.028  32.355  21.448  1.00  0.00     0.223 C 
ATOM     16  N   UNL A   1      27.782  32.331  20.106  1.00  0.00    -0.369 N 
ATOM     17  O   UNL A   1      28.226  33.434  22.000  1.00  0.00    -0.275 OA
ATOM     18  H   UNL A   1      27.621  31.474  19.650  1.00  0.00     0.159 HD
ATOM     19  H   UNL A   1      27.764  33.172  19.594  1.00  0.00     0.159 HD
ENDBRANCH  13  15
ENDBRANCH  12  13
ENDBRANCH  11  12
ENDBRANCH   6  11
ENDBRANCH   3   5
ENDBRANCH   2   3
ENDBRANCH   1   2
BRANCH   1  20
ATOM     20  C   UNL A   1      31.990  32.595  27.068  1.00  0.00     0.275 C 
BRANCH  20  21
ATOM     21  O   UNL A   1      33.130  33.469  26.978  1.00  0.00    -0.458 OA
BRANCH  21  22
ATOM     22  C   UNL A   1      33.432  34.097  28.139  1.00  0.00     0.338 C 
ATOM     23  O   UNL A   1      32.760  34.907  28.750  1.00  0.00    -0.246 OA
BRANCH  22  24
ATOM     24  C   UNL A   1      34.575  33.361  28.706  1.00  0.00     0.060 A 
ATOM     25  C   UNL A   1      34.287  32.331  29.610  1.00  0.00     0.016 A 
ATOM     26  C   UNL A   1      35.883  33.593  28.273  1.00  0.00     0.016 A 
ATOM     27  C   UNL A   1      35.309  31.509  30.071  1.00  0.00     0.010 A 
ATOM     28  C   UNL A   1      36.910  32.784  28.754  1.00  0.00     0.010 A 
ATOM     29  C   UNL A   1      36.625  31.745  29.657  1.00  0.00    -0.014 A 
BRANCH  29  30
ATOM     30  C   UNL A   1      37.736  31.017  30.299  1.00  0.00     0.031 A 
ATOM     31  C   UNL A   1      38.028  31.320  31.737  1.00  0.00     0.074 A 
ATOM     32  C   UNL A   1      38.461  30.117  29.615  1.00  0.00     0.049 A 
ATOM     33  N   UNL A   1      39.025  30.926  32.483  1.00  0.00    -0.248 NA
ATOM     34  C   UNL A   1      37.060  32.193  32.424  1.00  0.00     0.031 C 
ATOM     35  C   UNL A   1      38.217  29.704  28.234  1.00  0.00     0.029 A 
ATOM     36  N   UNL A   1      39.561  29.393  29.994  1.00  0.00    -0.354 N 
ATOM     37  C   UNL A   1      38.817  31.520  33.720  1.00  0.00     0.074 A 
ATOM     38  C   UNL A   1      37.606  32.305  33.625  1.00  0.00     0.031 C 
ATOM     39  C   UNL A   1      39.152  28.806  27.876  1.00  0.00     0.029 A 
ATOM     40  C   UNL A   1      40.082  28.618  28.987  1.00  0.00     0.049 A 
ATOM     41  H   UNL A   1      39.942  29.425  30.902  1.00  0.00     0.167 HD
ATOM     42  C   UNL A   1      39.579  31.424  34.834  1.00  0.00     0.037 A 
ATOM     43  C   UNL A   1      41.204  27.873  28.967  1.00  0.00     0.037 A 
ATOM     44  C   UNL A   1      40.786  30.649  34.909  1.00  0.00     0.049 A 
ATOM     45  C   UNL A   1      42.072  27.834  30.198  1.00  0.00     0.074 A 
ATOM     46  C   UNL A   1      41.653  30.500  35.974  1.00  0.00     0.029 A 
ATOM     47  N   UNL A   1      41.295  29.893  33.863  1.00  0.00    -0.354 N 
ATOM     48  N   UNL A   1      41.889  28.420  31.357  1.00  0.00    -0.248 NA
ATOM     49  C   UNL A   1      43.307  27.043  30.114  1.00  0.00     0.031 C 
ATOM     50  C   UNL A   1      42.707  29.676  35.561  1.00  0.00     0.029 A 
ATOM     51  C   UNL A   1      42.473  29.282  34.252  1.00  0.00     0.049 A 
ATOM     52  H   UNL A   1      40.879  29.805  32.975  1.00  0.00     0.167 HD
ATOM     53  C   UNL A   1      42.974  28.059  32.144  1.00  0.00     0.074 A 
ATOM     54  C   UNL A   1      43.803  27.187  31.335  1.00  0.00     0.031 C 
ATOM     55  C   UNL A   1      43.268  28.415  33.420  1.00  0.00     0.037 A 
BRANCH  42  56
ATOM     56  C   UNL A   1      39.139  32.220  36.025  1.00  0.00     0.057 A 
ATOM     57  C   UNL A   1      38.257  31.698  36.981  1.00  0.00     0.134 A 
ATOM     58  C   UNL A   1      39.581  33.536  36.201  1.00  0.00     0.134 A 
ATOM     59  F   UNL A   1      37.776  30.452  36.853  1.00  0.00    -0.206 F 
ATOM     60  C   UNL A   1      37.809  32.469  38.055  1.00  0.00     0.040 A 
ATOM     61  C   UNL A   1      39.157  34.308  37.283  1.00  0.00     0.040 A 
ATOM     62  F   UNL A   1      40.420  34.097  35.317  1.00  0.00    -0.206 F 
ATOM     63  C   UNL A   1      38.262  33.778  38.210  1.00  0.00     0.006 A 
ENDBRANCH  42  56
BRANCH  43  64
ATOM     64  C   UNL A   1      41.593  27.134  27.738  1.00  0.00     0.057 A 
ATOM     65  C   UNL A   1      42.380  27.734  26.749  1.00  0.00     0.134 A 
ATOM     66  C   UNL A   1      41.169  25.818  27.511  1.00  0.00     0.134 A 
ATOM     67  F   UNL A   1      42.795  29.002  26.895  1.00  0.00    -0.206 F 
ATOM     68  C   UNL A   1      42.720  27.062  25.575  1.00  0.00     0.040 A 
ATOM     69  C   UNL A   1      41.522  25.125  26.352  1.00  0.00     0.040 A 
ATOM     70  F   UNL A   1      40.410  25.186  28.417  1.00  0.00    -0.206 F 
ATOM     71  C   UNL A   1      42.295  25.750  25.376  1.00  0.00     0.006 A 
ENDBRANCH  43  64
BRANCH  55  72
ATOM     72  C   UNL A   1      44.517  27.841  34.017  1.00  0.00     0.057 A 
ATOM     73  C   UNL A   1      45.738  28.526  33.967  1.00  0.00     0.134 A 
ATOM     74  C   UNL A   1      44.485  26.616  34.692  1.00  0.00     0.134 A 
ATOM     75  F   UNL A   1      45.835  29.698  33.324  1.00  0.00    -0.206 F 
ATOM     76  C   UNL A   1      46.889  27.999  34.554  1.00  0.00     0.040 A 
ATOM     77  C   UNL A   1      45.623  26.091  35.302  1.00  0.00     0.040 A 
ATOM     78  F   UNL A   1      43.342  25.918  34.782  1.00  0.00    -0.206 F 
ATOM     79  C   UNL A   1      46.831  26.781  35.230  1.00  0.00     0.006 A 
ENDBRANCH  55  72
ENDBRANCH  29  30
ENDBRANCH  22  24
ENDBRANCH  21  22
ENDBRANCH  20  21
ENDBRANCH   1  20
TORSDOF 15
ENDMDL
MODEL 3
REMARK VINA RESULT:     -10.5      4.825      9.095
REMARK SMILES C[C@H](COc1ccccc1C(=O)OCCOC(=O)c1ccc(-c2c3nc(c(-c4c(F)cccc4F)c4ccc([nH]4)c(-c4c(F)cccc4F)c4nc(c(-c5c(F)cccc5F)c5ccc2[nH]5)C=C4)C=C3)cc1)C(N)=O
REMARK SMILES IDX 14 1 13 2 11 3 12 4 10 5 5 6 6 7 7 8 9 9 8 10 4 11 3 12 2 13
REMARK SMILES IDX 1 14 73 15 74 16 75 17 15 20 16 21 17 22 18 23 19 24 20 25
REMARK SMILES IDX 72 26 21 27 71 28 22 29 23 30 24 31 65 32 25 33 70 34 64 35
REMARK SMILES IDX 66 36 26 37 69 38 63 39 62 40 27 42 53 43 36 44 52 45 37 46
REMARK SMILES IDX 40 47 51 48 67 49 38 50 39 51 50 53 68 54 41 55 28 56 29 57
REMARK SMILES IDX 34 58 30 59 31 60 33 61 35 62 32 63 54 64 55 65 60 66 56 67
REMARK SMILES IDX 57 68 59 69 61 70 58 71 42 72 43 73 48 74 44 75 45 76 47 77
REMARK SMILES IDX 49 78 46 79
REMARK H PARENT 74 18 74 19 66 41 40 52
REMARK Flexibility Score: inf
ROOT
ATOM      1  C   UNL A   1      33.216  29.089  26.443  1.00  0.00     0.275 C 
ENDROOT
BRANCH   1   2
ATOM      2  O   UNL A   1      32.412  29.724  25.431  1.00  0.00    -0.458 OA
BRANCH   2   3
ATOM      3  C   UNL A   1      32.390  29.085  24.243  1.00  0.00     0.342 C 
ATOM      4  O   UNL A   1      33.234  29.148  23.361  1.00  0.00    -0.246 OA
BRANCH   3   5
ATOM      5  C   UNL A   1      31.213  28.201  24.157  1.00  0.00     0.102 A 
ATOM      6  C   UNL A   1      30.005  28.629  23.593  1.00  0.00     0.133 A 
ATOM      7  C   UNL A   1      28.951  27.725  23.442  1.00  0.00     0.047 A 
ATOM      8  C   UNL A   1      29.098  26.403  23.872  1.00  0.00     0.004 A 
ATOM      9  C   UNL A   1      31.359  26.876  24.585  1.00  0.00     0.019 A 
ATOM     10  C   UNL A   1      30.292  25.984  24.459  1.00  0.00     0.001 A 
BRANCH   6  11
ATOM     11  O   UNL A   1      29.815  29.951  23.317  1.00  0.00    -0.492 OA
BRANCH  11  12
ATOM     12  C   UNL A   1      29.236  30.204  22.034  1.00  0.00     0.242 C 
BRANCH  12  13
ATOM     13  C   UNL A   1      28.021  31.123  22.231  1.00  0.00     0.113 C 
ATOM     14  C   UNL A   1      27.358  30.871  23.593  1.00  0.00     0.022 C 
BRANCH  13  15
ATOM     15  C   UNL A   1      28.395  32.593  22.058  1.00  0.00     0.223 C 
ATOM     16  N   UNL A   1      29.508  33.016  22.723  1.00  0.00    -0.369 N 
ATOM     17  O   UNL A   1      27.808  33.377  21.316  1.00  0.00    -0.275 OA
ATOM     18  H   UNL A   1      29.989  32.399  23.321  1.00  0.00     0.159 HD
ATOM     19  H   UNL A   1      29.831  33.939  22.605  1.00  0.00     0.159 HD
ENDBRANCH  13  15
ENDBRANCH  12  13
ENDBRANCH  11  12
ENDBRANCH   6  11
ENDBRANCH   3   5
ENDBRANCH   2   3
ENDBRANCH   1   2
BRANCH   1  20
ATOM     20  C   UNL A   1      33.980  30.155  27.234  1.00  0.00     0.275 C 
BRANCH  20  21
ATOM     21  O   UNL A   1      35.030  29.503  27.973  1.00  0.00    -0.458 OA
BRANCH  21  22
ATOM     22  C   UNL A   1      35.740  30.337  28.768  1.00  0.00     0.338 C 
ATOM     23  O   UNL A   1      35.317  31.142  29.578  1.00  0.00    -0.246 OA
BRANCH  22  24
ATOM     24  C   UNL A   1      37.129  29.849  28.723  1.00  0.00     0.060 A 
ATOM     25  C   UNL A   1      37.758  29.826  27.473  1.00  0.00     0.016 A 
ATOM     26  C   UNL A   1      37.833  29.538  29.889  1.00  0.00     0.016 A 
ATOM     27  C   UNL A   1      39.109  29.511  27.383  1.00  0.00     0.010 A 
ATOM     28  C   UNL A   1      39.182  29.199  29.796  1.00  0.00     0.010 A 
ATOM     29  C   UNL A   1      39.819  29.181  28.543  1.00  0.00    -0.014 A 
BRANCH  29  30
ATOM     30  C   UNL A   1      41.190  28.644  28.435  1.00  0.00     0.031 A 
ATOM     31  C   UNL A   1      42.328  29.603  28.608  1.00  0.00     0.074 A 
ATOM     32  C   UNL A   1      41.406  27.342  28.189  1.00  0.00     0.049 A 
ATOM     33  N   UNL A   1      43.607  29.415  28.424  1.00  0.00    -0.248 NA
ATOM     34  C   UNL A   1      41.968  30.964  29.043  1.00  0.00     0.031 C 
ATOM     35  C   UNL A   1      40.370  26.318  28.069  1.00  0.00     0.029 A 
ATOM     36  N   UNL A   1      42.579  26.662  27.985  1.00  0.00    -0.354 N 
ATOM     37  C   UNL A   1      44.203  30.638  28.699  1.00  0.00     0.074 A 
ATOM     38  C   UNL A   1      43.148  31.562  29.056  1.00  0.00     0.031 C 
ATOM     39  C   UNL A   1      40.954  25.137  27.800  1.00  0.00     0.029 A 
ATOM     40  C   UNL A   1      42.398  25.335  27.684  1.00  0.00     0.049 A 
ATOM     41  H   UNL A   1      43.466  27.085  28.048  1.00  0.00     0.167 HD
ATOM     42  C   UNL A   1      45.516  30.961  28.649  1.00  0.00     0.037 A 
ATOM     43  C   UNL A   1      43.301  24.403  27.322  1.00  0.00     0.037 A 
ATOM     44  C   UNL A   1      46.550  30.034  28.282  1.00  0.00     0.049 A 
ATOM     45  C   UNL A   1      44.749  24.802  27.208  1.00  0.00     0.074 A 
ATOM     46  C   UNL A   1      47.909  30.255  28.169  1.00  0.00     0.029 A 
ATOM     47  N   UNL A   1      46.328  28.702  27.962  1.00  0.00    -0.354 N 
ATOM     48  N   UNL A   1      45.306  25.967  27.441  1.00  0.00    -0.248 NA
ATOM     49  C   UNL A   1      45.690  23.763  26.768  1.00  0.00     0.031 C 
ATOM     50  C   UNL A   1      48.508  29.061  27.750  1.00  0.00     0.029 A 
ATOM     51  C   UNL A   1      47.525  28.089  27.641  1.00  0.00     0.049 A 
ATOM     52  H   UNL A   1      45.448  28.260  27.965  1.00  0.00     0.167 HD
ATOM     53  C   UNL A   1      46.662  25.799  27.191  1.00  0.00     0.074 A 
ATOM     54  C   UNL A   1      46.845  24.413  26.806  1.00  0.00     0.031 C 
ATOM     55  C   UNL A   1      47.669  26.705  27.267  1.00  0.00     0.037 A 
BRANCH  42  56
ATOM     56  C   UNL A   1      45.875  32.384  28.952  1.00  0.00     0.057 A 
ATOM     57  C   UNL A   1      45.926  33.364  27.953  1.00  0.00     0.134 A 
ATOM     58  C   UNL A   1      46.205  32.770  30.257  1.00  0.00     0.134 A 
ATOM     59  F   UNL A   1      45.648  33.051  26.678  1.00  0.00    -0.206 F 
ATOM     60  C   UNL A   1      46.320  34.673  28.237  1.00  0.00     0.040 A 
ATOM     61  C   UNL A   1      46.578  34.081  30.556  1.00  0.00     0.040 A 
ATOM     62  F   UNL A   1      46.184  31.877  31.257  1.00  0.00    -0.206 F 
ATOM     63  C   UNL A   1      46.644  35.035  29.543  1.00  0.00     0.006 A 
ENDBRANCH  42  56
BRANCH  43  64
ATOM     64  C   UNL A   1      42.866  23.018  27.007  1.00  0.00     0.057 A 
ATOM     65  C   UNL A   1      42.771  22.571  25.684  1.00  0.00     0.134 A 
ATOM     66  C   UNL A   1      42.514  22.114  28.018  1.00  0.00     0.134 A 
ATOM     67  F   UNL A   1      43.068  23.397  24.670  1.00  0.00    -0.206 F 
ATOM     68  C   UNL A   1      42.328  21.283  25.376  1.00  0.00     0.040 A 
ATOM     69  C   UNL A   1      42.092  20.816  27.725  1.00  0.00     0.040 A 
ATOM     70  F   UNL A   1      42.579  22.480  29.306  1.00  0.00    -0.206 F 
ATOM     71  C   UNL A   1      41.992  20.399  26.400  1.00  0.00     0.006 A 
ENDBRANCH  43  64
BRANCH  55  72
ATOM     72  C   UNL A   1      49.051  26.216  26.954  1.00  0.00     0.057 A 
ATOM     73  C   UNL A   1      49.598  26.330  25.670  1.00  0.00     0.134 A 
ATOM     74  C   UNL A   1      49.857  25.671  27.960  1.00  0.00     0.134 A 
ATOM     75  F   UNL A   1      48.870  26.833  24.663  1.00  0.00    -0.206 F 
ATOM     76  C   UNL A   1      50.897  25.902  25.395  1.00  0.00     0.040 A 
ATOM     77  C   UNL A   1      51.164  25.260  27.701  1.00  0.00     0.040 A 
ATOM     78  F   UNL A   1      49.392  25.544  29.212  1.00  0.00    -0.206 F 
ATOM     79  C   UNL A   1      51.686  25.372  26.414  1.00  0.00     0.006 A 
ENDBRANCH  55  72
ENDBRANCH  29  30
ENDBRANCH  22  24
ENDBRANCH  21  22
ENDBRANCH  20  21
ENDBRANCH   1  20
TORSDOF 15
ENDMDL
