MODEL 1
REMARK VINA RESULT:     -11.0      0.000      0.000
REMARK SMILES CC[C@@](C)([NH2+]CC(=O)N[C@@H](C)c1ccc(F)cc1)C(=O)OCCOC(=O)c1ccc(-c2c3nc(c(-c4c(F)cccc4F)c4ccc([nH]4)c(-c4c(F)cccc4F)c4nc(c(-c5c(F)cccc5F)c5ccc2[nH]5)C=C4)C=C3)cc1
REMARK SMILES IDX 21 1 19 2 20 3 3 4 4 5 2 6 1 7 5 8 6 11 7 12 8 13 9 14 10 16
REMARK SMILES IDX 11 17 12 18 13 19 18 20 14 21 17 22 15 23 16 24 22 25 23 26
REMARK SMILES IDX 24 27 25 28 26 29 27 30 28 31 80 32 29 33 79 34 30 35 31 36
REMARK SMILES IDX 32 37 73 38 33 39 78 40 72 41 74 42 34 43 77 44 71 45 70 46
REMARK SMILES IDX 35 48 61 49 44 50 60 51 45 52 48 53 59 54 75 55 46 56 47 57
REMARK SMILES IDX 58 59 76 60 49 61 36 62 37 63 42 64 38 65 39 66 41 67 43 68
REMARK SMILES IDX 40 69 62 70 63 71 68 72 64 73 65 74 67 75 69 76 66 77 50 78
REMARK SMILES IDX 51 79 56 80 52 81 53 82 55 83 57 84 54 85
REMARK H PARENT 5 9 5 10 9 15 74 47 48 58
REMARK Flexibility Score: inf
ROOT
ATOM      1  O   UNL A   1      35.535  22.640  25.126  1.00  0.00    -0.457 OA
ENDROOT
BRANCH   1   2
ATOM      2  C   UNL A   1      34.874  23.210  24.070  1.00  0.00     0.367 C 
ATOM      3  O   UNL A   1      35.207  23.056  22.899  1.00  0.00    -0.245 OA
BRANCH   2   4
ATOM      4  C   UNL A   1      33.685  24.117  24.534  1.00  0.00     0.191 C 
ATOM      5  C   UNL A   1      34.076  25.295  25.442  1.00  0.00     0.092 C 
BRANCH   4   6
ATOM      6  C   UNL A   1      33.110  24.745  23.229  1.00  0.00     0.077 C 
ATOM      7  C   UNL A   1      33.442  26.239  23.074  1.00  0.00     0.011 C 
ENDBRANCH   4   6
BRANCH   4   8
ATOM      8  N   UNL A   1      32.640  23.328  25.250  1.00  0.00    -0.325 N 
ATOM      9  H   UNL A   1      33.029  22.401  25.423  1.00  0.00     0.347 HD
ATOM     10  H   UNL A   1      31.830  23.370  24.631  1.00  0.00     0.347 HD
BRANCH   8  11
ATOM     11  C   UNL A   1      32.130  23.838  26.551  1.00  0.00     0.362 C 
BRANCH  11  12
ATOM     12  C   UNL A   1      30.607  23.990  26.700  1.00  0.00     0.275 C 
ATOM     13  O   UNL A   1      29.932  23.099  27.223  1.00  0.00    -0.268 OA
ATOM     14  N   UNL A   1      29.965  25.144  26.307  1.00  0.00    -0.345 N 
ATOM     15  H   UNL A   1      29.140  25.365  26.797  1.00  0.00     0.164 HD
BRANCH  14  16
ATOM     16  C   UNL A   1      30.355  26.081  25.256  1.00  0.00     0.109 C 
ATOM     17  C   UNL A   1      29.184  26.276  24.279  1.00  0.00     0.036 C 
BRANCH  16  18
ATOM     18  C   UNL A   1      30.962  27.399  25.713  1.00  0.00    -0.026 A 
ATOM     19  C   UNL A   1      31.497  27.566  26.998  1.00  0.00     0.009 A 
ATOM     20  C   UNL A   1      31.127  28.454  24.785  1.00  0.00     0.009 A 
ATOM     21  C   UNL A   1      32.140  28.758  27.350  1.00  0.00     0.039 A 
ATOM     22  C   UNL A   1      31.758  29.646  25.140  1.00  0.00     0.039 A 
ATOM     23  C   UNL A   1      32.259  29.788  26.422  1.00  0.00     0.123 A 
ATOM     24  F   UNL A   1      32.881  30.923  26.764  1.00  0.00    -0.207 F 
ENDBRANCH  16  18
ENDBRANCH  14  16
ENDBRANCH  11  12
ENDBRANCH   8  11
ENDBRANCH   4   8
ENDBRANCH   2   4
ENDBRANCH   1   2
BRANCH   1  25
ATOM     25  C   UNL A   1      35.416  21.209  25.294  1.00  0.00     0.274 C 
BRANCH  25  26
ATOM     26  C   UNL A   1      36.717  20.532  24.869  1.00  0.00     0.275 C 
BRANCH  26  27
ATOM     27  O   UNL A   1      37.761  21.492  25.082  1.00  0.00    -0.458 OA
BRANCH  27  28
ATOM     28  C   UNL A   1      38.817  21.068  25.800  1.00  0.00     0.338 C 
ATOM     29  O   UNL A   1      39.353  19.968  25.792  1.00  0.00    -0.246 OA
BRANCH  28  30
ATOM     30  C   UNL A   1      39.359  22.244  26.483  1.00  0.00     0.060 A 
ATOM     31  C   UNL A   1      38.852  23.489  26.110  1.00  0.00     0.016 A 
ATOM     32  C   UNL A   1      40.412  22.147  27.385  1.00  0.00     0.016 A 
ATOM     33  C   UNL A   1      39.449  24.651  26.569  1.00  0.00     0.010 A 
ATOM     34  C   UNL A   1      40.974  23.321  27.896  1.00  0.00     0.010 A 
ATOM     35  C   UNL A   1      40.528  24.581  27.451  1.00  0.00    -0.014 A 
BRANCH  35  36
ATOM     36  C   UNL A   1      41.294  25.817  27.736  1.00  0.00     0.031 A 
ATOM     37  C   UNL A   1      40.666  26.859  28.617  1.00  0.00     0.074 A 
ATOM     38  C   UNL A   1      42.567  25.970  27.324  1.00  0.00     0.049 A 
ATOM     39  N   UNL A   1      41.046  28.087  28.850  1.00  0.00    -0.248 NA
ATOM     40  C   UNL A   1      39.440  26.461  29.332  1.00  0.00     0.031 C 
ATOM     41  C   UNL A   1      43.351  24.974  26.592  1.00  0.00     0.029 A 
ATOM     42  N   UNL A   1      43.435  27.019  27.492  1.00  0.00    -0.354 N 
ATOM     43  C   UNL A   1      40.071  28.627  29.679  1.00  0.00     0.074 A 
ATOM     44  C   UNL A   1      39.089  27.593  29.918  1.00  0.00     0.031 C 
ATOM     45  C   UNL A   1      44.592  25.449  26.401  1.00  0.00     0.029 A 
ATOM     46  C   UNL A   1      44.665  26.812  26.919  1.00  0.00     0.049 A 
ATOM     47  H   UNL A   1      43.198  27.842  27.977  1.00  0.00     0.167 HD
ATOM     48  C   UNL A   1      40.002  29.880  30.185  1.00  0.00     0.037 A 
ATOM     49  C   UNL A   1      45.714  27.646  26.787  1.00  0.00     0.037 A 
ATOM     50  C   UNL A   1      41.016  30.879  29.989  1.00  0.00     0.049 A 
ATOM     51  C   UNL A   1      45.600  29.051  27.311  1.00  0.00     0.074 A 
ATOM     52  C   UNL A   1      41.020  32.200  30.397  1.00  0.00     0.029 A 
ATOM     53  N   UNL A   1      42.227  30.649  29.354  1.00  0.00    -0.354 N 
ATOM     54  N   UNL A   1      44.607  29.612  27.959  1.00  0.00    -0.248 NA
ATOM     55  C   UNL A   1      46.738  29.947  27.065  1.00  0.00     0.031 C 
ATOM     56  C   UNL A   1      42.230  32.775  29.994  1.00  0.00     0.029 A 
ATOM     57  C   UNL A   1      42.992  31.801  29.369  1.00  0.00     0.049 A 
ATOM     58  H   UNL A   1      42.501  29.792  28.953  1.00  0.00     0.167 HD
ATOM     59  C   UNL A   1      45.002  30.919  28.206  1.00  0.00     0.074 A 
ATOM     60  C   UNL A   1      46.333  31.065  27.654  1.00  0.00     0.031 C 
ATOM     61  C   UNL A   1      44.322  31.913  28.827  1.00  0.00     0.037 A 
BRANCH  48  62
ATOM     62  C   UNL A   1      38.767  30.244  30.950  1.00  0.00     0.057 A 
ATOM     63  C   UNL A   1      37.663  30.794  30.285  1.00  0.00     0.134 A 
ATOM     64  C   UNL A   1      38.663  30.057  32.333  1.00  0.00     0.134 A 
ATOM     65  F   UNL A   1      37.699  30.993  28.958  1.00  0.00    -0.206 F 
ATOM     66  C   UNL A   1      36.502  31.151  30.969  1.00  0.00     0.040 A 
ATOM     67  C   UNL A   1      37.497  30.390  33.026  1.00  0.00     0.040 A 
ATOM     68  F   UNL A   1      39.675  29.510  33.023  1.00  0.00    -0.206 F 
ATOM     69  C   UNL A   1      36.415  30.944  32.344  1.00  0.00     0.006 A 
ENDBRANCH  48  62
BRANCH  49  70
ATOM     70  C   UNL A   1      46.943  27.186  26.093  1.00  0.00     0.057 A 
ATOM     71  C   UNL A   1      47.988  26.567  26.790  1.00  0.00     0.134 A 
ATOM     72  C   UNL A   1      47.106  27.364  24.715  1.00  0.00     0.134 A 
ATOM     73  F   UNL A   1      47.892  26.365  28.113  1.00  0.00    -0.206 F 
ATOM     74  C   UNL A   1      49.159  26.163  26.148  1.00  0.00     0.040 A 
ATOM     75  C   UNL A   1      48.262  26.944  24.054  1.00  0.00     0.040 A 
ATOM     76  F   UNL A   1      46.131  27.929  23.987  1.00  0.00    -0.206 F 
ATOM     77  C   UNL A   1      49.297  26.349  24.774  1.00  0.00     0.006 A 
ENDBRANCH  49  70
BRANCH  61  78
ATOM     78  C   UNL A   1      45.015  33.233  28.978  1.00  0.00     0.057 A 
ATOM     79  C   UNL A   1      45.792  33.501  30.111  1.00  0.00     0.134 A 
ATOM     80  C   UNL A   1      44.854  34.258  28.040  1.00  0.00     0.134 A 
ATOM     81  F   UNL A   1      45.975  32.560  31.049  1.00  0.00    -0.206 F 
ATOM     82  C   UNL A   1      46.380  34.750  30.311  1.00  0.00     0.040 A 
ATOM     83  C   UNL A   1      45.454  35.506  28.219  1.00  0.00     0.040 A 
ATOM     84  F   UNL A   1      44.128  34.058  26.930  1.00  0.00    -0.206 F 
ATOM     85  C   UNL A   1      46.212  35.756  29.361  1.00  0.00     0.006 A 
ENDBRANCH  61  78
ENDBRANCH  35  36
ENDBRANCH  28  30
ENDBRANCH  27  28
ENDBRANCH  26  27
ENDBRANCH  25  26
ENDBRANCH   1  25
TORSDOF 17
ENDMDL
MODEL 2
REMARK VINA RESULT:     -10.6      4.408      9.165
REMARK SMILES CC[C@@](C)([NH2+]CC(=O)N[C@@H](C)c1ccc(F)cc1)C(=O)OCCOC(=O)c1ccc(-c2c3nc(c(-c4c(F)cccc4F)c4ccc([nH]4)c(-c4c(F)cccc4F)c4nc(c(-c5c(F)cccc5F)c5ccc2[nH]5)C=C4)C=C3)cc1
REMARK SMILES IDX 21 1 19 2 20 3 3 4 4 5 2 6 1 7 5 8 6 11 7 12 8 13 9 14 10 16
REMARK SMILES IDX 11 17 12 18 13 19 18 20 14 21 17 22 15 23 16 24 22 25 23 26
REMARK SMILES IDX 24 27 25 28 26 29 27 30 28 31 80 32 29 33 79 34 30 35 31 36
REMARK SMILES IDX 32 37 73 38 33 39 78 40 72 41 74 42 34 43 77 44 71 45 70 46
REMARK SMILES IDX 35 48 61 49 44 50 60 51 45 52 48 53 59 54 75 55 46 56 47 57
REMARK SMILES IDX 58 59 76 60 49 61 36 62 37 63 42 64 38 65 39 66 41 67 43 68
REMARK SMILES IDX 40 69 62 70 63 71 68 72 64 73 65 74 67 75 69 76 66 77 50 78
REMARK SMILES IDX 51 79 56 80 52 81 53 82 55 83 57 84 54 85
REMARK H PARENT 5 9 5 10 9 15 74 47 48 58
REMARK Flexibility Score: inf
ROOT
ATOM      1  O   UNL A   1      32.355  29.082  26.160  1.00  0.00    -0.457 OA
ENDROOT
BRANCH   1   2
ATOM      2  C   UNL A   1      31.774  28.003  26.772  1.00  0.00     0.367 C 
ATOM      3  O   UNL A   1      31.282  28.044  27.895  1.00  0.00    -0.245 OA
BRANCH   2   4
ATOM      4  C   UNL A   1      31.859  26.708  25.897  1.00  0.00     0.191 C 
ATOM      5  C   UNL A   1      31.070  26.756  24.578  1.00  0.00     0.092 C 
BRANCH   4   6
ATOM      6  C   UNL A   1      33.361  26.574  25.501  1.00  0.00     0.077 C 
ATOM      7  C   UNL A   1      33.582  26.459  23.982  1.00  0.00     0.011 C 
ENDBRANCH   4   6
BRANCH   4   8
ATOM      8  N   UNL A   1      31.398  25.504  26.650  1.00  0.00    -0.325 N 
ATOM      9  H   UNL A   1      30.649  25.807  27.271  1.00  0.00     0.347 HD
ATOM     10  H   UNL A   1      32.245  25.155  27.100  1.00  0.00     0.347 HD
BRANCH   8  11
ATOM     11  C   UNL A   1      30.887  24.337  25.882  1.00  0.00     0.362 C 
BRANCH  11  12
ATOM     12  C   UNL A   1      30.781  22.996  26.627  1.00  0.00     0.275 C 
ATOM     13  O   UNL A   1      30.009  22.862  27.579  1.00  0.00    -0.268 OA
ATOM     14  N   UNL A   1      31.501  21.895  26.214  1.00  0.00    -0.345 N 
ATOM     15  H   UNL A   1      31.094  21.019  26.409  1.00  0.00     0.164 HD
BRANCH  14  16
ATOM     16  C   UNL A   1      32.787  21.863  25.524  1.00  0.00     0.109 C 
ATOM     17  C   UNL A   1      33.886  22.397  26.458  1.00  0.00     0.036 C 
BRANCH  16  18
ATOM     18  C   UNL A   1      33.170  20.549  24.861  1.00  0.00    -0.026 A 
ATOM     19  C   UNL A   1      34.404  19.927  25.098  1.00  0.00     0.009 A 
ATOM     20  C   UNL A   1      32.213  19.848  24.089  1.00  0.00     0.009 A 
ATOM     21  C   UNL A   1      34.681  18.669  24.553  1.00  0.00     0.039 A 
ATOM     22  C   UNL A   1      32.495  18.599  23.537  1.00  0.00     0.039 A 
ATOM     23  C   UNL A   1      33.730  18.020  23.774  1.00  0.00     0.123 A 
ATOM     24  F   UNL A   1      34.001  16.813  23.261  1.00  0.00    -0.207 F 
ENDBRANCH  16  18
ENDBRANCH  14  16
ENDBRANCH  11  12
ENDBRANCH   8  11
ENDBRANCH   4   8
ENDBRANCH   2   4
ENDBRANCH   1   2
BRANCH   1  25
ATOM     25  C   UNL A   1      31.476  30.087  25.604  1.00  0.00     0.274 C 
BRANCH  25  26
ATOM     26  C   UNL A   1      31.642  31.396  26.371  1.00  0.00     0.275 C 
BRANCH  26  27
ATOM     27  O   UNL A   1      32.762  31.212  27.247  1.00  0.00    -0.458 OA
BRANCH  27  28
ATOM     28  C   UNL A   1      33.462  32.320  27.553  1.00  0.00     0.338 C 
ATOM     29  O   UNL A   1      33.064  33.474  27.642  1.00  0.00    -0.246 OA
BRANCH  28  30
ATOM     30  C   UNL A   1      34.795  31.874  27.965  1.00  0.00     0.060 A 
ATOM     31  C   UNL A   1      34.945  30.526  28.290  1.00  0.00     0.016 A 
ATOM     32  C   UNL A   1      35.846  32.768  28.134  1.00  0.00     0.016 A 
ATOM     33  C   UNL A   1      36.119  30.075  28.868  1.00  0.00     0.010 A 
ATOM     34  C   UNL A   1      37.053  32.297  28.661  1.00  0.00     0.010 A 
ATOM     35  C   UNL A   1      37.178  30.958  29.079  1.00  0.00    -0.014 A 
BRANCH  35  36
ATOM     36  C   UNL A   1      38.321  30.511  29.910  1.00  0.00     0.031 A 
ATOM     37  C   UNL A   1      39.373  29.647  29.272  1.00  0.00     0.074 A 
ATOM     38  C   UNL A   1      38.494  30.953  31.170  1.00  0.00     0.049 A 
ATOM     39  N   UNL A   1      40.347  28.980  29.830  1.00  0.00    -0.248 NA
ATOM     40  C   UNL A   1      39.314  29.519  27.805  1.00  0.00     0.031 C 
ATOM     41  C   UNL A   1      37.634  31.915  31.861  1.00  0.00     0.029 A 
ATOM     42  N   UNL A   1      39.477  30.669  32.084  1.00  0.00    -0.354 N 
ATOM     43  C   UNL A   1      40.972  28.298  28.793  1.00  0.00     0.074 A 
ATOM     44  C   UNL A   1      40.276  28.640  27.573  1.00  0.00     0.031 C 
ATOM     45  C   UNL A   1      38.144  32.161  33.078  1.00  0.00     0.029 A 
ATOM     46  C   UNL A   1      39.314  31.313  33.285  1.00  0.00     0.049 A 
ATOM     47  H   UNL A   1      40.227  30.059  31.896  1.00  0.00     0.167 HD
ATOM     48  C   UNL A   1      42.027  27.454  28.861  1.00  0.00     0.037 A 
ATOM     49  C   UNL A   1      40.006  31.197  34.435  1.00  0.00     0.037 A 
ATOM     50  C   UNL A   1      42.748  27.171  30.071  1.00  0.00     0.049 A 
ATOM     51  C   UNL A   1      41.144  30.218  34.506  1.00  0.00     0.074 A 
ATOM     52  C   UNL A   1      43.788  26.283  30.271  1.00  0.00     0.029 A 
ATOM     53  N   UNL A   1      42.518  27.803  31.283  1.00  0.00    -0.354 N 
ATOM     54  N   UNL A   1      41.634  29.452  33.561  1.00  0.00    -0.248 NA
ATOM     55  C   UNL A   1      41.809  30.065  35.807  1.00  0.00     0.031 C 
ATOM     56  C   UNL A   1      44.180  26.367  31.611  1.00  0.00     0.029 A 
ATOM     57  C   UNL A   1      43.406  27.334  32.234  1.00  0.00     0.049 A 
ATOM     58  H   UNL A   1      41.827  28.486  31.443  1.00  0.00     0.167 HD
ATOM     59  C   UNL A   1      42.668  28.736  34.147  1.00  0.00     0.074 A 
ATOM     60  C   UNL A   1      42.748  29.170  35.527  1.00  0.00     0.031 C 
ATOM     61  C   UNL A   1      43.475  27.797  33.596  1.00  0.00     0.037 A 
BRANCH  48  62
ATOM     62  C   UNL A   1      42.423  26.747  27.601  1.00  0.00     0.057 A 
ATOM     63  C   UNL A   1      41.880  25.492  27.299  1.00  0.00     0.134 A 
ATOM     64  C   UNL A   1      43.333  27.296  26.691  1.00  0.00     0.134 A 
ATOM     65  F   UNL A   1      40.997  24.914  28.130  1.00  0.00    -0.206 F 
ATOM     66  C   UNL A   1      42.233  24.803  26.139  1.00  0.00     0.040 A 
ATOM     67  C   UNL A   1      43.678  26.627  25.515  1.00  0.00     0.040 A 
ATOM     68  F   UNL A   1      43.867  28.507  26.910  1.00  0.00    -0.206 F 
ATOM     69  C   UNL A   1      43.132  25.374  25.240  1.00  0.00     0.006 A 
ENDBRANCH  48  62
BRANCH  49  70
ATOM     70  C   UNL A   1      39.610  31.999  35.620  1.00  0.00     0.057 A 
ATOM     71  C   UNL A   1      38.613  31.558  36.500  1.00  0.00     0.134 A 
ATOM     72  C   UNL A   1      40.214  33.229  35.897  1.00  0.00     0.134 A 
ATOM     73  F   UNL A   1      37.996  30.385  36.291  1.00  0.00    -0.206 F 
ATOM     74  C   UNL A   1      38.214  32.323  37.596  1.00  0.00     0.040 A 
ATOM     75  C   UNL A   1      39.842  33.994  37.004  1.00  0.00     0.040 A 
ATOM     76  F   UNL A   1      41.193  33.694  35.107  1.00  0.00    -0.206 F 
ATOM     77  C   UNL A   1      38.832  33.545  37.852  1.00  0.00     0.006 A 
ENDBRANCH  49  70
BRANCH  61  78
ATOM     78  C   UNL A   1      44.537  27.202  34.470  1.00  0.00     0.057 A 
ATOM     79  C   UNL A   1      45.820  27.761  34.508  1.00  0.00     0.134 A 
ATOM     80  C   UNL A   1      44.309  26.040  35.215  1.00  0.00     0.134 A 
ATOM     81  F   UNL A   1      46.100  28.870  33.809  1.00  0.00    -0.206 F 
ATOM     82  C   UNL A   1      46.845  27.177  35.252  1.00  0.00     0.040 A 
ATOM     83  C   UNL A   1      45.322  25.457  35.978  1.00  0.00     0.040 A 
ATOM     84  F   UNL A   1      43.098  25.463  35.224  1.00  0.00    -0.206 F 
ATOM     85  C   UNL A   1      46.596  26.022  35.991  1.00  0.00     0.006 A 
ENDBRANCH  61  78
ENDBRANCH  35  36
ENDBRANCH  28  30
ENDBRANCH  27  28
ENDBRANCH  26  27
ENDBRANCH  25  26
ENDBRANCH   1  25
TORSDOF 17
ENDMDL
MODEL 3
REMARK VINA RESULT:     -10.6      2.082      2.604
REMARK SMILES CC[C@@](C)([NH2+]CC(=O)N[C@@H](C)c1ccc(F)cc1)C(=O)OCCOC(=O)c1ccc(-c2c3nc(c(-c4c(F)cccc4F)c4ccc([nH]4)c(-c4c(F)cccc4F)c4nc(c(-c5c(F)cccc5F)c5ccc2[nH]5)C=C4)C=C3)cc1
REMARK SMILES IDX 21 1 19 2 20 3 3 4 4 5 2 6 1 7 5 8 6 11 7 12 8 13 9 14 10 16
REMARK SMILES IDX 11 17 12 18 13 19 18 20 14 21 17 22 15 23 16 24 22 25 23 26
REMARK SMILES IDX 24 27 25 28 26 29 27 30 28 31 80 32 29 33 79 34 30 35 31 36
REMARK SMILES IDX 32 37 73 38 33 39 78 40 72 41 74 42 34 43 77 44 71 45 70 46
REMARK SMILES IDX 35 48 61 49 44 50 60 51 45 52 48 53 59 54 75 55 46 56 47 57
REMARK SMILES IDX 58 59 76 60 49 61 36 62 37 63 42 64 38 65 39 66 41 67 43 68
REMARK SMILES IDX 40 69 62 70 63 71 68 72 64 73 65 74 67 75 69 76 66 77 50 78
REMARK SMILES IDX 51 79 56 80 52 81 53 82 55 83 57 84 54 85
REMARK H PARENT 5 9 5 10 9 15 74 47 48 58
REMARK Flexibility Score: inf
ROOT
ATOM      1  O   UNL A   1      36.145  21.169  25.631  1.00  0.00    -0.457 OA
ENDROOT
BRANCH   1   2
ATOM      2  C   UNL A   1      34.848  20.949  25.249  1.00  0.00     0.367 C 
ATOM      3  O   UNL A   1      34.472  19.928  24.683  1.00  0.00    -0.245 OA
BRANCH   2   4
ATOM      4  C   UNL A   1      33.920  22.167  25.573  1.00  0.00     0.191 C 
ATOM      5  C   UNL A   1      34.595  23.323  26.330  1.00  0.00     0.092 C 
BRANCH   4   6
ATOM      6  C   UNL A   1      33.496  22.744  24.189  1.00  0.00     0.077 C 
ATOM      7  C   UNL A   1      34.688  23.187  23.322  1.00  0.00     0.011 C 
ENDBRANCH   4   6
BRANCH   4   8
ATOM      8  N   UNL A   1      32.724  21.752  26.364  1.00  0.00    -0.325 N 
ATOM      9  H   UNL A   1      32.874  22.068  27.322  1.00  0.00     0.347 HD
ATOM     10  H   UNL A   1      32.672  20.743  26.224  1.00  0.00     0.347 HD
BRANCH   8  11
ATOM     11  C   UNL A   1      31.386  22.246  25.944  1.00  0.00     0.362 C 
BRANCH  11  12
ATOM     12  C   UNL A   1      30.672  23.233  26.882  1.00  0.00     0.275 C 
ATOM     13  O   UNL A   1      29.801  22.842  27.664  1.00  0.00    -0.268 OA
ATOM     14  N   UNL A   1      31.025  24.564  26.917  1.00  0.00    -0.345 N 
ATOM     15  H   UNL A   1      30.882  25.025  27.775  1.00  0.00     0.164 HD
BRANCH  14  16
ATOM     16  C   UNL A   1      31.587  25.378  25.842  1.00  0.00     0.109 C 
ATOM     17  C   UNL A   1      30.552  25.528  24.714  1.00  0.00     0.036 C 
BRANCH  16  18
ATOM     18  C   UNL A   1      32.207  26.705  26.248  1.00  0.00    -0.026 A 
ATOM     19  C   UNL A   1      33.508  27.067  25.869  1.00  0.00     0.009 A 
ATOM     20  C   UNL A   1      31.417  27.676  26.908  1.00  0.00     0.009 A 
ATOM     21  C   UNL A   1      34.009  28.338  26.172  1.00  0.00     0.039 A 
ATOM     22  C   UNL A   1      31.921  28.938  27.220  1.00  0.00     0.039 A 
ATOM     23  C   UNL A   1      33.216  29.258  26.849  1.00  0.00     0.123 A 
ATOM     24  F   UNL A   1      33.700  30.474  27.130  1.00  0.00    -0.207 F 
ENDBRANCH  16  18
ENDBRANCH  14  16
ENDBRANCH  11  12
ENDBRANCH   8  11
ENDBRANCH   4   8
ENDBRANCH   2   4
ENDBRANCH   1   2
BRANCH   1  25
ATOM     25  C   UNL A   1      37.178  20.946  24.644  1.00  0.00     0.274 C 
BRANCH  25  26
ATOM     26  C   UNL A   1      38.212  19.967  25.195  1.00  0.00     0.275 C 
BRANCH  26  27
ATOM     27  O   UNL A   1      39.126  20.744  25.981  1.00  0.00    -0.458 OA
BRANCH  27  28
ATOM     28  C   UNL A   1      40.376  20.256  26.088  1.00  0.00     0.338 C 
ATOM     29  O   UNL A   1      40.806  19.171  25.722  1.00  0.00    -0.246 OA
BRANCH  28  30
ATOM     30  C   UNL A   1      41.215  21.357  26.566  1.00  0.00     0.060 A 
ATOM     31  C   UNL A   1      41.366  21.493  27.946  1.00  0.00     0.016 A 
ATOM     32  C   UNL A   1      41.754  22.299  25.696  1.00  0.00     0.016 A 
ATOM     33  C   UNL A   1      41.981  22.616  28.473  1.00  0.00     0.010 A 
ATOM     34  C   UNL A   1      42.430  23.401  26.229  1.00  0.00     0.010 A 
ATOM     35  C   UNL A   1      42.503  23.591  27.622  1.00  0.00    -0.014 A 
BRANCH  35  36
ATOM     36  C   UNL A   1      42.936  24.884  28.204  1.00  0.00     0.031 A 
ATOM     37  C   UNL A   1      41.884  25.900  28.548  1.00  0.00     0.074 A 
ATOM     38  C   UNL A   1      44.221  25.114  28.535  1.00  0.00     0.049 A 
ATOM     39  N   UNL A   1      42.022  27.156  28.879  1.00  0.00    -0.248 NA
ATOM     40  C   UNL A   1      40.486  25.434  28.512  1.00  0.00     0.031 C 
ATOM     41  C   UNL A   1      45.321  24.158  28.398  1.00  0.00     0.029 A 
ATOM     42  N   UNL A   1      44.811  26.224  29.083  1.00  0.00    -0.354 N 
ATOM     43  C   UNL A   1      40.730  27.647  29.020  1.00  0.00     0.074 A 
ATOM     44  C   UNL A   1      39.823  26.553  28.751  1.00  0.00     0.031 C 
ATOM     45  C   UNL A   1      46.445  24.714  28.877  1.00  0.00     0.029 A 
ATOM     46  C   UNL A   1      46.164  26.090  29.275  1.00  0.00     0.049 A 
ATOM     47  H   UNL A   1      44.312  27.041  29.317  1.00  0.00     0.167 HD
ATOM     48  C   UNL A   1      40.341  28.903  29.337  1.00  0.00     0.037 A 
ATOM     49  C   UNL A   1      47.078  26.991  29.682  1.00  0.00     0.037 A 
ATOM     50  C   UNL A   1      41.253  29.965  29.661  1.00  0.00     0.049 A 
ATOM     51  C   UNL A   1      46.635  28.396  29.981  1.00  0.00     0.074 A 
ATOM     52  C   UNL A   1      40.976  31.292  29.931  1.00  0.00     0.029 A 
ATOM     53  N   UNL A   1      42.624  29.804  29.792  1.00  0.00    -0.354 N 
ATOM     54  N   UNL A   1      45.425  28.902  29.959  1.00  0.00    -0.248 NA
ATOM     55  C   UNL A   1      47.683  29.363  30.335  1.00  0.00     0.031 C 
ATOM     56  C   UNL A   1      42.183  31.940  30.212  1.00  0.00     0.029 A 
ATOM     57  C   UNL A   1      43.206  31.006  30.151  1.00  0.00     0.049 A 
ATOM     58  H   UNL A   1      43.110  28.960  29.651  1.00  0.00     0.167 HD
ATOM     59  C   UNL A   1      45.564  30.239  30.305  1.00  0.00     0.074 A 
ATOM     60  C   UNL A   1      46.974  30.464  30.550  1.00  0.00     0.031 C 
ATOM     61  C   UNL A   1      44.611  31.197  30.405  1.00  0.00     0.037 A 
BRANCH  48  62
ATOM     62  C   UNL A   1      38.873  29.198  29.295  1.00  0.00     0.057 A 
ATOM     63  C   UNL A   1      38.257  29.534  28.082  1.00  0.00     0.134 A 
ATOM     64  C   UNL A   1      38.070  29.156  30.440  1.00  0.00     0.134 A 
ATOM     65  F   UNL A   1      38.973  29.586  26.947  1.00  0.00    -0.206 F 
ATOM     66  C   UNL A   1      36.895  29.822  28.010  1.00  0.00     0.040 A 
ATOM     67  C   UNL A   1      36.700  29.421  30.377  1.00  0.00     0.040 A 
ATOM     68  F   UNL A   1      38.595  28.816  31.627  1.00  0.00    -0.206 F 
ATOM     69  C   UNL A   1      36.111  29.761  29.160  1.00  0.00     0.006 A 
ENDBRANCH  48  62
BRANCH  49  70
ATOM     70  C   UNL A   1      48.507  26.601  29.785  1.00  0.00     0.057 A 
ATOM     71  C   UNL A   1      49.023  26.019  30.950  1.00  0.00     0.134 A 
ATOM     72  C   UNL A   1      49.393  26.810  28.724  1.00  0.00     0.134 A 
ATOM     73  F   UNL A   1      48.224  25.790  32.003  1.00  0.00    -0.206 F 
ATOM     74  C   UNL A   1      50.372  25.682  31.065  1.00  0.00     0.040 A 
ATOM     75  C   UNL A   1      50.741  26.456  28.815  1.00  0.00     0.040 A 
ATOM     76  F   UNL A   1      48.955  27.341  27.573  1.00  0.00    -0.206 F 
ATOM     77  C   UNL A   1      51.235  25.898  29.993  1.00  0.00     0.006 A 
ENDBRANCH  49  70
BRANCH  61  78
ATOM     78  C   UNL A   1      45.052  32.565  30.830  1.00  0.00     0.057 A 
ATOM     79  C   UNL A   1      45.056  32.921  32.184  1.00  0.00     0.134 A 
ATOM     80  C   UNL A   1      45.400  33.547  29.897  1.00  0.00     0.134 A 
ATOM     81  F   UNL A   1      44.722  32.024  33.124  1.00  0.00    -0.206 F 
ATOM     82  C   UNL A   1      45.384  34.212  32.596  1.00  0.00     0.040 A 
ATOM     83  C   UNL A   1      45.750  34.838  30.298  1.00  0.00     0.040 A 
ATOM     84  F   UNL A   1      45.422  33.264  28.585  1.00  0.00    -0.206 F 
ATOM     85  C   UNL A   1      45.735  35.174  31.650  1.00  0.00     0.006 A 
ENDBRANCH  61  78
ENDBRANCH  35  36
ENDBRANCH  28  30
ENDBRANCH  27  28
ENDBRANCH  26  27
ENDBRANCH  25  26
ENDBRANCH   1  25
TORSDOF 17
ENDMDL
