MODEL 1
REMARK VINA RESULT:     -10.9      0.000      0.000
REMARK SMILES CCn1nc(C)c2nc(SCC(=O)OCCOC(=O)c3ccc(-c4c5nc(c(-c6c(F)cccc6F)c6ccc([nH]6)c(-c6c(F)cccc6F)c6nc(c(-c7c(F)cccc7F)c7ccc4[nH]7)C=C6)C=C5)cc3)n(CC3CC3)c21
REMARK SMILES IDX 15 1 14 2 12 3 13 4 11 5 10 6 9 7 3 8 4 9 79 10 5 11 7 12
REMARK SMILES IDX 74 13 6 14 8 15 2 16 1 17 75 18 76 19 77 20 78 21 16 22
REMARK SMILES IDX 17 23 18 24 19 25 20 26 21 27 73 28 22 29 72 30 23 31 24 32
REMARK SMILES IDX 25 33 66 34 26 35 71 36 65 37 67 38 27 39 70 40 64 41 63 42
REMARK SMILES IDX 28 44 54 45 37 46 53 47 38 48 41 49 52 50 68 51 39 52 40 53
REMARK SMILES IDX 51 55 69 56 42 57 29 58 30 59 35 60 31 61 32 62 34 63 36 64
REMARK SMILES IDX 33 65 55 66 56 67 61 68 57 69 58 70 60 71 62 72 59 73 43 74
REMARK SMILES IDX 44 75 49 76 45 77 46 78 48 79 50 80 47 81
REMARK H PARENT 67 43 41 54
REMARK Flexibility Score: inf
ROOT
ATOM      1  C   UNL A   1      33.449  27.943  26.830  1.00  0.00     0.274 C 
ENDROOT
BRANCH   1   2
ATOM      2  O   UNL A   1      32.361  28.258  25.939  1.00  0.00    -0.461 OA
BRANCH   2   3
ATOM      3  C   UNL A   1      32.186  27.451  24.862  1.00  0.00     0.316 C 
ATOM      4  O   UNL A   1      31.107  26.986  24.508  1.00  0.00    -0.251 OA
BRANCH   3   5
ATOM      5  C   UNL A   1      33.455  27.274  24.056  1.00  0.00     0.200 C 
BRANCH   5   6
ATOM      6  S   UNL A   1      33.469  25.838  22.971  1.00  0.00    -0.076 SA
BRANCH   6   7
ATOM      7  C   UNL A   1      33.770  24.357  23.836  1.00  0.00     0.170 A 
ATOM      8  N   UNL A   1      33.663  20.904  24.502  1.00  0.00    -0.247 N 
ATOM      9  N   UNL A   1      34.907  20.447  24.793  1.00  0.00    -0.174 NA
ATOM     10  C   UNL A   1      33.637  22.256  24.413  1.00  0.00     0.159 A 
ATOM     11  C   UNL A   1      35.703  21.525  24.615  1.00  0.00     0.087 A 
ATOM     12  C   UNL A   1      34.917  22.655  24.371  1.00  0.00     0.132 A 
ATOM     13  N   UNL A   1      32.876  23.374  24.229  1.00  0.00    -0.304 N 
ATOM     14  C   UNL A   1      37.167  21.354  24.648  1.00  0.00     0.071 C 
ATOM     15  N   UNL A   1      35.030  23.955  24.029  1.00  0.00    -0.219 NA
BRANCH   8  16
ATOM     16  C   UNL A   1      32.668  19.988  23.981  1.00  0.00     0.143 C 
ATOM     17  C   UNL A   1      33.080  18.526  24.054  1.00  0.00     0.029 C 
ENDBRANCH   8  16
BRANCH  13  18
ATOM     18  C   UNL A   1      31.435  23.354  24.326  1.00  0.00     0.130 C 
BRANCH  18  19
ATOM     19  C   UNL A   1      30.783  23.834  25.594  1.00  0.00     0.009 C 
ATOM     20  C   UNL A   1      30.427  22.910  26.732  1.00  0.00     0.006 C 
ATOM     21  C   UNL A   1      31.457  23.986  26.935  1.00  0.00     0.006 C 
ENDBRANCH  18  19
ENDBRANCH  13  18
ENDBRANCH   6   7
ENDBRANCH   5   6
ENDBRANCH   3   5
ENDBRANCH   2   3
ENDBRANCH   1   2
BRANCH   1  22
ATOM     22  C   UNL A   1      34.160  29.253  27.141  1.00  0.00     0.275 C 
BRANCH  22  23
ATOM     23  O   UNL A   1      35.592  29.126  27.069  1.00  0.00    -0.458 OA
BRANCH  23  24
ATOM     24  C   UNL A   1      36.259  30.042  27.806  1.00  0.00     0.338 C 
ATOM     25  O   UNL A   1      35.946  31.208  27.950  1.00  0.00    -0.246 OA
BRANCH  24  26
ATOM     26  C   UNL A   1      37.575  29.499  28.208  1.00  0.00     0.060 A 
ATOM     27  C   UNL A   1      38.649  29.781  27.370  1.00  0.00     0.016 A 
ATOM     28  C   UNL A   1      37.726  28.592  29.261  1.00  0.00     0.016 A 
ATOM     29  C   UNL A   1      39.786  28.998  27.441  1.00  0.00     0.010 A 
ATOM     30  C   UNL A   1      38.919  27.894  29.407  1.00  0.00     0.010 A 
ATOM     31  C   UNL A   1      39.920  28.024  28.445  1.00  0.00    -0.014 A 
BRANCH  31  32
ATOM     32  C   UNL A   1      41.204  27.298  28.504  1.00  0.00     0.031 A 
ATOM     33  C   UNL A   1      42.062  27.739  29.651  1.00  0.00     0.074 A 
ATOM     34  C   UNL A   1      41.543  26.294  27.663  1.00  0.00     0.049 A 
ATOM     35  N   UNL A   1      43.298  28.128  29.654  1.00  0.00    -0.248 NA
ATOM     36  C   UNL A   1      41.370  27.945  30.944  1.00  0.00     0.031 C 
ATOM     37  C   UNL A   1      40.670  25.677  26.657  1.00  0.00     0.029 A 
ATOM     38  N   UNL A   1      42.692  25.551  27.551  1.00  0.00    -0.354 N 
ATOM     39  C   UNL A   1      43.581  28.419  30.990  1.00  0.00     0.074 A 
ATOM     40  C   UNL A   1      42.327  28.496  31.685  1.00  0.00     0.031 C 
ATOM     41  C   UNL A   1      41.246  24.568  26.164  1.00  0.00     0.029 A 
ATOM     42  C   UNL A   1      42.520  24.376  26.822  1.00  0.00     0.049 A 
ATOM     43  H   UNL A   1      43.552  25.822  27.945  1.00  0.00     0.167 HD
ATOM     44  C   UNL A   1      44.816  28.203  31.510  1.00  0.00     0.037 A 
ATOM     45  C   UNL A   1      43.264  23.243  26.844  1.00  0.00     0.037 A 
ATOM     46  C   UNL A   1      45.840  28.331  30.515  1.00  0.00     0.049 A 
ATOM     47  C   UNL A   1      44.573  23.561  27.453  1.00  0.00     0.074 A 
ATOM     48  C   UNL A   1      46.324  29.351  29.725  1.00  0.00     0.029 A 
ATOM     49  N   UNL A   1      46.337  27.165  30.000  1.00  0.00    -0.354 N 
ATOM     50  N   UNL A   1      45.494  24.291  26.889  1.00  0.00    -0.248 NA
ATOM     51  C   UNL A   1      44.699  23.410  28.895  1.00  0.00     0.031 C 
ATOM     52  C   UNL A   1      46.796  28.719  28.539  1.00  0.00     0.029 A 
ATOM     53  C   UNL A   1      46.619  27.342  28.676  1.00  0.00     0.049 A 
ATOM     54  H   UNL A   1      46.471  26.331  30.505  1.00  0.00     0.167 HD
ATOM     55  C   UNL A   1      46.040  25.033  27.926  1.00  0.00     0.074 A 
ATOM     56  C   UNL A   1      45.598  24.362  29.144  1.00  0.00     0.031 C 
ATOM     57  C   UNL A   1      46.562  26.274  27.701  1.00  0.00     0.037 A 
BRANCH  44  58
ATOM     58  C   UNL A   1      45.000  27.370  32.766  1.00  0.00     0.057 A 
ATOM     59  C   UNL A   1      44.480  26.067  32.808  1.00  0.00     0.134 A 
ATOM     60  C   UNL A   1      45.380  27.899  34.022  1.00  0.00     0.134 A 
ATOM     61  F   UNL A   1      44.053  25.462  31.690  1.00  0.00    -0.206 F 
ATOM     62  C   UNL A   1      44.289  25.376  34.012  1.00  0.00     0.040 A 
ATOM     63  C   UNL A   1      45.245  27.199  35.220  1.00  0.00     0.040 A 
ATOM     64  F   UNL A   1      45.802  29.158  34.184  1.00  0.00    -0.206 F 
ATOM     65  C   UNL A   1      44.667  25.944  35.224  1.00  0.00     0.006 A 
ENDBRANCH  44  58
BRANCH  45  66
ATOM     66  C   UNL A   1      42.743  21.858  26.667  1.00  0.00     0.057 A 
ATOM     67  C   UNL A   1      43.310  20.948  25.768  1.00  0.00     0.134 A 
ATOM     68  C   UNL A   1      41.756  21.322  27.523  1.00  0.00     0.134 A 
ATOM     69  F   UNL A   1      44.318  21.320  24.966  1.00  0.00    -0.206 F 
ATOM     70  C   UNL A   1      42.889  19.608  25.696  1.00  0.00     0.040 A 
ATOM     71  C   UNL A   1      41.300  20.005  27.438  1.00  0.00     0.040 A 
ATOM     72  F   UNL A   1      41.247  22.035  28.538  1.00  0.00    -0.206 F 
ATOM     73  C   UNL A   1      41.870  19.138  26.522  1.00  0.00     0.006 A 
ENDBRANCH  45  66
BRANCH  57  74
ATOM     74  C   UNL A   1      46.899  26.649  26.287  1.00  0.00     0.057 A 
ATOM     75  C   UNL A   1      46.067  27.410  25.455  1.00  0.00     0.134 A 
ATOM     76  C   UNL A   1      48.188  26.364  25.817  1.00  0.00     0.134 A 
ATOM     77  F   UNL A   1      44.848  27.793  25.859  1.00  0.00    -0.206 F 
ATOM     78  C   UNL A   1      46.497  27.850  24.199  1.00  0.00     0.040 A 
ATOM     79  C   UNL A   1      48.640  26.824  24.580  1.00  0.00     0.040 A 
ATOM     80  F   UNL A   1      49.053  25.682  26.586  1.00  0.00    -0.206 F 
ATOM     81  C   UNL A   1      47.791  27.565  23.764  1.00  0.00     0.006 A 
ENDBRANCH  57  74
ENDBRANCH  31  32
ENDBRANCH  24  26
ENDBRANCH  23  24
ENDBRANCH  22  23
ENDBRANCH   1  22
TORSDOF 16
ENDMDL
MODEL 2
REMARK VINA RESULT:     -10.8      0.855      2.160
REMARK SMILES CCn1nc(C)c2nc(SCC(=O)OCCOC(=O)c3ccc(-c4c5nc(c(-c6c(F)cccc6F)c6ccc([nH]6)c(-c6c(F)cccc6F)c6nc(c(-c7c(F)cccc7F)c7ccc4[nH]7)C=C6)C=C5)cc3)n(CC3CC3)c21
REMARK SMILES IDX 15 1 14 2 12 3 13 4 11 5 10 6 9 7 3 8 4 9 79 10 5 11 7 12
REMARK SMILES IDX 74 13 6 14 8 15 2 16 1 17 75 18 76 19 77 20 78 21 16 22
REMARK SMILES IDX 17 23 18 24 19 25 20 26 21 27 73 28 22 29 72 30 23 31 24 32
REMARK SMILES IDX 25 33 66 34 26 35 71 36 65 37 67 38 27 39 70 40 64 41 63 42
REMARK SMILES IDX 28 44 54 45 37 46 53 47 38 48 41 49 52 50 68 51 39 52 40 53
REMARK SMILES IDX 51 55 69 56 42 57 29 58 30 59 35 60 31 61 32 62 34 63 36 64
REMARK SMILES IDX 33 65 55 66 56 67 61 68 57 69 58 70 60 71 62 72 59 73 43 74
REMARK SMILES IDX 44 75 49 76 45 77 46 78 48 79 50 80 47 81
REMARK H PARENT 67 43 41 54
REMARK Flexibility Score: inf
ROOT
ATOM      1  C   UNL A   1      33.423  29.809  26.438  1.00  0.00     0.274 C 
ENDROOT
BRANCH   1   2
ATOM      2  O   UNL A   1      32.396  28.830  26.182  1.00  0.00    -0.461 OA
BRANCH   2   3
ATOM      3  C   UNL A   1      32.211  28.446  24.894  1.00  0.00     0.316 C 
ATOM      4  O   UNL A   1      31.218  28.710  24.224  1.00  0.00    -0.251 OA
BRANCH   3   5
ATOM      5  C   UNL A   1      33.424  27.748  24.316  1.00  0.00     0.200 C 
BRANCH   5   6
ATOM      6  S   UNL A   1      33.987  26.314  25.246  1.00  0.00    -0.076 SA
BRANCH   6   7
ATOM      7  C   UNL A   1      32.912  24.955  25.083  1.00  0.00     0.170 A 
ATOM      8  N   UNL A   1      31.889  21.590  25.186  1.00  0.00    -0.247 N 
ATOM      9  N   UNL A   1      30.715  21.481  25.858  1.00  0.00    -0.174 NA
ATOM     10  C   UNL A   1      32.223  22.886  24.975  1.00  0.00     0.159 A 
ATOM     11  C   UNL A   1      30.467  22.736  26.293  1.00  0.00     0.087 A 
ATOM     12  C   UNL A   1      31.408  23.616  25.752  1.00  0.00     0.132 A 
ATOM     13  N   UNL A   1      33.104  23.761  24.407  1.00  0.00    -0.304 N 
ATOM     14  C   UNL A   1      29.362  22.966  27.243  1.00  0.00     0.071 C 
ATOM     15  N   UNL A   1      31.803  24.904  25.827  1.00  0.00    -0.219 NA
BRANCH   8  16
ATOM     16  C   UNL A   1      32.778  20.449  25.110  1.00  0.00     0.143 C 
ATOM     17  C   UNL A   1      32.759  19.742  23.764  1.00  0.00     0.029 C 
ENDBRANCH   8  16
BRANCH  13  18
ATOM     18  C   UNL A   1      34.069  23.352  23.412  1.00  0.00     0.130 C 
BRANCH  18  19
ATOM     19  C   UNL A   1      35.334  22.674  23.861  1.00  0.00     0.009 C 
ATOM     20  C   UNL A   1      36.670  22.915  23.204  1.00  0.00     0.006 C 
ATOM     21  C   UNL A   1      36.457  23.315  24.637  1.00  0.00     0.006 C 
ENDBRANCH  18  19
ENDBRANCH  13  18
ENDBRANCH   6   7
ENDBRANCH   5   6
ENDBRANCH   3   5
ENDBRANCH   2   3
ENDBRANCH   1   2
BRANCH   1  22
ATOM     22  C   UNL A   1      34.246  29.290  27.610  1.00  0.00     0.275 C 
BRANCH  22  23
ATOM     23  O   UNL A   1      35.643  29.173  27.284  1.00  0.00    -0.458 OA
BRANCH  23  24
ATOM     24  C   UNL A   1      36.416  30.128  27.849  1.00  0.00     0.338 C 
ATOM     25  O   UNL A   1      36.192  31.323  27.846  1.00  0.00    -0.246 OA
BRANCH  24  26
ATOM     26  C   UNL A   1      37.717  29.546  28.249  1.00  0.00     0.060 A 
ATOM     27  C   UNL A   1      38.819  29.886  27.471  1.00  0.00     0.016 A 
ATOM     28  C   UNL A   1      37.829  28.558  29.231  1.00  0.00     0.016 A 
ATOM     29  C   UNL A   1      39.950  29.093  27.517  1.00  0.00     0.010 A 
ATOM     30  C   UNL A   1      39.014  27.844  29.360  1.00  0.00     0.010 A 
ATOM     31  C   UNL A   1      40.047  28.043  28.444  1.00  0.00    -0.014 A 
BRANCH  31  32
ATOM     32  C   UNL A   1      41.326  27.305  28.487  1.00  0.00     0.031 A 
ATOM     33  C   UNL A   1      42.200  27.738  29.625  1.00  0.00     0.074 A 
ATOM     34  C   UNL A   1      41.646  26.301  27.640  1.00  0.00     0.049 A 
ATOM     35  N   UNL A   1      43.439  28.116  29.615  1.00  0.00    -0.248 NA
ATOM     36  C   UNL A   1      41.525  27.947  30.926  1.00  0.00     0.031 C 
ATOM     37  C   UNL A   1      40.756  25.693  26.643  1.00  0.00     0.029 A 
ATOM     38  N   UNL A   1      42.788  25.548  27.514  1.00  0.00    -0.354 N 
ATOM     39  C   UNL A   1      43.740  28.403  30.948  1.00  0.00     0.074 A 
ATOM     40  C   UNL A   1      42.495  28.489  31.657  1.00  0.00     0.031 C 
ATOM     41  C   UNL A   1      41.318  24.580  26.142  1.00  0.00     0.029 A 
ATOM     42  C   UNL A   1      42.597  24.376  26.785  1.00  0.00     0.049 A 
ATOM     43  H   UNL A   1      43.654  25.811  27.899  1.00  0.00     0.167 HD
ATOM     44  C   UNL A   1      44.979  28.175  31.453  1.00  0.00     0.037 A 
ATOM     45  C   UNL A   1      43.333  23.236  26.797  1.00  0.00     0.037 A 
ATOM     46  C   UNL A   1      45.993  28.297  30.446  1.00  0.00     0.049 A 
ATOM     47  C   UNL A   1      44.651  23.543  27.391  1.00  0.00     0.074 A 
ATOM     48  C   UNL A   1      46.476  29.314  29.652  1.00  0.00     0.029 A 
ATOM     49  N   UNL A   1      46.474  27.128  29.923  1.00  0.00    -0.354 N 
ATOM     50  N   UNL A   1      45.571  24.266  26.818  1.00  0.00    -0.248 NA
ATOM     51  C   UNL A   1      44.792  23.389  28.831  1.00  0.00     0.031 C 
ATOM     52  C   UNL A   1      46.929  28.681  28.460  1.00  0.00     0.029 A 
ATOM     53  C   UNL A   1      46.742  27.304  28.597  1.00  0.00     0.049 A 
ATOM     54  H   UNL A   1      46.607  26.291  30.425  1.00  0.00     0.167 HD
ATOM     55  C   UNL A   1      46.136  25.002  27.850  1.00  0.00     0.074 A 
ATOM     56  C   UNL A   1      45.702  24.332  29.071  1.00  0.00     0.031 C 
ATOM     57  C   UNL A   1      46.665  26.238  27.620  1.00  0.00     0.037 A 
BRANCH  44  58
ATOM     58  C   UNL A   1      45.171  27.339  32.705  1.00  0.00     0.057 A 
ATOM     59  C   UNL A   1      46.025  27.804  33.717  1.00  0.00     0.134 A 
ATOM     60  C   UNL A   1      44.809  25.975  32.813  1.00  0.00     0.134 A 
ATOM     61  F   UNL A   1      46.468  29.070  33.713  1.00  0.00    -0.206 F 
ATOM     62  C   UNL A   1      46.532  26.961  34.716  1.00  0.00     0.040 A 
ATOM     63  C   UNL A   1      45.265  25.141  33.834  1.00  0.00     0.040 A 
ATOM     64  F   UNL A   1      44.085  25.339  31.886  1.00  0.00    -0.206 F 
ATOM     65  C   UNL A   1      46.157  25.624  34.772  1.00  0.00     0.006 A 
ENDBRANCH  44  58
BRANCH  45  66
ATOM     66  C   UNL A   1      42.797  21.857  26.624  1.00  0.00     0.057 A 
ATOM     67  C   UNL A   1      43.344  20.944  25.714  1.00  0.00     0.134 A 
ATOM     68  C   UNL A   1      41.819  21.326  27.492  1.00  0.00     0.134 A 
ATOM     69  F   UNL A   1      44.344  21.311  24.898  1.00  0.00    -0.206 F 
ATOM     70  C   UNL A   1      42.912  19.608  25.644  1.00  0.00     0.040 A 
ATOM     71  C   UNL A   1      41.351  20.013  27.410  1.00  0.00     0.040 A 
ATOM     72  F   UNL A   1      41.331  22.040  28.517  1.00  0.00    -0.206 F 
ATOM     73  C   UNL A   1      41.901  19.144  26.483  1.00  0.00     0.006 A 
ENDBRANCH  45  66
BRANCH  57  74
ATOM     74  C   UNL A   1      46.989  26.613  26.203  1.00  0.00     0.057 A 
ATOM     75  C   UNL A   1      46.159  27.392  25.386  1.00  0.00     0.134 A 
ATOM     76  C   UNL A   1      48.266  26.308  25.715  1.00  0.00     0.134 A 
ATOM     77  F   UNL A   1      44.952  27.794  25.809  1.00  0.00    -0.206 F 
ATOM     78  C   UNL A   1      46.579  27.829  24.126  1.00  0.00     0.040 A 
ATOM     79  C   UNL A   1      48.708  26.765  24.473  1.00  0.00     0.040 A 
ATOM     80  F   UNL A   1      49.130  25.608  26.469  1.00  0.00    -0.206 F 
ATOM     81  C   UNL A   1      47.861  27.523  23.671  1.00  0.00     0.006 A 
ENDBRANCH  57  74
ENDBRANCH  31  32
ENDBRANCH  24  26
ENDBRANCH  23  24
ENDBRANCH  22  23
ENDBRANCH   1  22
TORSDOF 16
ENDMDL
MODEL 3
REMARK VINA RESULT:     -10.7      5.008      8.532
REMARK SMILES CCn1nc(C)c2nc(SCC(=O)OCCOC(=O)c3ccc(-c4c5nc(c(-c6c(F)cccc6F)c6ccc([nH]6)c(-c6c(F)cccc6F)c6nc(c(-c7c(F)cccc7F)c7ccc4[nH]7)C=C6)C=C5)cc3)n(CC3CC3)c21
REMARK SMILES IDX 15 1 14 2 12 3 13 4 11 5 10 6 9 7 3 8 4 9 79 10 5 11 7 12
REMARK SMILES IDX 74 13 6 14 8 15 2 16 1 17 75 18 76 19 77 20 78 21 16 22
REMARK SMILES IDX 17 23 18 24 19 25 20 26 21 27 73 28 22 29 72 30 23 31 24 32
REMARK SMILES IDX 25 33 66 34 26 35 71 36 65 37 67 38 27 39 70 40 64 41 63 42
REMARK SMILES IDX 28 44 54 45 37 46 53 47 38 48 41 49 52 50 68 51 39 52 40 53
REMARK SMILES IDX 51 55 69 56 42 57 29 58 30 59 35 60 31 61 32 62 34 63 36 64
REMARK SMILES IDX 33 65 55 66 56 67 61 68 57 69 58 70 60 71 62 72 59 73 43 74
REMARK SMILES IDX 44 75 49 76 45 77 46 78 48 79 50 80 47 81
REMARK H PARENT 67 43 41 54
REMARK Flexibility Score: inf
ROOT
ATOM      1  C   UNL A   1      33.384  34.829  29.156  1.00  0.00     0.274 C 
ENDROOT
BRANCH   1   2
ATOM      2  O   UNL A   1      34.579  34.476  29.881  1.00  0.00    -0.461 OA
BRANCH   2   3
ATOM      3  C   UNL A   1      34.442  34.179  31.198  1.00  0.00     0.316 C 
ATOM      4  O   UNL A   1      34.123  33.078  31.634  1.00  0.00    -0.251 OA
BRANCH   3   5
ATOM      5  C   UNL A   1      34.845  35.329  32.098  1.00  0.00     0.200 C 
BRANCH   5   6
ATOM      6  S   UNL A   1      34.761  34.977  33.861  1.00  0.00    -0.076 SA
BRANCH   6   7
ATOM      7  C   UNL A   1      36.164  34.118  34.432  1.00  0.00     0.170 A 
ATOM      8  N   UNL A   1      39.466  33.679  35.565  1.00  0.00    -0.247 N 
ATOM      9  N   UNL A   1      39.474  32.928  36.696  1.00  0.00    -0.174 NA
ATOM     10  C   UNL A   1      38.233  33.722  35.005  1.00  0.00     0.159 A 
ATOM     11  C   UNL A   1      38.166  32.732  36.969  1.00  0.00     0.087 A 
ATOM     12  C   UNL A   1      37.385  33.230  35.921  1.00  0.00     0.132 A 
ATOM     13  N   UNL A   1      37.466  34.156  33.962  1.00  0.00    -0.304 N 
ATOM     14  C   UNL A   1      37.781  32.118  38.254  1.00  0.00     0.071 C 
ATOM     15  N   UNL A   1      36.098  33.450  35.587  1.00  0.00    -0.219 NA
BRANCH   8  16
ATOM     16  C   UNL A   1      40.562  34.590  35.303  1.00  0.00     0.143 C 
ATOM     17  C   UNL A   1      40.206  36.055  35.505  1.00  0.00     0.029 C 
ENDBRANCH   8  16
BRANCH  13  18
ATOM     18  C   UNL A   1      38.041  34.648  32.731  1.00  0.00     0.130 C 
BRANCH  18  19
ATOM     19  C   UNL A   1      38.995  33.769  31.969  1.00  0.00     0.009 C 
ATOM     20  C   UNL A   1      39.447  34.075  30.563  1.00  0.00     0.006 C 
ATOM     21  C   UNL A   1      40.446  34.068  31.687  1.00  0.00     0.006 C 
ENDBRANCH  18  19
ENDBRANCH  13  18
ENDBRANCH   6   7
ENDBRANCH   5   6
ENDBRANCH   3   5
ENDBRANCH   2   3
ENDBRANCH   1   2
BRANCH   1  22
ATOM     22  C   UNL A   1      33.260  33.844  28.001  1.00  0.00     0.275 C 
BRANCH  22  23
ATOM     23  O   UNL A   1      34.501  33.167  27.728  1.00  0.00    -0.458 OA
BRANCH  23  24
ATOM     24  C   UNL A   1      34.385  31.821  27.666  1.00  0.00     0.338 C 
ATOM     25  O   UNL A   1      33.383  31.204  27.360  1.00  0.00    -0.246 OA
BRANCH  24  26
ATOM     26  C   UNL A   1      35.574  31.188  28.277  1.00  0.00     0.060 A 
ATOM     27  C   UNL A   1      36.608  32.037  28.657  1.00  0.00     0.016 A 
ATOM     28  C   UNL A   1      35.757  29.802  28.309  1.00  0.00     0.016 A 
ATOM     29  C   UNL A   1      37.875  31.519  28.845  1.00  0.00     0.010 A 
ATOM     30  C   UNL A   1      37.004  29.277  28.622  1.00  0.00     0.010 A 
ATOM     31  C   UNL A   1      38.092  30.131  28.800  1.00  0.00    -0.014 A 
BRANCH  31  32
ATOM     32  C   UNL A   1      39.457  29.658  29.103  1.00  0.00     0.031 A 
ATOM     33  C   UNL A   1      39.849  29.906  30.528  1.00  0.00     0.074 A 
ATOM     34  C   UNL A   1      40.245  29.008  28.216  1.00  0.00     0.049 A 
ATOM     35  N   UNL A   1      40.902  30.492  31.004  1.00  0.00    -0.248 NA
ATOM     36  C   UNL A   1      38.817  29.615  31.550  1.00  0.00     0.031 C 
ATOM     37  C   UNL A   1      39.847  28.552  26.878  1.00  0.00     0.029 A 
ATOM     38  N   UNL A   1      41.533  28.542  28.315  1.00  0.00    -0.354 N 
ATOM     39  C   UNL A   1      40.746  30.443  32.391  1.00  0.00     0.074 A 
ATOM     40  C   UNL A   1      39.378  30.098  32.654  1.00  0.00     0.031 C 
ATOM     41  C   UNL A   1      40.792  27.746  26.366  1.00  0.00     0.029 A 
ATOM     42  C   UNL A   1      41.858  27.608  27.334  1.00  0.00     0.049 A 
ATOM     43  H   UNL A   1      42.164  28.841  29.008  1.00  0.00     0.167 HD
ATOM     44  C   UNL A   1      41.817  30.314  33.214  1.00  0.00     0.037 A 
ATOM     45  C   UNL A   1      42.833  26.664  27.346  1.00  0.00     0.037 A 
ATOM     46  C   UNL A   1      42.998  30.896  32.643  1.00  0.00     0.049 A 
ATOM     47  C   UNL A   1      43.815  27.028  28.389  1.00  0.00     0.074 A 
ATOM     48  C   UNL A   1      43.395  32.165  32.285  1.00  0.00     0.029 A 
ATOM     49  N   UNL A   1      43.889  30.029  32.074  1.00  0.00    -0.354 N 
ATOM     50  N   UNL A   1      44.635  28.038  28.314  1.00  0.00    -0.248 NA
ATOM     51  C   UNL A   1      43.597  26.504  29.729  1.00  0.00     0.031 C 
ATOM     52  C   UNL A   1      44.302  31.985  31.202  1.00  0.00     0.029 A 
ATOM     53  C   UNL A   1      44.450  30.616  30.976  1.00  0.00     0.049 A 
ATOM     54  H   UNL A   1      44.094  29.124  32.403  1.00  0.00     0.167 HD
ATOM     55  C   UNL A   1      44.688  28.545  29.605  1.00  0.00     0.074 A 
ATOM     56  C   UNL A   1      44.131  27.493  30.447  1.00  0.00     0.031 C 
ATOM     57  C   UNL A   1      44.919  29.871  29.827  1.00  0.00     0.037 A 
BRANCH  44  58
ATOM     58  C   UNL A   1      41.875  29.209  34.254  1.00  0.00     0.057 A 
ATOM     59  C   UNL A   1      42.285  29.518  35.560  1.00  0.00     0.134 A 
ATOM     60  C   UNL A   1      41.853  27.828  33.948  1.00  0.00     0.134 A 
ATOM     61  F   UNL A   1      42.380  30.792  35.967  1.00  0.00    -0.206 F 
ATOM     62  C   UNL A   1      42.704  28.533  36.466  1.00  0.00     0.040 A 
ATOM     63  C   UNL A   1      42.217  26.836  34.859  1.00  0.00     0.040 A 
ATOM     64  F   UNL A   1      41.585  27.357  32.725  1.00  0.00    -0.206 F 
ATOM     65  C   UNL A   1      42.677  27.188  36.113  1.00  0.00     0.006 A 
ENDBRANCH  44  58
BRANCH  45  66
ATOM     66  C   UNL A   1      42.742  25.315  26.720  1.00  0.00     0.057 A 
ATOM     67  C   UNL A   1      43.507  24.947  25.607  1.00  0.00     0.134 A 
ATOM     68  C   UNL A   1      42.010  24.268  27.319  1.00  0.00     0.134 A 
ATOM     69  F   UNL A   1      44.312  25.837  25.009  1.00  0.00    -0.206 F 
ATOM     70  C   UNL A   1      43.505  23.636  25.100  1.00  0.00     0.040 A 
ATOM     71  C   UNL A   1      41.967  22.970  26.805  1.00  0.00     0.040 A 
ATOM     72  F   UNL A   1      41.366  24.439  28.482  1.00  0.00    -0.206 F 
ATOM     73  C   UNL A   1      42.720  22.647  25.690  1.00  0.00     0.006 A 
ENDBRANCH  45  66
BRANCH  57  74
ATOM     74  C   UNL A   1      45.504  30.682  28.707  1.00  0.00     0.057 A 
ATOM     75  C   UNL A   1      44.750  31.270  27.684  1.00  0.00     0.134 A 
ATOM     76  C   UNL A   1      46.865  31.008  28.770  1.00  0.00     0.134 A 
ATOM     77  F   UNL A   1      43.426  31.073  27.599  1.00  0.00    -0.206 F 
ATOM     78  C   UNL A   1      45.334  32.133  26.751  1.00  0.00     0.040 A 
ATOM     79  C   UNL A   1      47.453  31.892  27.864  1.00  0.00     0.040 A 
ATOM     80  F   UNL A   1      47.634  30.519  29.756  1.00  0.00    -0.206 F 
ATOM     81  C   UNL A   1      46.687  32.453  26.846  1.00  0.00     0.006 A 
ENDBRANCH  57  74
ENDBRANCH  31  32
ENDBRANCH  24  26
ENDBRANCH  23  24
ENDBRANCH  22  23
ENDBRANCH   1  22
TORSDOF 16
ENDMDL
