MODEL 1
REMARK VINA RESULT:     -12.8      0.000      0.000
REMARK SMILES O=C(OCCOC(=O)[C@H](c1c[nH]c2cc(F)ccc12)[NH+]1CC[NH+](CC(=O)N2CCOCC2)CC1)c1ccc(-c2c3nc(c(-c4c(F)cccc4F)c4ccc([nH]4)c(-c4c(F)cccc4F)c4nc(c(-c5c(F)cccc5F)c5ccc2[nH]5)C=C4)C=C3)cc1
REMARK SMILES IDX 5 1 4 2 3 3 2 4 1 5 35 6 36 7 88 8 37 9 87 10 38 11 39 12
REMARK SMILES IDX 40 13 81 14 41 15 86 16 80 17 82 18 42 19 85 20 79 21 78 22
REMARK SMILES IDX 43 24 69 25 52 26 68 27 53 28 56 29 67 30 83 31 54 32 55 33
REMARK SMILES IDX 66 35 84 36 57 37 44 38 45 39 50 40 46 41 47 42 49 43 51 44
REMARK SMILES IDX 48 45 70 46 71 47 76 48 72 49 73 50 75 51 77 52 74 53 58 54
REMARK SMILES IDX 59 55 64 56 60 57 61 58 63 59 65 60 62 61 6 62 7 63 8 64
REMARK SMILES IDX 9 65 20 66 21 67 34 68 22 70 33 71 23 72 24 74 25 75 26 76
REMARK SMILES IDX 27 77 28 78 32 79 29 80 31 81 30 82 10 83 11 84 19 85 12 86
REMARK SMILES IDX 13 87 18 88 14 90 17 91 15 92 16 93
REMARK H PARENT 82 23 56 34 20 69 23 73 12 89
REMARK Flexibility Score: inf
ROOT
ATOM      1  C   UNL A   1      31.759  28.495  27.002  1.00  0.00     0.274 C 
ENDROOT
BRANCH   1   2
ATOM      2  C   UNL A   1      31.720  29.732  26.103  1.00  0.00     0.275 C 
BRANCH   2   3
ATOM      3  O   UNL A   1      32.926  30.507  26.103  1.00  0.00    -0.458 OA
BRANCH   3   4
ATOM      4  C   UNL A   1      33.454  31.279  27.074  1.00  0.00     0.338 C 
ATOM      5  O   UNL A   1      32.824  32.277  27.428  1.00  0.00    -0.246 OA
BRANCH   4   6
ATOM      6  C   UNL A   1      34.810  31.061  27.682  1.00  0.00     0.060 A 
ATOM      7  C   UNL A   1      35.797  32.009  27.985  1.00  0.00     0.016 A 
ATOM      8  C   UNL A   1      35.088  29.738  28.018  1.00  0.00     0.016 A 
ATOM      9  C   UNL A   1      36.966  31.664  28.695  1.00  0.00     0.010 A 
ATOM     10  C   UNL A   1      36.225  29.408  28.751  1.00  0.00     0.010 A 
ATOM     11  C   UNL A   1      37.187  30.356  29.116  1.00  0.00    -0.014 A 
BRANCH  11  12
ATOM     12  C   UNL A   1      38.435  29.925  29.818  1.00  0.00     0.031 A 
ATOM     13  C   UNL A   1      38.671  30.410  31.232  1.00  0.00     0.074 A 
ATOM     14  C   UNL A   1      39.406  29.207  29.209  1.00  0.00     0.049 A 
ATOM     15  N   UNL A   1      39.738  30.304  31.984  1.00  0.00    -0.248 NA
ATOM     16  C   UNL A   1      37.598  31.212  31.842  1.00  0.00     0.031 C 
ATOM     17  C   UNL A   1      39.418  28.775  27.808  1.00  0.00     0.029 A 
ATOM     18  N   UNL A   1      40.596  28.722  29.703  1.00  0.00    -0.354 N 
ATOM     19  C   UNL A   1      39.466  31.087  33.100  1.00  0.00     0.074 A 
ATOM     20  C   UNL A   1      38.243  31.801  32.833  1.00  0.00     0.031 C 
ATOM     21  C   UNL A   1      40.533  28.058  27.571  1.00  0.00     0.029 A 
ATOM     22  C   UNL A   1      41.318  27.974  28.800  1.00  0.00     0.049 A 
ATOM     23  H   UNL A   1      40.904  28.895  30.621  1.00  0.00     0.167 HD
ATOM     24  C   UNL A   1      40.084  31.116  34.304  1.00  0.00     0.037 A 
ATOM     25  C   UNL A   1      42.460  27.274  28.965  1.00  0.00     0.037 A 
ATOM     26  C   UNL A   1      41.201  30.283  34.633  1.00  0.00     0.049 A 
ATOM     27  C   UNL A   1      43.102  27.235  30.333  1.00  0.00     0.074 A 
ATOM     28  C   UNL A   1      41.829  30.116  35.852  1.00  0.00     0.029 A 
ATOM     29  N   UNL A   1      41.833  29.444  33.730  1.00  0.00    -0.354 N 
ATOM     30  N   UNL A   1      42.751  27.859  31.432  1.00  0.00    -0.248 NA
ATOM     31  C   UNL A   1      44.280  26.366  30.494  1.00  0.00     0.031 C 
ATOM     32  C   UNL A   1      42.853  29.178  35.682  1.00  0.00     0.029 A 
ATOM     33  C   UNL A   1      42.839  28.745  34.364  1.00  0.00     0.049 A 
ATOM     34  H   UNL A   1      41.598  29.359  32.777  1.00  0.00     0.167 HD
ATOM     35  C   UNL A   1      43.626  27.421  32.419  1.00  0.00     0.074 A 
ATOM     36  C   UNL A   1      44.524  26.474  31.793  1.00  0.00     0.031 C 
ATOM     37  C   UNL A   1      43.686  27.769  33.729  1.00  0.00     0.037 A 
BRANCH  24  38
ATOM     38  C   UNL A   1      39.479  32.004  35.355  1.00  0.00     0.057 A 
ATOM     39  C   UNL A   1      38.477  31.537  36.221  1.00  0.00     0.134 A 
ATOM     40  C   UNL A   1      39.847  33.348  35.461  1.00  0.00     0.134 A 
ATOM     41  F   UNL A   1      38.070  30.259  36.165  1.00  0.00    -0.206 F 
ATOM     42  C   UNL A   1      37.807  32.392  37.095  1.00  0.00     0.040 A 
ATOM     43  C   UNL A   1      39.212  34.205  36.364  1.00  0.00     0.040 A 
ATOM     44  F   UNL A   1      40.812  33.858  34.681  1.00  0.00    -0.206 F 
ATOM     45  C   UNL A   1      38.175  33.733  37.168  1.00  0.00     0.006 A 
ENDBRANCH  24  38
BRANCH  25  46
ATOM     46  C   UNL A   1      43.035  26.464  27.855  1.00  0.00     0.057 A 
ATOM     47  C   UNL A   1      43.928  27.037  26.937  1.00  0.00     0.134 A 
ATOM     48  C   UNL A   1      42.664  25.133  27.637  1.00  0.00     0.134 A 
ATOM     49  F   UNL A   1      44.311  28.314  27.079  1.00  0.00    -0.206 F 
ATOM     50  C   UNL A   1      44.393  26.334  25.823  1.00  0.00     0.040 A 
ATOM     51  C   UNL A   1      43.139  24.410  26.537  1.00  0.00     0.040 A 
ATOM     52  F   UNL A   1      41.825  24.516  28.482  1.00  0.00    -0.206 F 
ATOM     53  C   UNL A   1      43.996  25.016  25.619  1.00  0.00     0.006 A 
ENDBRANCH  25  46
BRANCH  37  54
ATOM     54  C   UNL A   1      44.698  27.081  34.593  1.00  0.00     0.057 A 
ATOM     55  C   UNL A   1      44.429  25.856  35.214  1.00  0.00     0.134 A 
ATOM     56  C   UNL A   1      45.990  27.608  34.724  1.00  0.00     0.134 A 
ATOM     57  F   UNL A   1      43.208  25.306  35.133  1.00  0.00    -0.206 F 
ATOM     58  C   UNL A   1      45.408  25.183  35.945  1.00  0.00     0.040 A 
ATOM     59  C   UNL A   1      46.985  26.931  35.428  1.00  0.00     0.040 A 
ATOM     60  F   UNL A   1      46.313  28.773  34.142  1.00  0.00    -0.206 F 
ATOM     61  C   UNL A   1      46.694  25.714  36.043  1.00  0.00     0.006 A 
ENDBRANCH  37  54
ENDBRANCH  11  12
ENDBRANCH   4   6
ENDBRANCH   3   4
ENDBRANCH   2   3
ENDBRANCH   1   2
BRANCH   1  62
ATOM     62  O   UNL A   1      31.354  27.271  26.357  1.00  0.00    -0.457 OA
BRANCH  62  63
ATOM     63  C   UNL A   1      32.266  26.682  25.511  1.00  0.00     0.370 C 
ATOM     64  O   UNL A   1      33.484  26.770  25.672  1.00  0.00    -0.245 OA
BRANCH  63  65
ATOM     65  C   UNL A   1      31.540  25.982  24.320  1.00  0.00     0.328 C 
BRANCH  65  66
ATOM     66  N   UNL A   1      31.556  24.526  24.562  1.00  0.00    -0.310 N 
ATOM     67  C   UNL A   1      32.331  23.749  23.580  1.00  0.00     0.325 C 
ATOM     68  C   UNL A   1      31.729  24.147  25.963  1.00  0.00     0.325 C 
ATOM     69  H   UNL A   1      30.600  24.226  24.369  1.00  0.00     0.349 HD
ATOM     70  C   UNL A   1      33.682  23.195  24.083  1.00  0.00     0.325 C 
ATOM     71  C   UNL A   1      32.965  23.317  26.377  1.00  0.00     0.325 C 
ATOM     72  N   UNL A   1      33.589  22.484  25.358  1.00  0.00    -0.318 N 
ATOM     73  H   UNL A   1      34.546  22.339  25.681  1.00  0.00     0.348 HD
BRANCH  72  74
ATOM     74  C   UNL A   1      33.174  21.077  25.290  1.00  0.00     0.364 C 
BRANCH  74  75
ATOM     75  C   UNL A   1      34.246  20.053  24.893  1.00  0.00     0.277 C 
ATOM     76  O   UNL A   1      35.432  20.405  24.853  1.00  0.00    -0.268 OA
ATOM     77  N   UNL A   1      33.883  18.749  24.613  1.00  0.00    -0.333 N 
ATOM     78  C   UNL A   1      32.531  18.229  24.446  1.00  0.00     0.148 C 
ATOM     79  C   UNL A   1      34.917  17.764  24.290  1.00  0.00     0.148 C 
ATOM     80  C   UNL A   1      32.337  16.896  25.167  1.00  0.00     0.181 C 
ATOM     81  C   UNL A   1      34.662  16.476  25.077  1.00  0.00     0.181 C 
ATOM     82  O   UNL A   1      33.352  15.952  24.797  1.00  0.00    -0.378 OA
ENDBRANCH  74  75
ENDBRANCH  72  74
ENDBRANCH  65  66
BRANCH  65  83
ATOM     83  C   UNL A   1      30.127  26.459  24.034  1.00  0.00     0.046 A 
ATOM     84  C   UNL A   1      28.942  25.863  24.438  1.00  0.00     0.094 A 
ATOM     85  C   UNL A   1      29.743  27.642  23.294  1.00  0.00     0.009 A 
ATOM     86  N   UNL A   1      27.891  26.608  23.983  1.00  0.00    -0.361 N 
ATOM     87  C   UNL A   1      28.348  27.723  23.327  1.00  0.00     0.049 A 
ATOM     88  C   UNL A   1      30.448  28.699  22.668  1.00  0.00     0.014 A 
ATOM     89  H   UNL A   1      26.941  26.376  24.107  1.00  0.00     0.166 HD
ATOM     90  C   UNL A   1      27.639  28.807  22.791  1.00  0.00     0.065 A 
ATOM     91  C   UNL A   1      29.758  29.796  22.141  1.00  0.00     0.040 A 
ATOM     92  C   UNL A   1      28.377  29.839  22.213  1.00  0.00     0.125 A 
ATOM     93  F   UNL A   1      27.730  30.913  21.740  1.00  0.00    -0.207 F 
ENDBRANCH  65  83
ENDBRANCH  63  65
ENDBRANCH  62  63
ENDBRANCH   1  62
TORSDOF 15
ENDMDL
MODEL 2
REMARK VINA RESULT:     -12.7      3.893      9.727
REMARK SMILES O=C(OCCOC(=O)[C@H](c1c[nH]c2cc(F)ccc12)[NH+]1CC[NH+](CC(=O)N2CCOCC2)CC1)c1ccc(-c2c3nc(c(-c4c(F)cccc4F)c4ccc([nH]4)c(-c4c(F)cccc4F)c4nc(c(-c5c(F)cccc5F)c5ccc2[nH]5)C=C4)C=C3)cc1
REMARK SMILES IDX 5 1 4 2 3 3 2 4 1 5 35 6 36 7 88 8 37 9 87 10 38 11 39 12
REMARK SMILES IDX 40 13 81 14 41 15 86 16 80 17 82 18 42 19 85 20 79 21 78 22
REMARK SMILES IDX 43 24 69 25 52 26 68 27 53 28 56 29 67 30 83 31 54 32 55 33
REMARK SMILES IDX 66 35 84 36 57 37 44 38 45 39 50 40 46 41 47 42 49 43 51 44
REMARK SMILES IDX 48 45 70 46 71 47 76 48 72 49 73 50 75 51 77 52 74 53 58 54
REMARK SMILES IDX 59 55 64 56 60 57 61 58 63 59 65 60 62 61 6 62 7 63 8 64
REMARK SMILES IDX 9 65 20 66 21 67 34 68 22 70 33 71 23 72 24 74 25 75 26 76
REMARK SMILES IDX 27 77 28 78 32 79 29 80 31 81 30 82 10 83 11 84 19 85 12 86
REMARK SMILES IDX 13 87 18 88 14 90 17 91 15 92 16 93
REMARK H PARENT 82 23 56 34 20 69 23 73 12 89
REMARK Flexibility Score: inf
ROOT
ATOM      1  C   UNL A   1      35.999  22.711  24.780  1.00  0.00     0.274 C 
ENDROOT
BRANCH   1   2
ATOM      2  C   UNL A   1      36.596  21.537  25.559  1.00  0.00     0.275 C 
BRANCH   2   3
ATOM      3  O   UNL A   1      37.947  21.213  25.206  1.00  0.00    -0.458 OA
BRANCH   3   4
ATOM      4  C   UNL A   1      39.055  21.184  25.974  1.00  0.00     0.338 C 
ATOM      5  O   UNL A   1      39.539  20.085  26.251  1.00  0.00    -0.246 OA
BRANCH   4   6
ATOM      6  C   UNL A   1      39.680  22.397  26.600  1.00  0.00     0.060 A 
ATOM      7  C   UNL A   1      40.666  22.462  27.593  1.00  0.00     0.016 A 
ATOM      8  C   UNL A   1      39.235  23.611  26.080  1.00  0.00     0.016 A 
ATOM      9  C   UNL A   1      41.261  23.683  27.972  1.00  0.00     0.010 A 
ATOM     10  C   UNL A   1      39.849  24.810  26.430  1.00  0.00     0.010 A 
ATOM     11  C   UNL A   1      40.879  24.880  27.374  1.00  0.00    -0.014 A 
BRANCH  11  12
ATOM     12  C   UNL A   1      41.434  26.208  27.780  1.00  0.00     0.031 A 
ATOM     13  C   UNL A   1      42.832  26.574  27.331  1.00  0.00     0.074 A 
ATOM     14  C   UNL A   1      40.781  27.049  28.614  1.00  0.00     0.049 A 
ATOM     15  N   UNL A   1      43.584  27.587  27.682  1.00  0.00    -0.248 NA
ATOM     16  C   UNL A   1      43.514  25.614  26.447  1.00  0.00     0.031 C 
ATOM     17  C   UNL A   1      39.489  26.801  29.262  1.00  0.00     0.029 A 
ATOM     18  N   UNL A   1      41.134  28.297  29.076  1.00  0.00    -0.354 N 
ATOM     19  C   UNL A   1      44.825  27.323  27.115  1.00  0.00     0.074 A 
ATOM     20  C   UNL A   1      44.774  25.986  26.580  1.00  0.00     0.031 C 
ATOM     21  C   UNL A   1      39.145  27.875  29.996  1.00  0.00     0.029 A 
ATOM     22  C   UNL A   1      40.185  28.893  29.875  1.00  0.00     0.049 A 
ATOM     23  H   UNL A   1      41.991  28.727  28.853  1.00  0.00     0.167 HD
ATOM     24  C   UNL A   1      45.877  28.152  26.919  1.00  0.00     0.037 A 
ATOM     25  C   UNL A   1      40.150  30.131  30.411  1.00  0.00     0.037 A 
ATOM     26  C   UNL A   1      45.871  29.532  27.300  1.00  0.00     0.049 A 
ATOM     27  C   UNL A   1      41.284  31.086  30.118  1.00  0.00     0.074 A 
ATOM     28  C   UNL A   1      46.812  30.508  27.036  1.00  0.00     0.029 A 
ATOM     29  N   UNL A   1      44.840  30.136  28.001  1.00  0.00    -0.354 N 
ATOM     30  N   UNL A   1      42.392  30.877  29.448  1.00  0.00    -0.248 NA
ATOM     31  C   UNL A   1      41.149  32.461  30.628  1.00  0.00     0.031 C 
ATOM     32  C   UNL A   1      46.352  31.708  27.591  1.00  0.00     0.029 A 
ATOM     33  C   UNL A   1      45.113  31.478  28.172  1.00  0.00     0.049 A 
ATOM     34  H   UNL A   1      44.033  29.677  28.327  1.00  0.00     0.167 HD
ATOM     35  C   UNL A   1      43.055  32.099  29.410  1.00  0.00     0.074 A 
ATOM     36  C   UNL A   1      42.225  33.047  30.121  1.00  0.00     0.031 C 
ATOM     37  C   UNL A   1      44.245  32.412  28.840  1.00  0.00     0.037 A 
BRANCH  24  38
ATOM     38  C   UNL A   1      47.054  27.588  26.172  1.00  0.00     0.057 A 
ATOM     39  C   UNL A   1      47.096  27.583  24.768  1.00  0.00     0.134 A 
ATOM     40  C   UNL A   1      48.118  26.988  26.851  1.00  0.00     0.134 A 
ATOM     41  F   UNL A   1      46.101  28.133  24.055  1.00  0.00    -0.206 F 
ATOM     42  C   UNL A   1      48.110  26.929  24.069  1.00  0.00     0.040 A 
ATOM     43  C   UNL A   1      49.162  26.368  26.160  1.00  0.00     0.040 A 
ATOM     44  F   UNL A   1      48.155  26.976  28.192  1.00  0.00    -0.206 F 
ATOM     45  C   UNL A   1      49.148  26.318  24.767  1.00  0.00     0.006 A 
ENDBRANCH  24  38
BRANCH  25  46
ATOM     46  C   UNL A   1      38.973  30.599  31.195  1.00  0.00     0.057 A 
ATOM     47  C   UNL A   1      38.900  30.382  32.579  1.00  0.00     0.134 A 
ATOM     48  C   UNL A   1      37.869  31.206  30.586  1.00  0.00     0.134 A 
ATOM     49  F   UNL A   1      39.918  29.790  33.221  1.00  0.00    -0.206 F 
ATOM     50  C   UNL A   1      37.761  30.708  33.319  1.00  0.00     0.040 A 
ATOM     51  C   UNL A   1      36.730  31.557  31.319  1.00  0.00     0.040 A 
ATOM     52  F   UNL A   1      37.874  31.457  29.269  1.00  0.00    -0.206 F 
ATOM     53  C   UNL A   1      36.669  31.295  32.687  1.00  0.00     0.006 A 
ENDBRANCH  25  46
BRANCH  37  54
ATOM     54  C   UNL A   1      44.693  33.841  28.890  1.00  0.00     0.057 A 
ATOM     55  C   UNL A   1      45.527  34.319  29.907  1.00  0.00     0.134 A 
ATOM     56  C   UNL A   1      44.360  34.723  27.853  1.00  0.00     0.134 A 
ATOM     57  F   UNL A   1      45.873  33.525  30.932  1.00  0.00    -0.206 F 
ATOM     58  C   UNL A   1      46.008  35.628  29.896  1.00  0.00     0.040 A 
ATOM     59  C   UNL A   1      44.857  36.025  27.816  1.00  0.00     0.040 A 
ATOM     60  F   UNL A   1      43.574  34.320  26.843  1.00  0.00    -0.206 F 
ATOM     61  C   UNL A   1      45.683  36.481  28.841  1.00  0.00     0.006 A 
ENDBRANCH  37  54
ENDBRANCH  11  12
ENDBRANCH   4   6
ENDBRANCH   3   4
ENDBRANCH   2   3
ENDBRANCH   1   2
BRANCH   1  62
ATOM     62  O   UNL A   1      34.632  22.523  24.366  1.00  0.00    -0.457 OA
BRANCH  62  63
ATOM     63  C   UNL A   1      33.664  23.168  25.103  1.00  0.00     0.370 C 
ATOM     64  O   UNL A   1      33.922  23.861  26.088  1.00  0.00    -0.245 OA
BRANCH  63  65
ATOM     65  C   UNL A   1      32.241  22.827  24.562  1.00  0.00     0.328 C 
BRANCH  65  66
ATOM     66  N   UNL A   1      31.711  24.021  23.875  1.00  0.00    -0.310 N 
ATOM     67  C   UNL A   1      30.690  24.763  24.633  1.00  0.00     0.325 C 
ATOM     68  C   UNL A   1      32.723  24.829  23.198  1.00  0.00     0.325 C 
ATOM     69  H   UNL A   1      31.170  23.646  23.095  1.00  0.00     0.349 HD
ATOM     70  C   UNL A   1      31.150  26.109  25.234  1.00  0.00     0.325 C 
ATOM     71  C   UNL A   1      32.943  26.293  23.639  1.00  0.00     0.325 C 
ATOM     72  N   UNL A   1      31.827  26.981  24.275  1.00  0.00    -0.318 N 
ATOM     73  H   UNL A   1      32.251  27.735  24.814  1.00  0.00     0.348 HD
BRANCH  72  74
ATOM     74  C   UNL A   1      30.961  27.798  23.415  1.00  0.00     0.364 C 
BRANCH  74  75
ATOM     75  C   UNL A   1      30.575  29.189  23.936  1.00  0.00     0.277 C 
ATOM     76  O   UNL A   1      31.259  29.712  24.825  1.00  0.00    -0.268 OA
ATOM     77  N   UNL A   1      29.491  29.852  23.392  1.00  0.00    -0.333 N 
ATOM     78  C   UNL A   1      28.494  29.306  22.478  1.00  0.00     0.148 C 
ATOM     79  C   UNL A   1      29.161  31.201  23.855  1.00  0.00     0.148 C 
ATOM     80  C   UNL A   1      28.173  30.271  21.338  1.00  0.00     0.181 C 
ATOM     81  C   UNL A   1      28.887  32.104  22.651  1.00  0.00     0.181 C 
ATOM     82  O   UNL A   1      27.826  31.570  21.838  1.00  0.00    -0.378 OA
ENDBRANCH  74  75
ENDBRANCH  72  74
ENDBRANCH  65  66
BRANCH  65  83
ATOM     83  C   UNL A   1      32.150  21.609  23.660  1.00  0.00     0.046 A 
ATOM     84  C   UNL A   1      31.883  21.590  22.299  1.00  0.00     0.094 A 
ATOM     85  C   UNL A   1      32.343  20.227  24.044  1.00  0.00     0.009 A 
ATOM     86  N   UNL A   1      31.898  20.296  21.859  1.00  0.00    -0.361 N 
ATOM     87  C   UNL A   1      32.225  19.449  22.889  1.00  0.00     0.049 A 
ATOM     88  C   UNL A   1      32.687  19.566  25.248  1.00  0.00     0.014 A 
ATOM     89  H   UNL A   1      31.701  20.013  20.937  1.00  0.00     0.166 HD
ATOM     90  C   UNL A   1      32.454  18.066  22.879  1.00  0.00     0.065 A 
ATOM     91  C   UNL A   1      32.935  18.189  25.255  1.00  0.00     0.040 A 
ATOM     92  C   UNL A   1      32.822  17.464  24.081  1.00  0.00     0.125 A 
ATOM     93  F   UNL A   1      33.101  16.153  24.092  1.00  0.00    -0.207 F 
ENDBRANCH  65  83
ENDBRANCH  63  65
ENDBRANCH  62  63
ENDBRANCH   1  62
TORSDOF 15
ENDMDL
MODEL 3
REMARK VINA RESULT:     -12.6      1.495      2.048
REMARK SMILES O=C(OCCOC(=O)[C@H](c1c[nH]c2cc(F)ccc12)[NH+]1CC[NH+](CC(=O)N2CCOCC2)CC1)c1ccc(-c2c3nc(c(-c4c(F)cccc4F)c4ccc([nH]4)c(-c4c(F)cccc4F)c4nc(c(-c5c(F)cccc5F)c5ccc2[nH]5)C=C4)C=C3)cc1
REMARK SMILES IDX 5 1 4 2 3 3 2 4 1 5 35 6 36 7 88 8 37 9 87 10 38 11 39 12
REMARK SMILES IDX 40 13 81 14 41 15 86 16 80 17 82 18 42 19 85 20 79 21 78 22
REMARK SMILES IDX 43 24 69 25 52 26 68 27 53 28 56 29 67 30 83 31 54 32 55 33
REMARK SMILES IDX 66 35 84 36 57 37 44 38 45 39 50 40 46 41 47 42 49 43 51 44
REMARK SMILES IDX 48 45 70 46 71 47 76 48 72 49 73 50 75 51 77 52 74 53 58 54
REMARK SMILES IDX 59 55 64 56 60 57 61 58 63 59 65 60 62 61 6 62 7 63 8 64
REMARK SMILES IDX 9 65 20 66 21 67 34 68 22 70 33 71 23 72 24 74 25 75 26 76
REMARK SMILES IDX 27 77 28 78 32 79 29 80 31 81 30 82 10 83 11 84 19 85 12 86
REMARK SMILES IDX 13 87 18 88 14 90 17 91 15 92 16 93
REMARK H PARENT 82 23 56 34 20 69 23 73 12 89
REMARK Flexibility Score: inf
ROOT
ATOM      1  C   UNL A   1      33.458  29.007  25.655  1.00  0.00     0.274 C 
ENDROOT
BRANCH   1   2
ATOM      2  C   UNL A   1      32.781  30.310  26.085  1.00  0.00     0.275 C 
BRANCH   2   3
ATOM      3  O   UNL A   1      33.061  30.708  27.433  1.00  0.00    -0.458 OA
BRANCH   3   4
ATOM      4  C   UNL A   1      34.024  31.524  27.910  1.00  0.00     0.338 C 
ATOM      5  O   UNL A   1      33.772  32.727  28.001  1.00  0.00    -0.246 OA
BRANCH   4   6
ATOM      6  C   UNL A   1      35.420  31.078  28.238  1.00  0.00     0.060 A 
ATOM      7  C   UNL A   1      36.609  31.818  28.194  1.00  0.00     0.016 A 
ATOM      8  C   UNL A   1      35.518  29.762  28.683  1.00  0.00     0.016 A 
ATOM      9  C   UNL A   1      37.827  31.298  28.679  1.00  0.00     0.010 A 
ATOM     10  C   UNL A   1      36.713  29.264  29.194  1.00  0.00     0.010 A 
ATOM     11  C   UNL A   1      37.893  30.015  29.215  1.00  0.00    -0.014 A 
BRANCH  11  12
ATOM     12  C   UNL A   1      39.169  29.393  29.687  1.00  0.00     0.031 A 
ATOM     13  C   UNL A   1      39.760  29.866  30.998  1.00  0.00     0.074 A 
ATOM     14  C   UNL A   1      39.866  28.504  28.945  1.00  0.00     0.049 A 
ATOM     15  N   UNL A   1      40.924  29.597  31.534  1.00  0.00    -0.248 NA
ATOM     16  C   UNL A   1      38.977  30.857  31.755  1.00  0.00     0.031 C 
ATOM     17  C   UNL A   1      39.526  28.041  27.597  1.00  0.00     0.029 A 
ATOM     18  N   UNL A   1      41.036  27.833  29.227  1.00  0.00    -0.354 N 
ATOM     19  C   UNL A   1      41.013  30.443  32.634  1.00  0.00     0.074 A 
ATOM     20  C   UNL A   1      39.895  31.350  32.566  1.00  0.00     0.031 C 
ATOM     21  C   UNL A   1      40.438  27.137  27.192  1.00  0.00     0.029 A 
ATOM     22  C   UNL A   1      41.430  26.949  28.248  1.00  0.00     0.049 A 
ATOM     23  H   UNL A   1      41.546  27.974  30.057  1.00  0.00     0.167 HD
ATOM     24  C   UNL A   1      41.856  30.395  33.692  1.00  0.00     0.037 A 
ATOM     25  C   UNL A   1      42.451  26.067  28.230  1.00  0.00     0.037 A 
ATOM     26  C   UNL A   1      42.865  29.391  33.847  1.00  0.00     0.049 A 
ATOM     27  C   UNL A   1      43.339  25.953  29.448  1.00  0.00     0.074 A 
ATOM     28  C   UNL A   1      43.687  29.149  34.930  1.00  0.00     0.029 A 
ATOM     29  N   UNL A   1      43.156  28.433  32.890  1.00  0.00    -0.354 N 
ATOM     30  N   UNL A   1      43.322  26.656  30.555  1.00  0.00    -0.248 NA
ATOM     31  C   UNL A   1      44.367  24.899  29.429  1.00  0.00     0.031 C 
ATOM     32  C   UNL A   1      44.489  28.045  34.620  1.00  0.00     0.029 A 
ATOM     33  C   UNL A   1      44.141  27.587  33.358  1.00  0.00     0.049 A 
ATOM     34  H   UNL A   1      42.724  28.365  32.008  1.00  0.00     0.167 HD
ATOM     35  C   UNL A   1      44.294  26.098  31.379  1.00  0.00     0.074 A 
ATOM     36  C   UNL A   1      44.880  24.996  30.648  1.00  0.00     0.031 C 
ATOM     37  C   UNL A   1      44.671  26.464  32.629  1.00  0.00     0.037 A 
BRANCH  24  38
ATOM     38  C   UNL A   1      41.628  31.401  34.785  1.00  0.00     0.057 A 
ATOM     39  C   UNL A   1      40.663  31.191  35.784  1.00  0.00     0.134 A 
ATOM     40  C   UNL A   1      42.324  32.612  34.807  1.00  0.00     0.134 A 
ATOM     41  F   UNL A   1      39.951  30.053  35.815  1.00  0.00    -0.206 F 
ATOM     42  C   UNL A   1      40.341  32.181  36.711  1.00  0.00     0.040 A 
ATOM     43  C   UNL A   1      42.041  33.595  35.759  1.00  0.00     0.040 A 
ATOM     44  F   UNL A   1      43.275  32.872  33.897  1.00  0.00    -0.206 F 
ATOM     45  C   UNL A   1      41.032  33.390  36.699  1.00  0.00     0.006 A 
ENDBRANCH  24  38
BRANCH  25  46
ATOM     46  C   UNL A   1      42.651  25.143  27.079  1.00  0.00     0.057 A 
ATOM     47  C   UNL A   1      42.005  23.899  27.037  1.00  0.00     0.134 A 
ATOM     48  C   UNL A   1      43.536  25.437  26.036  1.00  0.00     0.134 A 
ATOM     49  F   UNL A   1      41.157  23.548  28.015  1.00  0.00    -0.206 F 
ATOM     50  C   UNL A   1      42.262  22.966  26.029  1.00  0.00     0.040 A 
ATOM     51  C   UNL A   1      43.788  24.521  25.009  1.00  0.00     0.040 A 
ATOM     52  F   UNL A   1      44.179  26.613  26.004  1.00  0.00    -0.206 F 
ATOM     53  C   UNL A   1      43.159  23.276  25.011  1.00  0.00     0.006 A 
ENDBRANCH  25  46
BRANCH  37  54
ATOM     54  C   UNL A   1      45.709  25.634  33.321  1.00  0.00     0.057 A 
ATOM     55  C   UNL A   1      45.370  24.511  34.083  1.00  0.00     0.134 A 
ATOM     56  C   UNL A   1      47.071  25.911  33.140  1.00  0.00     0.134 A 
ATOM     57  F   UNL A   1      44.083  24.200  34.301  1.00  0.00    -0.206 F 
ATOM     58  C   UNL A   1      46.350  23.696  34.650  1.00  0.00     0.040 A 
ATOM     59  C   UNL A   1      48.059  25.088  33.678  1.00  0.00     0.040 A 
ATOM     60  F   UNL A   1      47.460  26.967  32.409  1.00  0.00    -0.206 F 
ATOM     61  C   UNL A   1      47.699  23.977  34.438  1.00  0.00     0.006 A 
ENDBRANCH  37  54
ENDBRANCH  11  12
ENDBRANCH   4   6
ENDBRANCH   3   4
ENDBRANCH   2   3
ENDBRANCH   1   2
BRANCH   1  62
ATOM     62  O   UNL A   1      33.235  27.893  26.542  1.00  0.00    -0.457 OA
BRANCH  62  63
ATOM     63  C   UNL A   1      32.097  27.147  26.331  1.00  0.00     0.370 C 
ATOM     64  O   UNL A   1      31.396  26.719  27.249  1.00  0.00    -0.245 OA
BRANCH  63  65
ATOM     65  C   UNL A   1      31.893  26.873  24.809  1.00  0.00     0.328 C 
BRANCH  65  66
ATOM     66  N   UNL A   1      32.462  25.547  24.499  1.00  0.00    -0.310 N 
ATOM     67  C   UNL A   1      33.914  25.544  24.252  1.00  0.00     0.325 C 
ATOM     68  C   UNL A   1      31.949  24.459  25.329  1.00  0.00     0.325 C 
ATOM     69  H   UNL A   1      32.086  25.318  23.579  1.00  0.00     0.349 HD
ATOM     70  C   UNL A   1      34.781  24.938  25.376  1.00  0.00     0.325 C 
ATOM     71  C   UNL A   1      32.924  23.667  26.228  1.00  0.00     0.325 C 
ATOM     72  N   UNL A   1      34.324  23.625  25.829  1.00  0.00    -0.318 N 
ATOM     73  H   UNL A   1      34.839  23.415  26.684  1.00  0.00     0.348 HD
BRANCH  72  74
ATOM     74  C   UNL A   1      34.764  22.472  25.032  1.00  0.00     0.364 C 
BRANCH  74  75
ATOM     75  C   UNL A   1      33.775  21.922  23.997  1.00  0.00     0.277 C 
ATOM     76  O   UNL A   1      33.653  22.502  22.910  1.00  0.00    -0.268 OA
ATOM     77  N   UNL A   1      33.053  20.776  24.273  1.00  0.00    -0.333 N 
ATOM     78  C   UNL A   1      32.954  20.088  25.556  1.00  0.00     0.148 C 
ATOM     79  C   UNL A   1      32.152  20.225  23.259  1.00  0.00     0.148 C 
ATOM     80  C   UNL A   1      33.075  18.572  25.403  1.00  0.00     0.181 C 
ATOM     81  C   UNL A   1      32.363  18.714  23.152  1.00  0.00     0.181 C 
ATOM     82  O   UNL A   1      32.153  18.073  24.424  1.00  0.00    -0.378 OA
ENDBRANCH  74  75
ENDBRANCH  72  74
ENDBRANCH  65  66
BRANCH  65  83
ATOM     83  C   UNL A   1      30.464  26.971  24.304  1.00  0.00     0.046 A 
ATOM     84  C   UNL A   1      29.449  26.041  24.473  1.00  0.00     0.094 A 
ATOM     85  C   UNL A   1      29.878  28.066  23.561  1.00  0.00     0.009 A 
ATOM     86  N   UNL A   1      28.312  26.509  23.876  1.00  0.00    -0.361 N 
ATOM     87  C   UNL A   1      28.530  27.761  23.357  1.00  0.00     0.049 A 
ATOM     88  C   UNL A   1      30.342  29.326  23.111  1.00  0.00     0.014 A 
ATOM     89  H   UNL A   1      27.461  26.017  23.824  1.00  0.00     0.166 HD
ATOM     90  C   UNL A   1      27.634  28.654  22.753  1.00  0.00     0.065 A 
ATOM     91  C   UNL A   1      29.459  30.236  22.520  1.00  0.00     0.040 A 
ATOM     92  C   UNL A   1      28.128  29.895  22.356  1.00  0.00     0.125 A 
ATOM     93  F   UNL A   1      27.283  30.790  21.825  1.00  0.00    -0.207 F 
ENDBRANCH  65  83
ENDBRANCH  63  65
ENDBRANCH  62  63
ENDBRANCH   1  62
TORSDOF 15
ENDMDL
