MODEL 1
REMARK VINA RESULT:     -10.8      0.000      0.000
REMARK SMILES COc1ccc2c(c1)[C@H]([NH2+][C@@H](C(=O)OCCOC(=O)c1ccc(-c3c4nc(c(-c5c(F)cccc5F)c5ccc([nH]5)c(-c5c(F)cccc5F)c5nc(c(-c6c(F)cccc6F)c6ccc3[nH]6)C=C5)C=C4)cc1)C1CC1)CC2
REMARK SMILES IDX 15 1 14 2 12 3 13 4 11 5 10 6 9 9 3 10 4 11 8 12 5 13 7 14
REMARK SMILES IDX 6 15 78 16 77 17 2 18 1 19 74 20 75 21 76 22 16 23 17 24
REMARK SMILES IDX 18 25 19 26 20 27 21 28 73 29 22 30 72 31 23 32 24 33 25 34
REMARK SMILES IDX 66 35 26 36 71 37 65 38 67 39 27 40 70 41 64 42 63 43 28 45
REMARK SMILES IDX 54 46 37 47 53 48 38 49 41 50 52 51 68 52 39 53 40 54 51 56
REMARK SMILES IDX 69 57 42 58 29 59 30 60 35 61 31 62 32 63 34 64 36 65 33 66
REMARK SMILES IDX 55 67 56 68 61 69 57 70 58 71 60 72 62 73 59 74 43 75 44 76
REMARK SMILES IDX 49 77 45 78 46 79 48 80 50 81 47 82
REMARK H PARENT 10 7 10 8 67 44 41 55
REMARK Flexibility Score: inf
ROOT
ATOM      1  C   UNL A   1      42.684  20.904  25.948  1.00  0.00     0.274 C 
ENDROOT
BRANCH   1   2
ATOM      2  O   UNL A   1      41.576  21.715  26.398  1.00  0.00    -0.458 OA
BRANCH   2   3
ATOM      3  C   UNL A   1      40.328  21.191  26.216  1.00  0.00     0.365 C 
ATOM      4  O   UNL A   1      40.122  20.031  25.869  1.00  0.00    -0.245 OA
BRANCH   3   5
ATOM      5  C   UNL A   1      39.178  22.209  26.505  1.00  0.00     0.297 C 
BRANCH   5   6
ATOM      6  N   UNL A   1      38.187  22.208  25.411  1.00  0.00    -0.328 N 
ATOM      7  H   UNL A   1      38.068  23.175  25.111  1.00  0.00     0.347 HD
ATOM      8  H   UNL A   1      38.579  21.567  24.721  1.00  0.00     0.347 HD
BRANCH   6   9
ATOM      9  C   UNL A   1      36.857  21.673  25.678  1.00  0.00     0.215 C 
ATOM     10  C   UNL A   1      34.464  24.489  24.552  1.00  0.00     0.119 A 
ATOM     11  C   UNL A   1      33.467  23.674  23.990  1.00  0.00     0.047 A 
ATOM     12  C   UNL A   1      35.625  23.917  25.094  1.00  0.00     0.056 A 
ATOM     13  C   UNL A   1      33.588  22.286  24.016  1.00  0.00     0.008 A 
ATOM     14  C   UNL A   1      35.752  22.535  25.104  1.00  0.00     0.016 A 
ATOM     15  C   UNL A   1      34.723  21.736  24.584  1.00  0.00    -0.038 A 
ATOM     16  C   UNL A   1      35.012  20.287  24.781  1.00  0.00     0.042 C 
ATOM     17  C   UNL A   1      36.523  20.325  25.000  1.00  0.00     0.075 C 
BRANCH  10  18
ATOM     18  O   UNL A   1      34.400  25.857  24.602  1.00  0.00    -0.497 OA
ATOM     19  C   UNL A   1      33.610  26.458  23.580  1.00  0.00     0.278 C 
ENDBRANCH  10  18
ENDBRANCH   6   9
ENDBRANCH   5   6
BRANCH   5  20
ATOM     20  C   UNL A   1      39.731  23.595  26.779  1.00  0.00     0.059 C 
ATOM     21  C   UNL A   1      38.922  24.846  26.499  1.00  0.00     0.011 C 
ATOM     22  C   UNL A   1      39.170  24.439  27.912  1.00  0.00     0.011 C 
ENDBRANCH   5  20
ENDBRANCH   3   5
ENDBRANCH   2   3
ENDBRANCH   1   2
BRANCH   1  23
ATOM     23  C   UNL A   1      43.708  21.765  25.216  1.00  0.00     0.275 C 
BRANCH  23  24
ATOM     24  O   UNL A   1      43.110  23.035  24.905  1.00  0.00    -0.458 OA
BRANCH  24  25
ATOM     25  C   UNL A   1      43.870  24.122  25.160  1.00  0.00     0.338 C 
ATOM     26  O   UNL A   1      44.911  24.453  24.624  1.00  0.00    -0.246 OA
BRANCH  25  27
ATOM     27  C   UNL A   1      43.208  24.929  26.196  1.00  0.00     0.060 A 
ATOM     28  C   UNL A   1      42.842  26.239  25.896  1.00  0.00     0.016 A 
ATOM     29  C   UNL A   1      43.066  24.438  27.492  1.00  0.00     0.016 A 
ATOM     30  C   UNL A   1      42.406  27.091  26.908  1.00  0.00     0.010 A 
ATOM     31  C   UNL A   1      42.547  25.270  28.490  1.00  0.00     0.010 A 
ATOM     32  C   UNL A   1      42.246  26.617  28.215  1.00  0.00    -0.014 A 
BRANCH  32  33
ATOM     33  C   UNL A   1      41.837  27.548  29.302  1.00  0.00     0.031 A 
ATOM     34  C   UNL A   1      42.638  27.613  30.574  1.00  0.00     0.074 A 
ATOM     35  C   UNL A   1      40.776  28.364  29.149  1.00  0.00     0.049 A 
ATOM     36  N   UNL A   1      42.365  28.232  31.694  1.00  0.00    -0.248 NA
ATOM     37  C   UNL A   1      43.912  26.877  30.589  1.00  0.00     0.031 C 
ATOM     38  C   UNL A   1      39.939  28.455  27.953  1.00  0.00     0.029 A 
ATOM     39  N   UNL A   1      40.223  29.280  30.011  1.00  0.00    -0.354 N 
ATOM     40  C   UNL A   1      43.396  27.907  32.567  1.00  0.00     0.074 A 
ATOM     41  C   UNL A   1      44.309  27.049  31.842  1.00  0.00     0.031 C 
ATOM     42  C   UNL A   1      39.000  29.395  28.144  1.00  0.00     0.029 A 
ATOM     43  C   UNL A   1      39.121  29.920  29.501  1.00  0.00     0.049 A 
ATOM     44  H   UNL A   1      40.584  29.460  30.909  1.00  0.00     0.167 HD
ATOM     45  C   UNL A   1      43.564  28.284  33.856  1.00  0.00     0.037 A 
ATOM     46  C   UNL A   1      38.277  30.802  30.070  1.00  0.00     0.037 A 
ATOM     47  C   UNL A   1      42.696  29.189  34.561  1.00  0.00     0.049 A 
ATOM     48  C   UNL A   1      38.478  31.203  31.503  1.00  0.00     0.074 A 
ATOM     49  C   UNL A   1      42.798  29.642  35.866  1.00  0.00     0.029 A 
ATOM     50  N   UNL A   1      41.576  29.794  34.014  1.00  0.00    -0.354 N 
ATOM     51  N   UNL A   1      39.420  30.836  32.338  1.00  0.00    -0.248 NA
ATOM     52  C   UNL A   1      37.486  32.121  32.080  1.00  0.00     0.031 C 
ATOM     53  C   UNL A   1      41.724  30.506  36.114  1.00  0.00     0.029 A 
ATOM     54  C   UNL A   1      40.972  30.610  34.956  1.00  0.00     0.049 A 
ATOM     55  H   UNL A   1      41.258  29.663  33.091  1.00  0.00     0.167 HD
ATOM     56  C   UNL A   1      39.131  31.471  33.539  1.00  0.00     0.074 A 
ATOM     57  C   UNL A   1      37.941  32.268  33.318  1.00  0.00     0.031 C 
ATOM     58  C   UNL A   1      39.785  31.390  34.722  1.00  0.00     0.037 A 
BRANCH  45  59
ATOM     59  C   UNL A   1      44.714  27.679  34.600  1.00  0.00     0.057 A 
ATOM     60  C   UNL A   1      44.601  26.468  35.294  1.00  0.00     0.134 A 
ATOM     61  C   UNL A   1      45.961  28.318  34.606  1.00  0.00     0.134 A 
ATOM     62  F   UNL A   1      43.429  25.819  35.340  1.00  0.00    -0.206 F 
ATOM     63  C   UNL A   1      45.685  25.924  35.986  1.00  0.00     0.040 A 
ATOM     64  C   UNL A   1      47.056  27.774  35.279  1.00  0.00     0.040 A 
ATOM     65  F   UNL A   1      46.133  29.480  33.960  1.00  0.00    -0.206 F 
ATOM     66  C   UNL A   1      46.918  26.576  35.975  1.00  0.00     0.006 A 
ENDBRANCH  45  59
BRANCH  46  67
ATOM     67  C   UNL A   1      37.131  31.328  29.291  1.00  0.00     0.057 A 
ATOM     68  C   UNL A   1      37.157  32.616  28.744  1.00  0.00     0.134 A 
ATOM     69  C   UNL A   1      35.987  30.552  29.067  1.00  0.00     0.134 A 
ATOM     70  F   UNL A   1      38.215  33.414  28.949  1.00  0.00    -0.206 F 
ATOM     71  C   UNL A   1      36.086  33.114  28.002  1.00  0.00     0.040 A 
ATOM     72  C   UNL A   1      34.918  31.029  28.308  1.00  0.00     0.040 A 
ATOM     73  F   UNL A   1      35.904  29.311  29.567  1.00  0.00    -0.206 F 
ATOM     74  C   UNL A   1      34.965  32.317  27.776  1.00  0.00     0.006 A 
ENDBRANCH  46  67
BRANCH  58  75
ATOM     75  C   UNL A   1      39.230  32.183  35.863  1.00  0.00     0.057 A 
ATOM     76  C   UNL A   1      39.661  33.491  36.120  1.00  0.00     0.134 A 
ATOM     77  C   UNL A   1      38.234  31.651  36.690  1.00  0.00     0.134 A 
ATOM     78  F   UNL A   1      40.621  34.050  35.370  1.00  0.00    -0.206 F 
ATOM     79  C   UNL A   1      39.128  34.238  37.171  1.00  0.00     0.040 A 
ATOM     80  C   UNL A   1      37.683  32.394  37.734  1.00  0.00     0.040 A 
ATOM     81  F   UNL A   1      37.778  30.406  36.491  1.00  0.00    -0.206 F 
ATOM     82  C   UNL A   1      38.132  33.691  37.979  1.00  0.00     0.006 A 
ENDBRANCH  58  75
ENDBRANCH  32  33
ENDBRANCH  25  27
ENDBRANCH  24  25
ENDBRANCH  23  24
ENDBRANCH   1  23
TORSDOF 15
ENDMDL
MODEL 2
REMARK VINA RESULT:     -10.5      3.879      8.132
REMARK SMILES COc1ccc2c(c1)[C@H]([NH2+][C@@H](C(=O)OCCOC(=O)c1ccc(-c3c4nc(c(-c5c(F)cccc5F)c5ccc([nH]5)c(-c5c(F)cccc5F)c5nc(c(-c6c(F)cccc6F)c6ccc3[nH]6)C=C5)C=C4)cc1)C1CC1)CC2
REMARK SMILES IDX 15 1 14 2 12 3 13 4 11 5 10 6 9 9 3 10 4 11 8 12 5 13 7 14
REMARK SMILES IDX 6 15 78 16 77 17 2 18 1 19 74 20 75 21 76 22 16 23 17 24
REMARK SMILES IDX 18 25 19 26 20 27 21 28 73 29 22 30 72 31 23 32 24 33 25 34
REMARK SMILES IDX 66 35 26 36 71 37 65 38 67 39 27 40 70 41 64 42 63 43 28 45
REMARK SMILES IDX 54 46 37 47 53 48 38 49 41 50 52 51 68 52 39 53 40 54 51 56
REMARK SMILES IDX 69 57 42 58 29 59 30 60 35 61 31 62 32 63 34 64 36 65 33 66
REMARK SMILES IDX 55 67 56 68 61 69 57 70 58 71 60 72 62 73 59 74 43 75 44 76
REMARK SMILES IDX 49 77 45 78 46 79 48 80 50 81 47 82
REMARK H PARENT 10 7 10 8 67 44 41 55
REMARK Flexibility Score: inf
ROOT
ATOM      1  C   UNL A   1      34.981  22.565  25.700  1.00  0.00     0.274 C 
ENDROOT
BRANCH   1   2
ATOM      2  O   UNL A   1      34.369  22.645  27.006  1.00  0.00    -0.458 OA
BRANCH   2   3
ATOM      3  C   UNL A   1      33.062  23.038  27.040  1.00  0.00     0.365 C 
ATOM      4  O   UNL A   1      32.295  22.770  27.962  1.00  0.00    -0.245 OA
BRANCH   3   5
ATOM      5  C   UNL A   1      32.631  23.878  25.794  1.00  0.00     0.297 C 
BRANCH   5   6
ATOM      6  N   UNL A   1      32.325  25.269  26.178  1.00  0.00    -0.328 N 
ATOM      7  H   UNL A   1      31.526  25.567  25.618  1.00  0.00     0.347 HD
ATOM      8  H   UNL A   1      32.175  25.222  27.186  1.00  0.00     0.347 HD
BRANCH   6   9
ATOM      9  C   UNL A   1      33.363  26.280  26.019  1.00  0.00     0.215 C 
ATOM     10  C   UNL A   1      33.565  26.835  22.201  1.00  0.00     0.119 A 
ATOM     11  C   UNL A   1      33.766  28.225  22.224  1.00  0.00     0.047 A 
ATOM     12  C   UNL A   1      33.386  26.125  23.398  1.00  0.00     0.056 A 
ATOM     13  C   UNL A   1      33.853  28.909  23.435  1.00  0.00     0.008 A 
ATOM     14  C   UNL A   1      33.455  26.809  24.604  1.00  0.00     0.016 A 
ATOM     15  C   UNL A   1      33.708  28.189  24.607  1.00  0.00    -0.038 A 
ATOM     16  C   UNL A   1      33.841  28.709  25.998  1.00  0.00     0.042 C 
ATOM     17  C   UNL A   1      33.139  27.604  26.785  1.00  0.00     0.075 C 
BRANCH  10  18
ATOM     18  O   UNL A   1      33.509  26.086  21.054  1.00  0.00    -0.497 OA
ATOM     19  C   UNL A   1      32.213  25.602  20.716  1.00  0.00     0.278 C 
ENDBRANCH  10  18
ENDBRANCH   6   9
ENDBRANCH   5   6
BRANCH   5  20
ATOM     20  C   UNL A   1      31.481  23.215  25.060  1.00  0.00     0.059 C 
ATOM     21  C   UNL A   1      30.713  23.934  23.968  1.00  0.00     0.011 C 
ATOM     22  C   UNL A   1      31.626  22.813  23.602  1.00  0.00     0.011 C 
ENDBRANCH   5  20
ENDBRANCH   3   5
ENDBRANCH   2   3
ENDBRANCH   1   2
BRANCH   1  23
ATOM     23  C   UNL A   1      35.896  21.348  25.616  1.00  0.00     0.275 C 
BRANCH  23  24
ATOM     24  O   UNL A   1      37.137  21.742  25.007  1.00  0.00    -0.458 OA
BRANCH  24  25
ATOM     25  C   UNL A   1      38.258  21.275  25.600  1.00  0.00     0.338 C 
ATOM     26  O   UNL A   1      38.699  20.141  25.585  1.00  0.00    -0.246 OA
BRANCH  25  27
ATOM     27  C   UNL A   1      38.946  22.395  26.260  1.00  0.00     0.060 A 
ATOM     28  C   UNL A   1      38.451  23.685  26.086  1.00  0.00     0.016 A 
ATOM     29  C   UNL A   1      40.143  22.186  26.941  1.00  0.00     0.016 A 
ATOM     30  C   UNL A   1      39.190  24.781  26.522  1.00  0.00     0.010 A 
ATOM     31  C   UNL A   1      40.843  23.285  27.454  1.00  0.00     0.010 A 
ATOM     32  C   UNL A   1      40.391  24.596  27.218  1.00  0.00    -0.014 A 
BRANCH  32  33
ATOM     33  C   UNL A   1      41.205  25.773  27.627  1.00  0.00     0.031 A 
ATOM     34  C   UNL A   1      40.615  26.809  28.544  1.00  0.00     0.074 A 
ATOM     35  C   UNL A   1      42.480  25.908  27.215  1.00  0.00     0.049 A 
ATOM     36  N   UNL A   1      41.092  27.978  28.890  1.00  0.00    -0.248 NA
ATOM     37  C   UNL A   1      39.310  26.491  29.146  1.00  0.00     0.031 C 
ATOM     38  C   UNL A   1      43.206  24.958  26.372  1.00  0.00     0.029 A 
ATOM     39  N   UNL A   1      43.396  26.903  27.458  1.00  0.00    -0.354 N 
ATOM     40  C   UNL A   1      40.120  28.560  29.694  1.00  0.00     0.074 A 
ATOM     41  C   UNL A   1      39.032  27.611  29.798  1.00  0.00     0.031 C 
ATOM     42  C   UNL A   1      44.461  25.399  26.194  1.00  0.00     0.029 A 
ATOM     43  C   UNL A   1      44.608  26.697  26.846  1.00  0.00     0.049 A 
ATOM     44  H   UNL A   1      43.202  27.688  28.019  1.00  0.00     0.167 HD
ATOM     45  C   UNL A   1      40.130  29.778  30.287  1.00  0.00     0.037 A 
ATOM     46  C   UNL A   1      45.702  27.479  26.781  1.00  0.00     0.037 A 
ATOM     47  C   UNL A   1      41.234  30.698  30.242  1.00  0.00     0.049 A 
ATOM     48  C   UNL A   1      45.691  28.828  27.442  1.00  0.00     0.074 A 
ATOM     49  C   UNL A   1      41.340  31.948  30.828  1.00  0.00     0.029 A 
ATOM     50  N   UNL A   1      42.433  30.459  29.589  1.00  0.00    -0.354 N 
ATOM     51  N   UNL A   1      44.739  29.395  28.143  1.00  0.00    -0.248 NA
ATOM     52  C   UNL A   1      46.895  29.655  27.280  1.00  0.00     0.031 C 
ATOM     53  C   UNL A   1      42.597  32.475  30.509  1.00  0.00     0.029 A 
ATOM     54  C   UNL A   1      43.281  31.542  29.748  1.00  0.00     0.049 A 
ATOM     55  H   UNL A   1      42.648  29.641  29.086  1.00  0.00     0.167 HD
ATOM     56  C   UNL A   1      45.225  30.645  28.500  1.00  0.00     0.074 A 
ATOM     57  C   UNL A   1      46.566  30.745  27.962  1.00  0.00     0.031 C 
ATOM     58  C   UNL A   1      44.610  31.628  29.201  1.00  0.00     0.037 A 
BRANCH  45  59
ATOM     59  C   UNL A   1      38.883  30.199  31.002  1.00  0.00     0.057 A 
ATOM     60  C   UNL A   1      37.858  30.906  30.362  1.00  0.00     0.134 A 
ATOM     61  C   UNL A   1      38.704  29.875  32.353  1.00  0.00     0.134 A 
ATOM     62  F   UNL A   1      37.979  31.261  29.075  1.00  0.00    -0.206 F 
ATOM     63  C   UNL A   1      36.706  31.295  31.049  1.00  0.00     0.040 A 
ATOM     64  C   UNL A   1      37.550  30.241  33.044  1.00  0.00     0.040 A 
ATOM     65  F   UNL A   1      39.650  29.198  33.021  1.00  0.00    -0.206 F 
ATOM     66  C   UNL A   1      36.548  30.958  32.393  1.00  0.00     0.006 A 
ENDBRANCH  45  59
BRANCH  46  67
ATOM     67  C   UNL A   1      46.888  27.021  26.018  1.00  0.00     0.057 A 
ATOM     68  C   UNL A   1      47.886  26.249  26.624  1.00  0.00     0.134 A 
ATOM     69  C   UNL A   1      47.045  27.335  24.663  1.00  0.00     0.134 A 
ATOM     70  F   UNL A   1      47.801  25.940  27.926  1.00  0.00    -0.206 F 
ATOM     71  C   UNL A   1      48.999  25.806  25.909  1.00  0.00     0.040 A 
ATOM     72  C   UNL A   1      48.142  26.881  23.930  1.00  0.00     0.040 A 
ATOM     73  F   UNL A   1      46.123  28.073  24.029  1.00  0.00    -0.206 F 
ATOM     74  C   UNL A   1      49.126  26.116  24.556  1.00  0.00     0.006 A 
ENDBRANCH  46  67
BRANCH  58  75
ATOM     75  C   UNL A   1      45.381  32.891  29.424  1.00  0.00     0.057 A 
ATOM     76  C   UNL A   1      45.278  33.974  28.542  1.00  0.00     0.134 A 
ATOM     77  C   UNL A   1      46.206  33.040  30.545  1.00  0.00     0.134 A 
ATOM     78  F   UNL A   1      44.514  33.885  27.443  1.00  0.00    -0.206 F 
ATOM     79  C   UNL A   1      45.981  35.159  28.761  1.00  0.00     0.040 A 
ATOM     80  C   UNL A   1      46.901  34.226  30.783  1.00  0.00     0.040 A 
ATOM     81  F   UNL A   1      46.341  32.040  31.428  1.00  0.00    -0.206 F 
ATOM     82  C   UNL A   1      46.792  35.289  29.888  1.00  0.00     0.006 A 
ENDBRANCH  58  75
ENDBRANCH  32  33
ENDBRANCH  25  27
ENDBRANCH  24  25
ENDBRANCH  23  24
ENDBRANCH   1  23
TORSDOF 15
ENDMDL
MODEL 3
REMARK VINA RESULT:     -10.4      5.227     11.495
REMARK SMILES COc1ccc2c(c1)[C@H]([NH2+][C@@H](C(=O)OCCOC(=O)c1ccc(-c3c4nc(c(-c5c(F)cccc5F)c5ccc([nH]5)c(-c5c(F)cccc5F)c5nc(c(-c6c(F)cccc6F)c6ccc3[nH]6)C=C5)C=C4)cc1)C1CC1)CC2
REMARK SMILES IDX 15 1 14 2 12 3 13 4 11 5 10 6 9 9 3 10 4 11 8 12 5 13 7 14
REMARK SMILES IDX 6 15 78 16 77 17 2 18 1 19 74 20 75 21 76 22 16 23 17 24
REMARK SMILES IDX 18 25 19 26 20 27 21 28 73 29 22 30 72 31 23 32 24 33 25 34
REMARK SMILES IDX 66 35 26 36 71 37 65 38 67 39 27 40 70 41 64 42 63 43 28 45
REMARK SMILES IDX 54 46 37 47 53 48 38 49 41 50 52 51 68 52 39 53 40 54 51 56
REMARK SMILES IDX 69 57 42 58 29 59 30 60 35 61 31 62 32 63 34 64 36 65 33 66
REMARK SMILES IDX 55 67 56 68 61 69 57 70 58 71 60 72 62 73 59 74 43 75 44 76
REMARK SMILES IDX 49 77 45 78 46 79 48 80 50 81 47 82
REMARK H PARENT 10 7 10 8 67 44 41 55
REMARK Flexibility Score: inf
ROOT
ATOM      1  C   UNL A   1      33.653  33.284  28.199  1.00  0.00     0.274 C 
ENDROOT
BRANCH   1   2
ATOM      2  O   UNL A   1      33.479  33.698  29.572  1.00  0.00    -0.458 OA
BRANCH   2   3
ATOM      3  C   UNL A   1      33.644  35.029  29.830  1.00  0.00     0.365 C 
ATOM      4  O   UNL A   1      33.122  35.920  29.165  1.00  0.00    -0.245 OA
BRANCH   3   5
ATOM      5  C   UNL A   1      34.555  35.314  31.069  1.00  0.00     0.297 C 
BRANCH   5   6
ATOM      6  N   UNL A   1      35.380  34.136  31.396  1.00  0.00    -0.328 N 
ATOM      7  H   UNL A   1      35.084  33.806  32.315  1.00  0.00     0.347 HD
ATOM      8  H   UNL A   1      35.224  33.497  30.617  1.00  0.00     0.347 HD
BRANCH   6   9
ATOM      9  C   UNL A   1      36.829  34.293  31.443  1.00  0.00     0.215 C 
ATOM     10  C   UNL A   1      37.929  32.047  34.387  1.00  0.00     0.119 A 
ATOM     11  C   UNL A   1      39.113  31.553  33.814  1.00  0.00     0.047 A 
ATOM     12  C   UNL A   1      37.103  32.920  33.665  1.00  0.00     0.056 A 
ATOM     13  C   UNL A   1      39.515  31.970  32.546  1.00  0.00     0.008 A 
ATOM     14  C   UNL A   1      37.494  33.322  32.395  1.00  0.00     0.016 A 
ATOM     15  C   UNL A   1      38.705  32.858  31.860  1.00  0.00    -0.038 A 
ATOM     16  C   UNL A   1      38.986  33.483  30.536  1.00  0.00     0.042 C 
ATOM     17  C   UNL A   1      37.587  33.951  30.140  1.00  0.00     0.075 C 
BRANCH  10  18
ATOM     18  O   UNL A   1      37.488  31.717  35.642  1.00  0.00    -0.497 OA
ATOM     19  C   UNL A   1      38.423  31.961  36.689  1.00  0.00     0.278 C 
ENDBRANCH  10  18
ENDBRANCH   6   9
ENDBRANCH   5   6
BRANCH   5  20
ATOM     20  C   UNL A   1      33.733  35.790  32.253  1.00  0.00     0.059 C 
ATOM     21  C   UNL A   1      34.344  35.958  33.630  1.00  0.00     0.011 C 
ATOM     22  C   UNL A   1      33.965  37.169  32.846  1.00  0.00     0.011 C 
ENDBRANCH   5  20
ENDBRANCH   3   5
ENDBRANCH   2   3
ENDBRANCH   1   2
BRANCH   1  23
ATOM     23  C   UNL A   1      35.030  32.659  28.003  1.00  0.00     0.275 C 
BRANCH  23  24
ATOM     24  O   UNL A   1      34.993  31.300  28.470  1.00  0.00    -0.458 OA
BRANCH  24  25
ATOM     25  C   UNL A   1      35.617  31.062  29.644  1.00  0.00     0.338 C 
ATOM     26  O   UNL A   1      35.237  31.339  30.766  1.00  0.00    -0.246 OA
BRANCH  25  27
ATOM     27  C   UNL A   1      36.867  30.336  29.376  1.00  0.00     0.060 A 
ATOM     28  C   UNL A   1      37.519  29.706  30.434  1.00  0.00     0.016 A 
ATOM     29  C   UNL A   1      37.457  30.385  28.115  1.00  0.00     0.016 A 
ATOM     30  C   UNL A   1      38.800  29.190  30.257  1.00  0.00     0.010 A 
ATOM     31  C   UNL A   1      38.709  29.791  27.918  1.00  0.00     0.010 A 
ATOM     32  C   UNL A   1      39.409  29.219  28.996  1.00  0.00    -0.014 A 
BRANCH  32  33
ATOM     33  C   UNL A   1      40.801  28.720  28.829  1.00  0.00     0.031 A 
ATOM     34  C   UNL A   1      41.962  29.650  29.054  1.00  0.00     0.074 A 
ATOM     35  C   UNL A   1      41.040  27.433  28.510  1.00  0.00     0.049 A 
ATOM     36  N   UNL A   1      43.234  29.462  28.809  1.00  0.00    -0.248 NA
ATOM     37  C   UNL A   1      41.650  30.969  29.626  1.00  0.00     0.031 C 
ATOM     38  C   UNL A   1      40.020  26.403  28.316  1.00  0.00     0.029 A 
ATOM     39  N   UNL A   1      42.225  26.772  28.298  1.00  0.00    -0.354 N 
ATOM     40  C   UNL A   1      43.862  30.659  29.133  1.00  0.00     0.074 A 
ATOM     41  C   UNL A   1      42.834  31.561  29.607  1.00  0.00     0.031 C 
ATOM     42  C   UNL A   1      40.623  25.234  28.044  1.00  0.00     0.029 A 
ATOM     43  C   UNL A   1      42.066  25.448  27.971  1.00  0.00     0.049 A 
ATOM     44  H   UNL A   1      43.106  27.206  28.374  1.00  0.00     0.167 HD
ATOM     45  C   UNL A   1      45.175  30.978  29.037  1.00  0.00     0.037 A 
ATOM     46  C   UNL A   1      42.971  24.516  27.615  1.00  0.00     0.037 A 
ATOM     47  C   UNL A   1      46.209  30.065  28.630  1.00  0.00     0.049 A 
ATOM     48  C   UNL A   1      44.421  24.893  27.511  1.00  0.00     0.074 A 
ATOM     49  C   UNL A   1      47.570  30.296  28.520  1.00  0.00     0.029 A 
ATOM     50  N   UNL A   1      45.999  28.740  28.283  1.00  0.00    -0.354 N 
ATOM     51  N   UNL A   1      44.993  26.047  27.755  1.00  0.00    -0.248 NA
ATOM     52  C   UNL A   1      45.347  23.846  27.056  1.00  0.00     0.031 C 
ATOM     53  C   UNL A   1      48.180  29.114  28.084  1.00  0.00     0.029 A 
ATOM     54  C   UNL A   1      47.203  28.142  27.950  1.00  0.00     0.049 A 
ATOM     55  H   UNL A   1      45.123  28.291  28.275  1.00  0.00     0.167 HD
ATOM     56  C   UNL A   1      46.342  25.868  27.479  1.00  0.00     0.074 A 
ATOM     57  C   UNL A   1      46.509  24.487  27.074  1.00  0.00     0.031 C 
ATOM     58  C   UNL A   1      47.350  26.770  27.543  1.00  0.00     0.037 A 
BRANCH  45  59
ATOM     59  C   UNL A   1      45.556  32.393  29.342  1.00  0.00     0.057 A 
ATOM     60  C   UNL A   1      45.949  32.803  30.622  1.00  0.00     0.134 A 
ATOM     61  C   UNL A   1      45.544  33.358  28.327  1.00  0.00     0.134 A 
ATOM     62  F   UNL A   1      45.963  31.929  31.639  1.00  0.00    -0.206 F 
ATOM     63  C   UNL A   1      46.294  34.129  30.886  1.00  0.00     0.040 A 
ATOM     64  C   UNL A   1      45.906  34.682  28.574  1.00  0.00     0.040 A 
ATOM     65  F   UNL A   1      45.179  33.029  27.079  1.00  0.00    -0.206 F 
ATOM     66  C   UNL A   1      46.278  35.072  29.859  1.00  0.00     0.006 A 
ENDBRANCH  45  59
BRANCH  46  67
ATOM     67  C   UNL A   1      42.520  23.144  27.282  1.00  0.00     0.057 A 
ATOM     68  C   UNL A   1      42.211  22.220  28.285  1.00  0.00     0.134 A 
ATOM     69  C   UNL A   1      42.378  22.729  25.952  1.00  0.00     0.134 A 
ATOM     70  F   UNL A   1      42.354  22.553  29.576  1.00  0.00    -0.206 F 
ATOM     71  C   UNL A   1      41.777  20.929  27.979  1.00  0.00     0.040 A 
ATOM     72  C   UNL A   1      41.925  21.449  25.631  1.00  0.00     0.040 A 
ATOM     73  F   UNL A   1      42.661  23.570  24.947  1.00  0.00    -0.206 F 
ATOM     74  C   UNL A   1      41.625  20.544  26.648  1.00  0.00     0.006 A 
ENDBRANCH  46  67
BRANCH  58  75
ATOM     75  C   UNL A   1      48.718  26.291  27.168  1.00  0.00     0.057 A 
ATOM     76  C   UNL A   1      49.216  26.451  25.869  1.00  0.00     0.134 A 
ATOM     77  C   UNL A   1      49.557  25.698  28.119  1.00  0.00     0.134 A 
ATOM     78  F   UNL A   1      48.454  27.001  24.912  1.00  0.00    -0.206 F 
ATOM     79  C   UNL A   1      50.499  26.024  25.525  1.00  0.00     0.040 A 
ATOM     80  C   UNL A   1      50.847  25.281  27.790  1.00  0.00     0.040 A 
ATOM     81  F   UNL A   1      49.137  25.522  29.380  1.00  0.00    -0.206 F 
ATOM     82  C   UNL A   1      51.320  25.441  26.489  1.00  0.00     0.006 A 
ENDBRANCH  58  75
ENDBRANCH  32  33
ENDBRANCH  25  27
ENDBRANCH  24  25
ENDBRANCH  23  24
ENDBRANCH   1  23
TORSDOF 15
ENDMDL
