MODEL 1
REMARK VINA RESULT:     -13.0      0.000      0.000
REMARK SMILES CS(=O)(=O)c1ccc(C2=NN(c3ccc(C(=O)OCCOC(=O)c4ccc(-c5c6nc(c(-c7c(F)cccc7F)c7ccc([nH]7)c(-c7c(F)cccc7F)c7nc(c(-c8c(F)cccc8F)c8ccc5[nH]8)C=C7)C=C6)cc4)cc3)[C@H](c3cccs3)C2)cc1
REMARK SMILES IDX 19 1 18 2 16 3 17 4 15 5 12 6 13 7 79 8 14 9 78 10 11 11
REMARK SMILES IDX 9 12 10 13 86 14 80 15 8 16 5 17 6 18 88 19 7 20 87 21 2 22
REMARK SMILES IDX 1 23 3 24 4 25 81 26 82 27 85 28 83 29 84 30 20 31 21 32
REMARK SMILES IDX 22 33 23 34 24 35 25 36 77 37 26 38 76 39 27 40 28 41 29 42
REMARK SMILES IDX 70 43 30 44 75 45 69 46 71 47 31 48 74 49 68 50 67 51 32 53
REMARK SMILES IDX 58 54 41 55 57 56 42 57 45 58 56 59 72 60 43 61 44 62 55 64
REMARK SMILES IDX 73 65 46 66 33 67 34 68 39 69 35 70 36 71 38 72 40 73 37 74
REMARK SMILES IDX 59 75 60 76 65 77 61 78 62 79 64 80 66 81 63 82 47 83 48 84
REMARK SMILES IDX 53 85 49 86 50 87 52 88 54 89 51 90
REMARK H PARENT 71 52 45 63
REMARK Flexibility Score: inf
ROOT
ATOM      1  C   UNL A   1      40.526  22.744  27.196  1.00  0.00     0.275 C 
ENDROOT
BRANCH   1   2
ATOM      2  O   UNL A   1      39.194  23.023  26.723  1.00  0.00    -0.458 OA
BRANCH   2   3
ATOM      3  C   UNL A   1      38.664  22.110  25.875  1.00  0.00     0.338 C 
ATOM      4  O   UNL A   1      39.118  21.004  25.623  1.00  0.00    -0.246 OA
BRANCH   3   5
ATOM      5  C   UNL A   1      37.379  22.593  25.310  1.00  0.00     0.060 A 
ATOM      6  C   UNL A   1      34.866  23.442  24.382  1.00  0.00     0.060 A 
ATOM      7  C   UNL A   1      35.290  23.778  25.669  1.00  0.00     0.029 A 
ATOM      8  C   UNL A   1      35.734  22.720  23.549  1.00  0.00     0.029 A 
ATOM      9  C   UNL A   1      36.521  23.326  26.142  1.00  0.00     0.018 A 
ATOM     10  C   UNL A   1      36.990  22.304  24.001  1.00  0.00     0.018 A 
BRANCH   6  11
ATOM     11  N   UNL A   1      33.555  23.679  23.974  1.00  0.00    -0.257 N 
ATOM     12  C   UNL A   1      31.848  24.944  23.891  1.00  0.00     0.071 C 
ATOM     13  N   UNL A   1      33.133  24.940  23.716  1.00  0.00    -0.176 NA
ATOM     14  C   UNL A   1      31.254  23.675  24.441  1.00  0.00     0.091 C 
ATOM     15  C   UNL A   1      32.504  22.793  24.493  1.00  0.00     0.154 C 
BRANCH  12  16
ATOM     16  C   UNL A   1      31.005  26.103  23.544  1.00  0.00    -0.002 A 
ATOM     17  C   UNL A   1      29.339  28.259  22.986  1.00  0.00     0.067 A 
ATOM     18  C   UNL A   1      28.811  27.126  23.609  1.00  0.00     0.021 A 
ATOM     19  C   UNL A   1      30.688  28.314  22.621  1.00  0.00     0.021 A 
ATOM     20  C   UNL A   1      29.648  26.045  23.884  1.00  0.00     0.011 A 
ATOM     21  C   UNL A   1      31.529  27.234  22.909  1.00  0.00     0.011 A 
BRANCH  17  22
ATOM     22  S   UNL A   1      28.261  29.631  22.641  1.00  0.00     0.175 S 
ATOM     23  C   UNL A   1      29.021  30.996  23.482  1.00  0.00     0.163 C 
ATOM     24  O   UNL A   1      26.994  29.345  23.283  1.00  0.00    -0.224 OA
ATOM     25  O   UNL A   1      28.338  29.902  21.217  1.00  0.00    -0.224 OA
ENDBRANCH  17  22
ENDBRANCH  12  16
BRANCH  15  26
ATOM     26  C   UNL A   1      32.442  21.462  23.775  1.00  0.00     0.030 A 
ATOM     27  C   UNL A   1      32.134  21.276  22.435  1.00  0.00     0.017 A 
ATOM     28  S   UNL A   1      32.583  19.959  24.583  1.00  0.00    -0.147 S 
ATOM     29  C   UNL A   1      31.987  19.904  22.089  1.00  0.00     0.012 A 
ATOM     30  C   UNL A   1      32.222  19.079  23.163  1.00  0.00     0.065 A 
ENDBRANCH  15  26
ENDBRANCH   6  11
ENDBRANCH   3   5
ENDBRANCH   2   3
ENDBRANCH   1   2
BRANCH   1  31
ATOM     31  C   UNL A   1      41.555  23.600  26.459  1.00  0.00     0.275 C 
BRANCH  31  32
ATOM     32  O   UNL A   1      40.901  24.685  25.776  1.00  0.00    -0.458 OA
BRANCH  32  33
ATOM     33  C   UNL A   1      41.587  25.850  25.738  1.00  0.00     0.338 C 
ATOM     34  O   UNL A   1      42.438  26.193  24.936  1.00  0.00    -0.246 OA
BRANCH  33  35
ATOM     35  C   UNL A   1      41.135  26.716  26.835  1.00  0.00     0.060 A 
ATOM     36  C   UNL A   1      41.714  27.973  26.983  1.00  0.00     0.016 A 
ATOM     37  C   UNL A   1      40.241  26.240  27.792  1.00  0.00     0.016 A 
ATOM     38  C   UNL A   1      41.463  28.736  28.120  1.00  0.00     0.010 A 
ATOM     39  C   UNL A   1      39.928  27.039  28.896  1.00  0.00     0.010 A 
ATOM     40  C   UNL A   1      40.559  28.285  29.088  1.00  0.00    -0.014 A 
BRANCH  40  41
ATOM     41  C   UNL A   1      40.309  29.079  30.323  1.00  0.00     0.031 A 
ATOM     42  C   UNL A   1      39.189  30.085  30.354  1.00  0.00     0.074 A 
ATOM     43  C   UNL A   1      41.073  28.906  31.420  1.00  0.00     0.049 A 
ATOM     44  N   UNL A   1      38.939  31.021  31.234  1.00  0.00    -0.248 NA
ATOM     45  C   UNL A   1      38.233  30.041  29.236  1.00  0.00     0.031 C 
ATOM     46  C   UNL A   1      42.154  27.930  31.557  1.00  0.00     0.029 A 
ATOM     47  N   UNL A   1      41.058  29.555  32.631  1.00  0.00    -0.354 N 
ATOM     48  C   UNL A   1      37.838  31.714  30.747  1.00  0.00     0.074 A 
ATOM     49  C   UNL A   1      37.466  31.090  29.495  1.00  0.00     0.031 C 
ATOM     50  C   UNL A   1      42.684  28.028  32.786  1.00  0.00     0.029 A 
ATOM     51  C   UNL A   1      42.040  29.129  33.494  1.00  0.00     0.049 A 
ATOM     52  H   UNL A   1      40.406  30.257  32.858  1.00  0.00     0.167 HD
ATOM     53  C   UNL A   1      37.200  32.777  31.293  1.00  0.00     0.037 A 
ATOM     54  C   UNL A   1      42.416  29.602  34.697  1.00  0.00     0.037 A 
ATOM     55  C   UNL A   1      37.533  33.355  32.569  1.00  0.00     0.049 A 
ATOM     56  C   UNL A   1      41.714  30.801  35.271  1.00  0.00     0.074 A 
ATOM     57  C   UNL A   1      36.932  34.421  33.217  1.00  0.00     0.029 A 
ATOM     58  N   UNL A   1      38.546  32.901  33.400  1.00  0.00    -0.354 N 
ATOM     59  N   UNL A   1      40.715  31.488  34.773  1.00  0.00    -0.248 NA
ATOM     60  C   UNL A   1      42.205  31.301  36.562  1.00  0.00     0.031 C 
ATOM     61  C   UNL A   1      37.603  34.632  34.427  1.00  0.00     0.029 A 
ATOM     62  C   UNL A   1      38.594  33.673  34.550  1.00  0.00     0.049 A 
ATOM     63  H   UNL A   1      39.142  32.144  33.202  1.00  0.00     0.167 HD
ATOM     64  C   UNL A   1      40.450  32.493  35.694  1.00  0.00     0.074 A 
ATOM     65  C   UNL A   1      41.382  32.316  36.789  1.00  0.00     0.031 C 
ATOM     66  C   UNL A   1      39.521  33.476  35.634  1.00  0.00     0.037 A 
BRANCH  53  67
ATOM     67  C   UNL A   1      36.096  33.410  30.497  1.00  0.00     0.057 A 
ATOM     68  C   UNL A   1      34.747  33.260  30.839  1.00  0.00     0.134 A 
ATOM     69  C   UNL A   1      36.398  34.217  29.391  1.00  0.00     0.134 A 
ATOM     70  F   UNL A   1      34.391  32.491  31.878  1.00  0.00    -0.206 F 
ATOM     71  C   UNL A   1      33.735  33.872  30.096  1.00  0.00     0.040 A 
ATOM     72  C   UNL A   1      35.396  34.854  28.656  1.00  0.00     0.040 A 
ATOM     73  F   UNL A   1      37.671  34.409  29.015  1.00  0.00    -0.206 F 
ATOM     74  C   UNL A   1      34.060  34.677  29.005  1.00  0.00     0.006 A 
ENDBRANCH  53  67
BRANCH  54  75
ATOM     75  C   UNL A   1      43.550  28.969  35.417  1.00  0.00     0.057 A 
ATOM     76  C   UNL A   1      44.870  29.368  35.183  1.00  0.00     0.134 A 
ATOM     77  C   UNL A   1      43.339  27.955  36.360  1.00  0.00     0.134 A 
ATOM     78  F   UNL A   1      45.137  30.316  34.273  1.00  0.00    -0.206 F 
ATOM     79  C   UNL A   1      45.941  28.780  35.858  1.00  0.00     0.040 A 
ATOM     80  C   UNL A   1      44.398  27.377  37.061  1.00  0.00     0.040 A 
ATOM     81  F   UNL A   1      42.096  27.527  36.629  1.00  0.00    -0.206 F 
ATOM     82  C   UNL A   1      45.705  27.787  36.807  1.00  0.00     0.006 A 
ENDBRANCH  54  75
BRANCH  66  83
ATOM     83  C   UNL A   1      39.441  34.415  36.800  1.00  0.00     0.057 A 
ATOM     84  C   UNL A   1      38.771  34.070  37.979  1.00  0.00     0.134 A 
ATOM     85  C   UNL A   1      40.080  35.661  36.756  1.00  0.00     0.134 A 
ATOM     86  F   UNL A   1      38.127  32.897  38.077  1.00  0.00    -0.206 F 
ATOM     87  C   UNL A   1      38.725  34.938  39.071  1.00  0.00     0.040 A 
ATOM     88  C   UNL A   1      40.059  36.528  37.847  1.00  0.00     0.040 A 
ATOM     89  F   UNL A   1      40.744  36.048  35.656  1.00  0.00    -0.206 F 
ATOM     90  C   UNL A   1      39.376  36.169  39.008  1.00  0.00     0.006 A 
ENDBRANCH  66  83
ENDBRANCH  40  41
ENDBRANCH  33  35
ENDBRANCH  32  33
ENDBRANCH  31  32
ENDBRANCH   1  31
TORSDOF 15
ENDMDL
MODEL 2
REMARK VINA RESULT:     -12.7      5.408     10.668
REMARK SMILES CS(=O)(=O)c1ccc(C2=NN(c3ccc(C(=O)OCCOC(=O)c4ccc(-c5c6nc(c(-c7c(F)cccc7F)c7ccc([nH]7)c(-c7c(F)cccc7F)c7nc(c(-c8c(F)cccc8F)c8ccc5[nH]8)C=C7)C=C6)cc4)cc3)[C@H](c3cccs3)C2)cc1
REMARK SMILES IDX 19 1 18 2 16 3 17 4 15 5 12 6 13 7 79 8 14 9 78 10 11 11
REMARK SMILES IDX 9 12 10 13 86 14 80 15 8 16 5 17 6 18 88 19 7 20 87 21 2 22
REMARK SMILES IDX 1 23 3 24 4 25 81 26 82 27 85 28 83 29 84 30 20 31 21 32
REMARK SMILES IDX 22 33 23 34 24 35 25 36 77 37 26 38 76 39 27 40 28 41 29 42
REMARK SMILES IDX 70 43 30 44 75 45 69 46 71 47 31 48 74 49 68 50 67 51 32 53
REMARK SMILES IDX 58 54 41 55 57 56 42 57 45 58 56 59 72 60 43 61 44 62 55 64
REMARK SMILES IDX 73 65 46 66 33 67 34 68 39 69 35 70 36 71 38 72 40 73 37 74
REMARK SMILES IDX 59 75 60 76 65 77 61 78 62 79 64 80 66 81 63 82 47 83 48 84
REMARK SMILES IDX 53 85 49 86 50 87 52 88 54 89 51 90
REMARK H PARENT 71 52 45 63
REMARK Flexibility Score: inf
ROOT
ATOM      1  C   UNL A   1      35.425  32.380  28.530  1.00  0.00     0.275 C 
ENDROOT
BRANCH   1   2
ATOM      2  O   UNL A   1      34.886  31.161  27.984  1.00  0.00    -0.458 OA
BRANCH   2   3
ATOM      3  C   UNL A   1      33.597  31.217  27.571  1.00  0.00     0.338 C 
ATOM      4  O   UNL A   1      32.875  32.203  27.580  1.00  0.00    -0.246 OA
BRANCH   3   5
ATOM      5  C   UNL A   1      33.158  29.910  27.021  1.00  0.00     0.060 A 
ATOM      6  C   UNL A   1      32.391  27.486  25.826  1.00  0.00     0.060 A 
ATOM      7  C   UNL A   1      33.703  27.946  25.701  1.00  0.00     0.029 A 
ATOM      8  C   UNL A   1      31.483  28.226  26.597  1.00  0.00     0.029 A 
ATOM      9  C   UNL A   1      34.074  29.166  26.263  1.00  0.00     0.018 A 
ATOM     10  C   UNL A   1      31.861  29.428  27.203  1.00  0.00     0.018 A 
BRANCH   6  11
ATOM     11  N   UNL A   1      31.939  26.397  25.082  1.00  0.00    -0.257 N 
ATOM     12  C   UNL A   1      32.215  24.420  24.349  1.00  0.00     0.071 C 
ATOM     13  N   UNL A   1      32.289  25.135  25.429  1.00  0.00    -0.176 NA
ATOM     14  C   UNL A   1      31.932  25.174  23.078  1.00  0.00     0.091 C 
ATOM     15  C   UNL A   1      31.744  26.586  23.638  1.00  0.00     0.154 C 
BRANCH  12  16
ATOM     16  C   UNL A   1      32.364  22.953  24.359  1.00  0.00    -0.002 A 
ATOM     17  C   UNL A   1      32.687  20.192  24.258  1.00  0.00     0.067 A 
ATOM     18  C   UNL A   1      32.411  20.895  23.083  1.00  0.00     0.021 A 
ATOM     19  C   UNL A   1      32.781  20.856  25.486  1.00  0.00     0.021 A 
ATOM     20  C   UNL A   1      32.247  22.279  23.138  1.00  0.00     0.011 A 
ATOM     21  C   UNL A   1      32.628  22.245  25.536  1.00  0.00     0.011 A 
BRANCH  17  22
ATOM     22  S   UNL A   1      32.894  18.428  24.175  1.00  0.00     0.175 S 
ATOM     23  C   UNL A   1      32.381  18.012  22.528  1.00  0.00     0.163 C 
ATOM     24  O   UNL A   1      31.950  17.847  25.108  1.00  0.00    -0.224 OA
ATOM     25  O   UNL A   1      34.314  18.147  24.271  1.00  0.00    -0.224 OA
ENDBRANCH  17  22
ENDBRANCH  12  16
BRANCH  15  26
ATOM     26  C   UNL A   1      30.452  27.298  23.303  1.00  0.00     0.030 A 
ATOM     27  C   UNL A   1      30.342  28.543  22.701  1.00  0.00     0.017 A 
ATOM     28  S   UNL A   1      28.914  26.718  23.788  1.00  0.00    -0.147 S 
ATOM     29  C   UNL A   1      29.004  29.024  22.669  1.00  0.00     0.012 A 
ATOM     30  C   UNL A   1      28.124  28.119  23.213  1.00  0.00     0.065 A 
ENDBRANCH  15  26
ENDBRANCH   6  11
ENDBRANCH   3   5
ENDBRANCH   2   3
ENDBRANCH   1   2
BRANCH   1  31
ATOM     31  C   UNL A   1      35.377  32.358  30.057  1.00  0.00     0.275 C 
BRANCH  31  32
ATOM     32  O   UNL A   1      36.648  31.941  30.589  1.00  0.00    -0.458 OA
BRANCH  32  33
ATOM     33  C   UNL A   1      36.733  30.641  30.951  1.00  0.00     0.338 C 
ATOM     34  O   UNL A   1      35.955  30.002  31.636  1.00  0.00    -0.246 OA
BRANCH  33  35
ATOM     35  C   UNL A   1      37.941  30.050  30.360  1.00  0.00     0.060 A 
ATOM     36  C   UNL A   1      38.940  29.574  31.205  1.00  0.00     0.016 A 
ATOM     37  C   UNL A   1      38.147  30.088  28.983  1.00  0.00     0.016 A 
ATOM     38  C   UNL A   1      40.178  29.197  30.691  1.00  0.00     0.010 A 
ATOM     39  C   UNL A   1      39.363  29.635  28.459  1.00  0.00     0.010 A 
ATOM     40  C   UNL A   1      40.404  29.214  29.310  1.00  0.00    -0.014 A 
BRANCH  40  41
ATOM     41  C   UNL A   1      41.735  28.843  28.754  1.00  0.00     0.031 A 
ATOM     42  C   UNL A   1      41.983  27.437  28.275  1.00  0.00     0.074 A 
ATOM     43  C   UNL A   1      42.725  29.754  28.671  1.00  0.00     0.049 A 
ATOM     44  N   UNL A   1      43.113  26.854  27.964  1.00  0.00    -0.248 NA
ATOM     45  C   UNL A   1      40.803  26.568  28.143  1.00  0.00     0.031 C 
ATOM     46  C   UNL A   1      42.613  31.165  29.041  1.00  0.00     0.029 A 
ATOM     47  N   UNL A   1      44.026  29.624  28.249  1.00  0.00    -0.354 N 
ATOM     48  C   UNL A   1      42.788  25.537  27.661  1.00  0.00     0.074 A 
ATOM     49  C   UNL A   1      41.356  25.407  27.822  1.00  0.00     0.031 C 
ATOM     50  C   UNL A   1      43.787  31.775  28.812  1.00  0.00     0.029 A 
ATOM     51  C   UNL A   1      44.757  30.783  28.361  1.00  0.00     0.049 A 
ATOM     52  H   UNL A   1      44.399  28.782  27.902  1.00  0.00     0.167 HD
ATOM     53  C   UNL A   1      43.612  24.529  27.287  1.00  0.00     0.037 A 
ATOM     54  C   UNL A   1      46.070  31.014  28.172  1.00  0.00     0.037 A 
ATOM     55  C   UNL A   1      45.028  24.678  27.066  1.00  0.00     0.049 A 
ATOM     56  C   UNL A   1      46.971  29.875  27.786  1.00  0.00     0.074 A 
ATOM     57  C   UNL A   1      45.944  23.720  26.665  1.00  0.00     0.029 A 
ATOM     58  N   UNL A   1      45.727  25.867  27.207  1.00  0.00    -0.354 N 
ATOM     59  N   UNL A   1      46.665  28.620  27.563  1.00  0.00    -0.248 NA
ATOM     60  C   UNL A   1      48.402  30.180  27.646  1.00  0.00     0.031 C 
ATOM     61  C   UNL A   1      47.204  24.323  26.595  1.00  0.00     0.029 A 
ATOM     62  C   UNL A   1      47.065  25.664  26.913  1.00  0.00     0.049 A 
ATOM     63  H   UNL A   1      45.331  26.726  27.476  1.00  0.00     0.167 HD
ATOM     64  C   UNL A   1      47.860  27.989  27.245  1.00  0.00     0.074 A 
ATOM     65  C   UNL A   1      48.894  29.002  27.287  1.00  0.00     0.031 C 
ATOM     66  C   UNL A   1      48.080  26.685  26.950  1.00  0.00     0.037 A 
BRANCH  53  67
ATOM     67  C   UNL A   1      43.012  23.163  27.126  1.00  0.00     0.057 A 
ATOM     68  C   UNL A   1      42.710  22.346  28.221  1.00  0.00     0.134 A 
ATOM     69  C   UNL A   1      42.695  22.679  25.849  1.00  0.00     0.134 A 
ATOM     70  F   UNL A   1      42.999  22.745  29.467  1.00  0.00    -0.206 F 
ATOM     71  C   UNL A   1      42.135  21.085  28.051  1.00  0.00     0.040 A 
ATOM     72  C   UNL A   1      42.097  21.430  25.668  1.00  0.00     0.040 A 
ATOM     73  F   UNL A   1      42.951  23.415  24.758  1.00  0.00    -0.206 F 
ATOM     74  C   UNL A   1      41.821  20.627  26.772  1.00  0.00     0.006 A 
ENDBRANCH  53  67
BRANCH  54  75
ATOM     75  C   UNL A   1      46.619  32.375  28.396  1.00  0.00     0.057 A 
ATOM     76  C   UNL A   1      47.131  32.753  29.642  1.00  0.00     0.134 A 
ATOM     77  C   UNL A   1      46.652  33.327  27.369  1.00  0.00     0.134 A 
ATOM     78  F   UNL A   1      47.104  31.894  30.672  1.00  0.00    -0.206 F 
ATOM     79  C   UNL A   1      47.652  34.029  29.861  1.00  0.00     0.040 A 
ATOM     80  C   UNL A   1      47.193  34.597  27.566  1.00  0.00     0.040 A 
ATOM     81  F   UNL A   1      46.175  33.026  26.152  1.00  0.00    -0.206 F 
ATOM     82  C   UNL A   1      47.692  34.953  28.817  1.00  0.00     0.006 A 
ENDBRANCH  54  75
BRANCH  66  83
ATOM     83  C   UNL A   1      49.486  26.287  26.614  1.00  0.00     0.057 A 
ATOM     84  C   UNL A   1      49.968  26.325  25.300  1.00  0.00     0.134 A 
ATOM     85  C   UNL A   1      50.377  25.903  27.623  1.00  0.00     0.134 A 
ATOM     86  F   UNL A   1      49.158  26.670  24.288  1.00  0.00    -0.206 F 
ATOM     87  C   UNL A   1      51.286  25.979  24.999  1.00  0.00     0.040 A 
ATOM     88  C   UNL A   1      51.702  25.575  27.338  1.00  0.00     0.040 A 
ATOM     89  F   UNL A   1      49.977  25.852  28.903  1.00  0.00    -0.206 F 
ATOM     90  C   UNL A   1      52.159  25.609  26.022  1.00  0.00     0.006 A 
ENDBRANCH  66  83
ENDBRANCH  40  41
ENDBRANCH  33  35
ENDBRANCH  32  33
ENDBRANCH  31  32
ENDBRANCH   1  31
TORSDOF 15
ENDMDL
MODEL 3
REMARK VINA RESULT:     -12.7      1.847      6.448
REMARK SMILES CS(=O)(=O)c1ccc(C2=NN(c3ccc(C(=O)OCCOC(=O)c4ccc(-c5c6nc(c(-c7c(F)cccc7F)c7ccc([nH]7)c(-c7c(F)cccc7F)c7nc(c(-c8c(F)cccc8F)c8ccc5[nH]8)C=C7)C=C6)cc4)cc3)[C@H](c3cccs3)C2)cc1
REMARK SMILES IDX 19 1 18 2 16 3 17 4 15 5 12 6 13 7 79 8 14 9 78 10 11 11
REMARK SMILES IDX 9 12 10 13 86 14 80 15 8 16 5 17 6 18 88 19 7 20 87 21 2 22
REMARK SMILES IDX 1 23 3 24 4 25 81 26 82 27 85 28 83 29 84 30 20 31 21 32
REMARK SMILES IDX 22 33 23 34 24 35 25 36 77 37 26 38 76 39 27 40 28 41 29 42
REMARK SMILES IDX 70 43 30 44 75 45 69 46 71 47 31 48 74 49 68 50 67 51 32 53
REMARK SMILES IDX 58 54 41 55 57 56 42 57 45 58 56 59 72 60 43 61 44 62 55 64
REMARK SMILES IDX 73 65 46 66 33 67 34 68 39 69 35 70 36 71 38 72 40 73 37 74
REMARK SMILES IDX 59 75 60 76 65 77 61 78 62 79 64 80 66 81 63 82 47 83 48 84
REMARK SMILES IDX 53 85 49 86 50 87 52 88 54 89 51 90
REMARK H PARENT 71 52 45 63
REMARK Flexibility Score: inf
ROOT
ATOM      1  C   UNL A   1      42.171  21.070  26.362  1.00  0.00     0.275 C 
ENDROOT
BRANCH   1   2
ATOM      2  O   UNL A   1      40.835  21.417  25.952  1.00  0.00    -0.458 OA
BRANCH   2   3
ATOM      3  C   UNL A   1      40.003  20.378  25.701  1.00  0.00     0.338 C 
ATOM      4  O   UNL A   1      40.317  19.199  25.633  1.00  0.00    -0.246 OA
BRANCH   3   5
ATOM      5  C   UNL A   1      38.598  20.839  25.580  1.00  0.00     0.060 A 
ATOM      6  C   UNL A   1      35.938  21.655  25.186  1.00  0.00     0.060 A 
ATOM      7  C   UNL A   1      36.323  20.347  24.889  1.00  0.00     0.029 A 
ATOM      8  C   UNL A   1      36.887  22.535  25.729  1.00  0.00     0.029 A 
ATOM      9  C   UNL A   1      37.650  19.952  25.050  1.00  0.00     0.018 A 
ATOM     10  C   UNL A   1      38.209  22.132  25.938  1.00  0.00     0.018 A 
BRANCH   6  11
ATOM     11  N   UNL A   1      34.684  22.136  24.816  1.00  0.00    -0.257 N 
ATOM     12  C   UNL A   1      33.267  23.719  24.720  1.00  0.00     0.071 C 
ATOM     13  N   UNL A   1      34.514  23.441  24.495  1.00  0.00    -0.176 NA
ATOM     14  C   UNL A   1      32.457  22.631  25.373  1.00  0.00     0.091 C 
ATOM     15  C   UNL A   1      33.503  21.515  25.430  1.00  0.00     0.154 C 
BRANCH  12  16
ATOM     16  C   UNL A   1      32.661  25.006  24.334  1.00  0.00    -0.002 A 
ATOM     17  C   UNL A   1      31.440  27.426  23.706  1.00  0.00     0.067 A 
ATOM     18  C   UNL A   1      30.717  26.450  24.397  1.00  0.00     0.021 A 
ATOM     19  C   UNL A   1      32.761  27.193  23.308  1.00  0.00     0.021 A 
ATOM     20  C   UNL A   1      31.332  25.238  24.708  1.00  0.00     0.011 A 
ATOM     21  C   UNL A   1      33.379  25.980  23.632  1.00  0.00     0.011 A 
BRANCH  17  22
ATOM     22  S   UNL A   1      30.647  28.968  23.316  1.00  0.00     0.175 S 
ATOM     23  C   UNL A   1      28.952  28.521  23.040  1.00  0.00     0.163 C 
ATOM     24  O   UNL A   1      31.209  29.427  22.062  1.00  0.00    -0.224 OA
ATOM     25  O   UNL A   1      30.687  29.797  24.506  1.00  0.00    -0.224 OA
ENDBRANCH  17  22
ENDBRANCH  12  16
BRANCH  15  26
ATOM     26  C   UNL A   1      33.134  20.189  24.800  1.00  0.00     0.030 A 
ATOM     27  C   UNL A   1      32.765  19.992  23.478  1.00  0.00     0.017 A 
ATOM     28  S   UNL A   1      32.958  18.744  25.704  1.00  0.00    -0.147 S 
ATOM     29  C   UNL A   1      32.312  18.668  23.223  1.00  0.00     0.012 A 
ATOM     30  C   UNL A   1      32.383  17.880  24.347  1.00  0.00     0.065 A 
ENDBRANCH  15  26
ENDBRANCH   6  11
ENDBRANCH   3   5
ENDBRANCH   2   3
ENDBRANCH   1   2
BRANCH   1  31
ATOM     31  C   UNL A   1      43.207  21.719  25.446  1.00  0.00     0.275 C 
BRANCH  31  32
ATOM     32  O   UNL A   1      42.707  22.970  24.937  1.00  0.00    -0.458 OA
BRANCH  32  33
ATOM     33  C   UNL A   1      43.543  24.026  25.056  1.00  0.00     0.338 C 
ATOM     34  O   UNL A   1      44.601  24.212  24.482  1.00  0.00    -0.246 OA
BRANCH  33  35
ATOM     35  C   UNL A   1      42.971  24.994  26.002  1.00  0.00     0.060 A 
ATOM     36  C   UNL A   1      43.441  26.304  25.990  1.00  0.00     0.016 A 
ATOM     37  C   UNL A   1      42.073  24.580  26.983  1.00  0.00     0.016 A 
ATOM     38  C   UNL A   1      43.075  27.193  26.997  1.00  0.00     0.010 A 
ATOM     39  C   UNL A   1      41.644  25.496  27.950  1.00  0.00     0.010 A 
ATOM     40  C   UNL A   1      42.165  26.805  27.986  1.00  0.00    -0.014 A 
BRANCH  40  41
ATOM     41  C   UNL A   1      41.792  27.738  29.085  1.00  0.00     0.031 A 
ATOM     42  C   UNL A   1      42.601  27.763  30.355  1.00  0.00     0.074 A 
ATOM     43  C   UNL A   1      40.736  28.567  28.957  1.00  0.00     0.049 A 
ATOM     44  N   UNL A   1      42.326  28.331  31.502  1.00  0.00    -0.248 NA
ATOM     45  C   UNL A   1      43.882  27.039  30.335  1.00  0.00     0.031 C 
ATOM     46  C   UNL A   1      39.897  28.695  27.766  1.00  0.00     0.029 A 
ATOM     47  N   UNL A   1      40.187  29.458  29.847  1.00  0.00    -0.354 N 
ATOM     48  C   UNL A   1      43.366  27.982  32.356  1.00  0.00     0.074 A 
ATOM     49  C   UNL A   1      44.278  27.156  31.594  1.00  0.00     0.031 C 
ATOM     50  C   UNL A   1      38.955  29.624  27.988  1.00  0.00     0.029 A 
ATOM     51  C   UNL A   1      39.068  30.095  29.365  1.00  0.00     0.049 A 
ATOM     52  H   UNL A   1      40.559  29.625  30.743  1.00  0.00     0.167 HD
ATOM     53  C   UNL A   1      43.539  28.317  33.656  1.00  0.00     0.037 A 
ATOM     54  C   UNL A   1      38.199  30.924  29.974  1.00  0.00     0.037 A 
ATOM     55  C   UNL A   1      42.663  29.191  34.393  1.00  0.00     0.049 A 
ATOM     56  C   UNL A   1      38.394  31.259  31.426  1.00  0.00     0.074 A 
ATOM     57  C   UNL A   1      42.766  29.606  35.709  1.00  0.00     0.029 A 
ATOM     58  N   UNL A   1      41.532  29.798  33.868  1.00  0.00    -0.354 N 
ATOM     59  N   UNL A   1      39.345  30.873  32.241  1.00  0.00    -0.248 NA
ATOM     60  C   UNL A   1      37.384  32.126  32.047  1.00  0.00     0.031 C 
ATOM     61  C   UNL A   1      41.679  30.441  35.990  1.00  0.00     0.029 A 
ATOM     62  C   UNL A   1      40.923  30.577  34.838  1.00  0.00     0.049 A 
ATOM     63  H   UNL A   1      41.212  29.692  32.944  1.00  0.00     0.167 HD
ATOM     64  C   UNL A   1      39.056  31.460  33.466  1.00  0.00     0.074 A 
ATOM     65  C   UNL A   1      37.850  32.240  33.284  1.00  0.00     0.031 C 
ATOM     66  C   UNL A   1      39.728  31.356  34.637  1.00  0.00     0.037 A 
BRANCH  53  67
ATOM     67  C   UNL A   1      44.704  27.709  34.382  1.00  0.00     0.057 A 
ATOM     68  C   UNL A   1      45.953  28.338  34.450  1.00  0.00     0.134 A 
ATOM     69  C   UNL A   1      44.556  26.490  35.057  1.00  0.00     0.134 A 
ATOM     70  F   UNL A   1      46.164  29.500  33.816  1.00  0.00    -0.206 F 
ATOM     71  C   UNL A   1      47.020  27.765  35.145  1.00  0.00     0.040 A 
ATOM     72  C   UNL A   1      45.608  25.919  35.776  1.00  0.00     0.040 A 
ATOM     73  F   UNL A   1      43.384  25.839  35.039  1.00  0.00    -0.206 F 
ATOM     74  C   UNL A   1      46.846  26.556  35.817  1.00  0.00     0.006 A 
ENDBRANCH  53  67
BRANCH  54  75
ATOM     75  C   UNL A   1      37.034  31.454  29.221  1.00  0.00     0.057 A 
ATOM     76  C   UNL A   1      37.040  32.752  28.700  1.00  0.00     0.134 A 
ATOM     77  C   UNL A   1      35.893  30.673  28.998  1.00  0.00     0.134 A 
ATOM     78  F   UNL A   1      38.094  33.556  28.903  1.00  0.00    -0.206 F 
ATOM     79  C   UNL A   1      35.951  33.257  27.988  1.00  0.00     0.040 A 
ATOM     80  C   UNL A   1      34.808  31.156  28.266  1.00  0.00     0.040 A 
ATOM     81  F   UNL A   1      35.826  29.420  29.473  1.00  0.00    -0.206 F 
ATOM     82  C   UNL A   1      34.834  32.454  27.762  1.00  0.00     0.006 A 
ENDBRANCH  54  75
BRANCH  66  83
ATOM     83  C   UNL A   1      39.195  32.132  35.804  1.00  0.00     0.057 A 
ATOM     84  C   UNL A   1      39.554  33.467  36.026  1.00  0.00     0.134 A 
ATOM     85  C   UNL A   1      38.280  31.548  36.689  1.00  0.00     0.134 A 
ATOM     86  F   UNL A   1      40.437  34.077  35.222  1.00  0.00    -0.206 F 
ATOM     87  C   UNL A   1      39.031  34.191  37.098  1.00  0.00     0.040 A 
ATOM     88  C   UNL A   1      37.736  32.268  37.751  1.00  0.00     0.040 A 
ATOM     89  F   UNL A   1      37.893  30.274  36.526  1.00  0.00    -0.206 F 
ATOM     90  C   UNL A   1      38.114  33.593  37.961  1.00  0.00     0.006 A 
ENDBRANCH  66  83
ENDBRANCH  40  41
ENDBRANCH  33  35
ENDBRANCH  32  33
ENDBRANCH  31  32
ENDBRANCH   1  31
TORSDOF 15
ENDMDL
