MODEL 1
REMARK VINA RESULT:     -10.1      0.000      0.000
REMARK SMILES CC[C@](C)(C(=O)OCCOC(=O)c1ccc(-c2c3nc(c(-c4c(F)cccc4F)c4ccc([nH]4)c(-c4c(F)cccc4F)c4nc(c(-c5c(F)cccc5F)c5ccc2[nH]5)C=C4)C=C3)cc1)[C@@H]1CCC[C@@H]1O
REMARK SMILES IDX 8 1 7 2 5 3 6 4 3 5 4 6 2 7 1 8 67 9 68 10 71 11 69 12 70 13
REMARK SMILES IDX 72 14 9 16 10 17 11 18 12 19 13 20 14 21 66 22 15 23 65 24
REMARK SMILES IDX 16 25 17 26 18 27 59 28 19 29 64 30 58 31 60 32 20 33 63 34
REMARK SMILES IDX 57 35 56 36 21 38 47 39 30 40 46 41 31 42 34 43 45 44 61 45
REMARK SMILES IDX 32 46 33 47 44 49 62 50 35 51 22 52 23 53 28 54 24 55 25 56
REMARK SMILES IDX 27 57 29 58 26 59 48 60 49 61 54 62 50 63 51 64 53 65 55 66
REMARK SMILES IDX 52 67 36 68 37 69 42 70 38 71 39 72 41 73 43 74 40 75
REMARK H PARENT 72 15 60 37 34 48
REMARK Flexibility Score: inf
ROOT
ATOM      1  C   UNL A   1      33.134  29.014  24.678  1.00  0.00     0.274 C 
ENDROOT
BRANCH   1   2
ATOM      2  O   UNL A   1      32.648  27.677  24.427  1.00  0.00    -0.462 OA
BRANCH   2   3
ATOM      3  C   UNL A   1      32.986  26.686  25.305  1.00  0.00     0.312 C 
ATOM      4  O   UNL A   1      33.284  26.886  26.475  1.00  0.00    -0.252 OA
BRANCH   3   5
ATOM      5  C   UNL A   1      33.102  25.308  24.597  1.00  0.00     0.070 C 
ATOM      6  C   UNL A   1      33.389  25.533  23.082  1.00  0.00     0.024 C 
BRANCH   5   7
ATOM      7  C   UNL A   1      34.347  24.606  25.218  1.00  0.00     0.015 C 
ATOM      8  C   UNL A   1      34.454  23.095  25.006  1.00  0.00     0.005 C 
ENDBRANCH   5   7
BRANCH   5   9
ATOM      9  C   UNL A   1      31.771  24.421  24.637  1.00  0.00     0.035 C 
ATOM     10  C   UNL A   1      30.774  24.690  23.500  1.00  0.00     0.007 C 
ATOM     11  C   UNL A   1      30.799  24.488  25.830  1.00  0.00     0.118 C 
ATOM     12  C   UNL A   1      29.739  25.681  24.060  1.00  0.00     0.003 C 
ATOM     13  C   UNL A   1      29.979  25.736  25.565  1.00  0.00     0.032 C 
BRANCH  11  14
ATOM     14  O   UNL A   1      31.391  24.456  27.104  1.00  0.00    -0.393 OA
ATOM     15  H   UNL A   1      31.284  25.320  27.532  1.00  0.00     0.210 HD
ENDBRANCH  11  14
ENDBRANCH   5   9
ENDBRANCH   3   5
ENDBRANCH   2   3
ENDBRANCH   1   2
BRANCH   1  16
ATOM     16  C   UNL A   1      32.018  29.873  25.268  1.00  0.00     0.275 C 
BRANCH  16  17
ATOM     17  O   UNL A   1      32.319  30.063  26.657  1.00  0.00    -0.458 OA
BRANCH  17  18
ATOM     18  C   UNL A   1      32.855  31.246  27.021  1.00  0.00     0.338 C 
ATOM     19  O   UNL A   1      32.306  32.340  27.005  1.00  0.00    -0.246 OA
BRANCH  18  20
ATOM     20  C   UNL A   1      34.225  31.009  27.532  1.00  0.00     0.060 A 
ATOM     21  C   UNL A   1      34.642  29.714  27.830  1.00  0.00     0.016 A 
ATOM     22  C   UNL A   1      35.070  32.079  27.831  1.00  0.00     0.016 A 
ATOM     23  C   UNL A   1      35.825  29.501  28.535  1.00  0.00     0.010 A 
ATOM     24  C   UNL A   1      36.318  31.842  28.431  1.00  0.00     0.010 A 
ATOM     25  C   UNL A   1      36.699  30.550  28.839  1.00  0.00    -0.014 A 
BRANCH  25  26
ATOM     26  C   UNL A   1      37.941  30.305  29.644  1.00  0.00     0.031 A 
ATOM     27  C   UNL A   1      39.095  29.545  29.037  1.00  0.00     0.074 A 
ATOM     28  C   UNL A   1      38.105  30.791  30.895  1.00  0.00     0.049 A 
ATOM     29  N   UNL A   1      40.096  28.943  29.630  1.00  0.00    -0.248 NA
ATOM     30  C   UNL A   1      39.117  29.430  27.569  1.00  0.00     0.031 C 
ATOM     31  C   UNL A   1      37.155  31.629  31.628  1.00  0.00     0.029 A 
ATOM     32  N   UNL A   1      39.162  30.664  31.769  1.00  0.00    -0.354 N 
ATOM     33  C   UNL A   1      40.791  28.282  28.624  1.00  0.00     0.074 A 
ATOM     34  C   UNL A   1      40.126  28.592  27.378  1.00  0.00     0.031 C 
ATOM     35  C   UNL A   1      37.704  32.014  32.789  1.00  0.00     0.029 A 
ATOM     36  C   UNL A   1      38.979  31.329  32.959  1.00  0.00     0.049 A 
ATOM     37  H   UNL A   1      39.973  30.144  31.562  1.00  0.00     0.167 HD
ATOM     38  C   UNL A   1      41.872  27.475  28.739  1.00  0.00     0.037 A 
ATOM     39  C   UNL A   1      39.709  31.339  34.092  1.00  0.00     0.037 A 
ATOM     40  C   UNL A   1      42.606  27.264  29.960  1.00  0.00     0.049 A 
ATOM     41  C   UNL A   1      40.912  30.449  34.205  1.00  0.00     0.074 A 
ATOM     42  C   UNL A   1      43.698  26.441  30.185  1.00  0.00     0.029 A 
ATOM     43  N   UNL A   1      42.354  27.925  31.151  1.00  0.00    -0.354 N 
ATOM     44  N   UNL A   1      41.443  29.661  33.302  1.00  0.00    -0.248 NA
ATOM     45  C   UNL A   1      41.583  30.406  35.512  1.00  0.00     0.031 C 
ATOM     46  C   UNL A   1      44.103  26.602  31.515  1.00  0.00     0.029 A 
ATOM     47  C   UNL A   1      43.279  27.543  32.109  1.00  0.00     0.049 A 
ATOM     48  H   UNL A   1      41.626  28.572  31.295  1.00  0.00     0.167 HD
ATOM     49  C   UNL A   1      42.496  29.016  33.937  1.00  0.00     0.074 A 
ATOM     50  C   UNL A   1      42.555  29.533  35.288  1.00  0.00     0.031 C 
ATOM     51  C   UNL A   1      43.326  28.063  33.449  1.00  0.00     0.037 A 
BRANCH  38  52
ATOM     52  C   UNL A   1      42.299  26.710  27.522  1.00  0.00     0.057 A 
ATOM     53  C   UNL A   1      41.794  25.445  27.209  1.00  0.00     0.134 A 
ATOM     54  C   UNL A   1      43.214  27.283  26.625  1.00  0.00     0.134 A 
ATOM     55  F   UNL A   1      40.931  24.835  28.035  1.00  0.00    -0.206 F 
ATOM     56  C   UNL A   1      42.193  24.766  26.054  1.00  0.00     0.040 A 
ATOM     57  C   UNL A   1      43.602  26.626  25.457  1.00  0.00     0.040 A 
ATOM     58  F   UNL A   1      43.733  28.496  26.864  1.00  0.00    -0.206 F 
ATOM     59  C   UNL A   1      43.095  25.360  25.172  1.00  0.00     0.006 A 
ENDBRANCH  38  52
BRANCH  39  60
ATOM     60  C   UNL A   1      39.263  32.151  35.254  1.00  0.00     0.057 A 
ATOM     61  C   UNL A   1      39.692  33.472  35.419  1.00  0.00     0.134 A 
ATOM     62  C   UNL A   1      38.400  31.627  36.224  1.00  0.00     0.134 A 
ATOM     63  F   UNL A   1      40.547  34.020  34.542  1.00  0.00    -0.206 F 
ATOM     64  C   UNL A   1      39.277  34.244  36.506  1.00  0.00     0.040 A 
ATOM     65  C   UNL A   1      37.951  32.396  37.297  1.00  0.00     0.040 A 
ATOM     66  F   UNL A   1      37.959  30.364  36.126  1.00  0.00    -0.206 F 
ATOM     67  C   UNL A   1      38.394  33.709  37.443  1.00  0.00     0.006 A 
ENDBRANCH  39  60
BRANCH  51  68
ATOM     68  C   UNL A   1      44.372  27.530  34.379  1.00  0.00     0.057 A 
ATOM     69  C   UNL A   1      45.622  28.147  34.503  1.00  0.00     0.134 A 
ATOM     70  C   UNL A   1      44.120  26.404  35.170  1.00  0.00     0.134 A 
ATOM     71  F   UNL A   1      45.927  29.222  33.760  1.00  0.00    -0.206 F 
ATOM     72  C   UNL A   1      46.594  27.652  35.372  1.00  0.00     0.040 A 
ATOM     73  C   UNL A   1      45.079  25.908  36.055  1.00  0.00     0.040 A 
ATOM     74  F   UNL A   1      42.940  25.771  35.099  1.00  0.00    -0.206 F 
ATOM     75  C   UNL A   1      46.323  26.530  36.154  1.00  0.00     0.006 A 
ENDBRANCH  51  68
ENDBRANCH  25  26
ENDBRANCH  18  20
ENDBRANCH  17  18
ENDBRANCH  16  17
ENDBRANCH   1  16
TORSDOF 14
ENDMDL
MODEL 2
REMARK VINA RESULT:     -10.1      0.787      1.775
REMARK SMILES CC[C@](C)(C(=O)OCCOC(=O)c1ccc(-c2c3nc(c(-c4c(F)cccc4F)c4ccc([nH]4)c(-c4c(F)cccc4F)c4nc(c(-c5c(F)cccc5F)c5ccc2[nH]5)C=C4)C=C3)cc1)[C@@H]1CCC[C@@H]1O
REMARK SMILES IDX 8 1 7 2 5 3 6 4 3 5 4 6 2 7 1 8 67 9 68 10 71 11 69 12 70 13
REMARK SMILES IDX 72 14 9 16 10 17 11 18 12 19 13 20 14 21 66 22 15 23 65 24
REMARK SMILES IDX 16 25 17 26 18 27 59 28 19 29 64 30 58 31 60 32 20 33 63 34
REMARK SMILES IDX 57 35 56 36 21 38 47 39 30 40 46 41 31 42 34 43 45 44 61 45
REMARK SMILES IDX 32 46 33 47 44 49 62 50 35 51 22 52 23 53 28 54 24 55 25 56
REMARK SMILES IDX 27 57 29 58 26 59 48 60 49 61 54 62 50 63 51 64 53 65 55 66
REMARK SMILES IDX 52 67 36 68 37 69 42 70 38 71 39 72 41 73 43 74 40 75
REMARK H PARENT 72 15 60 37 34 48
REMARK Flexibility Score: inf
ROOT
ATOM      1  C   UNL A   1      31.670  28.209  26.663  1.00  0.00     0.274 C 
ENDROOT
BRANCH   1   2
ATOM      2  O   UNL A   1      32.496  27.115  26.208  1.00  0.00    -0.462 OA
BRANCH   2   3
ATOM      3  C   UNL A   1      31.921  25.886  26.051  1.00  0.00     0.312 C 
ATOM      4  O   UNL A   1      30.818  25.590  26.491  1.00  0.00    -0.252 OA
BRANCH   3   5
ATOM      5  C   UNL A   1      32.901  24.874  25.396  1.00  0.00     0.070 C 
ATOM      6  C   UNL A   1      34.360  25.394  25.558  1.00  0.00     0.024 C 
BRANCH   5   7
ATOM      7  C   UNL A   1      32.772  23.555  26.215  1.00  0.00     0.015 C 
ATOM      8  C   UNL A   1      34.044  23.050  26.897  1.00  0.00     0.005 C 
ENDBRANCH   5   7
BRANCH   5   9
ATOM      9  C   UNL A   1      32.705  24.679  23.819  1.00  0.00     0.035 C 
ATOM     10  C   UNL A   1      33.457  25.688  22.939  1.00  0.00     0.007 C 
ATOM     11  C   UNL A   1      31.314  24.779  23.165  1.00  0.00     0.118 C 
ATOM     12  C   UNL A   1      32.447  26.797  22.597  1.00  0.00     0.003 C 
ATOM     13  C   UNL A   1      31.082  26.271  23.026  1.00  0.00     0.032 C 
BRANCH  11  14
ATOM     14  O   UNL A   1      30.277  24.100  23.827  1.00  0.00    -0.393 OA
ATOM     15  H   UNL A   1      30.560  23.875  24.727  1.00  0.00     0.210 HD
ENDBRANCH  11  14
ENDBRANCH   5   9
ENDBRANCH   3   5
ENDBRANCH   2   3
ENDBRANCH   1   2
BRANCH   1  16
ATOM     16  C   UNL A   1      31.579  29.280  25.579  1.00  0.00     0.275 C 
BRANCH  16  17
ATOM     17  O   UNL A   1      32.783  30.055  25.647  1.00  0.00    -0.458 OA
BRANCH  17  18
ATOM     18  C   UNL A   1      32.920  30.905  26.685  1.00  0.00     0.338 C 
ATOM     19  O   UNL A   1      32.063  31.647  27.148  1.00  0.00    -0.246 OA
BRANCH  18  20
ATOM     20  C   UNL A   1      34.281  30.750  27.249  1.00  0.00     0.060 A 
ATOM     21  C   UNL A   1      34.814  29.476  27.439  1.00  0.00     0.016 A 
ATOM     22  C   UNL A   1      34.996  31.859  27.705  1.00  0.00     0.016 A 
ATOM     23  C   UNL A   1      35.977  29.306  28.187  1.00  0.00     0.010 A 
ATOM     24  C   UNL A   1      36.231  31.682  28.351  1.00  0.00     0.010 A 
ATOM     25  C   UNL A   1      36.723  30.396  28.647  1.00  0.00    -0.014 A 
BRANCH  25  26
ATOM     26  C   UNL A   1      37.942  30.190  29.496  1.00  0.00     0.031 A 
ATOM     27  C   UNL A   1      39.135  29.454  28.934  1.00  0.00     0.074 A 
ATOM     28  C   UNL A   1      38.052  30.689  30.747  1.00  0.00     0.049 A 
ATOM     29  N   UNL A   1      40.130  28.882  29.565  1.00  0.00    -0.248 NA
ATOM     30  C   UNL A   1      39.209  29.329  27.469  1.00  0.00     0.031 C 
ATOM     31  C   UNL A   1      37.058  31.508  31.441  1.00  0.00     0.029 A 
ATOM     32  N   UNL A   1      39.082  30.595  31.657  1.00  0.00    -0.354 N 
ATOM     33  C   UNL A   1      40.875  28.232  28.588  1.00  0.00     0.074 A 
ATOM     34  C   UNL A   1      40.245  28.515  27.318  1.00  0.00     0.031 C 
ATOM     35  C   UNL A   1      37.557  31.915  32.616  1.00  0.00     0.029 A 
ATOM     36  C   UNL A   1      38.843  31.264  32.835  1.00  0.00     0.049 A 
ATOM     37  H   UNL A   1      39.912  30.095  31.482  1.00  0.00     0.167 HD
ATOM     38  C   UNL A   1      41.972  27.453  28.746  1.00  0.00     0.037 A 
ATOM     39  C   UNL A   1      39.533  31.301  33.991  1.00  0.00     0.037 A 
ATOM     40  C   UNL A   1      42.669  27.270  29.993  1.00  0.00     0.049 A 
ATOM     41  C   UNL A   1      40.754  30.442  34.151  1.00  0.00     0.074 A 
ATOM     42  C   UNL A   1      43.773  26.477  30.260  1.00  0.00     0.029 A 
ATOM     43  N   UNL A   1      42.360  27.934  31.169  1.00  0.00    -0.354 N 
ATOM     44  N   UNL A   1      41.335  29.662  33.274  1.00  0.00    -0.248 NA
ATOM     45  C   UNL A   1      41.381  30.426  35.481  1.00  0.00     0.031 C 
ATOM     46  C   UNL A   1      44.129  26.658  31.602  1.00  0.00     0.029 A 
ATOM     47  C   UNL A   1      43.262  27.583  32.160  1.00  0.00     0.049 A 
ATOM     48  H   UNL A   1      41.612  28.562  31.283  1.00  0.00     0.167 HD
ATOM     49  C   UNL A   1      42.382  29.048  33.949  1.00  0.00     0.074 A 
ATOM     50  C   UNL A   1      42.382  29.577  35.297  1.00  0.00     0.031 C 
ATOM     51  C   UNL A   1      43.251  28.113  33.497  1.00  0.00     0.037 A 
BRANCH  38  52
ATOM     52  C   UNL A   1      42.459  26.690  27.550  1.00  0.00     0.057 A 
ATOM     53  C   UNL A   1      43.397  27.210  26.653  1.00  0.00     0.134 A 
ATOM     54  C   UNL A   1      41.998  25.385  27.322  1.00  0.00     0.134 A 
ATOM     55  F   UNL A   1      43.862  28.459  26.805  1.00  0.00    -0.206 F 
ATOM     56  C   UNL A   1      43.850  26.466  25.561  1.00  0.00     0.040 A 
ATOM     57  C   UNL A   1      42.460  24.623  26.249  1.00  0.00     0.040 A 
ATOM     58  F   UNL A   1      41.102  24.825  28.148  1.00  0.00    -0.206 F 
ATOM     59  C   UNL A   1      43.386  25.166  25.360  1.00  0.00     0.006 A 
ENDBRANCH  38  52
BRANCH  39  60
ATOM     60  C   UNL A   1      39.028  32.110  35.130  1.00  0.00     0.057 A 
ATOM     61  C   UNL A   1      38.248  31.531  36.137  1.00  0.00     0.134 A 
ATOM     62  C   UNL A   1      39.311  33.477  35.240  1.00  0.00     0.134 A 
ATOM     63  F   UNL A   1      37.913  30.233  36.071  1.00  0.00    -0.206 F 
ATOM     64  C   UNL A   1      37.771  32.281  37.214  1.00  0.00     0.040 A 
ATOM     65  C   UNL A   1      38.868  34.232  36.325  1.00  0.00     0.040 A 
ATOM     66  F   UNL A   1      40.047  34.092  34.302  1.00  0.00    -0.206 F 
ATOM     67  C   UNL A   1      38.091  33.635  37.315  1.00  0.00     0.006 A 
ENDBRANCH  39  60
BRANCH  51  68
ATOM     68  C   UNL A   1      44.278  27.614  34.466  1.00  0.00     0.057 A 
ATOM     69  C   UNL A   1      45.506  28.265  34.629  1.00  0.00     0.134 A 
ATOM     70  C   UNL A   1      44.030  26.486  35.255  1.00  0.00     0.134 A 
ATOM     71  F   UNL A   1      45.808  29.344  33.889  1.00  0.00    -0.206 F 
ATOM     72  C   UNL A   1      46.461  27.801  35.534  1.00  0.00     0.040 A 
ATOM     73  C   UNL A   1      44.970  26.021  36.175  1.00  0.00     0.040 A 
ATOM     74  F   UNL A   1      42.870  25.821  35.148  1.00  0.00    -0.206 F 
ATOM     75  C   UNL A   1      46.192  26.677  36.313  1.00  0.00     0.006 A 
ENDBRANCH  51  68
ENDBRANCH  25  26
ENDBRANCH  18  20
ENDBRANCH  17  18
ENDBRANCH  16  17
ENDBRANCH   1  16
TORSDOF 14
ENDMDL
MODEL 3
REMARK VINA RESULT:     -10.0      3.983      8.665
REMARK SMILES CC[C@](C)(C(=O)OCCOC(=O)c1ccc(-c2c3nc(c(-c4c(F)cccc4F)c4ccc([nH]4)c(-c4c(F)cccc4F)c4nc(c(-c5c(F)cccc5F)c5ccc2[nH]5)C=C4)C=C3)cc1)[C@@H]1CCC[C@@H]1O
REMARK SMILES IDX 8 1 7 2 5 3 6 4 3 5 4 6 2 7 1 8 67 9 68 10 71 11 69 12 70 13
REMARK SMILES IDX 72 14 9 16 10 17 11 18 12 19 13 20 14 21 66 22 15 23 65 24
REMARK SMILES IDX 16 25 17 26 18 27 59 28 19 29 64 30 58 31 60 32 20 33 63 34
REMARK SMILES IDX 57 35 56 36 21 38 47 39 30 40 46 41 31 42 34 43 45 44 61 45
REMARK SMILES IDX 32 46 33 47 44 49 62 50 35 51 22 52 23 53 28 54 24 55 25 56
REMARK SMILES IDX 27 57 29 58 26 59 48 60 49 61 54 62 50 63 51 64 53 65 55 66
REMARK SMILES IDX 52 67 36 68 37 69 42 70 38 71 39 72 41 73 43 74 40 75
REMARK H PARENT 72 15 60 37 34 48
REMARK Flexibility Score: inf
ROOT
ATOM      1  C   UNL A   1      34.670  22.097  26.400  1.00  0.00     0.274 C 
ENDROOT
BRANCH   1   2
ATOM      2  O   UNL A   1      34.358  23.452  26.009  1.00  0.00    -0.462 OA
BRANCH   2   3
ATOM      3  C   UNL A   1      33.049  23.841  25.993  1.00  0.00     0.312 C 
ATOM      4  O   UNL A   1      32.131  23.156  26.424  1.00  0.00    -0.252 OA
BRANCH   3   5
ATOM      5  C   UNL A   1      32.855  25.175  25.221  1.00  0.00     0.070 C 
ATOM      6  C   UNL A   1      31.605  25.915  25.780  1.00  0.00     0.024 C 
BRANCH   5   7
ATOM      7  C   UNL A   1      34.107  26.046  25.541  1.00  0.00     0.015 C 
ATOM      8  C   UNL A   1      33.839  27.455  26.071  1.00  0.00     0.005 C 
ENDBRANCH   5   7
BRANCH   5   9
ATOM      9  C   UNL A   1      32.568  25.004  23.655  1.00  0.00     0.035 C 
ATOM     10  C   UNL A   1      31.125  24.622  23.296  1.00  0.00     0.007 C 
ATOM     11  C   UNL A   1      33.313  23.952  22.813  1.00  0.00     0.118 C 
ATOM     12  C   UNL A   1      31.112  23.093  23.131  1.00  0.00     0.003 C 
ATOM     13  C   UNL A   1      32.574  22.660  23.106  1.00  0.00     0.032 C 
BRANCH  11  14
ATOM     14  O   UNL A   1      34.701  23.873  23.019  1.00  0.00    -0.393 OA
ATOM     15  H   UNL A   1      35.014  24.696  23.426  1.00  0.00     0.210 HD
ENDBRANCH  11  14
ENDBRANCH   5   9
ENDBRANCH   3   5
ENDBRANCH   2   3
ENDBRANCH   1   2
BRANCH   1  16
ATOM     16  C   UNL A   1      35.267  21.338  25.218  1.00  0.00     0.275 C 
BRANCH  16  17
ATOM     17  O   UNL A   1      36.491  21.997  24.865  1.00  0.00    -0.458 OA
BRANCH  17  18
ATOM     18  C   UNL A   1      37.642  21.452  25.308  1.00  0.00     0.338 C 
ATOM     19  O   UNL A   1      38.041  20.311  25.113  1.00  0.00    -0.246 OA
BRANCH  18  20
ATOM     20  C   UNL A   1      38.416  22.494  26.024  1.00  0.00     0.060 A 
ATOM     21  C   UNL A   1      37.917  23.792  26.113  1.00  0.00     0.016 A 
ATOM     22  C   UNL A   1      39.695  22.223  26.513  1.00  0.00     0.016 A 
ATOM     23  C   UNL A   1      38.733  24.828  26.562  1.00  0.00     0.010 A 
ATOM     24  C   UNL A   1      40.464  23.255  27.078  1.00  0.00     0.010 A 
ATOM     25  C   UNL A   1      40.015  24.589  27.069  1.00  0.00    -0.014 A 
BRANCH  25  26
ATOM     26  C   UNL A   1      40.895  25.725  27.498  1.00  0.00     0.031 A 
ATOM     27  C   UNL A   1      40.376  26.755  28.473  1.00  0.00     0.074 A 
ATOM     28  C   UNL A   1      42.178  25.846  27.090  1.00  0.00     0.049 A 
ATOM     29  N   UNL A   1      40.819  27.962  28.718  1.00  0.00    -0.248 NA
ATOM     30  C   UNL A   1      39.192  26.382  29.264  1.00  0.00     0.031 C 
ATOM     31  C   UNL A   1      42.902  24.911  26.227  1.00  0.00     0.029 A 
ATOM     32  N   UNL A   1      43.118  26.812  27.376  1.00  0.00    -0.354 N 
ATOM     33  C   UNL A   1      39.902  28.532  29.594  1.00  0.00     0.074 A 
ATOM     34  C   UNL A   1      38.903  27.524  29.873  1.00  0.00     0.031 C 
ATOM     35  C   UNL A   1      44.183  25.295  26.131  1.00  0.00     0.029 A 
ATOM     36  C   UNL A   1      44.343  26.583  26.794  1.00  0.00     0.049 A 
ATOM     37  H   UNL A   1      42.930  27.594  27.945  1.00  0.00     0.167 HD
ATOM     38  C   UNL A   1      39.889  29.789  30.099  1.00  0.00     0.037 A 
ATOM     39  C   UNL A   1      45.452  27.344  26.731  1.00  0.00     0.037 A 
ATOM     40  C   UNL A   1      40.946  30.750  29.918  1.00  0.00     0.049 A 
ATOM     41  C   UNL A   1      45.430  28.732  27.303  1.00  0.00     0.074 A 
ATOM     42  C   UNL A   1      41.012  32.060  30.366  1.00  0.00     0.029 A 
ATOM     43  N   UNL A   1      42.147  30.486  29.280  1.00  0.00    -0.354 N 
ATOM     44  N   UNL A   1      44.470  29.341  27.955  1.00  0.00    -0.248 NA
ATOM     45  C   UNL A   1      46.626  29.558  27.081  1.00  0.00     0.031 C 
ATOM     46  C   UNL A   1      42.253  32.589  29.993  1.00  0.00     0.029 A 
ATOM     47  C   UNL A   1      42.967  31.601  29.337  1.00  0.00     0.049 A 
ATOM     48  H   UNL A   1      42.382  29.633  28.852  1.00  0.00     0.167 HD
ATOM     49  C   UNL A   1      44.938  30.625  28.203  1.00  0.00     0.074 A 
ATOM     50  C   UNL A   1      46.282  30.695  27.668  1.00  0.00     0.031 C 
ATOM     51  C   UNL A   1      44.300  31.660  28.800  1.00  0.00     0.037 A 
BRANCH  38  52
ATOM     52  C   UNL A   1      38.666  30.221  30.852  1.00  0.00     0.057 A 
ATOM     53  C   UNL A   1      38.546  30.085  32.238  1.00  0.00     0.134 A 
ATOM     54  C   UNL A   1      37.602  30.824  30.164  1.00  0.00     0.134 A 
ATOM     55  F   UNL A   1      39.520  29.500  32.951  1.00  0.00    -0.206 F 
ATOM     56  C   UNL A   1      37.403  30.519  32.915  1.00  0.00     0.040 A 
ATOM     57  C   UNL A   1      36.467  31.283  30.832  1.00  0.00     0.040 A 
ATOM     58  F   UNL A   1      37.657  30.989  28.834  1.00  0.00    -0.206 F 
ATOM     59  C   UNL A   1      36.363  31.126  32.212  1.00  0.00     0.006 A 
ENDBRANCH  38  52
BRANCH  39  60
ATOM     60  C   UNL A   1      46.652  26.848  26.009  1.00  0.00     0.057 A 
ATOM     61  C   UNL A   1      47.634  26.103  26.669  1.00  0.00     0.134 A 
ATOM     62  C   UNL A   1      46.846  27.107  24.646  1.00  0.00     0.134 A 
ATOM     63  F   UNL A   1      47.525  25.851  27.982  1.00  0.00    -0.206 F 
ATOM     64  C   UNL A   1      48.765  25.629  25.999  1.00  0.00     0.040 A 
ATOM     65  C   UNL A   1      47.953  26.613  23.956  1.00  0.00     0.040 A 
ATOM     66  F   UNL A   1      45.943  27.823  23.959  1.00  0.00    -0.206 F 
ATOM     67  C   UNL A   1      48.919  25.875  24.635  1.00  0.00     0.006 A 
ENDBRANCH  39  60
BRANCH  51  68
ATOM     68  C   UNL A   1      45.054  32.948  28.916  1.00  0.00     0.057 A 
ATOM     69  C   UNL A   1      45.891  33.209  30.007  1.00  0.00     0.134 A 
ATOM     70  C   UNL A   1      44.958  33.926  27.921  1.00  0.00     0.134 A 
ATOM     71  F   UNL A   1      46.013  32.315  31.001  1.00  0.00    -0.206 F 
ATOM     72  C   UNL A   1      46.596  34.409  30.113  1.00  0.00     0.040 A 
ATOM     73  C   UNL A   1      45.670  35.123  28.006  1.00  0.00     0.040 A 
ATOM     74  F   UNL A   1      44.176  33.733  26.848  1.00  0.00    -0.206 F 
ATOM     75  C   UNL A   1      46.489  35.369  29.108  1.00  0.00     0.006 A 
ENDBRANCH  51  68
ENDBRANCH  25  26
ENDBRANCH  18  20
ENDBRANCH  17  18
ENDBRANCH  16  17
ENDBRANCH   1  16
TORSDOF 14
ENDMDL
