MODEL 1
REMARK VINA RESULT:     -11.6      0.000      0.000
REMARK SMILES O=C(C[N@@H+]1C[C@@]2([N+](=O)[O-])CC=C(Cl)[C@@]([N+](=O)[O-])(C1)C2)OCCOC(=O)c1ccc(-c2c3nc(c(-c4c(F)cccc4F)c4ccc([nH]4)c(-c4c(F)cccc4F)c4nc(c(-c5c(F)cccc5F)c5ccc2[nH]5)C=C4)C=C3)cc1
REMARK SMILES IDX 21 1 20 2 2 3 1 4 3 5 4 6 5 7 18 8 6 10 14 11 10 12 19 13
REMARK SMILES IDX 12 14 11 15 13 16 7 17 8 18 9 19 15 20 16 21 17 22 22 23
REMARK SMILES IDX 23 24 24 25 25 26 26 27 27 28 79 29 28 30 78 31 29 32 30 33
REMARK SMILES IDX 31 34 72 35 32 36 77 37 71 38 73 39 33 40 76 41 70 42 69 43
REMARK SMILES IDX 34 45 60 46 43 47 59 48 44 49 47 50 58 51 74 52 45 53 46 54
REMARK SMILES IDX 57 56 75 57 48 58 35 59 36 60 41 61 37 62 38 63 40 64 42 65
REMARK SMILES IDX 39 66 61 67 62 68 67 69 63 70 64 71 66 72 68 73 65 74 49 75
REMARK SMILES IDX 50 76 55 77 51 78 52 79 54 80 56 81 53 82
REMARK H PARENT 4 9 73 44 47 55
REMARK Flexibility Score: inf
ROOT
ATOM      1  C   UNL A   1      35.786  21.028  25.328  1.00  0.00     0.274 C 
ENDROOT
BRANCH   1   2
ATOM      2  O   UNL A   1      35.293  21.816  24.226  1.00  0.00    -0.458 OA
BRANCH   2   3
ATOM      3  C   UNL A   1      35.752  23.070  23.972  1.00  0.00     0.361 C 
ATOM      4  O   UNL A   1      36.323  23.328  22.915  1.00  0.00    -0.245 OA
BRANCH   3   5
ATOM      5  C   UNL A   1      35.632  24.094  25.102  1.00  0.00     0.386 C 
BRANCH   5   6
ATOM      6  N   UNL A   1      34.534  25.070  24.926  1.00  0.00    -0.313 N 
ATOM      7  C   UNL A   1      33.402  24.704  25.810  1.00  0.00     0.350 C 
ATOM      8  C   UNL A   1      34.099  25.187  23.511  1.00  0.00     0.356 C 
ATOM      9  H   UNL A   1      34.884  25.991  25.190  1.00  0.00     0.349 HD
ATOM     10  C   UNL A   1      32.177  25.634  25.650  1.00  0.00     0.280 C 
ATOM     11  C   UNL A   1      32.924  26.183  23.348  1.00  0.00     0.311 C 
ATOM     12  C   UNL A   1      32.440  27.088  26.120  1.00  0.00     0.121 C 
ATOM     13  C   UNL A   1      31.733  25.654  24.178  1.00  0.00     0.191 C 
ATOM     14  C   UNL A   1      33.341  27.563  23.826  1.00  0.00     0.097 C 
ATOM     15  C   UNL A   1      33.116  27.965  25.090  1.00  0.00     0.004 C 
ATOM     16  Cl  UNL A   1      34.251  28.580  22.764  1.00  0.00    -0.081 Cl
BRANCH  10  17
ATOM     17  N   UNL A   1      31.088  25.017  26.514  1.00  0.00     0.032 N 
ATOM     18  O   UNL A   1      31.401  24.073  27.248  1.00  0.00    -0.264 OA
ATOM     19  O   UNL A   1      29.937  25.453  26.373  1.00  0.00    -0.264 OA
ENDBRANCH  10  17
BRANCH  11  20
ATOM     20  N   UNL A   1      32.476  26.226  21.892  1.00  0.00     0.038 N 
ATOM     21  O   UNL A   1      31.370  26.726  21.640  1.00  0.00    -0.263 OA
ATOM     22  O   UNL A   1      33.275  25.816  21.039  1.00  0.00    -0.263 OA
ENDBRANCH  11  20
ENDBRANCH   5   6
ENDBRANCH   3   5
ENDBRANCH   2   3
ENDBRANCH   1   2
BRANCH   1  23
ATOM     23  C   UNL A   1      37.113  20.326  25.023  1.00  0.00     0.275 C 
BRANCH  23  24
ATOM     24  O   UNL A   1      38.207  21.261  25.009  1.00  0.00    -0.458 OA
BRANCH  24  25
ATOM     25  C   UNL A   1      39.228  20.943  25.845  1.00  0.00     0.338 C 
ATOM     26  O   UNL A   1      39.777  19.859  25.937  1.00  0.00    -0.246 OA
BRANCH  25  27
ATOM     27  C   UNL A   1      39.730  22.161  26.521  1.00  0.00     0.060 A 
ATOM     28  C   UNL A   1      39.134  23.379  26.169  1.00  0.00     0.016 A 
ATOM     29  C   UNL A   1      40.756  22.134  27.472  1.00  0.00     0.016 A 
ATOM     30  C   UNL A   1      39.602  24.573  26.717  1.00  0.00     0.010 A 
ATOM     31  C   UNL A   1      41.226  23.336  28.022  1.00  0.00     0.010 A 
ATOM     32  C   UNL A   1      40.678  24.564  27.614  1.00  0.00    -0.014 A 
BRANCH  32  33
ATOM     33  C   UNL A   1      41.317  25.857  27.971  1.00  0.00     0.031 A 
ATOM     34  C   UNL A   1      42.724  26.126  27.508  1.00  0.00     0.074 A 
ATOM     35  C   UNL A   1      40.636  26.814  28.625  1.00  0.00     0.049 A 
ATOM     36  N   UNL A   1      43.427  27.227  27.587  1.00  0.00    -0.248 NA
ATOM     37  C   UNL A   1      43.431  25.005  26.869  1.00  0.00     0.031 C 
ATOM     38  C   UNL A   1      39.270  26.689  29.131  1.00  0.00     0.029 A 
ATOM     39  N   UNL A   1      41.007  28.091  28.966  1.00  0.00    -0.354 N 
ATOM     40  C   UNL A   1      44.643  26.942  26.979  1.00  0.00     0.074 A 
ATOM     41  C   UNL A   1      44.606  25.548  26.593  1.00  0.00     0.031 C 
ATOM     42  C   UNL A   1      38.918  27.845  29.723  1.00  0.00     0.029 A 
ATOM     43  C   UNL A   1      40.031  28.790  29.635  1.00  0.00     0.049 A 
ATOM     44  H   UNL A   1      41.890  28.470  28.754  1.00  0.00     0.167 HD
ATOM     45  C   UNL A   1      45.687  27.769  26.736  1.00  0.00     0.037 A 
ATOM     46  C   UNL A   1      40.034  30.051  30.110  1.00  0.00     0.037 A 
ATOM     47  C   UNL A   1      45.746  29.150  27.135  1.00  0.00     0.049 A 
ATOM     48  C   UNL A   1      41.230  30.937  29.876  1.00  0.00     0.074 A 
ATOM     49  C   UNL A   1      46.764  30.065  26.930  1.00  0.00     0.029 A 
ATOM     50  N   UNL A   1      44.746  29.812  27.830  1.00  0.00    -0.354 N 
ATOM     51  N   UNL A   1      42.346  30.673  29.242  1.00  0.00    -0.248 NA
ATOM     52  C   UNL A   1      41.153  32.306  30.408  1.00  0.00     0.031 C 
ATOM     53  C   UNL A   1      46.397  31.272  27.535  1.00  0.00     0.029 A 
ATOM     54  C   UNL A   1      45.131  31.119  28.079  1.00  0.00     0.049 A 
ATOM     55  H   UNL A   1      43.890  29.413  28.106  1.00  0.00     0.167 HD
ATOM     56  C   UNL A   1      43.091  31.847  29.277  1.00  0.00     0.074 A 
ATOM     57  C   UNL A   1      42.291  32.830  29.975  1.00  0.00     0.031 C 
ATOM     58  C   UNL A   1      44.328  32.090  28.775  1.00  0.00     0.037 A 
BRANCH  45  59
ATOM     59  C   UNL A   1      46.856  27.193  25.994  1.00  0.00     0.057 A 
ATOM     60  C   UNL A   1      46.981  27.336  24.605  1.00  0.00     0.134 A 
ATOM     61  C   UNL A   1      47.877  26.516  26.671  1.00  0.00     0.134 A 
ATOM     62  F   UNL A   1      46.027  27.960  23.898  1.00  0.00    -0.206 F 
ATOM     63  C   UNL A   1      48.072  26.809  23.914  1.00  0.00     0.040 A 
ATOM     64  C   UNL A   1      48.984  26.004  25.993  1.00  0.00     0.040 A 
ATOM     65  F   UNL A   1      47.817  26.346  28.001  1.00  0.00    -0.206 F 
ATOM     66  C   UNL A   1      49.081  26.146  24.610  1.00  0.00     0.006 A 
ENDBRANCH  45  59
BRANCH  46  67
ATOM     67  C   UNL A   1      38.858  30.569  30.853  1.00  0.00     0.057 A 
ATOM     68  C   UNL A   1      37.850  31.296  30.209  1.00  0.00     0.134 A 
ATOM     69  C   UNL A   1      38.742  30.389  32.236  1.00  0.00     0.134 A 
ATOM     70  F   UNL A   1      37.920  31.522  28.889  1.00  0.00    -0.206 F 
ATOM     71  C   UNL A   1      36.781  31.849  30.918  1.00  0.00     0.040 A 
ATOM     72  C   UNL A   1      37.668  30.916  32.954  1.00  0.00     0.040 A 
ATOM     73  F   UNL A   1      39.677  29.704  32.911  1.00  0.00    -0.206 F 
ATOM     74  C   UNL A   1      36.688  31.657  32.294  1.00  0.00     0.006 A 
ENDBRANCH  46  67
BRANCH  58  75
ATOM     75  C   UNL A   1      44.879  33.476  28.945  1.00  0.00     0.057 A 
ATOM     76  C   UNL A   1      45.667  33.828  30.049  1.00  0.00     0.134 A 
ATOM     77  C   UNL A   1      44.637  34.465  27.982  1.00  0.00     0.134 A 
ATOM     78  F   UNL A   1      45.927  32.932  31.012  1.00  0.00    -0.206 F 
ATOM     79  C   UNL A   1      46.169  35.122  30.204  1.00  0.00     0.040 A 
ATOM     80  C   UNL A   1      45.157  35.754  28.113  1.00  0.00     0.040 A 
ATOM     81  F   UNL A   1      43.900  34.192  26.896  1.00  0.00    -0.206 F 
ATOM     82  C   UNL A   1      45.919  36.088  29.231  1.00  0.00     0.006 A 
ENDBRANCH  58  75
ENDBRANCH  32  33
ENDBRANCH  25  27
ENDBRANCH  24  25
ENDBRANCH  23  24
ENDBRANCH   1  23
TORSDOF 14
ENDMDL
MODEL 2
REMARK VINA RESULT:     -11.5      3.956      9.063
REMARK SMILES O=C(C[N@@H+]1C[C@@]2([N+](=O)[O-])CC=C(Cl)[C@@]([N+](=O)[O-])(C1)C2)OCCOC(=O)c1ccc(-c2c3nc(c(-c4c(F)cccc4F)c4ccc([nH]4)c(-c4c(F)cccc4F)c4nc(c(-c5c(F)cccc5F)c5ccc2[nH]5)C=C4)C=C3)cc1
REMARK SMILES IDX 21 1 20 2 2 3 1 4 3 5 4 6 5 7 18 8 6 10 14 11 10 12 19 13
REMARK SMILES IDX 12 14 11 15 13 16 7 17 8 18 9 19 15 20 16 21 17 22 22 23
REMARK SMILES IDX 23 24 24 25 25 26 26 27 27 28 79 29 28 30 78 31 29 32 30 33
REMARK SMILES IDX 31 34 72 35 32 36 77 37 71 38 73 39 33 40 76 41 70 42 69 43
REMARK SMILES IDX 34 45 60 46 43 47 59 48 44 49 47 50 58 51 74 52 45 53 46 54
REMARK SMILES IDX 57 56 75 57 48 58 35 59 36 60 41 61 37 62 38 63 40 64 42 65
REMARK SMILES IDX 39 66 61 67 62 68 67 69 63 70 64 71 66 72 68 73 65 74 49 75
REMARK SMILES IDX 50 76 55 77 51 78 52 79 54 80 56 81 53 82
REMARK H PARENT 4 9 73 44 47 55
REMARK Flexibility Score: inf
ROOT
ATOM      1  C   UNL A   1      31.533  30.355  25.839  1.00  0.00     0.274 C 
ENDROOT
BRANCH   1   2
ATOM      2  O   UNL A   1      31.833  29.408  26.883  1.00  0.00    -0.458 OA
BRANCH   2   3
ATOM      3  C   UNL A   1      32.388  28.194  26.620  1.00  0.00     0.361 C 
ATOM      4  O   UNL A   1      33.562  27.967  26.900  1.00  0.00    -0.245 OA
BRANCH   3   5
ATOM      5  C   UNL A   1      31.523  27.188  25.860  1.00  0.00     0.386 C 
BRANCH   5   6
ATOM      6  N   UNL A   1      32.211  25.919  25.532  1.00  0.00    -0.313 N 
ATOM      7  C   UNL A   1      32.629  25.937  24.110  1.00  0.00     0.350 C 
ATOM      8  C   UNL A   1      31.379  24.727  25.836  1.00  0.00     0.356 C 
ATOM      9  H   UNL A   1      33.037  25.844  26.126  1.00  0.00     0.349 HD
ATOM     10  C   UNL A   1      33.303  24.622  23.655  1.00  0.00     0.280 C 
ATOM     11  C   UNL A   1      32.096  23.409  25.452  1.00  0.00     0.311 C 
ATOM     12  C   UNL A   1      34.666  24.357  24.344  1.00  0.00     0.121 C 
ATOM     13  C   UNL A   1      32.362  23.437  23.931  1.00  0.00     0.191 C 
ATOM     14  C   UNL A   1      33.398  23.280  26.223  1.00  0.00     0.097 C 
ATOM     15  C   UNL A   1      34.563  23.716  25.709  1.00  0.00     0.004 C 
ATOM     16  Cl  UNL A   1      33.356  22.695  27.850  1.00  0.00    -0.081 Cl
BRANCH  10  17
ATOM     17  N   UNL A   1      33.519  24.777  22.158  1.00  0.00     0.032 N 
ATOM     18  O   UNL A   1      33.552  23.750  21.471  1.00  0.00    -0.264 OA
ATOM     19  O   UNL A   1      33.720  25.922  21.729  1.00  0.00    -0.264 OA
ENDBRANCH  10  17
BRANCH  11  20
ATOM     20  N   UNL A   1      31.183  22.220  25.729  1.00  0.00     0.038 N 
ATOM     21  O   UNL A   1      31.541  21.106  25.320  1.00  0.00    -0.263 OA
ATOM     22  O   UNL A   1      30.166  22.429  26.404  1.00  0.00    -0.263 OA
ENDBRANCH  11  20
ENDBRANCH   5   6
ENDBRANCH   3   5
ENDBRANCH   2   3
ENDBRANCH   1   2
BRANCH   1  23
ATOM     23  C   UNL A   1      31.563  31.811  26.317  1.00  0.00     0.275 C 
BRANCH  23  24
ATOM     24  O   UNL A   1      32.196  31.923  27.605  1.00  0.00    -0.458 OA
BRANCH  24  25
ATOM     25  C   UNL A   1      33.057  32.966  27.718  1.00  0.00     0.338 C 
ATOM     26  O   UNL A   1      32.767  34.150  27.696  1.00  0.00    -0.246 OA
BRANCH  25  27
ATOM     27  C   UNL A   1      34.409  32.474  28.067  1.00  0.00     0.060 A 
ATOM     28  C   UNL A   1      34.535  31.112  28.368  1.00  0.00     0.016 A 
ATOM     29  C   UNL A   1      35.534  33.306  28.109  1.00  0.00     0.016 A 
ATOM     30  C   UNL A   1      35.766  30.593  28.770  1.00  0.00     0.010 A 
ATOM     31  C   UNL A   1      36.770  32.782  28.513  1.00  0.00     0.010 A 
ATOM     32  C   UNL A   1      36.881  31.432  28.886  1.00  0.00    -0.014 A 
BRANCH  32  33
ATOM     33  C   UNL A   1      38.097  30.910  29.561  1.00  0.00     0.031 A 
ATOM     34  C   UNL A   1      38.361  31.302  30.990  1.00  0.00     0.074 A 
ATOM     35  C   UNL A   1      38.914  30.035  28.948  1.00  0.00     0.049 A 
ATOM     36  N   UNL A   1      39.278  30.863  31.815  1.00  0.00    -0.248 NA
ATOM     37  C   UNL A   1      37.470  32.320  31.567  1.00  0.00     0.031 C 
ATOM     38  C   UNL A   1      38.779  29.570  27.569  1.00  0.00     0.029 A 
ATOM     39  N   UNL A   1      40.021  29.375  29.420  1.00  0.00    -0.354 N 
ATOM     40  C   UNL A   1      39.055  31.527  33.015  1.00  0.00     0.074 A 
ATOM     41  C   UNL A   1      37.956  32.443  32.793  1.00  0.00     0.031 C 
ATOM     42  C   UNL A   1      39.770  28.699  27.304  1.00  0.00     0.029 A 
ATOM     43  C   UNL A   1      40.606  28.545  28.495  1.00  0.00     0.049 A 
ATOM     44  H   UNL A   1      40.366  29.487  30.335  1.00  0.00     0.167 HD
ATOM     45  C   UNL A   1      39.684  31.372  34.203  1.00  0.00     0.037 A 
ATOM     46  C   UNL A   1      41.685  27.745  28.601  1.00  0.00     0.037 A 
ATOM     47  C   UNL A   1      40.792  30.483  34.431  1.00  0.00     0.049 A 
ATOM     48  C   UNL A   1      42.404  27.628  29.919  1.00  0.00     0.074 A 
ATOM     49  C   UNL A   1      41.493  30.260  35.603  1.00  0.00     0.029 A 
ATOM     50  N   UNL A   1      41.368  29.678  33.461  1.00  0.00    -0.354 N 
ATOM     51  N   UNL A   1      42.140  28.213  31.062  1.00  0.00    -0.248 NA
ATOM     52  C   UNL A   1      43.562  26.722  29.964  1.00  0.00     0.031 C 
ATOM     53  C   UNL A   1      42.518  29.346  35.334  1.00  0.00     0.029 A 
ATOM     54  C   UNL A   1      42.428  28.969  34.004  1.00  0.00     0.049 A 
ATOM     55  H   UNL A   1      41.069  29.618  32.525  1.00  0.00     0.167 HD
ATOM     56  C   UNL A   1      43.080  27.727  31.965  1.00  0.00     0.074 A 
ATOM     57  C   UNL A   1      43.906  26.784  31.242  1.00  0.00     0.031 C 
ATOM     58  C   UNL A   1      43.244  28.033  33.276  1.00  0.00     0.037 A 
BRANCH  45  59
ATOM     59  C   UNL A   1      39.178  32.187  35.355  1.00  0.00     0.057 A 
ATOM     60  C   UNL A   1      38.327  31.633  36.322  1.00  0.00     0.134 A 
ATOM     61  C   UNL A   1      39.563  33.523  35.518  1.00  0.00     0.134 A 
ATOM     62  F   UNL A   1      37.910  30.362  36.213  1.00  0.00    -0.206 F 
ATOM     63  C   UNL A   1      37.861  32.386  37.400  1.00  0.00     0.040 A 
ATOM     64  C   UNL A   1      39.121  34.279  36.605  1.00  0.00     0.040 A 
ATOM     65  F   UNL A   1      40.376  34.111  34.628  1.00  0.00    -0.206 F 
ATOM     66  C   UNL A   1      38.265  33.712  37.547  1.00  0.00     0.006 A 
ENDBRANCH  45  59
BRANCH  46  67
ATOM     67  C   UNL A   1      42.156  26.970  27.425  1.00  0.00     0.057 A 
ATOM     68  C   UNL A   1      41.776  25.638  27.227  1.00  0.00     0.134 A 
ATOM     69  C   UNL A   1      43.041  27.534  26.498  1.00  0.00     0.134 A 
ATOM     70  F   UNL A   1      40.951  25.037  28.097  1.00  0.00    -0.206 F 
ATOM     71  C   UNL A   1      42.277  24.885  26.164  1.00  0.00     0.040 A 
ATOM     72  C   UNL A   1      43.532  26.801  25.417  1.00  0.00     0.040 A 
ATOM     73  F   UNL A   1      43.444  28.806  26.634  1.00  0.00    -0.206 F 
ATOM     74  C   UNL A   1      43.157  25.468  25.254  1.00  0.00     0.006 A 
ENDBRANCH  46  67
BRANCH  58  75
ATOM     75  C   UNL A   1      44.343  27.327  34.015  1.00  0.00     0.057 A 
ATOM     76  C   UNL A   1      45.633  27.865  34.113  1.00  0.00     0.134 A 
ATOM     77  C   UNL A   1      44.103  26.104  34.656  1.00  0.00     0.134 A 
ATOM     78  F   UNL A   1      45.932  29.027  33.513  1.00  0.00    -0.206 F 
ATOM     79  C   UNL A   1      46.653  27.198  34.796  1.00  0.00     0.040 A 
ATOM     80  C   UNL A   1      45.108  25.442  35.364  1.00  0.00     0.040 A 
ATOM     81  F   UNL A   1      42.888  25.539  34.611  1.00  0.00    -0.206 F 
ATOM     82  C   UNL A   1      46.390  25.985  35.428  1.00  0.00     0.006 A 
ENDBRANCH  58  75
ENDBRANCH  32  33
ENDBRANCH  25  27
ENDBRANCH  24  25
ENDBRANCH  23  24
ENDBRANCH   1  23
TORSDOF 14
ENDMDL
MODEL 3
REMARK VINA RESULT:     -11.2      4.177      9.108
REMARK SMILES O=C(C[N@@H+]1C[C@@]2([N+](=O)[O-])CC=C(Cl)[C@@]([N+](=O)[O-])(C1)C2)OCCOC(=O)c1ccc(-c2c3nc(c(-c4c(F)cccc4F)c4ccc([nH]4)c(-c4c(F)cccc4F)c4nc(c(-c5c(F)cccc5F)c5ccc2[nH]5)C=C4)C=C3)cc1
REMARK SMILES IDX 21 1 20 2 2 3 1 4 3 5 4 6 5 7 18 8 6 10 14 11 10 12 19 13
REMARK SMILES IDX 12 14 11 15 13 16 7 17 8 18 9 19 15 20 16 21 17 22 22 23
REMARK SMILES IDX 23 24 24 25 25 26 26 27 27 28 79 29 28 30 78 31 29 32 30 33
REMARK SMILES IDX 31 34 72 35 32 36 77 37 71 38 73 39 33 40 76 41 70 42 69 43
REMARK SMILES IDX 34 45 60 46 43 47 59 48 44 49 47 50 58 51 74 52 45 53 46 54
REMARK SMILES IDX 57 56 75 57 48 58 35 59 36 60 41 61 37 62 38 63 40 64 42 65
REMARK SMILES IDX 39 66 61 67 62 68 67 69 63 70 64 71 66 72 68 73 65 74 49 75
REMARK SMILES IDX 50 76 55 77 51 78 52 79 54 80 56 81 53 82
REMARK H PARENT 4 9 73 44 47 55
REMARK Flexibility Score: inf
ROOT
ATOM      1  C   UNL A   1      31.376  31.533  26.512  1.00  0.00     0.274 C 
ENDROOT
BRANCH   1   2
ATOM      2  O   UNL A   1      31.973  30.501  27.324  1.00  0.00    -0.458 OA
BRANCH   2   3
ATOM      3  C   UNL A   1      33.118  29.865  26.957  1.00  0.00     0.361 C 
ATOM      4  O   UNL A   1      34.063  30.495  26.489  1.00  0.00    -0.245 OA
BRANCH   3   5
ATOM      5  C   UNL A   1      33.119  28.339  27.042  1.00  0.00     0.386 C 
BRANCH   5   6
ATOM      6  N   UNL A   1      32.380  27.667  25.949  1.00  0.00    -0.313 N 
ATOM      7  C   UNL A   1      31.973  26.311  26.389  1.00  0.00     0.350 C 
ATOM      8  C   UNL A   1      33.159  27.615  24.685  1.00  0.00     0.356 C 
ATOM      9  H   UNL A   1      31.548  28.219  25.744  1.00  0.00     0.349 HD
ATOM     10  C   UNL A   1      31.247  25.505  25.288  1.00  0.00     0.280 C 
ATOM     11  C   UNL A   1      32.390  26.875  23.563  1.00  0.00     0.311 C 
ATOM     12  C   UNL A   1      29.869  26.097  24.896  1.00  0.00     0.121 C 
ATOM     13  C   UNL A   1      32.135  25.426  24.034  1.00  0.00     0.191 C 
ATOM     14  C   UNL A   1      31.077  27.585  23.276  1.00  0.00     0.097 C 
ATOM     15  C   UNL A   1      29.936  27.223  23.889  1.00  0.00     0.004 C 
ATOM     16  Cl  UNL A   1      31.084  28.978  22.251  1.00  0.00    -0.081 Cl
BRANCH  10  17
ATOM     17  N   UNL A   1      31.048  24.115  25.872  1.00  0.00     0.032 N 
ATOM     18  O   UNL A   1      31.038  24.004  27.103  1.00  0.00    -0.264 OA
ATOM     19  O   UNL A   1      30.979  23.169  25.075  1.00  0.00    -0.264 OA
ENDBRANCH  10  17
BRANCH  11  20
ATOM     20  N   UNL A   1      33.249  26.797  22.307  1.00  0.00     0.038 N 
ATOM     21  O   UNL A   1      34.011  27.745  22.065  1.00  0.00    -0.263 OA
ATOM     22  O   UNL A   1      33.183  25.758  21.636  1.00  0.00    -0.263 OA
ENDBRANCH  11  20
ENDBRANCH   5   6
ENDBRANCH   3   5
ENDBRANCH   2   3
ENDBRANCH   1   2
BRANCH   1  23
ATOM     23  C   UNL A   1      32.065  32.893  26.662  1.00  0.00     0.275 C 
BRANCH  23  24
ATOM     24  O   UNL A   1      32.058  33.333  28.032  1.00  0.00    -0.458 OA
BRANCH  24  25
ATOM     25  C   UNL A   1      33.055  34.197  28.350  1.00  0.00     0.338 C 
ATOM     26  O   UNL A   1      32.940  35.396  28.541  1.00  0.00    -0.246 OA
BRANCH  25  27
ATOM     27  C   UNL A   1      34.306  33.454  28.625  1.00  0.00     0.060 A 
ATOM     28  C   UNL A   1      34.212  32.335  29.463  1.00  0.00     0.016 A 
ATOM     29  C   UNL A   1      35.545  33.826  28.092  1.00  0.00     0.016 A 
ATOM     30  C   UNL A   1      35.359  31.627  29.819  1.00  0.00     0.010 A 
ATOM     31  C   UNL A   1      36.698  33.113  28.451  1.00  0.00     0.010 A 
ATOM     32  C   UNL A   1      36.614  32.036  29.350  1.00  0.00    -0.014 A 
BRANCH  32  33
ATOM     33  C   UNL A   1      37.830  31.429  29.950  1.00  0.00     0.031 A 
ATOM     34  C   UNL A   1      38.189  31.774  31.371  1.00  0.00     0.074 A 
ATOM     35  C   UNL A   1      38.562  30.522  29.279  1.00  0.00     0.049 A 
ATOM     36  N   UNL A   1      39.120  31.265  32.139  1.00  0.00    -0.248 NA
ATOM     37  C   UNL A   1      37.391  32.830  32.013  1.00  0.00     0.031 C 
ATOM     38  C   UNL A   1      38.329  30.096  27.900  1.00  0.00     0.029 A 
ATOM     39  N   UNL A   1      39.651  29.789  29.680  1.00  0.00    -0.354 N 
ATOM     40  C   UNL A   1      38.997  31.914  33.361  1.00  0.00     0.074 A 
ATOM     41  C   UNL A   1      37.945  32.897  33.213  1.00  0.00     0.031 C 
ATOM     42  C   UNL A   1      39.252  29.175  27.568  1.00  0.00     0.029 A 
ATOM     43  C   UNL A   1      40.137  28.946  28.710  1.00  0.00     0.049 A 
ATOM     44  H   UNL A   1      40.047  29.861  30.578  1.00  0.00     0.167 HD
ATOM     45  C   UNL A   1      39.676  31.697  34.511  1.00  0.00     0.037 A 
ATOM     46  C   UNL A   1      41.171  28.083  28.745  1.00  0.00     0.037 A 
ATOM     47  C   UNL A   1      40.740  30.740  34.664  1.00  0.00     0.049 A 
ATOM     48  C   UNL A   1      41.948  27.896  30.022  1.00  0.00     0.074 A 
ATOM     49  C   UNL A   1      41.485  30.451  35.794  1.00  0.00     0.029 A 
ATOM     50  N   UNL A   1      41.217  29.924  33.650  1.00  0.00    -0.354 N 
ATOM     51  N   UNL A   1      41.778  28.470  31.188  1.00  0.00    -0.248 NA
ATOM     52  C   UNL A   1      43.051  26.924  29.989  1.00  0.00     0.031 C 
ATOM     53  C   UNL A   1      42.440  29.486  35.455  1.00  0.00     0.029 A 
ATOM     54  C   UNL A   1      42.259  29.144  34.124  1.00  0.00     0.049 A 
ATOM     55  H   UNL A   1      40.868  29.902  32.731  1.00  0.00     0.167 HD
ATOM     56  C   UNL A   1      42.732  27.911  32.031  1.00  0.00     0.074 A 
ATOM     57  C   UNL A   1      43.463  26.937  31.248  1.00  0.00     0.031 C 
ATOM     58  C   UNL A   1      42.981  28.178  33.337  1.00  0.00     0.037 A 
BRANCH  45  59
ATOM     59  C   UNL A   1      39.278  32.514  35.704  1.00  0.00     0.057 A 
ATOM     60  C   UNL A   1      38.379  32.021  36.659  1.00  0.00     0.134 A 
ATOM     61  C   UNL A   1      39.816  33.789  35.916  1.00  0.00     0.134 A 
ATOM     62  F   UNL A   1      37.816  30.813  36.503  1.00  0.00    -0.206 F 
ATOM     63  C   UNL A   1      38.013  32.776  37.774  1.00  0.00     0.040 A 
ATOM     64  C   UNL A   1      39.475  34.544  37.040  1.00  0.00     0.040 A 
ATOM     65  F   UNL A   1      40.683  34.318  35.040  1.00  0.00    -0.206 F 
ATOM     66  C   UNL A   1      38.568  34.039  37.970  1.00  0.00     0.006 A 
ENDBRANCH  45  59
BRANCH  46  67
ATOM     67  C   UNL A   1      41.535  27.309  27.532  1.00  0.00     0.057 A 
ATOM     68  C   UNL A   1      41.084  25.998  27.339  1.00  0.00     0.134 A 
ATOM     69  C   UNL A   1      42.386  27.849  26.560  1.00  0.00     0.134 A 
ATOM     70  F   UNL A   1      40.287  25.418  28.249  1.00  0.00    -0.206 F 
ATOM     71  C   UNL A   1      41.486  25.241  26.237  1.00  0.00     0.040 A 
ATOM     72  C   UNL A   1      42.777  27.113  25.441  1.00  0.00     0.040 A 
ATOM     73  F   UNL A   1      42.853  29.099  26.689  1.00  0.00    -0.206 F 
ATOM     74  C   UNL A   1      42.334  25.801  25.283  1.00  0.00     0.006 A 
ENDBRANCH  46  67
BRANCH  58  75
ATOM     75  C   UNL A   1      44.072  27.394  34.005  1.00  0.00     0.057 A 
ATOM     76  C   UNL A   1      43.825  26.159  34.621  1.00  0.00     0.134 A 
ATOM     77  C   UNL A   1      45.391  27.867  34.013  1.00  0.00     0.134 A 
ATOM     78  F   UNL A   1      42.583  25.655  34.657  1.00  0.00    -0.206 F 
ATOM     79  C   UNL A   1      44.844  25.439  35.247  1.00  0.00     0.040 A 
ATOM     80  C   UNL A   1      46.423  27.142  34.613  1.00  0.00     0.040 A 
ATOM     81  F   UNL A   1      45.699  29.035  33.432  1.00  0.00    -0.206 F 
ATOM     82  C   UNL A   1      46.149  25.928  35.240  1.00  0.00     0.006 A 
ENDBRANCH  58  75
ENDBRANCH  32  33
ENDBRANCH  25  27
ENDBRANCH  24  25
ENDBRANCH  23  24
ENDBRANCH   1  23
TORSDOF 14
ENDMDL
