MODEL 1
REMARK VINA RESULT:     -13.6      0.000      0.000
REMARK SMILES O=C(OCCOC(=O)[C@H]1[C@@H]2C[C@H]3C[C@@H](C2)C[C@]1(n1ncc(N2CCN(c4ccc(F)cc4)CC2)c(Cl)c1=O)C3)c1ccc(-c2c3nc(c(-c4c(F)cccc4F)c4ccc([nH]4)c(-c4c(F)cccc4F)c4nc(c(-c5c(F)cccc5F)c5ccc2[nH]5)C=C4)C=C3)cc1
REMARK SMILES IDX 5 1 4 2 3 3 2 4 1 5 40 6 41 7 93 8 42 9 92 10 43 11 44 12
REMARK SMILES IDX 45 13 86 14 46 15 91 16 85 17 87 18 47 19 90 20 84 21 83 22
REMARK SMILES IDX 48 24 74 25 57 26 73 27 58 28 61 29 72 30 88 31 59 32 60 33
REMARK SMILES IDX 71 35 89 36 62 37 49 38 50 39 55 40 51 41 52 42 54 43 56 44
REMARK SMILES IDX 53 45 75 46 76 47 81 48 77 49 78 50 80 51 82 52 79 53 63 54
REMARK SMILES IDX 64 55 69 56 65 57 66 58 68 59 70 60 67 61 6 62 7 63 8 64
REMARK SMILES IDX 9 65 10 66 17 67 15 68 11 69 39 70 16 71 14 72 12 73 13 74
REMARK SMILES IDX 18 75 19 76 37 77 20 78 35 79 38 80 21 81 36 82 22 83 23 84
REMARK SMILES IDX 34 85 24 86 33 87 25 88 26 89 27 90 32 91 28 92 31 93 29 94
REMARK SMILES IDX 30 95
REMARK H PARENT 87 23 61 34
REMARK Flexibility Score: inf
ROOT
ATOM      1  C   UNL A   1      45.900  38.583  31.430  1.00  0.00     0.274 C 
ENDROOT
BRANCH   1   2
ATOM      2  C   UNL A   1      45.334  38.474  29.960  1.00  0.00     0.275 C 
BRANCH   2   3
ATOM      3  O   UNL A   1      44.093  37.774  29.882  1.00  0.00    -0.458 OA
BRANCH   3   4
ATOM      4  C   UNL A   1      43.548  37.351  28.729  1.00  0.00     0.338 C 
ATOM      5  O   UNL A   1      42.727  38.062  28.150  1.00  0.00    -0.246 OA
BRANCH   4   6
ATOM      6  C   UNL A   1      43.788  36.016  28.123  1.00  0.00     0.060 A 
ATOM      7  C   UNL A   1      44.509  34.750  29.373  1.00  0.00     0.016 A 
ATOM      8  C   UNL A   1      43.696  35.147  26.331  1.00  0.00     0.016 A 
ATOM      9  C   UNL A   1      44.593  32.871  28.999  1.00  0.00     0.010 A 
ATOM     10  C   UNL A   1      44.447  33.305  25.852  1.00  0.00     0.010 A 
ATOM     11  C   UNL A   1      44.520  31.982  27.311  1.00  0.00    -0.014 A 
BRANCH  11  12
ATOM     12  C   UNL A   1      44.291  30.524  27.120  1.00  0.00     0.031 A 
ATOM     13  C   UNL A   1      43.055  29.871  27.662  1.00  0.00     0.074 A 
ATOM     14  C   UNL A   1      45.339  29.734  26.813  1.00  0.00     0.049 A 
ATOM     15  N   UNL A   1      42.678  28.625  27.755  1.00  0.00    -0.248 NA
ATOM     16  C   UNL A   1      42.129  30.764  28.331  1.00  0.00     0.031 C 
ATOM     17  C   UNL A   1      46.730  30.140  26.579  1.00  0.00     0.029 A 
ATOM     18  N   UNL A   1      45.402  28.368  26.794  1.00  0.00    -0.354 N 
ATOM     19  C   UNL A   1      41.475  28.687  28.467  1.00  0.00     0.074 A 
ATOM     20  C   UNL A   1      41.441  29.961  29.116  1.00  0.00     0.031 C 
ATOM     21  C   UNL A   1      47.516  29.053  26.553  1.00  0.00     0.029 A 
ATOM     22  C   UNL A   1      46.679  27.878  26.713  1.00  0.00     0.049 A 
ATOM     23  H   UNL A   1      44.605  27.791  26.836  1.00  0.00     0.167 HD
ATOM     24  C   UNL A   1      40.386  27.886  28.339  1.00  0.00     0.037 A 
ATOM     25  C   UNL A   1      47.102  26.607  26.786  1.00  0.00     0.037 A 
ATOM     26  C   UNL A   1      40.540  26.622  27.685  1.00  0.00     0.049 A 
ATOM     27  C   UNL A   1      46.044  25.543  26.839  1.00  0.00     0.074 A 
ATOM     28  C   UNL A   1      39.640  25.644  27.323  1.00  0.00     0.029 A 
ATOM     29  N   UNL A   1      41.804  26.149  27.352  1.00  0.00    -0.354 N 
ATOM     30  N   UNL A   1      44.737  25.678  26.908  1.00  0.00    -0.248 NA
ATOM     31  C   UNL A   1      46.504  24.155  26.781  1.00  0.00     0.031 C 
ATOM     32  C   UNL A   1      40.393  24.507  26.968  1.00  0.00     0.029 A 
ATOM     33  C   UNL A   1      41.747  24.816  27.044  1.00  0.00     0.049 A 
ATOM     34  H   UNL A   1      42.624  26.694  27.340  1.00  0.00     0.167 HD
ATOM     35  C   UNL A   1      44.211  24.395  26.874  1.00  0.00     0.074 A 
ATOM     36  C   UNL A   1      45.350  23.499  26.762  1.00  0.00     0.031 C 
ATOM     37  C   UNL A   1      42.917  23.983  26.932  1.00  0.00     0.037 A 
BRANCH  24  38
ATOM     38  C   UNL A   1      39.060  28.421  28.852  1.00  0.00     0.057 A 
ATOM     39  C   UNL A   1      38.526  28.160  30.113  1.00  0.00     0.134 A 
ATOM     40  C   UNL A   1      38.296  29.297  28.059  1.00  0.00     0.134 A 
ATOM     41  F   UNL A   1      39.142  27.322  30.957  1.00  0.00    -0.206 F 
ATOM     42  C   UNL A   1      37.342  28.778  30.558  1.00  0.00     0.040 A 
ATOM     43  C   UNL A   1      37.170  29.986  28.509  1.00  0.00     0.040 A 
ATOM     44  F   UNL A   1      38.660  29.536  26.792  1.00  0.00    -0.206 F 
ATOM     45  C   UNL A   1      36.674  29.713  29.767  1.00  0.00     0.006 A 
ENDBRANCH  24  38
BRANCH  25  46
ATOM     46  C   UNL A   1      48.556  26.320  26.733  1.00  0.00     0.057 A 
ATOM     47  C   UNL A   1      49.244  26.237  25.514  1.00  0.00     0.134 A 
ATOM     48  C   UNL A   1      49.276  26.025  27.895  1.00  0.00     0.134 A 
ATOM     49  F   UNL A   1      48.605  26.470  24.358  1.00  0.00    -0.206 F 
ATOM     50  C   UNL A   1      50.592  25.875  25.453  1.00  0.00     0.040 A 
ATOM     51  C   UNL A   1      50.629  25.680  27.851  1.00  0.00     0.040 A 
ATOM     52  F   UNL A   1      48.671  26.069  29.090  1.00  0.00    -0.206 F 
ATOM     53  C   UNL A   1      51.290  25.600  26.627  1.00  0.00     0.006 A 
ENDBRANCH  25  46
BRANCH  37  54
ATOM     54  C   UNL A   1      42.682  22.513  26.933  1.00  0.00     0.057 A 
ATOM     55  C   UNL A   1      42.767  21.778  25.748  1.00  0.00     0.134 A 
ATOM     56  C   UNL A   1      42.292  21.850  28.101  1.00  0.00     0.134 A 
ATOM     57  F   UNL A   1      43.117  22.373  24.597  1.00  0.00    -0.206 F 
ATOM     58  C   UNL A   1      42.456  20.422  25.722  1.00  0.00     0.040 A 
ATOM     59  C   UNL A   1      42.016  20.487  28.095  1.00  0.00     0.040 A 
ATOM     60  F   UNL A   1      42.199  22.513  29.264  1.00  0.00    -0.206 F 
ATOM     61  C   UNL A   1      42.087  19.773  26.899  1.00  0.00     0.006 A 
ENDBRANCH  37  54
ENDBRANCH  11  12
ENDBRANCH   4   6
ENDBRANCH   3   4
ENDBRANCH   2   3
ENDBRANCH   1   2
BRANCH   1  62
ATOM     62  O   UNL A   1      45.260  39.674  32.218  1.00  0.00    -0.462 OA
BRANCH  62  63
ATOM     63  C   UNL A   1      43.894  40.048  32.296  1.00  0.00     0.311 C 
ATOM     64  O   UNL A   1      43.066  39.354  32.860  1.00  0.00    -0.252 OA
BRANCH  63  65
ATOM     65  C   UNL A   1      43.605  41.532  31.485  1.00  0.00     0.130 C 
ATOM     66  C   UNL A   1      43.085  42.360  32.738  1.00  0.00     0.006 C 
ATOM     67  C   UNL A   1      44.484  42.695  30.929  1.00  0.00     0.081 C 
ATOM     68  C   UNL A   1      44.942  42.029  33.414  1.00  0.00     0.008 C 
ATOM     69  C   UNL A   1      42.249  44.301  33.476  1.00  0.00     0.008 C 
ATOM     70  C   UNL A   1      43.065  43.778  31.423  1.00  0.00     0.035 C 
ATOM     71  C   UNL A   1      46.011  43.107  31.689  1.00  0.00     0.035 C 
ATOM     72  C   UNL A   1      45.891  43.513  33.393  1.00  0.00    -0.008 C 
ATOM     73  C   UNL A   1      43.096  45.220  33.143  1.00  0.00    -0.008 C 
ATOM     74  C   UNL A   1      44.941  45.169  34.073  1.00  0.00     0.007 C 
BRANCH  67  75
ATOM     75  N   UNL A   1      44.727  42.668  29.336  1.00  0.00    -0.222 N 
ATOM     76  N   UNL A   1      44.279  41.567  28.597  1.00  0.00    -0.175 NA
ATOM     77  C   UNL A   1      45.158  43.799  28.638  1.00  0.00     0.288 A 
ATOM     78  C   UNL A   1      44.199  41.627  27.293  1.00  0.00     0.161 A 
ATOM     79  C   UNL A   1      45.070  43.766  27.106  1.00  0.00     0.132 A 
ATOM     80  O   UNL A   1      45.548  44.807  29.226  1.00  0.00    -0.266 OA
ATOM     81  C   UNL A   1      44.546  42.762  26.371  1.00  0.00     0.082 A 
ATOM     82  Cl  UNL A   1      45.591  45.227  26.318  1.00  0.00    -0.076 Cl
BRANCH  81  83
ATOM     83  N   UNL A   1      44.383  42.627  24.946  1.00  0.00    -0.365 N 
ATOM     84  C   UNL A   1      43.099  42.611  24.181  1.00  0.00     0.138 C 
ATOM     85  C   UNL A   1      45.497  42.615  23.955  1.00  0.00     0.138 C 
ATOM     86  C   UNL A   1      42.953  43.908  23.328  1.00  0.00     0.138 C 
ATOM     87  C   UNL A   1      45.405  43.757  22.889  1.00  0.00     0.138 C 
ATOM     88  N   UNL A   1      44.046  43.975  22.351  1.00  0.00    -0.368 N 
BRANCH  88  89
ATOM     89  C   UNL A   1      43.750  43.838  21.008  1.00  0.00     0.037 A 
ATOM     90  C   UNL A   1      42.481  43.431  20.576  1.00  0.00     0.029 A 
ATOM     91  C   UNL A   1      44.712  44.131  20.025  1.00  0.00     0.029 A 
ATOM     92  C   UNL A   1      42.184  43.303  19.213  1.00  0.00     0.041 A 
ATOM     93  C   UNL A   1      44.428  43.989  18.659  1.00  0.00     0.041 A 
ATOM     94  C   UNL A   1      43.164  43.571  18.267  1.00  0.00     0.123 A 
ATOM     95  F   UNL A   1      42.885  43.428  16.965  1.00  0.00    -0.207 F 
ENDBRANCH  88  89
ENDBRANCH  81  83
ENDBRANCH  67  75
ENDBRANCH  63  65
ENDBRANCH  62  63
ENDBRANCH   1  62
TORSDOF 14
ENDMDL
MODEL 2
REMARK VINA RESULT:     -13.1      6.036     11.149
REMARK SMILES O=C(OCCOC(=O)[C@H]1[C@@H]2C[C@H]3C[C@@H](C2)C[C@]1(n1ncc(N2CCN(c4ccc(F)cc4)CC2)c(Cl)c1=O)C3)c1ccc(-c2c3nc(c(-c4c(F)cccc4F)c4ccc([nH]4)c(-c4c(F)cccc4F)c4nc(c(-c5c(F)cccc5F)c5ccc2[nH]5)C=C4)C=C3)cc1
REMARK SMILES IDX 5 1 4 2 3 3 2 4 1 5 40 6 41 7 93 8 42 9 92 10 43 11 44 12
REMARK SMILES IDX 45 13 86 14 46 15 91 16 85 17 87 18 47 19 90 20 84 21 83 22
REMARK SMILES IDX 48 24 74 25 57 26 73 27 58 28 61 29 72 30 88 31 59 32 60 33
REMARK SMILES IDX 71 35 89 36 62 37 49 38 50 39 55 40 51 41 52 42 54 43 56 44
REMARK SMILES IDX 53 45 75 46 76 47 81 48 77 49 78 50 80 51 82 52 79 53 63 54
REMARK SMILES IDX 64 55 69 56 65 57 66 58 68 59 70 60 67 61 6 62 7 63 8 64
REMARK SMILES IDX 9 65 10 66 17 67 15 68 11 69 39 70 16 71 14 72 12 73 13 74
REMARK SMILES IDX 18 75 19 76 37 77 20 78 35 79 38 80 21 81 36 82 22 83 23 84
REMARK SMILES IDX 34 85 24 86 33 87 25 88 26 89 27 90 32 91 28 92 31 93 29 94
REMARK SMILES IDX 30 95
REMARK H PARENT 87 23 61 34
REMARK Flexibility Score: inf
ROOT
ATOM      1  C   UNL A   1      43.977  35.636  32.974  1.00  0.00     0.274 C 
ENDROOT
BRANCH   1   2
ATOM      2  C   UNL A   1      44.331  37.041  32.345  1.00  0.00     0.275 C 
BRANCH   2   3
ATOM      3  O   UNL A   1      43.727  37.258  31.071  1.00  0.00    -0.458 OA
BRANCH   3   4
ATOM      4  C   UNL A   1      44.376  37.098  29.904  1.00  0.00     0.338 C 
ATOM      5  O   UNL A   1      44.947  38.060  29.391  1.00  0.00    -0.246 OA
BRANCH   4   6
ATOM      6  C   UNL A   1      44.381  35.843  29.108  1.00  0.00     0.060 A 
ATOM      7  C   UNL A   1      45.575  34.517  29.815  1.00  0.00     0.016 A 
ATOM      8  C   UNL A   1      43.591  35.140  27.418  1.00  0.00     0.016 A 
ATOM      9  C   UNL A   1      45.543  32.691  29.232  1.00  0.00     0.010 A 
ATOM     10  C   UNL A   1      44.126  33.404  26.476  1.00  0.00     0.010 A 
ATOM     11  C   UNL A   1      44.814  31.959  27.627  1.00  0.00    -0.014 A 
BRANCH  11  12
ATOM     12  C   UNL A   1      44.561  30.513  27.382  1.00  0.00     0.031 A 
ATOM     13  C   UNL A   1      43.292  29.872  27.859  1.00  0.00     0.074 A 
ATOM     14  C   UNL A   1      45.602  29.710  27.087  1.00  0.00     0.049 A 
ATOM     15  N   UNL A   1      42.886  28.632  27.899  1.00  0.00    -0.248 NA
ATOM     16  C   UNL A   1      42.362  30.765  28.523  1.00  0.00     0.031 C 
ATOM     17  C   UNL A   1      47.008  30.092  26.915  1.00  0.00     0.029 A 
ATOM     18  N   UNL A   1      45.636  28.344  27.027  1.00  0.00    -0.354 N 
ATOM     19  C   UNL A   1      41.660  28.700  28.570  1.00  0.00     0.074 A 
ATOM     20  C   UNL A   1      41.629  29.954  29.257  1.00  0.00     0.031 C 
ATOM     21  C   UNL A   1      47.772  28.989  26.882  1.00  0.00     0.029 A 
ATOM     22  C   UNL A   1      46.904  27.829  26.976  1.00  0.00     0.049 A 
ATOM     23  H   UNL A   1      44.826  27.784  27.023  1.00  0.00     0.167 HD
ATOM     24  C   UNL A   1      40.559  27.928  28.378  1.00  0.00     0.037 A 
ATOM     25  C   UNL A   1      47.298  26.547  27.023  1.00  0.00     0.037 A 
ATOM     26  C   UNL A   1      40.710  26.681  27.691  1.00  0.00     0.049 A 
ATOM     27  C   UNL A   1      46.216  25.506  27.005  1.00  0.00     0.074 A 
ATOM     28  C   UNL A   1      39.803  25.735  27.267  1.00  0.00     0.029 A 
ATOM     29  N   UNL A   1      41.974  26.190  27.388  1.00  0.00    -0.354 N 
ATOM     30  N   UNL A   1      44.911  25.668  27.032  1.00  0.00    -0.248 NA
ATOM     31  C   UNL A   1      46.648  24.110  26.920  1.00  0.00     0.031 C 
ATOM     32  C   UNL A   1      40.543  24.593  26.903  1.00  0.00     0.029 A 
ATOM     33  C   UNL A   1      41.900  24.869  27.036  1.00  0.00     0.049 A 
ATOM     34  H   UNL A   1      42.805  26.717  27.422  1.00  0.00     0.167 HD
ATOM     35  C   UNL A   1      44.359  24.398  26.939  1.00  0.00     0.074 A 
ATOM     36  C   UNL A   1      45.482  23.481  26.840  1.00  0.00     0.031 C 
ATOM     37  C   UNL A   1      43.055  24.013  26.939  1.00  0.00     0.037 A 
BRANCH  24  38
ATOM     38  C   UNL A   1      39.227  28.476  28.861  1.00  0.00     0.057 A 
ATOM     39  C   UNL A   1      38.655  28.207  30.103  1.00  0.00     0.134 A 
ATOM     40  C   UNL A   1      38.498  29.373  28.058  1.00  0.00     0.134 A 
ATOM     41  F   UNL A   1      39.234  27.350  30.954  1.00  0.00    -0.206 F 
ATOM     42  C   UNL A   1      37.468  28.838  30.523  1.00  0.00     0.040 A 
ATOM     43  C   UNL A   1      37.371  30.073  28.486  1.00  0.00     0.040 A 
ATOM     44  F   UNL A   1      38.902  29.622  26.805  1.00  0.00    -0.206 F 
ATOM     45  C   UNL A   1      36.836  29.792  29.725  1.00  0.00     0.006 A 
ENDBRANCH  24  38
BRANCH  25  46
ATOM     46  C   UNL A   1      48.746  26.229  27.012  1.00  0.00     0.057 A 
ATOM     47  C   UNL A   1      49.466  26.123  25.813  1.00  0.00     0.134 A 
ATOM     48  C   UNL A   1      49.428  25.928  28.196  1.00  0.00     0.134 A 
ATOM     49  F   UNL A   1      48.864  26.361  24.638  1.00  0.00    -0.206 F 
ATOM     50  C   UNL A   1      50.807  25.732  25.793  1.00  0.00     0.040 A 
ATOM     51  C   UNL A   1      50.774  25.554  28.192  1.00  0.00     0.040 A 
ATOM     52  F   UNL A   1      48.791  25.992  29.373  1.00  0.00    -0.206 F 
ATOM     53  C   UNL A   1      51.466  25.451  26.987  1.00  0.00     0.006 A 
ENDBRANCH  25  46
BRANCH  37  54
ATOM     54  C   UNL A   1      42.789  22.550  26.885  1.00  0.00     0.057 A 
ATOM     55  C   UNL A   1      42.903  21.850  25.682  1.00  0.00     0.134 A 
ATOM     56  C   UNL A   1      42.341  21.861  28.017  1.00  0.00     0.134 A 
ATOM     57  F   UNL A   1      43.308  22.472  24.564  1.00  0.00    -0.206 F 
ATOM     58  C   UNL A   1      42.564  20.503  25.602  1.00  0.00     0.040 A 
ATOM     59  C   UNL A   1      42.037  20.505  27.958  1.00  0.00     0.040 A 
ATOM     60  F   UNL A   1      42.219  22.490  29.195  1.00  0.00    -0.206 F 
ATOM     61  C   UNL A   1      42.137  19.826  26.744  1.00  0.00     0.006 A 
ENDBRANCH  37  54
ENDBRANCH  11  12
ENDBRANCH   4   6
ENDBRANCH   3   4
ENDBRANCH   2   3
ENDBRANCH   1   2
BRANCH   1  62
ATOM     62  O   UNL A   1      42.617  35.159  32.597  1.00  0.00    -0.462 OA
BRANCH  62  63
ATOM     63  C   UNL A   1      42.227  33.943  31.978  1.00  0.00     0.311 C 
ATOM     64  O   UNL A   1      42.239  33.803  30.767  1.00  0.00    -0.252 OA
BRANCH  63  65
ATOM     65  C   UNL A   1      41.732  32.781  33.139  1.00  0.00     0.130 C 
ATOM     66  C   UNL A   1      40.652  33.677  33.887  1.00  0.00     0.006 C 
ATOM     67  C   UNL A   1      40.841  31.501  33.133  1.00  0.00     0.081 C 
ATOM     68  C   UNL A   1      39.745  33.636  32.101  1.00  0.00     0.008 C 
ATOM     69  C   UNL A   1      39.191  33.818  35.577  1.00  0.00     0.008 C 
ATOM     70  C   UNL A   1      40.375  32.023  34.848  1.00  0.00     0.035 C 
ATOM     71  C   UNL A   1      39.489  31.354  32.025  1.00  0.00     0.035 C 
ATOM     72  C   UNL A   1      38.295  32.636  32.157  1.00  0.00    -0.008 C 
ATOM     73  C   UNL A   1      38.365  32.832  35.435  1.00  0.00    -0.008 C 
ATOM     74  C   UNL A   1      37.119  32.890  33.788  1.00  0.00     0.007 C 
BRANCH  67  75
ATOM     75  N   UNL A   1      41.649  30.106  33.100  1.00  0.00    -0.222 N 
ATOM     76  N   UNL A   1      42.975  30.098  32.654  1.00  0.00    -0.175 NA
ATOM     77  C   UNL A   1      41.152  28.954  33.714  1.00  0.00     0.288 A 
ATOM     78  C   UNL A   1      43.745  29.064  32.874  1.00  0.00     0.161 A 
ATOM     79  C   UNL A   1      42.114  27.772  33.892  1.00  0.00     0.132 A 
ATOM     80  O   UNL A   1      40.001  28.900  34.144  1.00  0.00    -0.266 OA
ATOM     81  C   UNL A   1      43.425  27.770  33.567  1.00  0.00     0.082 A 
ATOM     82  Cl  UNL A   1      41.426  26.391  34.698  1.00  0.00    -0.076 Cl
BRANCH  81  83
ATOM     83  N   UNL A   1      44.427  26.745  33.710  1.00  0.00    -0.365 N 
ATOM     84  C   UNL A   1      45.160  26.365  34.955  1.00  0.00     0.138 C 
ATOM     85  C   UNL A   1      44.816  25.775  32.646  1.00  0.00     0.138 C 
ATOM     86  C   UNL A   1      44.711  24.955  35.447  1.00  0.00     0.138 C 
ATOM     87  C   UNL A   1      44.604  24.278  33.048  1.00  0.00     0.138 C 
ATOM     88  N   UNL A   1      45.035  23.955  34.424  1.00  0.00    -0.368 N 
BRANCH  88  89
ATOM     89  C   UNL A   1      46.015  23.018  34.693  1.00  0.00     0.037 A 
ATOM     90  C   UNL A   1      45.834  21.663  34.389  1.00  0.00     0.029 A 
ATOM     91  C   UNL A   1      47.244  23.403  35.257  1.00  0.00     0.029 A 
ATOM     92  C   UNL A   1      46.835  20.719  34.655  1.00  0.00     0.041 A 
ATOM     93  C   UNL A   1      48.244  22.462  35.542  1.00  0.00     0.041 A 
ATOM     94  C   UNL A   1      48.027  21.126  35.240  1.00  0.00     0.123 A 
ATOM     95  F   UNL A   1      48.974  20.219  35.513  1.00  0.00    -0.207 F 
ENDBRANCH  88  89
ENDBRANCH  81  83
ENDBRANCH  67  75
ENDBRANCH  63  65
ENDBRANCH  62  63
ENDBRANCH   1  62
TORSDOF 14
ENDMDL
MODEL 3
REMARK VINA RESULT:     -13.1      9.837     19.590
REMARK SMILES O=C(OCCOC(=O)[C@H]1[C@@H]2C[C@H]3C[C@@H](C2)C[C@]1(n1ncc(N2CCN(c4ccc(F)cc4)CC2)c(Cl)c1=O)C3)c1ccc(-c2c3nc(c(-c4c(F)cccc4F)c4ccc([nH]4)c(-c4c(F)cccc4F)c4nc(c(-c5c(F)cccc5F)c5ccc2[nH]5)C=C4)C=C3)cc1
REMARK SMILES IDX 5 1 4 2 3 3 2 4 1 5 40 6 41 7 93 8 42 9 92 10 43 11 44 12
REMARK SMILES IDX 45 13 86 14 46 15 91 16 85 17 87 18 47 19 90 20 84 21 83 22
REMARK SMILES IDX 48 24 74 25 57 26 73 27 58 28 61 29 72 30 88 31 59 32 60 33
REMARK SMILES IDX 71 35 89 36 62 37 49 38 50 39 55 40 51 41 52 42 54 43 56 44
REMARK SMILES IDX 53 45 75 46 76 47 81 48 77 49 78 50 80 51 82 52 79 53 63 54
REMARK SMILES IDX 64 55 69 56 65 57 66 58 68 59 70 60 67 61 6 62 7 63 8 64
REMARK SMILES IDX 9 65 10 66 17 67 15 68 11 69 39 70 16 71 14 72 12 73 13 74
REMARK SMILES IDX 18 75 19 76 37 77 20 78 35 79 38 80 21 81 36 82 22 83 23 84
REMARK SMILES IDX 34 85 24 86 33 87 25 88 26 89 27 90 32 91 28 92 31 93 29 94
REMARK SMILES IDX 30 95
REMARK H PARENT 87 23 61 34
REMARK Flexibility Score: inf
ROOT
ATOM      1  C   UNL A   1      48.988  25.209  36.003  1.00  0.00     0.274 C 
ENDROOT
BRANCH   1   2
ATOM      2  C   UNL A   1      48.371  25.301  37.454  1.00  0.00     0.275 C 
BRANCH   2   3
ATOM      3  O   UNL A   1      47.278  24.407  37.660  1.00  0.00    -0.458 OA
BRANCH   3   4
ATOM      4  C   UNL A   1      45.998  24.807  37.754  1.00  0.00     0.338 C 
ATOM      5  O   UNL A   1      45.293  24.374  38.666  1.00  0.00    -0.246 OA
BRANCH   4   6
ATOM      6  C   UNL A   1      45.313  25.679  36.765  1.00  0.00     0.060 A 
ATOM      7  C   UNL A   1      43.787  24.836  35.961  1.00  0.00     0.016 A 
ATOM      8  C   UNL A   1      45.569  27.461  35.911  1.00  0.00     0.016 A 
ATOM      9  C   UNL A   1      42.502  25.813  34.926  1.00  0.00     0.010 A 
ATOM     10  C   UNL A   1      44.530  28.180  34.301  1.00  0.00     0.010 A 
ATOM     11  C   UNL A   1      42.689  27.512  34.077  1.00  0.00    -0.014 A 
BRANCH  11  12
ATOM     12  C   UNL A   1      41.567  28.336  33.550  1.00  0.00     0.031 A 
ATOM     13  C   UNL A   1      41.266  28.358  32.082  1.00  0.00     0.074 A 
ATOM     14  C   UNL A   1      41.078  29.335  34.311  1.00  0.00     0.049 A 
ATOM     15  N   UNL A   1      40.453  29.075  31.354  1.00  0.00    -0.248 NA
ATOM     16  C   UNL A   1      42.115  27.513  31.265  1.00  0.00     0.031 C 
ATOM     17  C   UNL A   1      41.484  29.708  35.671  1.00  0.00     0.029 A 
ATOM     18  N   UNL A   1      40.208  30.328  33.957  1.00  0.00    -0.354 N 
ATOM     19  C   UNL A   1      40.740  28.685  30.042  1.00  0.00     0.074 A 
ATOM     20  C   UNL A   1      42.022  28.051  30.067  1.00  0.00     0.031 C 
ATOM     21  C   UNL A   1      40.951  30.898  35.987  1.00  0.00     0.029 A 
ATOM     22  C   UNL A   1      40.129  31.341  34.876  1.00  0.00     0.049 A 
ATOM     23  H   UNL A   1      39.687  30.318  33.121  1.00  0.00     0.167 HD
ATOM     24  C   UNL A   1      39.886  28.597  28.990  1.00  0.00     0.037 A 
ATOM     25  C   UNL A   1      39.469  32.507  34.795  1.00  0.00     0.037 A 
ATOM     26  C   UNL A   1      38.634  29.289  29.066  1.00  0.00     0.049 A 
ATOM     27  C   UNL A   1      38.586  32.702  33.595  1.00  0.00     0.074 A 
ATOM     28  C   UNL A   1      37.539  29.326  28.233  1.00  0.00     0.029 A 
ATOM     29  N   UNL A   1      38.378  30.170  30.110  1.00  0.00    -0.354 N 
ATOM     30  N   UNL A   1      38.424  31.919  32.551  1.00  0.00    -0.248 NA
ATOM     31  C   UNL A   1      37.764  33.913  33.574  1.00  0.00     0.031 C 
ATOM     32  C   UNL A   1      36.725  30.388  28.676  1.00  0.00     0.029 A 
ATOM     33  C   UNL A   1      37.289  30.947  29.818  1.00  0.00     0.049 A 
ATOM     34  H   UNL A   1      38.904  30.230  30.939  1.00  0.00     0.167 HD
ATOM     35  C   UNL A   1      37.460  32.524  31.758  1.00  0.00     0.074 A 
ATOM     36  C   UNL A   1      37.068  33.735  32.459  1.00  0.00     0.031 C 
ATOM     37  C   UNL A   1      36.943  32.131  30.564  1.00  0.00     0.037 A 
BRANCH  24  38
ATOM     38  C   UNL A   1      40.300  27.717  27.823  1.00  0.00     0.057 A 
ATOM     39  C   UNL A   1      41.096  28.127  26.755  1.00  0.00     0.134 A 
ATOM     40  C   UNL A   1      39.928  26.360  27.794  1.00  0.00     0.134 A 
ATOM     41  F   UNL A   1      41.498  29.400  26.649  1.00  0.00    -0.206 F 
ATOM     42  C   UNL A   1      41.528  27.224  25.765  1.00  0.00     0.040 A 
ATOM     43  C   UNL A   1      40.413  25.432  26.873  1.00  0.00     0.040 A 
ATOM     44  F   UNL A   1      39.079  25.883  28.714  1.00  0.00    -0.206 F 
ATOM     45  C   UNL A   1      41.208  25.868  25.835  1.00  0.00     0.006 A 
ENDBRANCH  24  38
BRANCH  25  46
ATOM     46  C   UNL A   1      39.580  33.486  35.903  1.00  0.00     0.057 A 
ATOM     47  C   UNL A   1      38.756  33.409  37.035  1.00  0.00     0.134 A 
ATOM     48  C   UNL A   1      40.447  34.579  35.815  1.00  0.00     0.134 A 
ATOM     49  F   UNL A   1      37.874  32.407  37.166  1.00  0.00    -0.206 F 
ATOM     50  C   UNL A   1      38.792  34.383  38.038  1.00  0.00     0.040 A 
ATOM     51  C   UNL A   1      40.507  35.549  36.819  1.00  0.00     0.040 A 
ATOM     52  F   UNL A   1      41.247  34.719  34.749  1.00  0.00    -0.206 F 
ATOM     53  C   UNL A   1      39.675  35.455  37.932  1.00  0.00     0.006 A 
ENDBRANCH  25  46
BRANCH  37  54
ATOM     54  C   UNL A   1      35.953  33.043  29.929  1.00  0.00     0.057 A 
ATOM     55  C   UNL A   1      34.629  33.077  30.374  1.00  0.00     0.134 A 
ATOM     56  C   UNL A   1      36.303  33.826  28.824  1.00  0.00     0.134 A 
ATOM     57  F   UNL A   1      34.238  32.328  31.417  1.00  0.00    -0.206 F 
ATOM     58  C   UNL A   1      33.675  33.854  29.726  1.00  0.00     0.040 A 
ATOM     59  C   UNL A   1      35.367  34.637  28.193  1.00  0.00     0.040 A 
ATOM     60  F   UNL A   1      37.563  33.829  28.363  1.00  0.00    -0.206 F 
ATOM     61  C   UNL A   1      34.046  34.643  28.638  1.00  0.00     0.006 A 
ENDBRANCH  37  54
ENDBRANCH  11  12
ENDBRANCH   4   6
ENDBRANCH   3   4
ENDBRANCH   2   3
ENDBRANCH   1   2
BRANCH   1  62
ATOM     62  O   UNL A   1      48.600  23.962  35.287  1.00  0.00    -0.462 OA
BRANCH  62  63
ATOM     63  C   UNL A   1      49.348  23.175  34.374  1.00  0.00     0.311 C 
ATOM     64  O   UNL A   1      49.654  23.586  33.267  1.00  0.00    -0.252 OA
BRANCH  63  65
ATOM     65  C   UNL A   1      49.703  21.628  35.026  1.00  0.00     0.130 C 
ATOM     66  C   UNL A   1      50.963  21.299  34.115  1.00  0.00     0.006 C 
ATOM     67  C   UNL A   1      50.356  21.087  36.335  1.00  0.00     0.081 C 
ATOM     68  C   UNL A   1      51.743  22.891  35.050  1.00  0.00     0.008 C 
ATOM     69  C   UNL A   1      52.525  19.793  33.563  1.00  0.00     0.008 C 
ATOM     70  C   UNL A   1      51.007  19.734  35.250  1.00  0.00     0.035 C 
ATOM     71  C   UNL A   1      51.595  22.010  37.167  1.00  0.00     0.035 C 
ATOM     72  C   UNL A   1      52.998  22.399  36.185  1.00  0.00    -0.008 C 
ATOM     73  C   UNL A   1      53.157  19.498  34.652  1.00  0.00    -0.008 C 
ATOM     74  C   UNL A   1      54.295  20.999  35.503  1.00  0.00     0.007 C 
BRANCH  67  75
ATOM     75  N   UNL A   1      49.319  20.554  37.448  1.00  0.00    -0.222 N 
ATOM     76  N   UNL A   1      47.959  20.857  37.312  1.00  0.00    -0.175 NA
ATOM     77  C   UNL A   1      49.692  19.613  38.411  1.00  0.00     0.288 A 
ATOM     78  C   UNL A   1      47.061  20.220  38.018  1.00  0.00     0.161 A 
ATOM     79  C   UNL A   1      48.575  18.947  39.225  1.00  0.00     0.132 A 
ATOM     80  O   UNL A   1      50.868  19.290  38.571  1.00  0.00    -0.266 OA
ATOM     81  C   UNL A   1      47.250  19.140  39.045  1.00  0.00     0.082 A 
ATOM     82  Cl  UNL A   1      49.123  17.762  40.375  1.00  0.00    -0.076 Cl
BRANCH  81  83
ATOM     83  N   UNL A   1      46.116  18.559  39.718  1.00  0.00    -0.365 N 
ATOM     84  C   UNL A   1      45.278  17.414  39.252  1.00  0.00     0.138 C 
ATOM     85  C   UNL A   1      45.658  18.922  41.090  1.00  0.00     0.138 C 
ATOM     86  C   UNL A   1      45.513  16.161  40.149  1.00  0.00     0.138 C 
ATOM     87  C   UNL A   1      45.651  17.721  42.092  1.00  0.00     0.138 C 
ATOM     88  N   UNL A   1      45.113  16.465  41.527  1.00  0.00    -0.368 N 
BRANCH  88  89
ATOM     89  C   UNL A   1      44.006  15.830  42.057  1.00  0.00     0.037 A 
ATOM     90  C   UNL A   1      42.875  15.560  41.277  1.00  0.00     0.029 A 
ATOM     91  C   UNL A   1      43.992  15.406  43.398  1.00  0.00     0.029 A 
ATOM     92  C   UNL A   1      41.759  14.907  41.817  1.00  0.00     0.041 A 
ATOM     93  C   UNL A   1      42.872  14.767  43.951  1.00  0.00     0.041 A 
ATOM     94  C   UNL A   1      41.763  14.527  43.153  1.00  0.00     0.123 A 
ATOM     95  F   UNL A   1      40.687  13.922  43.673  1.00  0.00    -0.207 F 
ENDBRANCH  88  89
ENDBRANCH  81  83
ENDBRANCH  67  75
ENDBRANCH  63  65
ENDBRANCH  62  63
ENDBRANCH   1  62
TORSDOF 14
ENDMDL
