MODEL 1
REMARK VINA RESULT:      -9.2      0.000      0.000
REMARK SMILES CCC(CC)C(O)(C(=O)OCCOC(=O)c1ccc(-c2c3nc(c(-c4c(F)cccc4F)c4ccc([nH]4)c(-c4c(F)cccc4F)c4nc(c(-c5c(F)cccc5F)c5ccc2[nH]5)C=C4)C=C3)cc1)C(CC)CC
REMARK SMILES IDX 11 1 10 2 8 3 9 4 6 5 3 6 2 7 1 8 4 9 5 10 7 11 70 13 71 14
REMARK SMILES IDX 72 15 73 16 74 17 12 18 13 19 14 20 15 21 16 22 17 23 69 24
REMARK SMILES IDX 18 25 68 26 19 27 20 28 21 29 62 30 22 31 67 32 61 33 63 34
REMARK SMILES IDX 23 35 66 36 60 37 59 38 24 40 50 41 33 42 49 43 34 44 37 45
REMARK SMILES IDX 48 46 64 47 35 48 36 49 47 51 65 52 38 53 25 54 26 55 31 56
REMARK SMILES IDX 27 57 28 58 30 59 32 60 29 61 51 62 52 63 57 64 53 65 54 66
REMARK SMILES IDX 56 67 58 68 55 69 39 70 40 71 45 72 41 73 42 74 44 75 46 76
REMARK SMILES IDX 43 77
REMARK H PARENT 7 12 63 39 37 50
REMARK Flexibility Score: inf
ROOT
ATOM      1  C   UNL A   1      34.771  21.267  24.381  1.00  0.00     0.274 C 
ENDROOT
BRANCH   1   2
ATOM      2  O   UNL A   1      33.536  21.730  24.976  1.00  0.00    -0.460 OA
BRANCH   2   3
ATOM      3  C   UNL A   1      32.496  21.959  24.128  1.00  0.00     0.338 C 
ATOM      4  O   UNL A   1      32.061  21.101  23.365  1.00  0.00    -0.249 OA
BRANCH   3   5
ATOM      5  C   UNL A   1      32.064  23.464  24.084  1.00  0.00     0.167 C 
BRANCH   5   6
ATOM      6  C   UNL A   1      33.053  24.449  23.341  1.00  0.00     0.032 C 
BRANCH   6   7
ATOM      7  C   UNL A   1      32.376  25.098  22.106  1.00  0.00     0.004 C 
ATOM      8  C   UNL A   1      31.928  26.542  22.270  1.00  0.00     0.004 C 
ENDBRANCH   6   7
BRANCH   6   9
ATOM      9  C   UNL A   1      34.030  25.368  24.131  1.00  0.00     0.004 C 
ATOM     10  C   UNL A   1      34.823  24.857  25.310  1.00  0.00     0.004 C 
ENDBRANCH   6   9
ENDBRANCH   5   6
BRANCH   5  11
ATOM     11  O   UNL A   1      30.943  23.338  23.140  1.00  0.00    -0.378 OA
ATOM     12  H   UNL A   1      30.358  22.620  23.428  1.00  0.00     0.212 HD
ENDBRANCH   5  11
BRANCH   5  13
ATOM     13  C   UNL A   1      31.380  23.872  25.474  1.00  0.00     0.032 C 
BRANCH  13  14
ATOM     14  C   UNL A   1      30.373  25.048  25.469  1.00  0.00     0.004 C 
ATOM     15  C   UNL A   1      30.814  26.412  25.979  1.00  0.00     0.004 C 
ENDBRANCH  13  14
BRANCH  13  16
ATOM     16  C   UNL A   1      30.863  22.751  26.422  1.00  0.00     0.004 C 
ATOM     17  C   UNL A   1      29.521  23.003  27.099  1.00  0.00     0.004 C 
ENDBRANCH  13  16
ENDBRANCH   5  13
ENDBRANCH   3   5
ENDBRANCH   2   3
ENDBRANCH   1   2
BRANCH   1  18
ATOM     18  C   UNL A   1      35.856  21.059  25.438  1.00  0.00     0.275 C 
BRANCH  18  19
ATOM     19  O   UNL A   1      37.074  21.668  24.982  1.00  0.00    -0.458 OA
BRANCH  19  20
ATOM     20  C   UNL A   1      38.221  21.240  25.560  1.00  0.00     0.338 C 
ATOM     21  O   UNL A   1      38.671  20.108  25.539  1.00  0.00    -0.246 OA
BRANCH  20  22
ATOM     22  C   UNL A   1      38.921  22.386  26.195  1.00  0.00     0.060 A 
ATOM     23  C   UNL A   1      38.447  23.688  26.045  1.00  0.00     0.016 A 
ATOM     24  C   UNL A   1      40.127  22.174  26.865  1.00  0.00     0.016 A 
ATOM     25  C   UNL A   1      39.213  24.771  26.466  1.00  0.00     0.010 A 
ATOM     26  C   UNL A   1      40.843  23.263  27.383  1.00  0.00     0.010 A 
ATOM     27  C   UNL A   1      40.411  24.582  27.164  1.00  0.00    -0.014 A 
BRANCH  27  28
ATOM     28  C   UNL A   1      41.204  25.750  27.651  1.00  0.00     0.031 A 
ATOM     29  C   UNL A   1      40.575  26.780  28.555  1.00  0.00     0.074 A 
ATOM     30  C   UNL A   1      42.494  25.905  27.288  1.00  0.00     0.049 A 
ATOM     31  N   UNL A   1      40.994  27.984  28.852  1.00  0.00    -0.248 NA
ATOM     32  C   UNL A   1      39.301  26.415  29.194  1.00  0.00     0.031 C 
ATOM     33  C   UNL A   1      43.270  24.972  26.468  1.00  0.00     0.029 A 
ATOM     34  N   UNL A   1      43.387  26.912  27.568  1.00  0.00    -0.354 N 
ATOM     35  C   UNL A   1      40.001  28.549  29.644  1.00  0.00     0.074 A 
ATOM     36  C   UNL A   1      38.967  27.548  29.799  1.00  0.00     0.031 C 
ATOM     37  C   UNL A   1      44.526  25.422  26.350  1.00  0.00     0.029 A 
ATOM     38  C   UNL A   1      44.617  26.733  26.979  1.00  0.00     0.049 A 
ATOM     39  H   UNL A   1      43.167  27.687  28.133  1.00  0.00     0.167 HD
ATOM     40  C   UNL A   1      39.955  29.793  30.180  1.00  0.00     0.037 A 
ATOM     41  C   UNL A   1      45.682  27.550  26.889  1.00  0.00     0.037 A 
ATOM     42  C   UNL A   1      41.021  30.758  30.089  1.00  0.00     0.049 A 
ATOM     43  C   UNL A   1      45.604  28.927  27.474  1.00  0.00     0.074 A 
ATOM     44  C   UNL A   1      41.072  32.040  30.611  1.00  0.00     0.029 A 
ATOM     45  N   UNL A   1      42.235  30.538  29.458  1.00  0.00    -0.354 N 
ATOM     46  N   UNL A   1      44.616  29.492  28.122  1.00  0.00    -0.248 NA
ATOM     47  C   UNL A   1      46.777  29.792  27.284  1.00  0.00     0.031 C 
ATOM     48  C   UNL A   1      42.307  32.604  30.274  1.00  0.00     0.029 A 
ATOM     49  C   UNL A   1      43.039  31.661  29.574  1.00  0.00     0.049 A 
ATOM     50  H   UNL A   1      42.489  29.707  28.995  1.00  0.00     0.167 HD
ATOM     51  C   UNL A   1      45.043  30.779  28.415  1.00  0.00     0.074 A 
ATOM     52  C   UNL A   1      46.391  30.902  27.897  1.00  0.00     0.031 C 
ATOM     53  C   UNL A   1      44.374  31.772  29.047  1.00  0.00     0.037 A 
BRANCH  40  54
ATOM     54  C   UNL A   1      38.698  30.206  30.888  1.00  0.00     0.057 A 
ATOM     55  C   UNL A   1      38.507  30.000  32.258  1.00  0.00     0.134 A 
ATOM     56  C   UNL A   1      37.688  30.883  30.189  1.00  0.00     0.134 A 
ATOM     57  F   UNL A   1      39.428  29.346  32.983  1.00  0.00    -0.206 F 
ATOM     58  C   UNL A   1      37.353  30.445  32.908  1.00  0.00     0.040 A 
ATOM     59  C   UNL A   1      36.541  31.352  30.831  1.00  0.00     0.040 A 
ATOM     60  F   UNL A   1      37.812  31.119  28.875  1.00  0.00    -0.206 F 
ATOM     61  C   UNL A   1      36.371  31.131  32.196  1.00  0.00     0.006 A 
ENDBRANCH  40  54
BRANCH  41  62
ATOM     62  C   UNL A   1      46.886  27.102  26.147  1.00  0.00     0.057 A 
ATOM     63  C   UNL A   1      47.913  26.404  26.788  1.00  0.00     0.134 A 
ATOM     64  C   UNL A   1      47.020  27.330  24.770  1.00  0.00     0.134 A 
ATOM     65  F   UNL A   1      47.853  26.179  28.110  1.00  0.00    -0.206 F 
ATOM     66  C   UNL A   1      49.030  25.945  26.089  1.00  0.00     0.040 A 
ATOM     67  C   UNL A   1      48.116  26.853  24.054  1.00  0.00     0.040 A 
ATOM     68  F   UNL A   1      46.066  27.992  24.098  1.00  0.00    -0.206 F 
ATOM     69  C   UNL A   1      49.127  26.159  24.714  1.00  0.00     0.006 A 
ENDBRANCH  41  62
BRANCH  53  70
ATOM     70  C   UNL A   1      45.101  33.069  29.226  1.00  0.00     0.057 A 
ATOM     71  C   UNL A   1      44.989  34.107  28.293  1.00  0.00     0.134 A 
ATOM     72  C   UNL A   1      45.916  33.283  30.343  1.00  0.00     0.134 A 
ATOM     73  F   UNL A   1      44.236  33.956  27.193  1.00  0.00    -0.206 F 
ATOM     74  C   UNL A   1      45.681  35.308  28.456  1.00  0.00     0.040 A 
ATOM     75  C   UNL A   1      46.598  34.486  30.526  1.00  0.00     0.040 A 
ATOM     76  F   UNL A   1      46.061  32.328  31.273  1.00  0.00    -0.206 F 
ATOM     77  C   UNL A   1      46.485  35.501  29.578  1.00  0.00     0.006 A 
ENDBRANCH  53  70
ENDBRANCH  27  28
ENDBRANCH  20  22
ENDBRANCH  19  20
ENDBRANCH  18  19
ENDBRANCH   1  18
TORSDOF 18
ENDMDL
MODEL 2
REMARK VINA RESULT:      -9.2      3.869      8.562
REMARK SMILES CCC(CC)C(O)(C(=O)OCCOC(=O)c1ccc(-c2c3nc(c(-c4c(F)cccc4F)c4ccc([nH]4)c(-c4c(F)cccc4F)c4nc(c(-c5c(F)cccc5F)c5ccc2[nH]5)C=C4)C=C3)cc1)C(CC)CC
REMARK SMILES IDX 11 1 10 2 8 3 9 4 6 5 3 6 2 7 1 8 4 9 5 10 7 11 70 13 71 14
REMARK SMILES IDX 72 15 73 16 74 17 12 18 13 19 14 20 15 21 16 22 17 23 69 24
REMARK SMILES IDX 18 25 68 26 19 27 20 28 21 29 62 30 22 31 67 32 61 33 63 34
REMARK SMILES IDX 23 35 66 36 60 37 59 38 24 40 50 41 33 42 49 43 34 44 37 45
REMARK SMILES IDX 48 46 64 47 35 48 36 49 47 51 65 52 38 53 25 54 26 55 31 56
REMARK SMILES IDX 27 57 28 58 30 59 32 60 29 61 51 62 52 63 57 64 53 65 54 66
REMARK SMILES IDX 56 67 58 68 55 69 39 70 40 71 45 72 41 73 42 74 44 75 46 76
REMARK SMILES IDX 43 77
REMARK H PARENT 7 12 63 39 37 50
REMARK Flexibility Score: inf
ROOT
ATOM      1  C   UNL A   1      31.525  28.128  26.083  1.00  0.00     0.274 C 
ENDROOT
BRANCH   1   2
ATOM      2  O   UNL A   1      31.809  26.947  25.298  1.00  0.00    -0.460 OA
BRANCH   2   3
ATOM      3  C   UNL A   1      32.932  26.249  25.623  1.00  0.00     0.338 C 
ATOM      4  O   UNL A   1      34.015  26.791  25.819  1.00  0.00    -0.249 OA
BRANCH   3   5
ATOM      5  C   UNL A   1      32.740  24.698  25.515  1.00  0.00     0.167 C 
BRANCH   5   6
ATOM      6  C   UNL A   1      33.789  23.812  26.299  1.00  0.00     0.032 C 
BRANCH   6   7
ATOM      7  C   UNL A   1      33.088  22.904  27.343  1.00  0.00     0.004 C 
ATOM      8  C   UNL A   1      33.574  21.465  27.413  1.00  0.00     0.004 C 
ENDBRANCH   6   7
BRANCH   6   9
ATOM      9  C   UNL A   1      35.019  23.183  25.583  1.00  0.00     0.004 C 
ATOM     10  C   UNL A   1      36.178  24.027  25.105  1.00  0.00     0.004 C 
ENDBRANCH   6   9
ENDBRANCH   5   6
BRANCH   5  11
ATOM     11  O   UNL A   1      31.521  24.576  26.328  1.00  0.00    -0.378 OA
ATOM     12  H   UNL A   1      31.696  24.907  27.223  1.00  0.00     0.212 HD
ENDBRANCH   5  11
BRANCH   5  13
ATOM     13  C   UNL A   1      32.279  24.312  24.030  1.00  0.00     0.032 C 
BRANCH  13  14
ATOM     14  C   UNL A   1      33.210  24.704  22.857  1.00  0.00     0.004 C 
ATOM     15  C   UNL A   1      32.779  25.804  21.897  1.00  0.00     0.004 C 
ENDBRANCH  13  14
BRANCH  13  16
ATOM     16  C   UNL A   1      31.678  22.900  23.766  1.00  0.00     0.004 C 
ATOM     17  C   UNL A   1      32.537  21.941  22.950  1.00  0.00     0.004 C 
ENDBRANCH  13  16
ENDBRANCH   5  13
ENDBRANCH   3   5
ENDBRANCH   2   3
ENDBRANCH   1   2
BRANCH   1  18
ATOM     18  C   UNL A   1      31.653  29.399  25.243  1.00  0.00     0.275 C 
BRANCH  18  19
ATOM     19  O   UNL A   1      32.882  30.060  25.583  1.00  0.00    -0.458 OA
BRANCH  19  20
ATOM     20  C   UNL A   1      32.829  30.967  26.586  1.00  0.00     0.338 C 
ATOM     21  O   UNL A   1      31.926  31.754  26.810  1.00  0.00    -0.246 OA
BRANCH  20  22
ATOM     22  C   UNL A   1      34.030  30.833  27.448  1.00  0.00     0.060 A 
ATOM     23  C   UNL A   1      34.750  31.954  27.855  1.00  0.00     0.016 A 
ATOM     24  C   UNL A   1      34.508  29.562  27.774  1.00  0.00     0.016 A 
ATOM     25  C   UNL A   1      35.983  31.812  28.487  1.00  0.00     0.010 A 
ATOM     26  C   UNL A   1      35.697  29.426  28.507  1.00  0.00     0.010 A 
ATOM     27  C   UNL A   1      36.468  30.550  28.848  1.00  0.00    -0.014 A 
BRANCH  27  28
ATOM     28  C   UNL A   1      37.770  30.409  29.566  1.00  0.00     0.031 A 
ATOM     29  C   UNL A   1      38.925  29.684  28.923  1.00  0.00     0.074 A 
ATOM     30  C   UNL A   1      37.934  30.925  30.801  1.00  0.00     0.049 A 
ATOM     31  N   UNL A   1      40.017  29.217  29.474  1.00  0.00    -0.248 NA
ATOM     32  C   UNL A   1      38.832  29.434  27.476  1.00  0.00     0.031 C 
ATOM     33  C   UNL A   1      36.938  31.704  31.541  1.00  0.00     0.029 A 
ATOM     34  N   UNL A   1      39.007  30.872  31.658  1.00  0.00    -0.354 N 
ATOM     35  C   UNL A   1      40.701  28.552  28.463  1.00  0.00     0.074 A 
ATOM     36  C   UNL A   1      39.910  28.692  27.258  1.00  0.00     0.031 C 
ATOM     37  C   UNL A   1      37.459  32.094  32.712  1.00  0.00     0.029 A 
ATOM     38  C   UNL A   1      38.778  31.493  32.863  1.00  0.00     0.049 A 
ATOM     39  H   UNL A   1      39.857  30.431  31.431  1.00  0.00     0.167 HD
ATOM     40  C   UNL A   1      41.874  27.878  28.540  1.00  0.00     0.037 A 
ATOM     41  C   UNL A   1      39.505  31.525  33.995  1.00  0.00     0.037 A 
ATOM     42  C   UNL A   1      42.696  27.808  29.722  1.00  0.00     0.049 A 
ATOM     43  C   UNL A   1      40.791  30.759  34.064  1.00  0.00     0.074 A 
ATOM     44  C   UNL A   1      43.908  27.159  29.893  1.00  0.00     0.029 A 
ATOM     45  N   UNL A   1      42.405  28.430  30.925  1.00  0.00    -0.354 N 
ATOM     46  N   UNL A   1      41.372  30.038  33.137  1.00  0.00    -0.248 NA
ATOM     47  C   UNL A   1      41.504  30.782  35.349  1.00  0.00     0.031 C 
ATOM     48  C   UNL A   1      44.338  27.368  31.208  1.00  0.00     0.029 A 
ATOM     49  C   UNL A   1      43.412  28.177  31.844  1.00  0.00     0.049 A 
ATOM     50  H   UNL A   1      41.603  28.971  31.102  1.00  0.00     0.167 HD
ATOM     51  C   UNL A   1      42.516  29.518  33.724  1.00  0.00     0.074 A 
ATOM     52  C   UNL A   1      42.562  30.028  35.080  1.00  0.00     0.031 C 
ATOM     53  C   UNL A   1      43.440  28.684  33.191  1.00  0.00     0.037 A 
BRANCH  40  54
ATOM     54  C   UNL A   1      42.332  27.127  27.325  1.00  0.00     0.057 A 
ATOM     55  C   UNL A   1      43.103  27.723  26.322  1.00  0.00     0.134 A 
ATOM     56  C   UNL A   1      42.048  25.759  27.195  1.00  0.00     0.134 A 
ATOM     57  F   UNL A   1      43.400  29.031  26.378  1.00  0.00    -0.206 F 
ATOM     58  C   UNL A   1      43.568  26.990  25.227  1.00  0.00     0.040 A 
ATOM     59  C   UNL A   1      42.526  25.011  26.118  1.00  0.00     0.040 A 
ATOM     60  F   UNL A   1      41.320  25.125  28.126  1.00  0.00    -0.206 F 
ATOM     61  C   UNL A   1      43.288  25.628  25.128  1.00  0.00     0.006 A 
ENDBRANCH  40  54
BRANCH  41  62
ATOM     62  C   UNL A   1      38.986  32.255  35.177  1.00  0.00     0.057 A 
ATOM     63  C   UNL A   1      39.105  33.644  35.279  1.00  0.00     0.134 A 
ATOM     64  C   UNL A   1      38.326  31.583  36.215  1.00  0.00     0.134 A 
ATOM     65  F   UNL A   1      39.750  34.337  34.329  1.00  0.00    -0.206 F 
ATOM     66  C   UNL A   1      38.584  34.342  36.369  1.00  0.00     0.040 A 
ATOM     67  C   UNL A   1      37.776  32.270  37.296  1.00  0.00     0.040 A 
ATOM     68  F   UNL A   1      38.178  30.251  36.173  1.00  0.00    -0.206 F 
ATOM     69  C   UNL A   1      37.906  33.655  37.377  1.00  0.00     0.006 A 
ENDBRANCH  41  62
BRANCH  53  70
ATOM     70  C   UNL A   1      44.584  28.291  34.073  1.00  0.00     0.057 A 
ATOM     71  C   UNL A   1      45.746  29.067  34.156  1.00  0.00     0.134 A 
ATOM     72  C   UNL A   1      44.521  27.129  34.851  1.00  0.00     0.134 A 
ATOM     73  F   UNL A   1      45.873  30.183  33.422  1.00  0.00    -0.206 F 
ATOM     74  C   UNL A   1      46.816  28.689  34.968  1.00  0.00     0.040 A 
ATOM     75  C   UNL A   1      45.576  26.751  35.680  1.00  0.00     0.040 A 
ATOM     76  F   UNL A   1      43.432  26.346  34.817  1.00  0.00    -0.206 F 
ATOM     77  C   UNL A   1      46.731  27.529  35.736  1.00  0.00     0.006 A 
ENDBRANCH  53  70
ENDBRANCH  27  28
ENDBRANCH  20  22
ENDBRANCH  19  20
ENDBRANCH  18  19
ENDBRANCH   1  18
TORSDOF 18
ENDMDL
MODEL 3
REMARK VINA RESULT:      -9.1      3.947      8.579
REMARK SMILES CCC(CC)C(O)(C(=O)OCCOC(=O)c1ccc(-c2c3nc(c(-c4c(F)cccc4F)c4ccc([nH]4)c(-c4c(F)cccc4F)c4nc(c(-c5c(F)cccc5F)c5ccc2[nH]5)C=C4)C=C3)cc1)C(CC)CC
REMARK SMILES IDX 11 1 10 2 8 3 9 4 6 5 3 6 2 7 1 8 4 9 5 10 7 11 70 13 71 14
REMARK SMILES IDX 72 15 73 16 74 17 12 18 13 19 14 20 15 21 16 22 17 23 69 24
REMARK SMILES IDX 18 25 68 26 19 27 20 28 21 29 62 30 22 31 67 32 61 33 63 34
REMARK SMILES IDX 23 35 66 36 60 37 59 38 24 40 50 41 33 42 49 43 34 44 37 45
REMARK SMILES IDX 48 46 64 47 35 48 36 49 47 51 65 52 38 53 25 54 26 55 31 56
REMARK SMILES IDX 27 57 28 58 30 59 32 60 29 61 51 62 52 63 57 64 53 65 54 66
REMARK SMILES IDX 56 67 58 68 55 69 39 70 40 71 45 72 41 73 42 74 44 75 46 76
REMARK SMILES IDX 43 77
REMARK H PARENT 7 12 63 39 37 50
REMARK Flexibility Score: inf
ROOT
ATOM      1  C   UNL A   1      32.081  27.829  26.204  1.00  0.00     0.274 C 
ENDROOT
BRANCH   1   2
ATOM      2  O   UNL A   1      32.755  27.101  25.152  1.00  0.00    -0.460 OA
BRANCH   2   3
ATOM      3  C   UNL A   1      32.767  25.743  25.256  1.00  0.00     0.338 C 
ATOM      4  O   UNL A   1      32.826  25.163  26.335  1.00  0.00    -0.249 OA
BRANCH   3   5
ATOM      5  C   UNL A   1      32.908  25.025  23.871  1.00  0.00     0.167 C 
BRANCH   5   6
ATOM      6  C   UNL A   1      31.659  25.127  22.906  1.00  0.00     0.032 C 
BRANCH   6   7
ATOM      7  C   UNL A   1      30.333  25.182  23.709  1.00  0.00     0.004 C 
ATOM      8  C   UNL A   1      29.586  26.506  23.678  1.00  0.00     0.004 C 
ENDBRANCH   6   7
BRANCH   6   9
ATOM      9  C   UNL A   1      31.698  25.996  21.615  1.00  0.00     0.004 C 
ATOM     10  C   UNL A   1      32.486  25.574  20.398  1.00  0.00     0.004 C 
ENDBRANCH   6   9
ENDBRANCH   5   6
BRANCH   5  11
ATOM     11  O   UNL A   1      33.884  25.937  23.256  1.00  0.00    -0.378 OA
ATOM     12  H   UNL A   1      34.221  26.550  23.927  1.00  0.00     0.212 HD
ENDBRANCH   5  11
BRANCH   5  13
ATOM     13  C   UNL A   1      33.700  23.645  24.055  1.00  0.00     0.032 C 
BRANCH  13  14
ATOM     14  C   UNL A   1      33.077  22.365  23.446  1.00  0.00     0.004 C 
ATOM     15  C   UNL A   1      32.233  21.454  24.325  1.00  0.00     0.004 C 
ENDBRANCH  13  14
BRANCH  13  16
ATOM     16  C   UNL A   1      35.242  23.622  23.843  1.00  0.00     0.004 C 
ATOM     17  C   UNL A   1      36.099  23.710  25.101  1.00  0.00     0.004 C 
ENDBRANCH  13  16
ENDBRANCH   5  13
ENDBRANCH   3   5
ENDBRANCH   2   3
ENDBRANCH   1   2
BRANCH   1  18
ATOM     18  C   UNL A   1      31.674  29.229  25.742  1.00  0.00     0.275 C 
BRANCH  18  19
ATOM     19  O   UNL A   1      32.848  30.052  25.661  1.00  0.00    -0.458 OA
BRANCH  19  20
ATOM     20  C   UNL A   1      33.033  30.948  26.659  1.00  0.00     0.338 C 
ATOM     21  O   UNL A   1      32.236  31.783  27.046  1.00  0.00    -0.246 OA
BRANCH  20  22
ATOM     22  C   UNL A   1      34.361  30.732  27.287  1.00  0.00     0.060 A 
ATOM     23  C   UNL A   1      34.796  29.451  27.622  1.00  0.00     0.016 A 
ATOM     24  C   UNL A   1      35.144  31.831  27.644  1.00  0.00     0.016 A 
ATOM     25  C   UNL A   1      35.943  29.272  28.391  1.00  0.00     0.010 A 
ATOM     26  C   UNL A   1      36.355  31.638  28.325  1.00  0.00     0.010 A 
ATOM     27  C   UNL A   1      36.758  30.356  28.737  1.00  0.00    -0.014 A 
BRANCH  27  28
ATOM     28  C   UNL A   1      38.010  30.151  29.524  1.00  0.00     0.031 A 
ATOM     29  C   UNL A   1      39.152  29.351  28.951  1.00  0.00     0.074 A 
ATOM     30  C   UNL A   1      38.139  30.674  30.760  1.00  0.00     0.049 A 
ATOM     31  N   UNL A   1      40.185  28.830  29.564  1.00  0.00    -0.248 NA
ATOM     32  C   UNL A   1      39.120  29.087  27.503  1.00  0.00     0.031 C 
ATOM     33  C   UNL A   1      37.153  31.519  31.438  1.00  0.00     0.029 A 
ATOM     34  N   UNL A   1      39.161  30.570  31.673  1.00  0.00    -0.354 N 
ATOM     35  C   UNL A   1      40.881  28.113  28.598  1.00  0.00     0.074 A 
ATOM     36  C   UNL A   1      40.163  28.281  27.351  1.00  0.00     0.031 C 
ATOM     37  C   UNL A   1      37.635  31.895  32.630  1.00  0.00     0.029 A 
ATOM     38  C   UNL A   1      38.906  31.220  32.858  1.00  0.00     0.049 A 
ATOM     39  H   UNL A   1      39.995  30.078  31.497  1.00  0.00     0.167 HD
ATOM     40  C   UNL A   1      42.006  27.373  28.744  1.00  0.00     0.037 A 
ATOM     41  C   UNL A   1      39.574  31.226  34.026  1.00  0.00     0.037 A 
ATOM     42  C   UNL A   1      42.761  27.272  29.968  1.00  0.00     0.049 A 
ATOM     43  C   UNL A   1      40.808  30.388  34.171  1.00  0.00     0.074 A 
ATOM     44  C   UNL A   1      43.922  26.556  30.209  1.00  0.00     0.029 A 
ATOM     45  N   UNL A   1      42.445  27.927  31.147  1.00  0.00    -0.354 N 
ATOM     46  N   UNL A   1      41.393  29.622  33.283  1.00  0.00    -0.248 NA
ATOM     47  C   UNL A   1      41.454  30.388  35.491  1.00  0.00     0.031 C 
ATOM     48  C   UNL A   1      44.295  26.759  31.543  1.00  0.00     0.029 A 
ATOM     49  C   UNL A   1      43.386  27.629  32.121  1.00  0.00     0.049 A 
ATOM     50  H   UNL A   1      41.667  28.516  31.275  1.00  0.00     0.167 HD
ATOM     51  C   UNL A   1      42.473  29.045  33.936  1.00  0.00     0.074 A 
ATOM     52  C   UNL A   1      42.477  29.570  35.287  1.00  0.00     0.031 C 
ATOM     53  C   UNL A   1      43.373  28.152  33.461  1.00  0.00     0.037 A 
BRANCH  40  54
ATOM     54  C   UNL A   1      42.483  26.579  27.563  1.00  0.00     0.057 A 
ATOM     55  C   UNL A   1      43.377  27.100  26.621  1.00  0.00     0.134 A 
ATOM     56  C   UNL A   1      42.086  25.243  27.407  1.00  0.00     0.134 A 
ATOM     57  F   UNL A   1      43.787  28.375  26.705  1.00  0.00    -0.206 F 
ATOM     58  C   UNL A   1      43.853  26.325  25.561  1.00  0.00     0.040 A 
ATOM     59  C   UNL A   1      42.571  24.452  26.365  1.00  0.00     0.040 A 
ATOM     60  F   UNL A   1      41.236  24.681  28.278  1.00  0.00    -0.206 F 
ATOM     61  C   UNL A   1      43.457  24.993  25.436  1.00  0.00     0.006 A 
ENDBRANCH  40  54
BRANCH  41  62
ATOM     62  C   UNL A   1      39.038  32.001  35.171  1.00  0.00     0.057 A 
ATOM     63  C   UNL A   1      38.274  31.385  36.167  1.00  0.00     0.134 A 
ATOM     64  C   UNL A   1      39.306  33.369  35.315  1.00  0.00     0.134 A 
ATOM     65  F   UNL A   1      37.962  30.084  36.069  1.00  0.00    -0.206 F 
ATOM     66  C   UNL A   1      37.799  32.098  37.268  1.00  0.00     0.040 A 
ATOM     67  C   UNL A   1      38.863  34.088  36.423  1.00  0.00     0.040 A 
ATOM     68  F   UNL A   1      40.036  34.016  34.393  1.00  0.00    -0.206 F 
ATOM     69  C   UNL A   1      38.104  33.453  37.404  1.00  0.00     0.006 A 
ENDBRANCH  41  62
BRANCH  53  70
ATOM     70  C   UNL A   1      44.445  27.706  34.407  1.00  0.00     0.057 A 
ATOM     71  C   UNL A   1      45.652  28.404  34.529  1.00  0.00     0.134 A 
ATOM     72  C   UNL A   1      44.265  26.572  35.208  1.00  0.00     0.134 A 
ATOM     73  F   UNL A   1      45.890  29.489  33.776  1.00  0.00    -0.206 F 
ATOM     74  C   UNL A   1      46.655  27.975  35.399  1.00  0.00     0.040 A 
ATOM     75  C   UNL A   1      45.252  26.145  36.096  1.00  0.00     0.040 A 
ATOM     76  F   UNL A   1      43.128  25.863  35.139  1.00  0.00    -0.206 F 
ATOM     77  C   UNL A   1      46.454  26.844  36.189  1.00  0.00     0.006 A 
ENDBRANCH  53  70
ENDBRANCH  27  28
ENDBRANCH  20  22
ENDBRANCH  19  20
ENDBRANCH  18  19
ENDBRANCH   1  18
TORSDOF 18
ENDMDL
