MODEL 1
REMARK VINA RESULT:     -11.8      0.000      0.000
REMARK SMILES NC(=O)[C@@H]1CCC[N@@H+]1[C@@H](C(=O)OCCOC(=O)c1ccc(-c2c3nc(c(-c4c(F)cccc4F)c4ccc([nH]4)c(-c4c(F)cccc4F)c4nc(c(-c5c(F)cccc5F)c5ccc2[nH]5)C=C4)C=C3)cc1)c1c[nH]c2cc(OCc3ccccc3)ccc12
REMARK SMILES IDX 13 1 12 2 10 3 11 4 9 5 8 6 4 7 5 8 6 9 7 10 2 12 1 13 3 16
REMARK SMILES IDX 72 17 73 18 88 19 74 20 75 21 87 22 76 24 86 25 77 26 78 27
REMARK SMILES IDX 79 28 80 29 81 30 85 31 82 32 84 33 83 34 14 35 15 36 16 37
REMARK SMILES IDX 17 38 18 39 19 40 71 41 20 42 70 43 21 44 22 45 23 46 64 47
REMARK SMILES IDX 24 48 69 49 63 50 65 51 25 52 68 53 62 54 61 55 26 57 52 58
REMARK SMILES IDX 35 59 51 60 36 61 39 62 50 63 66 64 37 65 38 66 49 68 67 69
REMARK SMILES IDX 40 70 27 71 28 72 33 73 29 74 30 75 32 76 34 77 31 78 53 79
REMARK SMILES IDX 54 80 59 81 55 82 56 83 58 84 60 85 57 86 41 87 42 88 47 89
REMARK SMILES IDX 43 90 44 91 46 92 48 93 45 94
REMARK H PARENT 8 11 1 14 1 15 74 23 65 56 39 67
REMARK Flexibility Score: inf
ROOT
ATOM      1  C   UNL A   1      35.188  20.750  24.291  1.00  0.00     0.274 C 
ENDROOT
BRANCH   1   2
ATOM      2  O   UNL A   1      34.037  19.935  24.645  1.00  0.00    -0.457 OA
BRANCH   2   3
ATOM      3  C   UNL A   1      32.869  20.612  24.800  1.00  0.00     0.370 C 
ATOM      4  O   UNL A   1      31.778  20.050  24.920  1.00  0.00    -0.245 OA
BRANCH   3   5
ATOM      5  C   UNL A   1      32.961  22.135  24.714  1.00  0.00     0.329 C 
BRANCH   5   6
ATOM      6  N   UNL A   1      32.827  22.961  25.995  1.00  0.00    -0.309 N 
ATOM      7  C   UNL A   1      33.944  23.847  26.435  1.00  0.00     0.275 C 
ATOM      8  C   UNL A   1      34.886  22.979  27.270  1.00  0.00     0.081 C 
ATOM      9  C   UNL A   1      34.051  21.756  27.626  1.00  0.00     0.068 C 
ATOM     10  C   UNL A   1      32.649  22.169  27.230  1.00  0.00     0.264 C 
ATOM     11  H   UNL A   1      32.027  23.501  25.668  1.00  0.00     0.349 HD
BRANCH   7  12
ATOM     12  C   UNL A   1      34.550  24.787  25.404  1.00  0.00     0.275 C 
ATOM     13  N   UNL A   1      35.598  24.257  24.705  1.00  0.00    -0.365 N 
ATOM     14  H   UNL A   1      36.052  24.795  24.016  1.00  0.00     0.159 HD
ATOM     15  H   UNL A   1      35.900  23.338  24.890  1.00  0.00     0.159 HD
ATOM     16  O   UNL A   1      34.105  25.897  25.127  1.00  0.00    -0.268 OA
ENDBRANCH   7  12
ENDBRANCH   5   6
BRANCH   5  17
ATOM     17  C   UNL A   1      32.387  22.897  23.503  1.00  0.00     0.046 A 
ATOM     18  C   UNL A   1      32.903  22.697  22.223  1.00  0.00     0.094 A 
ATOM     19  C   UNL A   1      31.565  24.078  23.362  1.00  0.00     0.009 A 
ATOM     20  N   UNL A   1      32.903  23.917  21.600  1.00  0.00    -0.361 N 
ATOM     21  C   UNL A   1      32.175  24.811  22.341  1.00  0.00     0.050 A 
ATOM     22  C   UNL A   1      30.503  24.723  24.019  1.00  0.00     0.015 A 
ATOM     23  H   UNL A   1      33.359  24.122  20.751  1.00  0.00     0.166 HD
ATOM     24  C   UNL A   1      32.032  26.198  22.221  1.00  0.00     0.073 A 
ATOM     25  C   UNL A   1      30.158  26.057  23.724  1.00  0.00     0.047 A 
ATOM     26  C   UNL A   1      30.994  26.817  22.922  1.00  0.00     0.121 A 
BRANCH  26  27
ATOM     27  O   UNL A   1      30.935  28.174  22.760  1.00  0.00    -0.489 OA
BRANCH  27  28
ATOM     28  C   UNL A   1      30.644  28.992  23.896  1.00  0.00     0.265 C 
BRANCH  28  29
ATOM     29  C   UNL A   1      31.687  28.873  24.989  1.00  0.00    -0.011 A 
ATOM     30  C   UNL A   1      32.992  29.328  24.747  1.00  0.00     0.007 A 
ATOM     31  C   UNL A   1      31.399  28.318  26.243  1.00  0.00     0.007 A 
ATOM     32  C   UNL A   1      33.972  29.235  25.737  1.00  0.00     0.000 A 
ATOM     33  C   UNL A   1      32.375  28.227  27.230  1.00  0.00     0.000 A 
ATOM     34  C   UNL A   1      33.662  28.685  26.977  1.00  0.00     0.000 A 
ENDBRANCH  28  29
ENDBRANCH  27  28
ENDBRANCH  26  27
ENDBRANCH   5  17
ENDBRANCH   3   5
ENDBRANCH   2   3
ENDBRANCH   1   2
BRANCH   1  35
ATOM     35  C   UNL A   1      36.428  20.301  25.049  1.00  0.00     0.275 C 
BRANCH  35  36
ATOM     36  O   UNL A   1      37.303  21.436  25.172  1.00  0.00    -0.458 OA
BRANCH  36  37
ATOM     37  C   UNL A   1      38.489  21.168  25.755  1.00  0.00     0.338 C 
ATOM     38  O   UNL A   1      39.132  20.133  25.659  1.00  0.00    -0.246 OA
BRANCH  37  39
ATOM     39  C   UNL A   1      39.047  22.363  26.431  1.00  0.00     0.060 A 
ATOM     40  C   UNL A   1      38.596  23.651  26.125  1.00  0.00     0.016 A 
ATOM     41  C   UNL A   1      40.223  22.197  27.166  1.00  0.00     0.016 A 
ATOM     42  C   UNL A   1      39.371  24.762  26.460  1.00  0.00     0.010 A 
ATOM     43  C   UNL A   1      40.954  23.314  27.575  1.00  0.00     0.010 A 
ATOM     44  C   UNL A   1      40.549  24.605  27.204  1.00  0.00    -0.014 A 
BRANCH  44  45
ATOM     45  C   UNL A   1      41.287  25.778  27.728  1.00  0.00     0.031 A 
ATOM     46  C   UNL A   1      40.606  26.860  28.514  1.00  0.00     0.074 A 
ATOM     47  C   UNL A   1      42.589  25.894  27.411  1.00  0.00     0.049 A 
ATOM     48  N   UNL A   1      41.033  28.069  28.786  1.00  0.00    -0.248 NA
ATOM     49  C   UNL A   1      39.285  26.546  29.077  1.00  0.00     0.031 C 
ATOM     50  C   UNL A   1      43.379  24.881  26.708  1.00  0.00     0.029 A 
ATOM     51  N   UNL A   1      43.469  26.927  27.610  1.00  0.00    -0.354 N 
ATOM     52  C   UNL A   1      40.025  28.674  29.527  1.00  0.00     0.074 A 
ATOM     53  C   UNL A   1      38.969  27.692  29.672  1.00  0.00     0.031 C 
ATOM     54  C   UNL A   1      44.620  25.345  26.521  1.00  0.00     0.029 A 
ATOM     55  C   UNL A   1      44.682  26.719  27.002  1.00  0.00     0.049 A 
ATOM     56  H   UNL A   1      43.254  27.732  28.134  1.00  0.00     0.167 HD
ATOM     57  C   UNL A   1      39.996  29.935  30.028  1.00  0.00     0.037 A 
ATOM     58  C   UNL A   1      45.709  27.558  26.781  1.00  0.00     0.037 A 
ATOM     59  C   UNL A   1      41.076  30.887  29.897  1.00  0.00     0.049 A 
ATOM     60  C   UNL A   1      45.619  28.970  27.265  1.00  0.00     0.074 A 
ATOM     61  C   UNL A   1      41.146  32.183  30.386  1.00  0.00     0.029 A 
ATOM     62  N   UNL A   1      42.272  30.650  29.238  1.00  0.00    -0.354 N 
ATOM     63  N   UNL A   1      44.635  29.562  27.896  1.00  0.00    -0.248 NA
ATOM     64  C   UNL A   1      46.778  29.832  27.003  1.00  0.00     0.031 C 
ATOM     65  C   UNL A   1      42.365  32.741  29.987  1.00  0.00     0.029 A 
ATOM     66  C   UNL A   1      43.080  31.776  29.297  1.00  0.00     0.049 A 
ATOM     67  H   UNL A   1      42.514  29.805  28.794  1.00  0.00     0.167 HD
ATOM     68  C   UNL A   1      45.060  30.863  28.121  1.00  0.00     0.074 A 
ATOM     69  C   UNL A   1      46.398  30.967  27.571  1.00  0.00     0.031 C 
ATOM     70  C   UNL A   1      44.401  31.876  28.733  1.00  0.00     0.037 A 
BRANCH  57  71
ATOM     71  C   UNL A   1      38.763  30.401  30.753  1.00  0.00     0.057 A 
ATOM     72  C   UNL A   1      37.683  30.989  30.086  1.00  0.00     0.134 A 
ATOM     73  C   UNL A   1      38.598  30.115  32.117  1.00  0.00     0.134 A 
ATOM     74  F   UNL A   1      37.772  31.298  28.784  1.00  0.00    -0.206 F 
ATOM     75  C   UNL A   1      36.484  31.274  30.747  1.00  0.00     0.040 A 
ATOM     76  C   UNL A   1      37.396  30.370  32.780  1.00  0.00     0.040 A 
ATOM     77  F   UNL A   1      39.588  29.540  32.817  1.00  0.00    -0.206 F 
ATOM     78  C   UNL A   1      36.334  30.953  32.095  1.00  0.00     0.006 A 
ENDBRANCH  57  71
BRANCH  58  79
ATOM     79  C   UNL A   1      46.876  27.070  26.011  1.00  0.00     0.057 A 
ATOM     80  C   UNL A   1      46.970  27.274  24.632  1.00  0.00     0.134 A 
ATOM     81  C   UNL A   1      47.962  26.460  26.654  1.00  0.00     0.134 A 
ATOM     82  F   UNL A   1      45.953  27.837  23.963  1.00  0.00    -0.206 F 
ATOM     83  C   UNL A   1      48.106  26.897  23.918  1.00  0.00     0.040 A 
ATOM     84  C   UNL A   1      49.116  26.105  25.958  1.00  0.00     0.040 A 
ATOM     85  F   UNL A   1      47.933  26.248  27.979  1.00  0.00    -0.206 F 
ATOM     86  C   UNL A   1      49.189  26.323  24.584  1.00  0.00     0.006 A 
ENDBRANCH  58  79
BRANCH  70  87
ATOM     87  C   UNL A   1      45.139  33.175  28.865  1.00  0.00     0.057 A 
ATOM     88  C   UNL A   1      45.979  33.442  29.953  1.00  0.00     0.134 A 
ATOM     89  C   UNL A   1      44.997  34.176  27.894  1.00  0.00     0.134 A 
ATOM     90  F   UNL A   1      46.145  32.530  30.922  1.00  0.00    -0.206 F 
ATOM     91  C   UNL A   1      46.626  34.670  30.088  1.00  0.00     0.040 A 
ATOM     92  C   UNL A   1      45.658  35.400  28.007  1.00  0.00     0.040 A 
ATOM     93  F   UNL A   1      44.212  33.982  26.824  1.00  0.00    -0.206 F 
ATOM     94  C   UNL A   1      46.467  35.653  29.113  1.00  0.00     0.006 A 
ENDBRANCH  70  87
ENDBRANCH  44  45
ENDBRANCH  37  39
ENDBRANCH  36  37
ENDBRANCH  35  36
ENDBRANCH   1  35
TORSDOF 17
ENDMDL
MODEL 2
REMARK VINA RESULT:     -11.7      2.330      7.620
REMARK SMILES NC(=O)[C@@H]1CCC[N@@H+]1[C@@H](C(=O)OCCOC(=O)c1ccc(-c2c3nc(c(-c4c(F)cccc4F)c4ccc([nH]4)c(-c4c(F)cccc4F)c4nc(c(-c5c(F)cccc5F)c5ccc2[nH]5)C=C4)C=C3)cc1)c1c[nH]c2cc(OCc3ccccc3)ccc12
REMARK SMILES IDX 13 1 12 2 10 3 11 4 9 5 8 6 4 7 5 8 6 9 7 10 2 12 1 13 3 16
REMARK SMILES IDX 72 17 73 18 88 19 74 20 75 21 87 22 76 24 86 25 77 26 78 27
REMARK SMILES IDX 79 28 80 29 81 30 85 31 82 32 84 33 83 34 14 35 15 36 16 37
REMARK SMILES IDX 17 38 18 39 19 40 71 41 20 42 70 43 21 44 22 45 23 46 64 47
REMARK SMILES IDX 24 48 69 49 63 50 65 51 25 52 68 53 62 54 61 55 26 57 52 58
REMARK SMILES IDX 35 59 51 60 36 61 39 62 50 63 66 64 37 65 38 66 49 68 67 69
REMARK SMILES IDX 40 70 27 71 28 72 33 73 29 74 30 75 32 76 34 77 31 78 53 79
REMARK SMILES IDX 54 80 59 81 55 82 56 83 58 84 60 85 57 86 41 87 42 88 47 89
REMARK SMILES IDX 43 90 44 91 46 92 48 93 45 94
REMARK H PARENT 8 11 1 14 1 15 74 23 65 56 39 67
REMARK Flexibility Score: inf
ROOT
ATOM      1  C   UNL A   1      32.907  30.173  26.170  1.00  0.00     0.274 C 
ENDROOT
BRANCH   1   2
ATOM      2  O   UNL A   1      33.499  28.877  25.879  1.00  0.00    -0.457 OA
BRANCH   2   3
ATOM      3  C   UNL A   1      32.710  27.803  26.144  1.00  0.00     0.370 C 
ATOM      4  O   UNL A   1      32.065  27.685  27.189  1.00  0.00    -0.245 OA
BRANCH   3   5
ATOM      5  C   UNL A   1      32.739  26.678  25.111  1.00  0.00     0.329 C 
BRANCH   5   6
ATOM      6  N   UNL A   1      31.522  26.466  24.208  1.00  0.00    -0.309 N 
ATOM      7  C   UNL A   1      31.658  26.592  22.728  1.00  0.00     0.275 C 
ATOM      8  C   UNL A   1      31.459  28.071  22.396  1.00  0.00     0.081 C 
ATOM      9  C   UNL A   1      30.798  28.649  23.641  1.00  0.00     0.068 C 
ATOM     10  C   UNL A   1      30.411  27.415  24.429  1.00  0.00     0.264 C 
ATOM     11  H   UNL A   1      31.371  25.498  24.490  1.00  0.00     0.349 HD
BRANCH   7  12
ATOM     12  C   UNL A   1      32.800  25.846  22.055  1.00  0.00     0.275 C 
ATOM     13  N   UNL A   1      32.568  24.513  21.866  1.00  0.00    -0.365 N 
ATOM     14  H   UNL A   1      33.253  23.950  21.436  1.00  0.00     0.159 HD
ATOM     15  H   UNL A   1      31.716  24.115  22.158  1.00  0.00     0.159 HD
ATOM     16  O   UNL A   1      33.817  26.377  21.619  1.00  0.00    -0.268 OA
ENDBRANCH   7  12
ENDBRANCH   5   6
BRANCH   5  17
ATOM     17  C   UNL A   1      33.440  25.339  25.416  1.00  0.00     0.046 A 
ATOM     18  C   UNL A   1      34.772  25.131  25.055  1.00  0.00     0.094 A 
ATOM     19  C   UNL A   1      32.967  24.018  25.760  1.00  0.00     0.009 A 
ATOM     20  N   UNL A   1      34.871  23.830  24.637  1.00  0.00    -0.361 N 
ATOM     21  C   UNL A   1      33.726  23.154  24.966  1.00  0.00     0.050 A 
ATOM     22  C   UNL A   1      31.931  23.413  26.493  1.00  0.00     0.015 A 
ATOM     23  H   UNL A   1      35.646  23.441  24.171  1.00  0.00     0.166 HD
ATOM     24  C   UNL A   1      33.279  21.878  24.602  1.00  0.00     0.073 A 
ATOM     25  C   UNL A   1      31.626  22.045  26.343  1.00  0.00     0.047 A 
ATOM     26  C   UNL A   1      32.217  21.322  25.319  1.00  0.00     0.121 A 
BRANCH  26  27
ATOM     27  O   UNL A   1      31.836  20.080  24.890  1.00  0.00    -0.489 OA
BRANCH  27  28
ATOM     28  C   UNL A   1      32.649  19.403  23.928  1.00  0.00     0.265 C 
BRANCH  28  29
ATOM     29  C   UNL A   1      33.171  18.072  24.433  1.00  0.00    -0.011 A 
ATOM     30  C   UNL A   1      32.332  17.251  25.201  1.00  0.00     0.007 A 
ATOM     31  C   UNL A   1      34.471  17.625  24.163  1.00  0.00     0.007 A 
ATOM     32  C   UNL A   1      32.784  16.018  25.675  1.00  0.00     0.000 A 
ATOM     33  C   UNL A   1      34.921  16.396  24.633  1.00  0.00     0.000 A 
ATOM     34  C   UNL A   1      34.078  15.593  25.389  1.00  0.00     0.000 A 
ENDBRANCH  28  29
ENDBRANCH  27  28
ENDBRANCH  26  27
ENDBRANCH   5  17
ENDBRANCH   3   5
ENDBRANCH   2   3
ENDBRANCH   1   2
BRANCH   1  35
ATOM     35  C   UNL A   1      33.643  30.864  27.309  1.00  0.00     0.275 C 
BRANCH  35  36
ATOM     36  O   UNL A   1      34.855  30.132  27.557  1.00  0.00    -0.458 OA
BRANCH  36  37
ATOM     37  C   UNL A   1      35.578  30.584  28.602  1.00  0.00     0.338 C 
ATOM     38  O   UNL A   1      35.198  31.348  29.477  1.00  0.00    -0.246 OA
BRANCH  37  39
ATOM     39  C   UNL A   1      36.897  29.912  28.684  1.00  0.00     0.060 A 
ATOM     40  C   UNL A   1      37.480  29.599  29.915  1.00  0.00     0.016 A 
ATOM     41  C   UNL A   1      37.666  29.859  27.520  1.00  0.00     0.016 A 
ATOM     42  C   UNL A   1      38.848  29.337  29.996  1.00  0.00     0.010 A 
ATOM     43  C   UNL A   1      39.017  29.514  27.590  1.00  0.00     0.010 A 
ATOM     44  C   UNL A   1      39.626  29.275  28.831  1.00  0.00    -0.014 A 
BRANCH  44  45
ATOM     45  C   UNL A   1      41.036  28.819  28.874  1.00  0.00     0.031 A 
ATOM     46  C   UNL A   1      42.177  29.777  29.050  1.00  0.00     0.074 A 
ATOM     47  C   UNL A   1      41.280  27.512  28.670  1.00  0.00     0.049 A 
ATOM     48  N   UNL A   1      43.453  29.585  28.820  1.00  0.00    -0.248 NA
ATOM     49  C   UNL A   1      41.851  31.118  29.558  1.00  0.00     0.031 C 
ATOM     50  C   UNL A   1      40.256  26.472  28.551  1.00  0.00     0.029 A 
ATOM     51  N   UNL A   1      42.463  26.840  28.496  1.00  0.00    -0.354 N 
ATOM     52  C   UNL A   1      44.083  30.786  29.126  1.00  0.00     0.074 A 
ATOM     53  C   UNL A   1      43.049  31.697  29.570  1.00  0.00     0.031 C 
ATOM     54  C   UNL A   1      40.850  25.298  28.309  1.00  0.00     0.029 A 
ATOM     55  C   UNL A   1      42.283  25.521  28.160  1.00  0.00     0.049 A 
ATOM     56  H   UNL A   1      43.348  27.258  28.601  1.00  0.00     0.167 HD
ATOM     57  C   UNL A   1      45.403  31.084  29.034  1.00  0.00     0.037 A 
ATOM     58  C   UNL A   1      43.154  24.604  27.705  1.00  0.00     0.037 A 
ATOM     59  C   UNL A   1      46.423  30.148  28.617  1.00  0.00     0.049 A 
ATOM     60  C   UNL A   1      44.590  24.981  27.528  1.00  0.00     0.074 A 
ATOM     61  C   UNL A   1      47.791  30.353  28.509  1.00  0.00     0.029 A 
ATOM     62  N   UNL A   1      46.193  28.832  28.247  1.00  0.00    -0.354 N 
ATOM     63  N   UNL A   1      45.169  26.136  27.742  1.00  0.00    -0.248 NA
ATOM     64  C   UNL A   1      45.492  23.931  27.039  1.00  0.00     0.031 C 
ATOM     65  C   UNL A   1      48.378  29.177  28.034  1.00  0.00     0.029 A 
ATOM     66  C   UNL A   1      47.388  28.219  27.899  1.00  0.00     0.049 A 
ATOM     67  H   UNL A   1      45.310  28.395  28.233  1.00  0.00     0.167 HD
ATOM     68  C   UNL A   1      46.508  25.951  27.431  1.00  0.00     0.074 A 
ATOM     69  C   UNL A   1      46.655  24.566  27.026  1.00  0.00     0.031 C 
ATOM     70  C   UNL A   1      47.522  26.848  27.482  1.00  0.00     0.037 A 
BRANCH  57  71
ATOM     71  C   UNL A   1      45.857  32.480  29.363  1.00  0.00     0.057 A 
ATOM     72  C   UNL A   1      46.338  32.829  30.629  1.00  0.00     0.134 A 
ATOM     73  C   UNL A   1      45.953  33.447  28.350  1.00  0.00     0.134 A 
ATOM     74  F   UNL A   1      46.271  31.960  31.648  1.00  0.00    -0.206 F 
ATOM     75  C   UNL A   1      46.902  34.086  30.876  1.00  0.00     0.040 A 
ATOM     76  C   UNL A   1      46.538  34.694  28.578  1.00  0.00     0.040 A 
ATOM     77  F   UNL A   1      45.523  33.177  27.108  1.00  0.00    -0.206 F 
ATOM     78  C   UNL A   1      47.013  35.018  29.846  1.00  0.00     0.006 A 
ENDBRANCH  57  71
BRANCH  58  79
ATOM     79  C   UNL A   1      42.649  23.260  27.339  1.00  0.00     0.057 A 
ATOM     80  C   UNL A   1      42.355  22.307  28.317  1.00  0.00     0.134 A 
ATOM     81  C   UNL A   1      42.375  22.930  26.005  1.00  0.00     0.134 A 
ATOM     82  F   UNL A   1      42.613  22.563  29.608  1.00  0.00    -0.206 F 
ATOM     83  C   UNL A   1      41.795  21.074  27.984  1.00  0.00     0.040 A 
ATOM     84  C   UNL A   1      41.789  21.713  25.660  1.00  0.00     0.040 A 
ATOM     85  F   UNL A   1      42.628  23.810  25.023  1.00  0.00    -0.206 F 
ATOM     86  C   UNL A   1      41.498  20.780  26.654  1.00  0.00     0.006 A 
ENDBRANCH  58  79
BRANCH  70  87
ATOM     87  C   UNL A   1      48.886  26.340  27.118  1.00  0.00     0.057 A 
ATOM     88  C   UNL A   1      49.725  25.733  28.061  1.00  0.00     0.134 A 
ATOM     89  C   UNL A   1      49.369  26.472  25.809  1.00  0.00     0.134 A 
ATOM     90  F   UNL A   1      49.326  25.592  29.334  1.00  0.00    -0.206 F 
ATOM     91  C   UNL A   1      51.009  25.305  27.723  1.00  0.00     0.040 A 
ATOM     92  C   UNL A   1      50.643  26.026  25.454  1.00  0.00     0.040 A 
ATOM     93  F   UNL A   1      48.613  27.039  24.857  1.00  0.00    -0.206 F 
ATOM     94  C   UNL A   1      51.470  25.450  26.416  1.00  0.00     0.006 A 
ENDBRANCH  70  87
ENDBRANCH  44  45
ENDBRANCH  37  39
ENDBRANCH  36  37
ENDBRANCH  35  36
ENDBRANCH   1  35
TORSDOF 17
ENDMDL
MODEL 3
REMARK VINA RESULT:     -11.6      1.069      2.372
REMARK SMILES NC(=O)[C@@H]1CCC[N@@H+]1[C@@H](C(=O)OCCOC(=O)c1ccc(-c2c3nc(c(-c4c(F)cccc4F)c4ccc([nH]4)c(-c4c(F)cccc4F)c4nc(c(-c5c(F)cccc5F)c5ccc2[nH]5)C=C4)C=C3)cc1)c1c[nH]c2cc(OCc3ccccc3)ccc12
REMARK SMILES IDX 13 1 12 2 10 3 11 4 9 5 8 6 4 7 5 8 6 9 7 10 2 12 1 13 3 16
REMARK SMILES IDX 72 17 73 18 88 19 74 20 75 21 87 22 76 24 86 25 77 26 78 27
REMARK SMILES IDX 79 28 80 29 81 30 85 31 82 32 84 33 83 34 14 35 15 36 16 37
REMARK SMILES IDX 17 38 18 39 19 40 71 41 20 42 70 43 21 44 22 45 23 46 64 47
REMARK SMILES IDX 24 48 69 49 63 50 65 51 25 52 68 53 62 54 61 55 26 57 52 58
REMARK SMILES IDX 35 59 51 60 36 61 39 62 50 63 66 64 37 65 38 66 49 68 67 69
REMARK SMILES IDX 40 70 27 71 28 72 33 73 29 74 30 75 32 76 34 77 31 78 53 79
REMARK SMILES IDX 54 80 59 81 55 82 56 83 58 84 60 85 57 86 41 87 42 88 47 89
REMARK SMILES IDX 43 90 44 91 46 92 48 93 45 94
REMARK H PARENT 8 11 1 14 1 15 74 23 65 56 39 67
REMARK Flexibility Score: inf
ROOT
ATOM      1  C   UNL A   1      35.296  21.137  24.627  1.00  0.00     0.274 C 
ENDROOT
BRANCH   1   2
ATOM      2  O   UNL A   1      34.189  20.196  24.681  1.00  0.00    -0.457 OA
BRANCH   2   3
ATOM      3  C   UNL A   1      32.952  20.754  24.739  1.00  0.00     0.370 C 
ATOM      4  O   UNL A   1      31.914  20.088  24.760  1.00  0.00    -0.245 OA
BRANCH   3   5
ATOM      5  C   UNL A   1      32.902  22.280  24.673  1.00  0.00     0.329 C 
BRANCH   5   6
ATOM      6  N   UNL A   1      32.623  23.071  25.954  1.00  0.00    -0.309 N 
ATOM      7  C   UNL A   1      33.662  23.986  26.509  1.00  0.00     0.275 C 
ATOM      8  C   UNL A   1      34.558  23.134  27.408  1.00  0.00     0.081 C 
ATOM      9  C   UNL A   1      33.742  21.873  27.663  1.00  0.00     0.068 C 
ATOM     10  C   UNL A   1      32.366  22.244  27.151  1.00  0.00     0.264 C 
ATOM     11  H   UNL A   1      31.835  23.589  25.567  1.00  0.00     0.349 HD
BRANCH   7  12
ATOM     12  C   UNL A   1      34.320  24.971  25.556  1.00  0.00     0.275 C 
ATOM     13  N   UNL A   1      33.701  26.188  25.488  1.00  0.00    -0.365 N 
ATOM     14  H   UNL A   1      34.059  26.889  24.896  1.00  0.00     0.159 HD
ATOM     15  H   UNL A   1      32.899  26.364  26.030  1.00  0.00     0.159 HD
ATOM     16  O   UNL A   1      35.370  24.764  24.955  1.00  0.00    -0.268 OA
ENDBRANCH   7  12
ENDBRANCH   5   6
BRANCH   5  17
ATOM     17  C   UNL A   1      32.321  23.002  23.441  1.00  0.00     0.046 A 
ATOM     18  C   UNL A   1      32.833  22.764  22.166  1.00  0.00     0.094 A 
ATOM     19  C   UNL A   1      31.495  24.175  23.266  1.00  0.00     0.009 A 
ATOM     20  N   UNL A   1      32.827  23.964  21.505  1.00  0.00    -0.361 N 
ATOM     21  C   UNL A   1      32.098  24.877  22.220  1.00  0.00     0.050 A 
ATOM     22  C   UNL A   1      30.432  24.836  23.906  1.00  0.00     0.015 A 
ATOM     23  H   UNL A   1      33.279  24.144  20.649  1.00  0.00     0.166 HD
ATOM     24  C   UNL A   1      31.950  26.260  22.057  1.00  0.00     0.073 A 
ATOM     25  C   UNL A   1      30.082  26.159  23.571  1.00  0.00     0.047 A 
ATOM     26  C   UNL A   1      30.912  26.897  22.742  1.00  0.00     0.121 A 
BRANCH  26  27
ATOM     27  O   UNL A   1      30.847  28.248  22.538  1.00  0.00    -0.489 OA
BRANCH  27  28
ATOM     28  C   UNL A   1      30.182  29.061  23.508  1.00  0.00     0.265 C 
BRANCH  28  29
ATOM     29  C   UNL A   1      29.428  30.219  22.886  1.00  0.00    -0.011 A 
ATOM     30  C   UNL A   1      29.115  31.338  23.673  1.00  0.00     0.007 A 
ATOM     31  C   UNL A   1      29.025  30.218  21.545  1.00  0.00     0.007 A 
ATOM     32  C   UNL A   1      28.425  32.422  23.126  1.00  0.00     0.000 A 
ATOM     33  C   UNL A   1      28.339  31.298  20.998  1.00  0.00     0.000 A 
ATOM     34  C   UNL A   1      28.039  32.399  21.789  1.00  0.00     0.000 A 
ENDBRANCH  28  29
ENDBRANCH  27  28
ENDBRANCH  26  27
ENDBRANCH   5  17
ENDBRANCH   3   5
ENDBRANCH   2   3
ENDBRANCH   1   2
BRANCH   1  35
ATOM     35  C   UNL A   1      36.600  20.469  25.036  1.00  0.00     0.275 C 
BRANCH  35  36
ATOM     36  O   UNL A   1      37.405  21.452  25.709  1.00  0.00    -0.458 OA
BRANCH  36  37
ATOM     37  C   UNL A   1      38.680  21.075  25.934  1.00  0.00     0.338 C 
ATOM     38  O   UNL A   1      39.157  19.966  25.742  1.00  0.00    -0.246 OA
BRANCH  37  39
ATOM     39  C   UNL A   1      39.533  22.227  26.308  1.00  0.00     0.060 A 
ATOM     40  C   UNL A   1      40.578  22.093  27.227  1.00  0.00     0.016 A 
ATOM     41  C   UNL A   1      39.092  23.501  25.942  1.00  0.00     0.016 A 
ATOM     42  C   UNL A   1      41.108  23.221  27.855  1.00  0.00     0.010 A 
ATOM     43  C   UNL A   1      39.680  24.633  26.508  1.00  0.00     0.010 A 
ATOM     44  C   UNL A   1      40.675  24.503  27.488  1.00  0.00    -0.014 A 
BRANCH  44  45
ATOM     45  C   UNL A   1      41.350  25.717  28.006  1.00  0.00     0.031 A 
ATOM     46  C   UNL A   1      40.609  26.774  28.772  1.00  0.00     0.074 A 
ATOM     47  C   UNL A   1      42.649  25.892  27.701  1.00  0.00     0.049 A 
ATOM     48  N   UNL A   1      40.974  28.005  29.034  1.00  0.00    -0.248 NA
ATOM     49  C   UNL A   1      39.299  26.402  29.325  1.00  0.00     0.031 C 
ATOM     50  C   UNL A   1      43.494  24.910  27.020  1.00  0.00     0.029 A 
ATOM     51  N   UNL A   1      43.476  26.969  27.898  1.00  0.00    -0.354 N 
ATOM     52  C   UNL A   1      39.929  28.570  29.756  1.00  0.00     0.074 A 
ATOM     53  C   UNL A   1      38.921  27.539  29.902  1.00  0.00     0.031 C 
ATOM     54  C   UNL A   1      44.713  25.432  26.840  1.00  0.00     0.029 A 
ATOM     55  C   UNL A   1      44.704  26.813  27.305  1.00  0.00     0.049 A 
ATOM     56  H   UNL A   1      43.216  27.769  28.410  1.00  0.00     0.167 HD
ATOM     57  C   UNL A   1      39.834  29.833  30.241  1.00  0.00     0.037 A 
ATOM     58  C   UNL A   1      45.691  27.698  27.085  1.00  0.00     0.037 A 
ATOM     59  C   UNL A   1      40.868  30.835  30.110  1.00  0.00     0.049 A 
ATOM     60  C   UNL A   1      45.528  29.109  27.551  1.00  0.00     0.074 A 
ATOM     61  C   UNL A   1      40.871  32.138  30.584  1.00  0.00     0.029 A 
ATOM     62  N   UNL A   1      42.082  30.648  29.467  1.00  0.00    -0.354 N 
ATOM     63  N   UNL A   1      44.510  29.660  28.164  1.00  0.00    -0.248 NA
ATOM     64  C   UNL A   1      46.647  30.022  27.290  1.00  0.00     0.031 C 
ATOM     65  C   UNL A   1      42.066  32.749  30.191  1.00  0.00     0.029 A 
ATOM     66  C   UNL A   1      42.834  31.813  29.521  1.00  0.00     0.049 A 
ATOM     67  H   UNL A   1      42.370  29.811  29.036  1.00  0.00     0.167 HD
ATOM     68  C   UNL A   1      44.869  30.982  28.378  1.00  0.00     0.074 A 
ATOM     69  C   UNL A   1      46.206  31.145  27.841  1.00  0.00     0.031 C 
ATOM     70  C   UNL A   1      44.155  31.969  28.970  1.00  0.00     0.037 A 
BRANCH  57  71
ATOM     71  C   UNL A   1      38.572  30.247  30.947  1.00  0.00     0.057 A 
ATOM     72  C   UNL A   1      38.419  30.127  32.333  1.00  0.00     0.134 A 
ATOM     73  C   UNL A   1      37.558  30.915  30.244  1.00  0.00     0.134 A 
ATOM     74  F   UNL A   1      39.344  29.494  33.069  1.00  0.00    -0.206 F 
ATOM     75  C   UNL A   1      37.307  30.659  32.994  1.00  0.00     0.040 A 
ATOM     76  C   UNL A   1      36.457  31.474  30.897  1.00  0.00     0.040 A 
ATOM     77  F   UNL A   1      37.645  31.078  28.915  1.00  0.00    -0.206 F 
ATOM     78  C   UNL A   1      36.328  31.345  32.277  1.00  0.00     0.006 A 
ENDBRANCH  57  71
BRANCH  58  79
ATOM     79  C   UNL A   1      46.890  27.258  26.334  1.00  0.00     0.057 A 
ATOM     80  C   UNL A   1      47.992  26.704  26.990  1.00  0.00     0.134 A 
ATOM     81  C   UNL A   1      46.923  27.308  24.933  1.00  0.00     0.134 A 
ATOM     82  F   UNL A   1      48.021  26.647  28.329  1.00  0.00    -0.206 F 
ATOM     83  C   UNL A   1      49.084  26.206  26.281  1.00  0.00     0.040 A 
ATOM     84  C   UNL A   1      47.996  26.788  24.210  1.00  0.00     0.040 A 
ATOM     85  F   UNL A   1      45.889  27.820  24.249  1.00  0.00    -0.206 F 
ATOM     86  C   UNL A   1      49.081  26.235  24.886  1.00  0.00     0.006 A 
ENDBRANCH  58  79
BRANCH  70  87
ATOM     87  C   UNL A   1      44.828  33.304  29.094  1.00  0.00     0.057 A 
ATOM     88  C   UNL A   1      44.671  34.304  28.125  1.00  0.00     0.134 A 
ATOM     89  C   UNL A   1      45.653  33.587  30.191  1.00  0.00     0.134 A 
ATOM     90  F   UNL A   1      43.908  34.088  27.044  1.00  0.00    -0.206 F 
ATOM     91  C   UNL A   1      45.338  35.525  28.226  1.00  0.00     0.040 A 
ATOM     92  C   UNL A   1      46.305  34.814  30.314  1.00  0.00     0.040 A 
ATOM     93  F   UNL A   1      45.840  32.675  31.157  1.00  0.00    -0.206 F 
ATOM     94  C   UNL A   1      46.156  35.784  29.325  1.00  0.00     0.006 A 
ENDBRANCH  70  87
ENDBRANCH  44  45
ENDBRANCH  37  39
ENDBRANCH  36  37
ENDBRANCH  35  36
ENDBRANCH   1  35
TORSDOF 17
ENDMDL
