MODEL 1
REMARK VINA RESULT:     -11.0      0.000      0.000
REMARK SMILES Cc1n[nH]c(CN(C)C(=O)N[C@](C)(C(=O)OCCOC(=O)c2ccc(-c3c4nc(c(-c5c(F)cccc5F)c5ccc([nH]5)c(-c5c(F)cccc5F)c5nc(c(-c6c(F)cccc6F)c6ccc3[nH]6)C=C5)C=C4)cc2)C(F)(F)F)n1
REMARK SMILES IDX 17 1 16 2 14 3 15 4 12 5 13 6 11 7 9 8 10 9 7 11 8 12 6 13
REMARK SMILES IDX 5 14 1 15 2 16 3 17 80 18 4 19 76 21 77 22 78 23 79 24 18 25
REMARK SMILES IDX 19 26 20 27 21 28 22 29 23 30 75 31 24 32 74 33 25 34 26 35
REMARK SMILES IDX 27 36 68 37 28 38 73 39 67 40 69 41 29 42 72 43 66 44 65 45
REMARK SMILES IDX 30 47 56 48 39 49 55 50 40 51 43 52 54 53 70 54 41 55 42 56
REMARK SMILES IDX 53 58 71 59 44 60 31 61 32 62 37 63 33 64 34 65 36 66 38 67
REMARK SMILES IDX 35 68 57 69 58 70 63 71 59 72 60 73 62 74 64 75 61 76 45 77
REMARK SMILES IDX 46 78 51 79 47 80 48 81 50 82 52 83 49 84
REMARK H PARENT 11 10 4 20 69 46 43 57
REMARK Flexibility Score: inf
ROOT
ATOM      1  C   UNL A   1      37.432  21.770  24.637  1.00  0.00     0.274 C 
ENDROOT
BRANCH   1   2
ATOM      2  O   UNL A   1      36.445  22.809  24.842  1.00  0.00    -0.460 OA
BRANCH   2   3
ATOM      3  C   UNL A   1      35.767  23.235  23.734  1.00  0.00     0.341 C 
ATOM      4  O   UNL A   1      36.185  23.058  22.595  1.00  0.00    -0.249 OA
BRANCH   3   5
ATOM      5  C   UNL A   1      34.416  23.884  24.070  1.00  0.00     0.232 C 
ATOM      6  C   UNL A   1      34.316  24.374  25.512  1.00  0.00     0.058 C 
BRANCH   5   7
ATOM      7  N   UNL A   1      34.078  24.914  23.027  1.00  0.00    -0.315 N 
ATOM      8  C   UNL A   1      33.302  25.954  22.743  1.00  0.00     0.318 C 
ATOM      9  O   UNL A   1      33.449  26.373  21.585  1.00  0.00    -0.249 OA
ATOM     10  H   UNL A   1      34.662  24.756  22.250  1.00  0.00     0.166 HD
BRANCH   8  11
ATOM     11  N   UNL A   1      32.393  26.521  23.571  1.00  0.00    -0.320 N 
ATOM     12  C   UNL A   1      32.586  27.599  24.520  1.00  0.00     0.149 C 
BRANCH  11  13
ATOM     13  C   UNL A   1      30.990  26.195  23.303  1.00  0.00     0.197 C 
BRANCH  13  14
ATOM     14  C   UNL A   1      30.307  27.432  22.829  1.00  0.00     0.144 A 
ATOM     15  C   UNL A   1      28.043  30.131  22.894  1.00  0.00     0.092 C 
ATOM     16  C   UNL A   1      29.110  29.152  22.617  1.00  0.00     0.147 A 
ATOM     17  N   UNL A   1      30.152  29.423  21.822  1.00  0.00    -0.159 NA
ATOM     18  N   UNL A   1      29.144  27.920  23.211  1.00  0.00    -0.215 NA
ATOM     19  N   UNL A   1      30.913  28.330  21.997  1.00  0.00    -0.262 N 
ATOM     20  H   UNL A   1      31.796  28.194  21.581  1.00  0.00     0.192 HD
ENDBRANCH  13  14
ENDBRANCH  11  13
ENDBRANCH   8  11
ENDBRANCH   5   7
BRANCH   5  21
ATOM     21  C   UNL A   1      33.397  22.723  23.959  1.00  0.00     0.422 C 
ATOM     22  F   UNL A   1      33.946  21.500  24.136  1.00  0.00    -0.168 F 
ATOM     23  F   UNL A   1      32.438  22.850  24.915  1.00  0.00    -0.168 F 
ATOM     24  F   UNL A   1      32.751  22.734  22.769  1.00  0.00    -0.168 F 
ENDBRANCH   5  21
ENDBRANCH   3   5
ENDBRANCH   2   3
ENDBRANCH   1   2
BRANCH   1  25
ATOM     25  C   UNL A   1      38.438  21.620  25.782  1.00  0.00     0.275 C 
BRANCH  25  26
ATOM     26  O   UNL A   1      38.805  22.875  26.365  1.00  0.00    -0.458 OA
BRANCH  26  27
ATOM     27  C   UNL A   1      40.012  22.851  26.970  1.00  0.00     0.338 C 
ATOM     28  O   UNL A   1      40.556  21.880  27.464  1.00  0.00    -0.246 OA
BRANCH  27  29
ATOM     29  C   UNL A   1      40.603  24.189  27.056  1.00  0.00     0.060 A 
ATOM     30  C   UNL A   1      41.521  24.404  28.091  1.00  0.00     0.016 A 
ATOM     31  C   UNL A   1      40.051  25.249  26.332  1.00  0.00     0.016 A 
ATOM     32  C   UNL A   1      41.747  25.689  28.531  1.00  0.00     0.010 A 
ATOM     33  C   UNL A   1      40.281  26.538  26.772  1.00  0.00     0.010 A 
ATOM     34  C   UNL A   1      41.050  26.735  27.923  1.00  0.00    -0.014 A 
BRANCH  34  35
ATOM     35  C   UNL A   1      41.084  28.025  28.590  1.00  0.00     0.031 A 
ATOM     36  C   UNL A   1      42.210  28.921  28.246  1.00  0.00     0.074 A 
ATOM     37  C   UNL A   1      40.086  28.409  29.407  1.00  0.00     0.049 A 
ATOM     38  N   UNL A   1      43.047  29.498  29.048  1.00  0.00    -0.248 NA
ATOM     39  C   UNL A   1      42.468  29.166  26.821  1.00  0.00     0.031 C 
ATOM     40  C   UNL A   1      38.803  27.740  29.642  1.00  0.00     0.029 A 
ATOM     41  N   UNL A   1      39.965  29.570  30.107  1.00  0.00    -0.354 N 
ATOM     42  C   UNL A   1      43.855  30.294  28.244  1.00  0.00     0.074 A 
ATOM     43  C   UNL A   1      43.518  29.984  26.877  1.00  0.00     0.031 C 
ATOM     44  C   UNL A   1      37.954  28.615  30.220  1.00  0.00     0.029 A 
ATOM     45  C   UNL A   1      38.666  29.853  30.491  1.00  0.00     0.049 A 
ATOM     46  H   UNL A   1      40.729  30.153  30.319  1.00  0.00     0.167 HD
ATOM     47  C   UNL A   1      44.641  31.284  28.744  1.00  0.00     0.037 A 
ATOM     48  C   UNL A   1      38.194  31.052  30.904  1.00  0.00     0.037 A 
ATOM     49  C   UNL A   1      44.861  31.161  30.156  1.00  0.00     0.049 A 
ATOM     50  C   UNL A   1      39.351  31.875  31.336  1.00  0.00     0.074 A 
ATOM     51  C   UNL A   1      45.454  30.211  30.965  1.00  0.00     0.029 A 
ATOM     52  N   UNL A   1      44.162  31.985  31.001  1.00  0.00    -0.354 N 
ATOM     53  N   UNL A   1      40.049  31.650  32.414  1.00  0.00    -0.248 NA
ATOM     54  C   UNL A   1      39.997  32.725  30.346  1.00  0.00     0.031 C 
ATOM     55  C   UNL A   1      44.706  30.234  32.177  1.00  0.00     0.029 A 
ATOM     56  C   UNL A   1      43.713  31.202  32.033  1.00  0.00     0.049 A 
ATOM     57  H   UNL A   1      44.012  32.953  30.889  1.00  0.00     0.167 HD
ATOM     58  C   UNL A   1      41.355  31.971  32.066  1.00  0.00     0.074 A 
ATOM     59  C   UNL A   1      41.244  32.733  30.827  1.00  0.00     0.031 C 
ATOM     60  C   UNL A   1      42.419  31.350  32.655  1.00  0.00     0.037 A 
BRANCH  47  61
ATOM     61  C   UNL A   1      44.986  32.525  27.980  1.00  0.00     0.057 A 
ATOM     62  C   UNL A   1      44.036  33.544  27.813  1.00  0.00     0.134 A 
ATOM     63  C   UNL A   1      46.144  32.629  27.184  1.00  0.00     0.134 A 
ATOM     64  F   UNL A   1      42.879  33.521  28.490  1.00  0.00    -0.206 F 
ATOM     65  C   UNL A   1      44.218  34.585  26.896  1.00  0.00     0.040 A 
ATOM     66  C   UNL A   1      46.357  33.688  26.302  1.00  0.00     0.040 A 
ATOM     67  F   UNL A   1      47.072  31.662  27.161  1.00  0.00    -0.206 F 
ATOM     68  C   UNL A   1      45.382  34.660  26.137  1.00  0.00     0.006 A 
ENDBRANCH  47  61
BRANCH  48  69
ATOM     69  C   UNL A   1      36.837  31.605  30.704  1.00  0.00     0.057 A 
ATOM     70  C   UNL A   1      36.004  31.903  31.790  1.00  0.00     0.134 A 
ATOM     71  C   UNL A   1      36.396  32.067  29.448  1.00  0.00     0.134 A 
ATOM     72  F   UNL A   1      36.361  31.556  33.035  1.00  0.00    -0.206 F 
ATOM     73  C   UNL A   1      34.806  32.613  31.637  1.00  0.00     0.040 A 
ATOM     74  C   UNL A   1      35.195  32.759  29.278  1.00  0.00     0.040 A 
ATOM     75  F   UNL A   1      37.154  31.934  28.350  1.00  0.00    -0.206 F 
ATOM     76  C   UNL A   1      34.399  33.044  30.378  1.00  0.00     0.006 A 
ENDBRANCH  48  69
BRANCH  60  77
ATOM     77  C   UNL A   1      42.152  30.505  33.866  1.00  0.00     0.057 A 
ATOM     78  C   UNL A   1      41.811  29.145  33.796  1.00  0.00     0.134 A 
ATOM     79  C   UNL A   1      42.397  31.031  35.138  1.00  0.00     0.134 A 
ATOM     80  F   UNL A   1      41.669  28.528  32.616  1.00  0.00    -0.206 F 
ATOM     81  C   UNL A   1      41.667  28.361  34.942  1.00  0.00     0.040 A 
ATOM     82  C   UNL A   1      42.290  30.249  36.291  1.00  0.00     0.040 A 
ATOM     83  F   UNL A   1      42.796  32.306  35.278  1.00  0.00    -0.206 F 
ATOM     84  C   UNL A   1      41.912  28.912  36.196  1.00  0.00     0.006 A 
ENDBRANCH  60  77
ENDBRANCH  34  35
ENDBRANCH  27  29
ENDBRANCH  26  27
ENDBRANCH  25  26
ENDBRANCH   1  25
TORSDOF 16
ENDMDL
MODEL 2
REMARK VINA RESULT:     -10.9      3.719      8.312
REMARK SMILES Cc1n[nH]c(CN(C)C(=O)N[C@](C)(C(=O)OCCOC(=O)c2ccc(-c3c4nc(c(-c5c(F)cccc5F)c5ccc([nH]5)c(-c5c(F)cccc5F)c5nc(c(-c6c(F)cccc6F)c6ccc3[nH]6)C=C5)C=C4)cc2)C(F)(F)F)n1
REMARK SMILES IDX 17 1 16 2 14 3 15 4 12 5 13 6 11 7 9 8 10 9 7 11 8 12 6 13
REMARK SMILES IDX 5 14 1 15 2 16 3 17 80 18 4 19 76 21 77 22 78 23 79 24 18 25
REMARK SMILES IDX 19 26 20 27 21 28 22 29 23 30 75 31 24 32 74 33 25 34 26 35
REMARK SMILES IDX 27 36 68 37 28 38 73 39 67 40 69 41 29 42 72 43 66 44 65 45
REMARK SMILES IDX 30 47 56 48 39 49 55 50 40 51 43 52 54 53 70 54 41 55 42 56
REMARK SMILES IDX 53 58 71 59 44 60 31 61 32 62 37 63 33 64 34 65 36 66 38 67
REMARK SMILES IDX 35 68 57 69 58 70 63 71 59 72 60 73 62 74 64 75 61 76 45 77
REMARK SMILES IDX 46 78 51 79 47 80 48 81 50 82 52 83 49 84
REMARK H PARENT 11 10 4 20 69 46 43 57
REMARK Flexibility Score: inf
ROOT
ATOM      1  C   UNL A   1      32.539  30.192  27.141  1.00  0.00     0.274 C 
ENDROOT
BRANCH   1   2
ATOM      2  O   UNL A   1      32.927  28.817  26.907  1.00  0.00    -0.460 OA
BRANCH   2   3
ATOM      3  C   UNL A   1      31.945  27.875  27.037  1.00  0.00     0.341 C 
ATOM      4  O   UNL A   1      31.058  27.956  27.879  1.00  0.00    -0.249 OA
BRANCH   3   5
ATOM      5  C   UNL A   1      32.040  26.762  25.982  1.00  0.00     0.232 C 
ATOM      6  C   UNL A   1      33.414  26.656  25.327  1.00  0.00     0.058 C 
BRANCH   5   7
ATOM      7  N   UNL A   1      31.514  25.475  26.558  1.00  0.00    -0.315 N 
ATOM      8  C   UNL A   1      31.248  24.200  26.297  1.00  0.00     0.318 C 
ATOM      9  O   UNL A   1      30.701  23.611  27.241  1.00  0.00    -0.249 OA
ATOM     10  H   UNL A   1      31.272  25.645  27.498  1.00  0.00     0.166 HD
BRANCH   8  11
ATOM     11  N   UNL A   1      31.484  23.559  25.129  1.00  0.00    -0.320 N 
ATOM     12  C   UNL A   1      30.733  23.632  23.892  1.00  0.00     0.149 C 
BRANCH  11  13
ATOM     13  C   UNL A   1      32.792  22.912  25.005  1.00  0.00     0.197 C 
BRANCH  13  14
ATOM     14  C   UNL A   1      32.571  21.452  24.798  1.00  0.00     0.144 A 
ATOM     15  C   UNL A   1      32.612  18.357  23.114  1.00  0.00     0.092 C 
ATOM     16  C   UNL A   1      32.507  19.478  24.067  1.00  0.00     0.147 A 
ATOM     17  N   UNL A   1      32.453  19.299  25.392  1.00  0.00    -0.159 NA
ATOM     18  N   UNL A   1      32.528  20.785  23.663  1.00  0.00    -0.215 NA
ATOM     19  N   UNL A   1      32.527  20.565  25.836  1.00  0.00    -0.262 N 
ATOM     20  H   UNL A   1      32.547  20.821  26.787  1.00  0.00     0.192 HD
ENDBRANCH  13  14
ENDBRANCH  11  13
ENDBRANCH   8  11
ENDBRANCH   5   7
BRANCH   5  21
ATOM     21  C   UNL A   1      31.081  27.222  24.856  1.00  0.00     0.422 C 
ATOM     22  F   UNL A   1      31.458  26.818  23.622  1.00  0.00    -0.168 F 
ATOM     23  F   UNL A   1      29.840  26.706  25.061  1.00  0.00    -0.168 F 
ATOM     24  F   UNL A   1      30.935  28.568  24.841  1.00  0.00    -0.168 F 
ENDBRANCH   5  21
ENDBRANCH   3   5
ENDBRANCH   2   3
ENDBRANCH   1   2
BRANCH   1  25
ATOM     25  C   UNL A   1      33.676  31.096  27.625  1.00  0.00     0.275 C 
BRANCH  25  26
ATOM     26  O   UNL A   1      34.767  30.360  28.188  1.00  0.00    -0.458 OA
BRANCH  26  27
ATOM     27  C   UNL A   1      35.694  31.145  28.778  1.00  0.00     0.338 C 
ATOM     28  O   UNL A   1      35.486  32.176  29.393  1.00  0.00    -0.246 OA
BRANCH  27  29
ATOM     29  C   UNL A   1      37.055  30.661  28.527  1.00  0.00     0.060 A 
ATOM     30  C   UNL A   1      37.173  29.390  27.954  1.00  0.00     0.016 A 
ATOM     31  C   UNL A   1      38.148  31.311  29.104  1.00  0.00     0.016 A 
ATOM     32  C   UNL A   1      38.344  28.684  28.121  1.00  0.00     0.010 A 
ATOM     33  C   UNL A   1      39.324  30.604  29.269  1.00  0.00     0.010 A 
ATOM     34  C   UNL A   1      39.374  29.268  28.860  1.00  0.00    -0.014 A 
BRANCH  34  35
ATOM     35  C   UNL A   1      40.466  28.401  29.266  1.00  0.00     0.031 A 
ATOM     36  C   UNL A   1      40.709  28.272  30.721  1.00  0.00     0.074 A 
ATOM     37  C   UNL A   1      41.157  27.686  28.358  1.00  0.00     0.049 A 
ATOM     38  N   UNL A   1      41.814  28.461  31.367  1.00  0.00    -0.248 NA
ATOM     39  C   UNL A   1      39.556  27.940  31.570  1.00  0.00     0.031 C 
ATOM     40  C   UNL A   1      40.871  27.522  26.930  1.00  0.00     0.029 A 
ATOM     41  N   UNL A   1      42.201  26.838  28.567  1.00  0.00    -0.354 N 
ATOM     42  C   UNL A   1      41.539  28.135  32.691  1.00  0.00     0.074 A 
ATOM     43  C   UNL A   1      40.117  27.910  32.778  1.00  0.00     0.031 C 
ATOM     44  C   UNL A   1      41.556  26.456  26.467  1.00  0.00     0.029 A 
ATOM     45  C   UNL A   1      42.402  25.941  27.532  1.00  0.00     0.049 A 
ATOM     46  H   UNL A   1      42.760  26.860  29.377  1.00  0.00     0.167 HD
ATOM     47  C   UNL A   1      42.514  27.906  33.609  1.00  0.00     0.037 A 
ATOM     48  C   UNL A   1      43.131  24.802  27.586  1.00  0.00     0.037 A 
ATOM     49  C   UNL A   1      43.792  28.414  33.202  1.00  0.00     0.049 A 
ATOM     50  C   UNL A   1      44.055  24.907  28.743  1.00  0.00     0.074 A 
ATOM     51  C   UNL A   1      44.287  29.670  32.914  1.00  0.00     0.029 A 
ATOM     52  N   UNL A   1      44.730  27.528  32.736  1.00  0.00    -0.354 N 
ATOM     53  N   UNL A   1      45.086  25.704  28.789  1.00  0.00    -0.248 NA
ATOM     54  C   UNL A   1      43.600  24.407  30.033  1.00  0.00     0.031 C 
ATOM     55  C   UNL A   1      45.250  29.465  31.884  1.00  0.00     0.029 A 
ATOM     56  C   UNL A   1      45.286  28.097  31.619  1.00  0.00     0.049 A 
ATOM     57  H   UNL A   1      44.960  26.653  33.127  1.00  0.00     0.167 HD
ATOM     58  C   UNL A   1      45.144  26.133  30.109  1.00  0.00     0.074 A 
ATOM     59  C   UNL A   1      44.282  25.217  30.847  1.00  0.00     0.031 C 
ATOM     60  C   UNL A   1      45.654  27.358  30.435  1.00  0.00     0.037 A 
BRANCH  47  61
ATOM     61  C   UNL A   1      42.351  26.968  34.766  1.00  0.00     0.057 A 
ATOM     62  C   UNL A   1      41.962  27.453  36.024  1.00  0.00     0.134 A 
ATOM     63  C   UNL A   1      42.819  25.640  34.738  1.00  0.00     0.134 A 
ATOM     64  F   UNL A   1      41.540  28.718  36.171  1.00  0.00    -0.206 F 
ATOM     65  C   UNL A   1      42.055  26.672  37.181  1.00  0.00     0.040 A 
ATOM     66  C   UNL A   1      42.870  24.836  35.877  1.00  0.00     0.040 A 
ATOM     67  F   UNL A   1      43.330  25.096  33.624  1.00  0.00    -0.206 F 
ATOM     68  C   UNL A   1      42.509  25.359  37.110  1.00  0.00     0.006 A 
ENDBRANCH  47  61
BRANCH  48  69
ATOM     69  C   UNL A   1      42.891  23.542  26.852  1.00  0.00     0.057 A 
ATOM     70  C   UNL A   1      43.876  22.980  26.029  1.00  0.00     0.134 A 
ATOM     71  C   UNL A   1      41.768  22.731  27.106  1.00  0.00     0.134 A 
ATOM     72  F   UNL A   1      45.010  23.647  25.771  1.00  0.00    -0.206 F 
ATOM     73  C   UNL A   1      43.750  21.692  25.491  1.00  0.00     0.040 A 
ATOM     74  C   UNL A   1      41.620  21.454  26.561  1.00  0.00     0.040 A 
ATOM     75  F   UNL A   1      40.808  23.117  27.959  1.00  0.00    -0.206 F 
ATOM     76  C   UNL A   1      42.620  20.925  25.758  1.00  0.00     0.006 A 
ENDBRANCH  48  69
BRANCH  60  77
ATOM     77  C   UNL A   1      46.386  28.116  29.366  1.00  0.00     0.057 A 
ATOM     78  C   UNL A   1      47.760  27.969  29.121  1.00  0.00     0.134 A 
ATOM     79  C   UNL A   1      45.661  28.895  28.458  1.00  0.00     0.134 A 
ATOM     80  F   UNL A   1      48.512  27.153  29.870  1.00  0.00    -0.206 F 
ATOM     81  C   UNL A   1      48.392  28.613  28.055  1.00  0.00     0.040 A 
ATOM     82  C   UNL A   1      46.275  29.516  27.368  1.00  0.00     0.040 A 
ATOM     83  F   UNL A   1      44.330  29.023  28.589  1.00  0.00    -0.206 F 
ATOM     84  C   UNL A   1      47.648  29.387  27.171  1.00  0.00     0.006 A 
ENDBRANCH  60  77
ENDBRANCH  34  35
ENDBRANCH  27  29
ENDBRANCH  26  27
ENDBRANCH  25  26
ENDBRANCH   1  25
TORSDOF 16
ENDMDL
MODEL 3
REMARK VINA RESULT:     -10.9      5.741     11.310
REMARK SMILES Cc1n[nH]c(CN(C)C(=O)N[C@](C)(C(=O)OCCOC(=O)c2ccc(-c3c4nc(c(-c5c(F)cccc5F)c5ccc([nH]5)c(-c5c(F)cccc5F)c5nc(c(-c6c(F)cccc6F)c6ccc3[nH]6)C=C5)C=C4)cc2)C(F)(F)F)n1
REMARK SMILES IDX 17 1 16 2 14 3 15 4 12 5 13 6 11 7 9 8 10 9 7 11 8 12 6 13
REMARK SMILES IDX 5 14 1 15 2 16 3 17 80 18 4 19 76 21 77 22 78 23 79 24 18 25
REMARK SMILES IDX 19 26 20 27 21 28 22 29 23 30 75 31 24 32 74 33 25 34 26 35
REMARK SMILES IDX 27 36 68 37 28 38 73 39 67 40 69 41 29 42 72 43 66 44 65 45
REMARK SMILES IDX 30 47 56 48 39 49 55 50 40 51 43 52 54 53 70 54 41 55 42 56
REMARK SMILES IDX 53 58 71 59 44 60 31 61 32 62 37 63 33 64 34 65 36 66 38 67
REMARK SMILES IDX 35 68 57 69 58 70 63 71 59 72 60 73 62 74 64 75 61 76 45 77
REMARK SMILES IDX 46 78 51 79 47 80 48 81 50 82 52 83 49 84
REMARK H PARENT 11 10 4 20 69 46 43 57
REMARK Flexibility Score: inf
ROOT
ATOM      1  C   UNL A   1      34.692  33.252  33.316  1.00  0.00     0.274 C 
ENDROOT
BRANCH   1   2
ATOM      2  O   UNL A   1      35.905  32.690  33.870  1.00  0.00    -0.460 OA
BRANCH   2   3
ATOM      3  C   UNL A   1      36.961  33.544  34.022  1.00  0.00     0.341 C 
ATOM      4  O   UNL A   1      36.817  34.755  34.150  1.00  0.00    -0.249 OA
BRANCH   3   5
ATOM      5  C   UNL A   1      38.315  32.821  34.082  1.00  0.00     0.232 C 
ATOM      6  C   UNL A   1      39.503  33.762  34.259  1.00  0.00     0.058 C 
BRANCH   5   7
ATOM      7  N   UNL A   1      38.242  31.698  35.081  1.00  0.00    -0.315 N 
ATOM      8  C   UNL A   1      38.293  31.393  36.373  1.00  0.00     0.318 C 
ATOM      9  O   UNL A   1      38.245  30.173  36.590  1.00  0.00    -0.249 OA
ATOM     10  H   UNL A   1      38.101  30.861  34.581  1.00  0.00     0.166 HD
BRANCH   8  11
ATOM     11  N   UNL A   1      38.427  32.270  37.395  1.00  0.00    -0.320 N 
ATOM     12  C   UNL A   1      39.598  33.029  37.785  1.00  0.00     0.149 C 
BRANCH  11  13
ATOM     13  C   UNL A   1      37.183  32.706  38.034  1.00  0.00     0.197 C 
BRANCH  13  14
ATOM     14  C   UNL A   1      37.191  32.226  39.445  1.00  0.00     0.144 A 
ATOM     15  C   UNL A   1      38.032  30.173  42.182  1.00  0.00     0.092 C 
ATOM     16  C   UNL A   1      37.549  31.216  41.258  1.00  0.00     0.147 A 
ATOM     17  N   UNL A   1      37.162  32.428  41.673  1.00  0.00    -0.159 NA
ATOM     18  N   UNL A   1      37.530  31.037  39.902  1.00  0.00    -0.215 NA
ATOM     19  N   UNL A   1      36.971  33.062  40.503  1.00  0.00    -0.262 N 
ATOM     20  H   UNL A   1      36.707  34.007  40.419  1.00  0.00     0.192 HD
ENDBRANCH  13  14
ENDBRANCH  11  13
ENDBRANCH   8  11
ENDBRANCH   5   7
BRANCH   5  21
ATOM     21  C   UNL A   1      38.481  32.208  32.669  1.00  0.00     0.422 C 
ATOM     22  F   UNL A   1      38.105  33.037  31.669  1.00  0.00    -0.168 F 
ATOM     23  F   UNL A   1      39.788  31.909  32.441  1.00  0.00    -0.168 F 
ATOM     24  F   UNL A   1      37.798  31.046  32.542  1.00  0.00    -0.168 F 
ENDBRANCH   5  21
ENDBRANCH   3   5
ENDBRANCH   2   3
ENDBRANCH   1   2
BRANCH   1  25
ATOM     25  C   UNL A   1      34.592  33.159  31.790  1.00  0.00     0.275 C 
BRANCH  25  26
ATOM     26  O   UNL A   1      35.227  31.989  31.264  1.00  0.00    -0.458 OA
BRANCH  26  27
ATOM     27  C   UNL A   1      35.160  31.904  29.918  1.00  0.00     0.338 C 
ATOM     28  O   UNL A   1      34.246  32.291  29.211  1.00  0.00    -0.246 OA
BRANCH  27  29
ATOM     29  C   UNL A   1      36.312  31.190  29.361  1.00  0.00     0.060 A 
ATOM     30  C   UNL A   1      36.318  29.798  29.508  1.00  0.00     0.016 A 
ATOM     31  C   UNL A   1      37.457  31.893  28.981  1.00  0.00     0.016 A 
ATOM     32  C   UNL A   1      37.518  29.123  29.458  1.00  0.00     0.010 A 
ATOM     33  C   UNL A   1      38.660  31.215  28.927  1.00  0.00     0.010 A 
ATOM     34  C   UNL A   1      38.688  29.858  29.260  1.00  0.00    -0.014 A 
BRANCH  34  35
ATOM     35  C   UNL A   1      39.945  29.171  29.501  1.00  0.00     0.031 A 
ATOM     36  C   UNL A   1      40.311  28.931  30.916  1.00  0.00     0.074 A 
ATOM     37  C   UNL A   1      40.686  28.701  28.480  1.00  0.00     0.049 A 
ATOM     38  N   UNL A   1      41.408  29.251  31.524  1.00  0.00    -0.248 NA
ATOM     39  C   UNL A   1      39.301  28.299  31.776  1.00  0.00     0.031 C 
ATOM     40  C   UNL A   1      40.332  28.645  27.059  1.00  0.00     0.029 A 
ATOM     41  N   UNL A   1      41.877  28.047  28.532  1.00  0.00    -0.354 N 
ATOM     42  C   UNL A   1      41.292  28.736  32.810  1.00  0.00     0.074 A 
ATOM     43  C   UNL A   1      39.944  28.242  32.941  1.00  0.00     0.031 C 
ATOM     44  C   UNL A   1      41.163  27.783  26.436  1.00  0.00     0.029 A 
ATOM     45  C   UNL A   1      42.162  27.322  27.387  1.00  0.00     0.049 A 
ATOM     46  H   UNL A   1      42.480  28.084  29.309  1.00  0.00     0.167 HD
ATOM     47  C   UNL A   1      42.356  28.594  33.643  1.00  0.00     0.037 A 
ATOM     48  C   UNL A   1      43.086  26.341  27.266  1.00  0.00     0.037 A 
ATOM     49  C   UNL A   1      43.489  29.374  33.237  1.00  0.00     0.049 A 
ATOM     50  C   UNL A   1      44.057  26.489  28.378  1.00  0.00     0.074 A 
ATOM     51  C   UNL A   1      43.728  30.725  33.078  1.00  0.00     0.029 A 
ATOM     52  N   UNL A   1      44.535  28.736  32.620  1.00  0.00    -0.354 N 
ATOM     53  N   UNL A   1      44.928  27.455  28.469  1.00  0.00    -0.248 NA
ATOM     54  C   UNL A   1      43.794  25.775  29.619  1.00  0.00     0.031 C 
ATOM     55  C   UNL A   1      44.635  30.818  31.984  1.00  0.00     0.029 A 
ATOM     56  C   UNL A   1      44.898  29.518  31.553  1.00  0.00     0.049 A 
ATOM     57  H   UNL A   1      44.946  27.883  32.890  1.00  0.00     0.167 HD
ATOM     58  C   UNL A   1      45.003  27.740  29.826  1.00  0.00     0.074 A 
ATOM     59  C   UNL A   1      44.375  26.604  30.490  1.00  0.00     0.031 C 
ATOM     60  C   UNL A   1      45.307  28.995  30.271  1.00  0.00     0.037 A 
BRANCH  47  61
ATOM     61  C   UNL A   1      42.448  27.522  34.685  1.00  0.00     0.057 A 
ATOM     62  C   UNL A   1      42.900  26.238  34.346  1.00  0.00     0.134 A 
ATOM     63  C   UNL A   1      41.856  27.648  35.958  1.00  0.00     0.134 A 
ATOM     64  F   UNL A   1      43.442  25.997  33.142  1.00  0.00    -0.206 F 
ATOM     65  C   UNL A   1      42.752  25.147  35.208  1.00  0.00     0.040 A 
ATOM     66  C   UNL A   1      41.747  26.577  36.845  1.00  0.00     0.040 A 
ATOM     67  F   UNL A   1      41.279  28.790  36.356  1.00  0.00    -0.206 F 
ATOM     68  C   UNL A   1      42.175  25.315  36.463  1.00  0.00     0.006 A 
ENDBRANCH  47  61
BRANCH  48  69
ATOM     69  C   UNL A   1      43.024  25.146  26.397  1.00  0.00     0.057 A 
ATOM     70  C   UNL A   1      43.922  24.970  25.337  1.00  0.00     0.134 A 
ATOM     71  C   UNL A   1      42.224  24.031  26.716  1.00  0.00     0.134 A 
ATOM     72  F   UNL A   1      44.768  25.951  24.991  1.00  0.00    -0.206 F 
ATOM     73  C   UNL A   1      44.017  23.761  24.635  1.00  0.00     0.040 A 
ATOM     74  C   UNL A   1      42.294  22.827  26.012  1.00  0.00     0.040 A 
ATOM     75  F   UNL A   1      41.401  24.043  27.773  1.00  0.00    -0.206 F 
ATOM     76  C   UNL A   1      43.202  22.685  24.973  1.00  0.00     0.006 A 
ENDBRANCH  48  69
BRANCH  60  77
ATOM     77  C   UNL A   1      45.811  29.990  29.266  1.00  0.00     0.057 A 
ATOM     78  C   UNL A   1      44.964  30.780  28.474  1.00  0.00     0.134 A 
ATOM     79  C   UNL A   1      47.179  30.272  29.207  1.00  0.00     0.134 A 
ATOM     80  F   UNL A   1      43.633  30.658  28.550  1.00  0.00    -0.206 F 
ATOM     81  C   UNL A   1      45.462  31.767  27.621  1.00  0.00     0.040 A 
ATOM     82  C   UNL A   1      47.687  31.280  28.384  1.00  0.00     0.040 A 
ATOM     83  F   UNL A   1      48.042  29.604  29.990  1.00  0.00    -0.206 F 
ATOM     84  C   UNL A   1      46.829  32.024  27.577  1.00  0.00     0.006 A 
ENDBRANCH  60  77
ENDBRANCH  34  35
ENDBRANCH  27  29
ENDBRANCH  26  27
ENDBRANCH  25  26
ENDBRANCH   1  25
TORSDOF 16
ENDMDL
