MODEL 1
REMARK VINA RESULT:     -11.7      0.000      0.000
REMARK SMILES COc1cc2c(cc1OC)[C@@H](CC(=O)OCCOC(=O)c1ccc(-c3c4nc(c(-c5c(F)cccc5F)c5ccc([nH]5)c(-c5c(F)cccc5F)c5nc(c(-c6c(F)cccc6F)c6ccc3[nH]6)C=C5)C=C4)cc1)N(C(=O)Nc1ccc(Cl)cc1)CC2
REMARK SMILES IDX 16 1 15 2 13 3 14 4 12 5 11 6 3 7 4 8 8 9 5 10 7 11 6 12
REMARK SMILES IDX 87 13 86 14 75 15 2 16 1 17 9 18 10 19 76 20 77 21 78 22
REMARK SMILES IDX 79 24 80 25 85 26 81 27 84 28 82 29 83 30 17 31 18 32 19 33
REMARK SMILES IDX 20 34 21 35 22 36 74 37 23 38 73 39 24 40 25 41 26 42 67 43
REMARK SMILES IDX 27 44 72 45 66 46 68 47 28 48 71 49 65 50 64 51 29 53 55 54
REMARK SMILES IDX 38 55 54 56 39 57 42 58 53 59 69 60 40 61 41 62 52 64 70 65
REMARK SMILES IDX 43 66 30 67 31 68 36 69 32 70 33 71 35 72 37 73 34 74 56 75
REMARK SMILES IDX 57 76 62 77 58 78 59 79 61 80 63 81 60 82 44 83 45 84 50 85
REMARK SMILES IDX 46 86 47 87 49 88 51 89 48 90
REMARK H PARENT 78 23 68 52 42 63
REMARK Flexibility Score: inf
ROOT
ATOM      1  C   UNL A   1      31.603  29.859  26.323  1.00  0.00     0.274 C 
ENDROOT
BRANCH   1   2
ATOM      2  O   UNL A   1      32.773  29.435  25.600  1.00  0.00    -0.462 OA
BRANCH   2   3
ATOM      3  C   UNL A   1      33.426  28.347  26.069  1.00  0.00     0.308 C 
ATOM      4  O   UNL A   1      33.388  27.968  27.238  1.00  0.00    -0.252 OA
BRANCH   3   5
ATOM      5  C   UNL A   1      34.207  27.575  25.025  1.00  0.00     0.152 C 
BRANCH   5   6
ATOM      6  C   UNL A   1      33.506  26.438  24.249  1.00  0.00     0.128 C 
ATOM      7  C   UNL A   1      35.381  22.474  24.690  1.00  0.00     0.161 A 
ATOM      8  C   UNL A   1      34.345  22.709  23.788  1.00  0.00     0.054 A 
ATOM      9  C   UNL A   1      35.797  23.508  25.539  1.00  0.00     0.161 A 
ATOM     10  C   UNL A   1      33.743  23.967  23.697  1.00  0.00    -0.037 A 
ATOM     11  C   UNL A   1      35.194  24.780  25.421  1.00  0.00     0.056 A 
ATOM     12  C   UNL A   1      34.180  25.048  24.481  1.00  0.00    -0.018 A 
ATOM     13  C   UNL A   1      32.674  24.226  22.685  1.00  0.00     0.057 C 
ATOM     14  C   UNL A   1      33.090  25.478  21.935  1.00  0.00     0.127 C 
ATOM     15  N   UNL A   1      33.235  26.673  22.776  1.00  0.00    -0.317 N 
BRANCH   7  16
ATOM     16  O   UNL A   1      35.926  21.224  24.556  1.00  0.00    -0.493 OA
ATOM     17  C   UNL A   1      35.108  20.117  24.902  1.00  0.00     0.278 C 
ENDBRANCH   7  16
BRANCH   9  18
ATOM     18  O   UNL A   1      36.823  23.244  26.408  1.00  0.00    -0.493 OA
ATOM     19  C   UNL A   1      37.997  24.044  26.326  1.00  0.00     0.278 C 
ENDBRANCH   9  18
BRANCH  15  20
ATOM     20  C   UNL A   1      33.309  27.939  22.238  1.00  0.00     0.322 C 
ATOM     21  O   UNL A   1      34.239  28.307  21.515  1.00  0.00    -0.248 OA
ATOM     22  N   UNL A   1      32.423  28.925  22.567  1.00  0.00    -0.308 N 
ATOM     23  H   UNL A   1      32.814  29.800  22.793  1.00  0.00     0.171 HD
BRANCH  22  24
ATOM     24  C   UNL A   1      31.031  28.846  22.623  1.00  0.00     0.042 A 
ATOM     25  C   UNL A   1      30.469  27.741  23.266  1.00  0.00     0.028 A 
ATOM     26  C   UNL A   1      30.220  29.825  22.043  1.00  0.00     0.028 A 
ATOM     27  C   UNL A   1      29.089  27.673  23.438  1.00  0.00     0.022 A 
ATOM     28  C   UNL A   1      28.838  29.762  22.232  1.00  0.00     0.022 A 
ATOM     29  C   UNL A   1      28.282  28.697  22.944  1.00  0.00     0.041 A 
ATOM     30  Cl  UNL A   1      26.588  28.656  23.241  1.00  0.00    -0.084 Cl
ENDBRANCH  22  24
ENDBRANCH  15  20
ENDBRANCH   5   6
ENDBRANCH   3   5
ENDBRANCH   2   3
ENDBRANCH   1   2
BRANCH   1  31
ATOM     31  C   UNL A   1      31.593  31.379  26.469  1.00  0.00     0.275 C 
BRANCH  31  32
ATOM     32  O   UNL A   1      32.930  31.904  26.402  1.00  0.00    -0.458 OA
BRANCH  32  33
ATOM     33  C   UNL A   1      33.241  32.803  27.363  1.00  0.00     0.338 C 
ATOM     34  O   UNL A   1      32.580  33.757  27.745  1.00  0.00    -0.246 OA
BRANCH  33  35
ATOM     35  C   UNL A   1      34.473  32.368  28.028  1.00  0.00     0.060 A 
ATOM     36  C   UNL A   1      34.483  31.114  28.645  1.00  0.00     0.016 A 
ATOM     37  C   UNL A   1      35.593  33.198  28.072  1.00  0.00     0.016 A 
ATOM     38  C   UNL A   1      35.624  30.672  29.304  1.00  0.00     0.010 A 
ATOM     39  C   UNL A   1      36.737  32.755  28.734  1.00  0.00     0.010 A 
ATOM     40  C   UNL A   1      36.758  31.492  29.353  1.00  0.00    -0.014 A 
BRANCH  40  41
ATOM     41  C   UNL A   1      37.970  31.043  30.071  1.00  0.00     0.031 A 
ATOM     42  C   UNL A   1      38.909  30.081  29.411  1.00  0.00     0.074 A 
ATOM     43  C   UNL A   1      38.202  31.481  31.322  1.00  0.00     0.049 A 
ATOM     44  N   UNL A   1      39.934  29.447  29.917  1.00  0.00    -0.248 NA
ATOM     45  C   UNL A   1      38.658  29.791  27.990  1.00  0.00     0.031 C 
ATOM     46  C   UNL A   1      37.377  32.451  32.042  1.00  0.00     0.029 A 
ATOM     47  N   UNL A   1      39.190  31.151  32.212  1.00  0.00    -0.354 N 
ATOM     48  C   UNL A   1      40.435  28.663  28.887  1.00  0.00     0.074 A 
ATOM     49  C   UNL A   1      39.598  28.894  27.730  1.00  0.00     0.031 C 
ATOM     50  C   UNL A   1      37.884  32.626  33.274  1.00  0.00     0.029 A 
ATOM     51  C   UNL A   1      39.033  31.741  33.442  1.00  0.00     0.049 A 
ATOM     52  H   UNL A   1      39.938  30.550  31.993  1.00  0.00     0.167 HD
ATOM     53  C   UNL A   1      41.499  27.826  28.913  1.00  0.00     0.037 A 
ATOM     54  C   UNL A   1      39.713  31.552  34.588  1.00  0.00     0.037 A 
ATOM     55  C   UNL A   1      42.330  27.615  30.070  1.00  0.00     0.049 A 
ATOM     56  C   UNL A   1      40.845  30.562  34.612  1.00  0.00     0.074 A 
ATOM     57  C   UNL A   1      43.449  26.811  30.193  1.00  0.00     0.029 A 
ATOM     58  N   UNL A   1      42.126  28.211  31.306  1.00  0.00    -0.354 N 
ATOM     59  N   UNL A   1      41.317  29.827  33.634  1.00  0.00    -0.248 NA
ATOM     60  C   UNL A   1      41.527  30.364  35.897  1.00  0.00     0.031 C 
ATOM     61  C   UNL A   1      43.895  26.885  31.518  1.00  0.00     0.029 A 
ATOM     62  C   UNL A   1      43.081  27.770  32.206  1.00  0.00     0.049 A 
ATOM     63  H   UNL A   1      41.409  28.853  31.512  1.00  0.00     0.167 HD
ATOM     64  C   UNL A   1      42.360  29.091  34.182  1.00  0.00     0.074 A 
ATOM     65  C   UNL A   1      42.462  29.481  35.572  1.00  0.00     0.031 C 
ATOM     66  C   UNL A   1      43.161  28.173  33.587  1.00  0.00     0.037 A 
BRANCH  53  67
ATOM     67  C   UNL A   1      41.805  27.054  27.665  1.00  0.00     0.057 A 
ATOM     68  C   UNL A   1      41.322  25.756  27.457  1.00  0.00     0.134 A 
ATOM     69  C   UNL A   1      42.567  27.632  26.642  1.00  0.00     0.134 A 
ATOM     70  F   UNL A   1      40.599  25.140  28.404  1.00  0.00    -0.206 F 
ATOM     71  C   UNL A   1      41.601  25.054  26.283  1.00  0.00     0.040 A 
ATOM     72  C   UNL A   1      42.834  26.949  25.454  1.00  0.00     0.040 A 
ATOM     73  F   UNL A   1      43.058  28.874  26.777  1.00  0.00    -0.206 F 
ATOM     74  C   UNL A   1      42.354  25.654  25.274  1.00  0.00     0.006 A 
ENDBRANCH  53  67
BRANCH  54  75
ATOM     75  C   UNL A   1      39.315  32.283  35.817  1.00  0.00     0.057 A 
ATOM     76  C   UNL A   1      38.413  31.727  36.730  1.00  0.00     0.134 A 
ATOM     77  C   UNL A   1      39.825  33.555  36.106  1.00  0.00     0.134 A 
ATOM     78  F   UNL A   1      37.874  30.521  36.497  1.00  0.00    -0.206 F 
ATOM     79  C   UNL A   1      38.022  32.414  37.881  1.00  0.00     0.040 A 
ATOM     80  C   UNL A   1      39.462  34.243  37.265  1.00  0.00     0.040 A 
ATOM     81  F   UNL A   1      40.694  34.143  35.270  1.00  0.00    -0.206 F 
ATOM     82  C   UNL A   1      38.552  33.674  38.154  1.00  0.00     0.006 A 
ENDBRANCH  54  75
BRANCH  66  83
ATOM     83  C   UNL A   1      44.226  27.545  34.435  1.00  0.00     0.057 A 
ATOM     84  C   UNL A   1      44.007  26.344  35.122  1.00  0.00     0.134 A 
ATOM     85  C   UNL A   1      45.499  28.122  34.526  1.00  0.00     0.134 A 
ATOM     86  F   UNL A   1      42.804  25.751  35.085  1.00  0.00    -0.206 F 
ATOM     87  C   UNL A   1      45.013  25.747  35.882  1.00  0.00     0.040 A 
ATOM     88  C   UNL A   1      46.519  27.523  35.264  1.00  0.00     0.040 A 
ATOM     89  F   UNL A   1      45.775  29.269  33.886  1.00  0.00    -0.206 F 
ATOM     90  C   UNL A   1      46.276  26.333  35.948  1.00  0.00     0.006 A 
ENDBRANCH  66  83
ENDBRANCH  40  41
ENDBRANCH  33  35
ENDBRANCH  32  33
ENDBRANCH  31  32
ENDBRANCH   1  31
TORSDOF 16
ENDMDL
MODEL 2
REMARK VINA RESULT:     -11.6      2.215      4.887
REMARK SMILES COc1cc2c(cc1OC)[C@@H](CC(=O)OCCOC(=O)c1ccc(-c3c4nc(c(-c5c(F)cccc5F)c5ccc([nH]5)c(-c5c(F)cccc5F)c5nc(c(-c6c(F)cccc6F)c6ccc3[nH]6)C=C5)C=C4)cc1)N(C(=O)Nc1ccc(Cl)cc1)CC2
REMARK SMILES IDX 16 1 15 2 13 3 14 4 12 5 11 6 3 7 4 8 8 9 5 10 7 11 6 12
REMARK SMILES IDX 87 13 86 14 75 15 2 16 1 17 9 18 10 19 76 20 77 21 78 22
REMARK SMILES IDX 79 24 80 25 85 26 81 27 84 28 82 29 83 30 17 31 18 32 19 33
REMARK SMILES IDX 20 34 21 35 22 36 74 37 23 38 73 39 24 40 25 41 26 42 67 43
REMARK SMILES IDX 27 44 72 45 66 46 68 47 28 48 71 49 65 50 64 51 29 53 55 54
REMARK SMILES IDX 38 55 54 56 39 57 42 58 53 59 69 60 40 61 41 62 52 64 70 65
REMARK SMILES IDX 43 66 30 67 31 68 36 69 32 70 33 71 35 72 37 73 34 74 56 75
REMARK SMILES IDX 57 76 62 77 58 78 59 79 61 80 63 81 60 82 44 83 45 84 50 85
REMARK SMILES IDX 46 86 47 87 49 88 51 89 48 90
REMARK H PARENT 78 23 68 52 42 63
REMARK Flexibility Score: inf
ROOT
ATOM      1  C   UNL A   1      32.304  31.486  27.234  1.00  0.00     0.274 C 
ENDROOT
BRANCH   1   2
ATOM      2  O   UNL A   1      33.470  30.687  26.963  1.00  0.00    -0.462 OA
BRANCH   2   3
ATOM      3  C   UNL A   1      33.262  29.402  26.593  1.00  0.00     0.308 C 
ATOM      4  O   UNL A   1      34.127  28.529  26.607  1.00  0.00    -0.252 OA
BRANCH   3   5
ATOM      5  C   UNL A   1      31.840  29.084  26.176  1.00  0.00     0.152 C 
BRANCH   5   6
ATOM      6  C   UNL A   1      31.587  28.440  24.794  1.00  0.00     0.128 C 
ATOM      7  C   UNL A   1      28.668  30.570  22.271  1.00  0.00     0.161 A 
ATOM      8  C   UNL A   1      29.188  29.327  21.917  1.00  0.00     0.054 A 
ATOM      9  C   UNL A   1      29.139  31.204  23.430  1.00  0.00     0.161 A 
ATOM     10  C   UNL A   1      30.141  28.692  22.718  1.00  0.00    -0.037 A 
ATOM     11  C   UNL A   1      30.087  30.541  24.240  1.00  0.00     0.056 A 
ATOM     12  C   UNL A   1      30.585  29.262  23.923  1.00  0.00    -0.018 A 
ATOM     13  C   UNL A   1      30.648  27.331  22.361  1.00  0.00     0.057 C 
ATOM     14  C   UNL A   1      30.494  26.478  23.607  1.00  0.00     0.127 C 
ATOM     15  N   UNL A   1      31.244  26.963  24.774  1.00  0.00    -0.317 N 
BRANCH   7  16
ATOM     16  O   UNL A   1      27.663  30.982  21.437  1.00  0.00    -0.493 OA
ATOM     17  C   UNL A   1      28.027  31.795  20.332  1.00  0.00     0.278 C 
ENDBRANCH   7  16
BRANCH   9  18
ATOM     18  O   UNL A   1      28.601  32.422  23.752  1.00  0.00    -0.493 OA
ATOM     19  C   UNL A   1      29.158  33.584  23.150  1.00  0.00     0.278 C 
ENDBRANCH   9  18
BRANCH  15  20
ATOM     20  C   UNL A   1      31.463  26.173  25.879  1.00  0.00     0.322 C 
ATOM     21  O   UNL A   1      30.585  25.924  26.712  1.00  0.00    -0.248 OA
ATOM     22  N   UNL A   1      32.703  25.705  26.208  1.00  0.00    -0.308 N 
ATOM     23  H   UNL A   1      32.970  25.812  27.150  1.00  0.00     0.171 HD
BRANCH  22  24
ATOM     24  C   UNL A   1      33.640  25.093  25.374  1.00  0.00     0.042 A 
ATOM     25  C   UNL A   1      34.888  24.784  25.917  1.00  0.00     0.028 A 
ATOM     26  C   UNL A   1      33.353  24.812  24.036  1.00  0.00     0.028 A 
ATOM     27  C   UNL A   1      35.816  24.080  25.155  1.00  0.00     0.022 A 
ATOM     28  C   UNL A   1      34.280  24.092  23.279  1.00  0.00     0.022 A 
ATOM     29  C   UNL A   1      35.497  23.713  23.848  1.00  0.00     0.041 A 
ATOM     30  Cl  UNL A   1      36.608  22.763  22.942  1.00  0.00    -0.084 Cl
ENDBRANCH  22  24
ENDBRANCH  15  20
ENDBRANCH   5   6
ENDBRANCH   3   5
ENDBRANCH   2   3
ENDBRANCH   1   2
BRANCH   1  31
ATOM     31  C   UNL A   1      32.634  32.970  27.085  1.00  0.00     0.275 C 
BRANCH  31  32
ATOM     32  O   UNL A   1      32.164  33.710  28.225  1.00  0.00    -0.458 OA
BRANCH  32  33
ATOM     33  C   UNL A   1      32.981  34.707  28.637  1.00  0.00     0.338 C 
ATOM     34  O   UNL A   1      32.743  35.904  28.685  1.00  0.00    -0.246 OA
BRANCH  33  35
ATOM     35  C   UNL A   1      34.199  34.112  29.192  1.00  0.00     0.060 A 
ATOM     36  C   UNL A   1      34.067  33.166  30.213  1.00  0.00     0.016 A 
ATOM     37  C   UNL A   1      35.458  34.503  28.736  1.00  0.00     0.016 A 
ATOM     38  C   UNL A   1      35.198  32.593  30.781  1.00  0.00     0.010 A 
ATOM     39  C   UNL A   1      36.593  33.928  29.308  1.00  0.00     0.010 A 
ATOM     40  C   UNL A   1      36.468  32.972  30.331  1.00  0.00    -0.014 A 
BRANCH  40  41
ATOM     41  C   UNL A   1      37.680  32.387  30.944  1.00  0.00     0.031 A 
ATOM     42  C   UNL A   1      38.412  31.289  30.236  1.00  0.00     0.074 A 
ATOM     43  C   UNL A   1      38.096  32.827  32.146  1.00  0.00     0.049 A 
ATOM     44  N   UNL A   1      39.393  30.539  30.664  1.00  0.00    -0.248 NA
ATOM     45  C   UNL A   1      37.979  30.994  28.861  1.00  0.00     0.031 C 
ATOM     46  C   UNL A   1      37.484  33.919  32.902  1.00  0.00     0.029 A 
ATOM     47  N   UNL A   1      39.120  32.394  32.947  1.00  0.00    -0.354 N 
ATOM     48  C   UNL A   1      39.679  29.665  29.624  1.00  0.00     0.074 A 
ATOM     49  C   UNL A   1      38.763  29.972  28.547  1.00  0.00     0.031 C 
ATOM     50  C   UNL A   1      38.135  34.060  34.069  1.00  0.00     0.029 A 
ATOM     51  C   UNL A   1      39.170  33.036  34.160  1.00  0.00     0.049 A 
ATOM     52  H   UNL A   1      39.757  31.692  32.680  1.00  0.00     0.167 HD
ATOM     53  C   UNL A   1      40.622  28.695  29.580  1.00  0.00     0.037 A 
ATOM     54  C   UNL A   1      39.936  32.791  35.240  1.00  0.00     0.037 A 
ATOM     55  C   UNL A   1      41.534  28.409  30.657  1.00  0.00     0.049 A 
ATOM     56  C   UNL A   1      40.925  31.660  35.193  1.00  0.00     0.074 A 
ATOM     57  C   UNL A   1      42.547  27.467  30.703  1.00  0.00     0.029 A 
ATOM     58  N   UNL A   1      41.539  29.063  31.880  1.00  0.00    -0.354 N 
ATOM     59  N   UNL A   1      41.194  30.840  34.206  1.00  0.00    -0.248 NA
ATOM     60  C   UNL A   1      41.706  31.411  36.412  1.00  0.00     0.031 C 
ATOM     61  C   UNL A   1      43.133  27.520  31.972  1.00  0.00     0.029 A 
ATOM     62  C   UNL A   1      42.517  28.525  32.699  1.00  0.00     0.049 A 
ATOM     63  H   UNL A   1      40.937  29.801  32.129  1.00  0.00     0.167 HD
ATOM     64  C   UNL A   1      42.184  29.988  34.678  1.00  0.00     0.074 A 
ATOM     65  C   UNL A   1      42.480  30.402  36.034  1.00  0.00     0.031 C 
ATOM     66  C   UNL A   1      42.792  28.954  34.047  1.00  0.00     0.037 A 
BRANCH  53  67
ATOM     67  C   UNL A   1      40.693  27.853  28.343  1.00  0.00     0.057 A 
ATOM     68  C   UNL A   1      41.451  28.232  27.228  1.00  0.00     0.134 A 
ATOM     69  C   UNL A   1      40.019  26.625  28.280  1.00  0.00     0.134 A 
ATOM     70  F   UNL A   1      42.107  29.402  27.219  1.00  0.00    -0.206 F 
ATOM     71  C   UNL A   1      41.521  27.430  26.087  1.00  0.00     0.040 A 
ATOM     72  C   UNL A   1      40.100  25.805  27.154  1.00  0.00     0.040 A 
ATOM     73  F   UNL A   1      39.277  26.202  29.314  1.00  0.00    -0.206 F 
ATOM     74  C   UNL A   1      40.850  26.208  26.051  1.00  0.00     0.006 A 
ENDBRANCH  53  67
BRANCH  54  75
ATOM     75  C   UNL A   1      39.765  33.604  36.470  1.00  0.00     0.057 A 
ATOM     76  C   UNL A   1      40.476  34.794  36.655  1.00  0.00     0.134 A 
ATOM     77  C   UNL A   1      38.890  33.209  37.490  1.00  0.00     0.134 A 
ATOM     78  F   UNL A   1      41.345  35.213  35.724  1.00  0.00    -0.206 F 
ATOM     79  C   UNL A   1      40.332  35.558  37.815  1.00  0.00     0.040 A 
ATOM     80  C   UNL A   1      38.718  33.975  38.644  1.00  0.00     0.040 A 
ATOM     81  F   UNL A   1      38.180  32.078  37.372  1.00  0.00    -0.206 F 
ATOM     82  C   UNL A   1      39.446  35.151  38.811  1.00  0.00     0.006 A 
ENDBRANCH  54  75
BRANCH  66  83
ATOM     83  C   UNL A   1      43.850  28.215  34.811  1.00  0.00     0.057 A 
ATOM     84  C   UNL A   1      45.186  28.632  34.808  1.00  0.00     0.134 A 
ATOM     85  C   UNL A   1      43.517  27.103  35.595  1.00  0.00     0.134 A 
ATOM     86  F   UNL A   1      45.569  29.681  34.065  1.00  0.00    -0.206 F 
ATOM     87  C   UNL A   1      46.159  27.960  35.548  1.00  0.00     0.040 A 
ATOM     88  C   UNL A   1      44.477  26.437  36.357  1.00  0.00     0.040 A 
ATOM     89  F   UNL A   1      42.253  26.658  35.646  1.00  0.00    -0.206 F 
ATOM     90  C   UNL A   1      45.803  26.863  36.332  1.00  0.00     0.006 A 
ENDBRANCH  66  83
ENDBRANCH  40  41
ENDBRANCH  33  35
ENDBRANCH  32  33
ENDBRANCH  31  32
ENDBRANCH   1  31
TORSDOF 16
ENDMDL
MODEL 3
REMARK VINA RESULT:     -11.5      4.701      9.330
REMARK SMILES COc1cc2c(cc1OC)[C@@H](CC(=O)OCCOC(=O)c1ccc(-c3c4nc(c(-c5c(F)cccc5F)c5ccc([nH]5)c(-c5c(F)cccc5F)c5nc(c(-c6c(F)cccc6F)c6ccc3[nH]6)C=C5)C=C4)cc1)N(C(=O)Nc1ccc(Cl)cc1)CC2
REMARK SMILES IDX 16 1 15 2 13 3 14 4 12 5 11 6 3 7 4 8 8 9 5 10 7 11 6 12
REMARK SMILES IDX 87 13 86 14 75 15 2 16 1 17 9 18 10 19 76 20 77 21 78 22
REMARK SMILES IDX 79 24 80 25 85 26 81 27 84 28 82 29 83 30 17 31 18 32 19 33
REMARK SMILES IDX 20 34 21 35 22 36 74 37 23 38 73 39 24 40 25 41 26 42 67 43
REMARK SMILES IDX 27 44 72 45 66 46 68 47 28 48 71 49 65 50 64 51 29 53 55 54
REMARK SMILES IDX 38 55 54 56 39 57 42 58 53 59 69 60 40 61 41 62 52 64 70 65
REMARK SMILES IDX 43 66 30 67 31 68 36 69 32 70 33 71 35 72 37 73 34 74 56 75
REMARK SMILES IDX 57 76 62 77 58 78 59 79 61 80 63 81 60 82 44 83 45 84 50 85
REMARK SMILES IDX 46 86 47 87 49 88 51 89 48 90
REMARK H PARENT 78 23 68 52 42 63
REMARK Flexibility Score: inf
ROOT
ATOM      1  C   UNL A   1      38.327  20.377  25.015  1.00  0.00     0.274 C 
ENDROOT
BRANCH   1   2
ATOM      2  O   UNL A   1      38.113  21.672  25.607  1.00  0.00    -0.462 OA
BRANCH   2   3
ATOM      3  C   UNL A   1      37.074  22.399  25.136  1.00  0.00     0.308 C 
ATOM      4  O   UNL A   1      36.912  23.597  25.358  1.00  0.00    -0.252 OA
BRANCH   3   5
ATOM      5  C   UNL A   1      36.106  21.630  24.260  1.00  0.00     0.152 C 
BRANCH   5   6
ATOM      6  C   UNL A   1      34.630  21.503  24.700  1.00  0.00     0.128 C 
ATOM      7  C   UNL A   1      33.093  17.374  24.828  1.00  0.00     0.161 A 
ATOM      8  C   UNL A   1      32.265  18.481  25.004  1.00  0.00     0.054 A 
ATOM      9  C   UNL A   1      34.473  17.569  24.676  1.00  0.00     0.161 A 
ATOM     10  C   UNL A   1      32.786  19.778  24.997  1.00  0.00    -0.037 A 
ATOM     11  C   UNL A   1      34.983  18.886  24.650  1.00  0.00     0.056 A 
ATOM     12  C   UNL A   1      34.153  20.017  24.777  1.00  0.00    -0.018 A 
ATOM     13  C   UNL A   1      31.882  20.961  25.127  1.00  0.00     0.057 C 
ATOM     14  C   UNL A   1      32.227  21.890  23.978  1.00  0.00     0.127 C 
ATOM     15  N   UNL A   1      33.617  22.365  23.973  1.00  0.00    -0.317 N 
BRANCH   7  16
ATOM     16  O   UNL A   1      32.395  16.198  24.743  1.00  0.00    -0.493 OA
ATOM     17  C   UNL A   1      32.326  15.399  25.914  1.00  0.00     0.278 C 
ENDBRANCH   7  16
BRANCH   9  18
ATOM     18  O   UNL A   1      35.256  16.459  24.497  1.00  0.00    -0.493 OA
ATOM     19  C   UNL A   1      35.972  15.954  25.617  1.00  0.00     0.278 C 
ENDBRANCH   9  18
BRANCH  15  20
ATOM     20  C   UNL A   1      34.022  23.428  23.199  1.00  0.00     0.322 C 
ATOM     21  O   UNL A   1      34.180  23.348  21.977  1.00  0.00    -0.248 OA
ATOM     22  N   UNL A   1      34.401  24.623  23.741  1.00  0.00    -0.308 N 
ATOM     23  H   UNL A   1      35.240  25.007  23.396  1.00  0.00     0.171 HD
BRANCH  22  24
ATOM     24  C   UNL A   1      33.748  25.368  24.723  1.00  0.00     0.042 A 
ATOM     25  C   UNL A   1      34.051  26.727  24.817  1.00  0.00     0.028 A 
ATOM     26  C   UNL A   1      32.833  24.778  25.599  1.00  0.00     0.028 A 
ATOM     27  C   UNL A   1      33.349  27.530  25.711  1.00  0.00     0.022 A 
ATOM     28  C   UNL A   1      32.118  25.589  26.483  1.00  0.00     0.022 A 
ATOM     29  C   UNL A   1      32.366  26.963  26.521  1.00  0.00     0.041 A 
ATOM     30  Cl  UNL A   1      31.435  27.973  27.555  1.00  0.00    -0.084 Cl
ENDBRANCH  22  24
ENDBRANCH  15  20
ENDBRANCH   5   6
ENDBRANCH   3   5
ENDBRANCH   2   3
ENDBRANCH   1   2
BRANCH   1  31
ATOM     31  C   UNL A   1      39.319  19.570  25.851  1.00  0.00     0.275 C 
BRANCH  31  32
ATOM     32  O   UNL A   1      40.577  19.449  25.166  1.00  0.00    -0.458 OA
BRANCH  32  33
ATOM     33  C   UNL A   1      41.654  19.297  25.970  1.00  0.00     0.338 C 
ATOM     34  O   UNL A   1      42.288  18.277  26.196  1.00  0.00    -0.246 OA
BRANCH  33  35
ATOM     35  C   UNL A   1      42.077  20.620  26.438  1.00  0.00     0.060 A 
ATOM     36  C   UNL A   1      42.399  21.587  25.481  1.00  0.00     0.016 A 
ATOM     37  C   UNL A   1      42.187  20.895  27.801  1.00  0.00     0.016 A 
ATOM     38  C   UNL A   1      42.824  22.848  25.883  1.00  0.00     0.010 A 
ATOM     39  C   UNL A   1      42.614  22.160  28.203  1.00  0.00     0.010 A 
ATOM     40  C   UNL A   1      42.935  23.140  27.248  1.00  0.00    -0.014 A 
BRANCH  40  41
ATOM     41  C   UNL A   1      43.409  24.470  27.687  1.00  0.00     0.031 A 
ATOM     42  C   UNL A   1      42.414  25.514  28.093  1.00  0.00     0.074 A 
ATOM     43  C   UNL A   1      44.727  24.738  27.692  1.00  0.00     0.049 A 
ATOM     44  N   UNL A   1      42.606  26.780  28.357  1.00  0.00    -0.248 NA
ATOM     45  C   UNL A   1      41.015  25.075  28.212  1.00  0.00     0.031 C 
ATOM     46  C   UNL A   1      45.783  23.782  27.358  1.00  0.00     0.029 A 
ATOM     47  N   UNL A   1      45.399  25.900  27.969  1.00  0.00    -0.354 N 
ATOM     48  C   UNL A   1      41.351  27.296  28.649  1.00  0.00     0.074 A 
ATOM     49  C   UNL A   1      40.404  26.210  28.521  1.00  0.00     0.031 C 
ATOM     50  C   UNL A   1      46.972  24.402  27.433  1.00  0.00     0.029 A 
ATOM     51  C   UNL A   1      46.754  25.807  27.767  1.00  0.00     0.049 A 
ATOM     52  H   UNL A   1      44.955  26.721  28.281  1.00  0.00     0.167 HD
ATOM     53  C   UNL A   1      41.026  28.565  28.990  1.00  0.00     0.037 A 
ATOM     54  C   UNL A   1      47.704  26.759  27.801  1.00  0.00     0.037 A 
ATOM     55  C   UNL A   1      41.982  29.634  29.125  1.00  0.00     0.049 A 
ATOM     56  C   UNL A   1      47.307  28.176  28.111  1.00  0.00     0.074 A 
ATOM     57  C   UNL A   1      41.760  30.948  29.495  1.00  0.00     0.029 A 
ATOM     58  N   UNL A   1      43.343  29.507  28.888  1.00  0.00    -0.354 N 
ATOM     59  N   UNL A   1      46.121  28.658  28.390  1.00  0.00    -0.248 NA
ATOM     60  C   UNL A   1      48.377  29.183  28.095  1.00  0.00     0.031 C 
ATOM     61  C   UNL A   1      42.981  31.629  29.436  1.00  0.00     0.029 A 
ATOM     62  C   UNL A   1      43.969  30.727  29.075  1.00  0.00     0.049 A 
ATOM     63  H   UNL A   1      43.796  28.674  28.626  1.00  0.00     0.167 HD
ATOM     64  C   UNL A   1      46.301  30.019  28.599  1.00  0.00     0.074 A 
ATOM     65  C   UNL A   1      47.715  30.283  28.430  1.00  0.00     0.031 C 
ATOM     66  C   UNL A   1      45.379  30.966  28.900  1.00  0.00     0.037 A 
BRANCH  53  67
ATOM     67  C   UNL A   1      39.576  28.874  29.212  1.00  0.00     0.057 A 
ATOM     68  C   UNL A   1      38.738  29.294  28.171  1.00  0.00     0.134 A 
ATOM     69  C   UNL A   1      39.002  28.715  30.480  1.00  0.00     0.134 A 
ATOM     70  F   UNL A   1      39.228  29.480  26.937  1.00  0.00    -0.206 F 
ATOM     71  C   UNL A   1      37.385  29.563  28.388  1.00  0.00     0.040 A 
ATOM     72  C   UNL A   1      37.646  28.959  30.705  1.00  0.00     0.040 A 
ATOM     73  F   UNL A   1      39.749  28.314  31.520  1.00  0.00    -0.206 F 
ATOM     74  C   UNL A   1      36.834  29.388  29.657  1.00  0.00     0.006 A 
ENDBRANCH  53  67
BRANCH  54  75
ATOM     75  C   UNL A   1      49.114  26.413  27.492  1.00  0.00     0.057 A 
ATOM     76  C   UNL A   1      49.580  26.383  26.174  1.00  0.00     0.134 A 
ATOM     77  C   UNL A   1      50.027  26.101  28.508  1.00  0.00     0.134 A 
ATOM     78  F   UNL A   1      48.748  26.651  25.157  1.00  0.00    -0.206 F 
ATOM     79  C   UNL A   1      50.902  26.045  25.874  1.00  0.00     0.040 A 
ATOM     80  C   UNL A   1      51.357  25.784  28.225  1.00  0.00     0.040 A 
ATOM     81  F   UNL A   1      49.642  26.112  29.793  1.00  0.00    -0.206 F 
ATOM     82  C   UNL A   1      51.795  25.750  26.903  1.00  0.00     0.006 A 
ENDBRANCH  54  75
BRANCH  66  83
ATOM     83  C   UNL A   1      45.877  32.368  29.086  1.00  0.00     0.057 A 
ATOM     84  C   UNL A   1      45.907  33.283  28.026  1.00  0.00     0.134 A 
ATOM     85  C   UNL A   1      46.285  32.820  30.347  1.00  0.00     0.134 A 
ATOM     86  F   UNL A   1      45.543  32.906  26.792  1.00  0.00    -0.206 F 
ATOM     87  C   UNL A   1      46.339  34.597  28.213  1.00  0.00     0.040 A 
ATOM     88  C   UNL A   1      46.697  34.136  30.550  1.00  0.00     0.040 A 
ATOM     89  F   UNL A   1      46.273  31.993  31.404  1.00  0.00    -0.206 F 
ATOM     90  C   UNL A   1      46.728  35.029  29.480  1.00  0.00     0.006 A 
ENDBRANCH  66  83
ENDBRANCH  40  41
ENDBRANCH  33  35
ENDBRANCH  32  33
ENDBRANCH  31  32
ENDBRANCH   1  31
TORSDOF 16
ENDMDL
