MODEL 1
REMARK VINA RESULT:     -14.5      0.000      0.000
REMARK SMILES Cc1ccc(C[C@@H](Cc2cc(F)cc(Br)c2)C(=O)OCCOC(=O)c2ccc(-c3c4nc(c(-c5c(F)cccc5F)c5ccc([nH]5)c(-c5c(F)cccc5F)c5nc(c(-c6c(F)cccc6F)c6ccc3[nH]6)C=C5)C=C4)cc2)cc1
REMARK SMILES IDX 20 1 19 2 17 3 18 4 7 5 6 6 5 7 1 8 2 9 3 10 80 11 4 12
REMARK SMILES IDX 79 13 8 14 9 15 10 16 16 17 11 18 14 19 12 20 13 21 15 22
REMARK SMILES IDX 21 23 22 24 23 25 24 26 25 27 26 28 78 29 27 30 77 31 28 32
REMARK SMILES IDX 29 33 30 34 71 35 31 36 76 37 70 38 72 39 32 40 75 41 69 42
REMARK SMILES IDX 68 43 33 45 59 46 42 47 58 48 43 49 46 50 57 51 73 52 44 53
REMARK SMILES IDX 45 54 56 56 74 57 47 58 34 59 35 60 40 61 36 62 37 63 39 64
REMARK SMILES IDX 41 65 38 66 60 67 61 68 66 69 62 70 63 71 65 72 67 73 64 74
REMARK SMILES IDX 48 75 49 76 54 77 50 78 51 79 53 80 55 81 52 82
REMARK H PARENT 72 44 46 55
REMARK Flexibility Score: inf
ROOT
ATOM      1  C   UNL A   1      33.631  29.851  26.768  1.00  0.00     0.274 C 
ENDROOT
BRANCH   1   2
ATOM      2  O   UNL A   1      33.467  28.671  27.535  1.00  0.00    -0.462 OA
BRANCH   2   3
ATOM      3  C   UNL A   1      32.363  27.790  27.182  1.00  0.00     0.309 C 
ATOM      4  O   UNL A   1      31.422  28.174  27.946  1.00  0.00    -0.252 OA
BRANCH   3   5
ATOM      5  C   UNL A   1      32.534  26.180  25.719  1.00  0.00     0.108 C 
BRANCH   5   6
ATOM      6  C   UNL A   1      31.830  25.938  24.080  1.00  0.00     0.051 C 
BRANCH   6   7
ATOM      7  C   UNL A   1      30.774  26.909  23.501  1.00  0.00    -0.047 A 
ATOM      8  C   UNL A   1      27.695  29.812  22.431  1.00  0.00     0.044 C 
ATOM      9  C   UNL A   1      28.747  28.804  22.795  1.00  0.00    -0.051 A 
ATOM     10  C   UNL A   1      30.078  29.016  22.437  1.00  0.00     0.004 A 
ATOM     11  C   UNL A   1      28.432  27.640  23.499  1.00  0.00     0.004 A 
ATOM     12  C   UNL A   1      31.077  28.095  22.804  1.00  0.00     0.004 A 
ATOM     13  C   UNL A   1      29.426  26.706  23.836  1.00  0.00     0.004 A 
ENDBRANCH   6   7
ENDBRANCH   5   6
BRANCH   5  14
ATOM     14  C   UNL A   1      34.072  25.404  25.131  1.00  0.00     0.051 C 
BRANCH  14  15
ATOM     15  C   UNL A   1      34.412  23.960  25.446  1.00  0.00    -0.043 A 
ATOM     16  C   UNL A   1      36.201  23.740  25.501  1.00  0.00     0.043 A 
ATOM     17  C   UNL A   1      33.315  22.474  25.083  1.00  0.00     0.019 A 
ATOM     18  C   UNL A   1      36.894  22.139  25.231  1.00  0.00     0.124 A 
ATOM     19  C   UNL A   1      34.047  20.850  24.906  1.00  0.00     0.021 A 
ATOM     20  F   UNL A   1      38.201  22.030  25.493  1.00  0.00    -0.207 F 
ATOM     21  C   UNL A   1      35.833  20.689  25.001  1.00  0.00     0.055 A 
ATOM     22  Br  UNL A   1      32.898  19.412  24.457  1.00  0.00    -0.051 Br
ENDBRANCH  14  15
ENDBRANCH   5  14
ENDBRANCH   3   5
ENDBRANCH   2   3
ENDBRANCH   1   2
BRANCH   1  23
ATOM     23  C   UNL A   1      34.329  30.908  27.631  1.00  0.00     0.275 C 
BRANCH  23  24
ATOM     24  O   UNL A   1      33.789  32.294  27.665  1.00  0.00    -0.458 OA
BRANCH  24  25
ATOM     25  C   UNL A   1      33.650  33.308  28.586  1.00  0.00     0.338 C 
ATOM     26  O   UNL A   1      32.676  34.048  28.574  1.00  0.00    -0.246 OA
BRANCH  25  27
ATOM     27  C   UNL A   1      34.766  33.624  29.552  1.00  0.00     0.060 A 
ATOM     28  C   UNL A   1      36.270  34.252  28.798  1.00  0.00     0.016 A 
ATOM     29  C   UNL A   1      34.839  32.406  30.812  1.00  0.00     0.016 A 
ATOM     30  C   UNL A   1      37.860  33.424  29.120  1.00  0.00     0.010 A 
ATOM     31  C   UNL A   1      36.388  31.657  31.231  1.00  0.00     0.010 A 
ATOM     32  C   UNL A   1      37.923  32.016  30.237  1.00  0.00    -0.014 A 
BRANCH  32  33
ATOM     33  C   UNL A   1      39.410  31.104  30.482  1.00  0.00     0.031 A 
ATOM     34  C   UNL A   1      39.767  29.225  29.496  1.00  0.00     0.074 A 
ATOM     35  C   UNL A   1      40.147  32.129  31.224  1.00  0.00     0.049 A 
ATOM     36  N   UNL A   1      40.436  28.096  29.851  1.00  0.00    -0.248 NA
ATOM     37  C   UNL A   1      39.198  28.614  28.014  1.00  0.00     0.031 C 
ATOM     38  C   UNL A   1      41.628  32.420  31.368  1.00  0.00     0.029 A 
ATOM     39  N   UNL A   1      39.699  32.692  32.454  1.00  0.00    -0.354 N 
ATOM     40  C   UNL A   1      40.837  27.324  28.796  1.00  0.00     0.074 A 
ATOM     41  C   UNL A   1      39.860  27.496  27.786  1.00  0.00     0.031 C 
ATOM     42  C   UNL A   1      41.973  32.594  32.644  1.00  0.00     0.029 A 
ATOM     43  C   UNL A   1      40.764  32.571  33.394  1.00  0.00     0.049 A 
ATOM     44  H   UNL A   1      38.816  33.091  32.624  1.00  0.00     0.167 HD
ATOM     45  C   UNL A   1      42.099  26.803  28.809  1.00  0.00     0.037 A 
ATOM     46  C   UNL A   1      40.678  32.105  34.660  1.00  0.00     0.037 A 
ATOM     47  C   UNL A   1      42.867  27.255  30.012  1.00  0.00     0.049 A 
ATOM     48  C   UNL A   1      41.487  30.814  34.850  1.00  0.00     0.074 A 
ATOM     49  C   UNL A   1      43.935  28.131  30.160  1.00  0.00     0.029 A 
ATOM     50  N   UNL A   1      42.377  27.069  31.318  1.00  0.00    -0.354 N 
ATOM     51  N   UNL A   1      42.000  30.075  33.880  1.00  0.00    -0.248 NA
ATOM     52  C   UNL A   1      41.829  30.286  36.169  1.00  0.00     0.031 C 
ATOM     53  C   UNL A   1      44.086  28.459  31.542  1.00  0.00     0.029 A 
ATOM     54  C   UNL A   1      43.086  27.826  32.263  1.00  0.00     0.049 A 
ATOM     55  H   UNL A   1      41.624  26.476  31.543  1.00  0.00     0.167 HD
ATOM     56  C   UNL A   1      42.501  28.891  34.414  1.00  0.00     0.074 A 
ATOM     57  C   UNL A   1      42.494  29.166  35.844  1.00  0.00     0.031 C 
ATOM     58  C   UNL A   1      42.814  27.736  33.713  1.00  0.00     0.037 A 
BRANCH  45  59
ATOM     59  C   UNL A   1      42.737  26.203  27.551  1.00  0.00     0.057 A 
ATOM     60  C   UNL A   1      43.350  27.032  26.595  1.00  0.00     0.134 A 
ATOM     61  C   UNL A   1      42.785  24.832  27.200  1.00  0.00     0.134 A 
ATOM     62  F   UNL A   1      43.520  28.342  26.807  1.00  0.00    -0.206 F 
ATOM     63  C   UNL A   1      43.861  26.560  25.374  1.00  0.00     0.040 A 
ATOM     64  C   UNL A   1      43.234  24.352  25.959  1.00  0.00     0.040 A 
ATOM     65  F   UNL A   1      42.501  23.856  28.065  1.00  0.00    -0.206 F 
ATOM     66  C   UNL A   1      43.777  25.220  25.037  1.00  0.00     0.006 A 
ENDBRANCH  45  59
BRANCH  46  67
ATOM     67  C   UNL A   1      39.444  32.661  35.293  1.00  0.00     0.057 A 
ATOM     68  C   UNL A   1      38.450  31.686  35.587  1.00  0.00     0.134 A 
ATOM     69  C   UNL A   1      39.502  33.761  36.146  1.00  0.00     0.134 A 
ATOM     70  F   UNL A   1      38.301  30.618  34.785  1.00  0.00    -0.206 F 
ATOM     71  C   UNL A   1      37.791  31.651  36.819  1.00  0.00     0.040 A 
ATOM     72  C   UNL A   1      38.763  33.783  37.342  1.00  0.00     0.040 A 
ATOM     73  F   UNL A   1      40.419  34.720  35.955  1.00  0.00    -0.206 F 
ATOM     74  C   UNL A   1      37.993  32.681  37.726  1.00  0.00     0.006 A 
ENDBRANCH  46  67
BRANCH  58  75
ATOM     75  C   UNL A   1      42.997  26.355  34.369  1.00  0.00     0.057 A 
ATOM     76  C   UNL A   1      41.989  25.631  35.029  1.00  0.00     0.134 A 
ATOM     77  C   UNL A   1      44.222  25.647  34.262  1.00  0.00     0.134 A 
ATOM     78  F   UNL A   1      40.712  26.032  35.042  1.00  0.00    -0.206 F 
ATOM     79  C   UNL A   1      42.221  24.403  35.668  1.00  0.00     0.040 A 
ATOM     80  C   UNL A   1      44.434  24.376  34.808  1.00  0.00     0.040 A 
ATOM     81  F   UNL A   1      45.281  26.138  33.604  1.00  0.00    -0.206 F 
ATOM     82  C   UNL A   1      43.447  23.768  35.559  1.00  0.00     0.006 A 
ENDBRANCH  58  75
ENDBRANCH  32  33
ENDBRANCH  25  27
ENDBRANCH  24  25
ENDBRANCH  23  24
ENDBRANCH   1  23
TORSDOF 15
ENDMDL
MODEL 2
REMARK VINA RESULT:     -14.3      4.194     10.171
REMARK SMILES Cc1ccc(C[C@@H](Cc2cc(F)cc(Br)c2)C(=O)OCCOC(=O)c2ccc(-c3c4nc(c(-c5c(F)cccc5F)c5ccc([nH]5)c(-c5c(F)cccc5F)c5nc(c(-c6c(F)cccc6F)c6ccc3[nH]6)C=C5)C=C4)cc2)cc1
REMARK SMILES IDX 20 1 19 2 17 3 18 4 7 5 6 6 5 7 1 8 2 9 3 10 80 11 4 12
REMARK SMILES IDX 79 13 8 14 9 15 10 16 16 17 11 18 14 19 12 20 13 21 15 22
REMARK SMILES IDX 21 23 22 24 23 25 24 26 25 27 26 28 78 29 27 30 77 31 28 32
REMARK SMILES IDX 29 33 30 34 71 35 31 36 76 37 70 38 72 39 32 40 75 41 69 42
REMARK SMILES IDX 68 43 33 45 59 46 42 47 58 48 43 49 46 50 57 51 73 52 44 53
REMARK SMILES IDX 45 54 56 56 74 57 47 58 34 59 35 60 40 61 36 62 37 63 39 64
REMARK SMILES IDX 41 65 38 66 60 67 61 68 66 69 62 70 63 71 65 72 67 73 64 74
REMARK SMILES IDX 48 75 49 76 54 77 50 78 51 79 53 80 55 81 52 82
REMARK H PARENT 72 44 46 55
REMARK Flexibility Score: inf
ROOT
ATOM      1  C   UNL A   1      37.577  21.709  25.234  1.00  0.00     0.274 C 
ENDROOT
BRANCH   1   2
ATOM      2  O   UNL A   1      36.513  22.568  25.606  1.00  0.00    -0.462 OA
BRANCH   2   3
ATOM      3  C   UNL A   1      35.179  21.990  25.674  1.00  0.00     0.309 C 
ATOM      4  O   UNL A   1      35.087  21.595  26.879  1.00  0.00    -0.252 OA
BRANCH   3   5
ATOM      5  C   UNL A   1      33.844  21.848  23.953  1.00  0.00     0.108 C 
BRANCH   5   6
ATOM      6  C   UNL A   1      32.590  20.649  23.475  1.00  0.00     0.051 C 
BRANCH   6   7
ATOM      7  C   UNL A   1      32.615  19.195  24.006  1.00  0.00    -0.047 A 
ATOM      8  C   UNL A   1      33.266  15.103  25.375  1.00  0.00     0.044 C 
ATOM      9  C   UNL A   1      33.035  16.507  24.895  1.00  0.00    -0.051 A 
ATOM     10  C   UNL A   1      32.713  17.516  25.802  1.00  0.00     0.004 A 
ATOM     11  C   UNL A   1      33.139  16.844  23.544  1.00  0.00     0.004 A 
ATOM     12  C   UNL A   1      32.528  18.841  25.367  1.00  0.00     0.004 A 
ATOM     13  C   UNL A   1      32.922  18.162  23.107  1.00  0.00     0.004 A 
ENDBRANCH   6   7
ENDBRANCH   5   6
BRANCH   5  14
ATOM     14  C   UNL A   1      32.778  23.168  23.291  1.00  0.00     0.051 C 
BRANCH  14  15
ATOM     15  C   UNL A   1      32.270  24.300  24.162  1.00  0.00    -0.043 A 
ATOM     16  C   UNL A   1      30.619  24.797  23.636  1.00  0.00     0.043 A 
ATOM     17  C   UNL A   1      33.349  25.532  25.092  1.00  0.00     0.019 A 
ATOM     18  C   UNL A   1      30.033  26.420  24.012  1.00  0.00     0.124 A 
ATOM     19  C   UNL A   1      32.687  27.135  25.536  1.00  0.00     0.021 A 
ATOM     20  F   UNL A   1      28.736  26.631  23.768  1.00  0.00    -0.207 F 
ATOM     21  C   UNL A   1      31.024  27.563  25.010  1.00  0.00     0.055 A 
ATOM     22  Br  UNL A   1      33.850  28.359  26.395  1.00  0.00    -0.051 Br
ENDBRANCH  14  15
ENDBRANCH   5  14
ENDBRANCH   3   5
ENDBRANCH   2   3
ENDBRANCH   1   2
BRANCH   1  23
ATOM     23  C   UNL A   1      38.843  22.138  25.987  1.00  0.00     0.275 C 
BRANCH  23  24
ATOM     24  O   UNL A   1      39.791  21.098  26.470  1.00  0.00    -0.458 OA
BRANCH  24  25
ATOM     25  C   UNL A   1      41.037  20.622  26.128  1.00  0.00     0.338 C 
ATOM     26  O   UNL A   1      41.176  19.520  25.615  1.00  0.00    -0.246 OA
BRANCH  25  27
ATOM     27  C   UNL A   1      42.280  21.389  26.505  1.00  0.00     0.060 A 
ATOM     28  C   UNL A   1      42.577  21.537  28.270  1.00  0.00     0.016 A 
ATOM     29  C   UNL A   1      42.483  22.772  25.446  1.00  0.00     0.016 A 
ATOM     30  C   UNL A   1      42.801  23.183  29.017  1.00  0.00     0.010 A 
ATOM     31  C   UNL A   1      42.813  24.372  26.130  1.00  0.00     0.010 A 
ATOM     32  C   UNL A   1      42.781  24.648  27.972  1.00  0.00    -0.014 A 
BRANCH  32  33
ATOM     33  C   UNL A   1      42.866  26.266  28.660  1.00  0.00     0.031 A 
ATOM     34  C   UNL A   1      41.111  27.486  28.920  1.00  0.00     0.074 A 
ATOM     35  C   UNL A   1      44.262  26.219  29.098  1.00  0.00     0.049 A 
ATOM     36  N   UNL A   1      40.888  28.825  28.863  1.00  0.00    -0.248 NA
ATOM     37  C   UNL A   1      39.483  27.062  29.170  1.00  0.00     0.031 C 
ATOM     38  C   UNL A   1      45.008  26.923  30.214  1.00  0.00     0.029 A 
ATOM     39  N   UNL A   1      45.360  25.994  28.219  1.00  0.00    -0.354 N 
ATOM     40  C   UNL A   1      39.775  29.240  29.540  1.00  0.00     0.074 A 
ATOM     41  C   UNL A   1      38.840  28.179  29.452  1.00  0.00     0.031 C 
ATOM     42  C   UNL A   1      46.150  27.460  29.781  1.00  0.00     0.029 A 
ATOM     43  C   UNL A   1      46.302  27.043  28.430  1.00  0.00     0.049 A 
ATOM     44  H   UNL A   1      45.452  25.249  27.581  1.00  0.00     0.167 HD
ATOM     45  C   UNL A   1      39.860  30.359  30.317  1.00  0.00     0.037 A 
ATOM     46  C   UNL A   1      46.910  27.788  27.480  1.00  0.00     0.037 A 
ATOM     47  C   UNL A   1      41.250  30.914  30.330  1.00  0.00     0.049 A 
ATOM     48  C   UNL A   1      46.511  29.268  27.574  1.00  0.00     0.074 A 
ATOM     49  C   UNL A   1      42.228  30.953  31.316  1.00  0.00     0.029 A 
ATOM     50  N   UNL A   1      41.932  31.235  29.142  1.00  0.00    -0.354 N 
ATOM     51  N   UNL A   1      45.515  29.755  28.296  1.00  0.00    -0.248 NA
ATOM     52  C   UNL A   1      47.254  30.328  26.896  1.00  0.00     0.031 C 
ATOM     53  C   UNL A   1      43.480  31.302  30.724  1.00  0.00     0.029 A 
ATOM     54  C   UNL A   1      43.304  31.440  29.356  1.00  0.00     0.049 A 
ATOM     55  H   UNL A   1      41.497  31.308  28.261  1.00  0.00     0.167 HD
ATOM     56  C   UNL A   1      45.335  31.100  27.991  1.00  0.00     0.074 A 
ATOM     57  C   UNL A   1      46.540  31.414  27.236  1.00  0.00     0.031 C 
ATOM     58  C   UNL A   1      44.216  31.870  28.277  1.00  0.00     0.037 A 
BRANCH  45  59
ATOM     59  C   UNL A   1      38.778  30.713  31.344  1.00  0.00     0.057 A 
ATOM     60  C   UNL A   1      37.706  31.553  30.993  1.00  0.00     0.134 A 
ATOM     61  C   UNL A   1      38.717  30.280  32.691  1.00  0.00     0.134 A 
ATOM     62  F   UNL A   1      37.517  31.960  29.733  1.00  0.00    -0.206 F 
ATOM     63  C   UNL A   1      36.740  31.999  31.909  1.00  0.00     0.040 A 
ATOM     64  C   UNL A   1      37.797  30.765  33.633  1.00  0.00     0.040 A 
ATOM     65  F   UNL A   1      39.473  29.285  33.163  1.00  0.00    -0.206 F 
ATOM     66  C   UNL A   1      36.798  31.631  33.243  1.00  0.00     0.006 A 
ENDBRANCH  45  59
BRANCH  46  67
ATOM     67  C   UNL A   1      47.324  26.892  26.358  1.00  0.00     0.057 A 
ATOM     68  C   UNL A   1      46.659  27.154  25.128  1.00  0.00     0.134 A 
ATOM     69  C   UNL A   1      48.627  26.406  26.265  1.00  0.00     0.134 A 
ATOM     70  F   UNL A   1      45.384  27.583  25.133  1.00  0.00    -0.206 F 
ATOM     71  C   UNL A   1      47.351  27.235  23.916  1.00  0.00     0.040 A 
ATOM     72  C   UNL A   1      49.299  26.387  25.031  1.00  0.00     0.040 A 
ATOM     73  F   UNL A   1      49.336  26.149  27.373  1.00  0.00    -0.206 F 
ATOM     74  C   UNL A   1      48.696  26.901  23.879  1.00  0.00     0.006 A 
ENDBRANCH  46  67
BRANCH  58  75
ATOM     75  C   UNL A   1      43.906  33.219  27.601  1.00  0.00     0.057 A 
ATOM     76  C   UNL A   1      43.779  33.421  26.216  1.00  0.00     0.134 A 
ATOM     77  C   UNL A   1      43.618  34.376  28.369  1.00  0.00     0.134 A 
ATOM     78  F   UNL A   1      43.796  32.408  25.340  1.00  0.00    -0.206 F 
ATOM     79  C   UNL A   1      43.557  34.683  25.643  1.00  0.00     0.040 A 
ATOM     80  C   UNL A   1      43.296  35.618  27.810  1.00  0.00     0.040 A 
ATOM     81  F   UNL A   1      43.613  34.368  29.709  1.00  0.00    -0.206 F 
ATOM     82  C   UNL A   1      43.312  35.790  26.440  1.00  0.00     0.006 A 
ENDBRANCH  58  75
ENDBRANCH  32  33
ENDBRANCH  25  27
ENDBRANCH  24  25
ENDBRANCH  23  24
ENDBRANCH   1  23
TORSDOF 15
ENDMDL
MODEL 3
REMARK VINA RESULT:     -14.1      1.313      2.262
REMARK SMILES Cc1ccc(C[C@@H](Cc2cc(F)cc(Br)c2)C(=O)OCCOC(=O)c2ccc(-c3c4nc(c(-c5c(F)cccc5F)c5ccc([nH]5)c(-c5c(F)cccc5F)c5nc(c(-c6c(F)cccc6F)c6ccc3[nH]6)C=C5)C=C4)cc2)cc1
REMARK SMILES IDX 20 1 19 2 17 3 18 4 7 5 6 6 5 7 1 8 2 9 3 10 80 11 4 12
REMARK SMILES IDX 79 13 8 14 9 15 10 16 16 17 11 18 14 19 12 20 13 21 15 22
REMARK SMILES IDX 21 23 22 24 23 25 24 26 25 27 26 28 78 29 27 30 77 31 28 32
REMARK SMILES IDX 29 33 30 34 71 35 31 36 76 37 70 38 72 39 32 40 75 41 69 42
REMARK SMILES IDX 68 43 33 45 59 46 42 47 58 48 43 49 46 50 57 51 73 52 44 53
REMARK SMILES IDX 45 54 56 56 74 57 47 58 34 59 35 60 40 61 36 62 37 63 39 64
REMARK SMILES IDX 41 65 38 66 60 67 61 68 66 69 62 70 63 71 65 72 67 73 64 74
REMARK SMILES IDX 48 75 49 76 54 77 50 78 51 79 53 80 55 81 52 82
REMARK H PARENT 72 44 46 55
REMARK Flexibility Score: inf
ROOT
ATOM      1  C   UNL A   1      33.406  29.708  26.347  1.00  0.00     0.274 C 
ENDROOT
BRANCH   1   2
ATOM      2  O   UNL A   1      33.277  28.488  27.054  1.00  0.00    -0.462 OA
BRANCH   2   3
ATOM      3  C   UNL A   1      32.112  27.665  26.764  1.00  0.00     0.309 C 
ATOM      4  O   UNL A   1      31.446  27.700  27.847  1.00  0.00    -0.252 OA
BRANCH   3   5
ATOM      5  C   UNL A   1      31.824  26.618  24.871  1.00  0.00     0.108 C 
BRANCH   5   6
ATOM      6  C   UNL A   1      30.659  26.838  23.517  1.00  0.00     0.051 C 
BRANCH   6   7
ATOM      7  C   UNL A   1      29.860  28.152  23.342  1.00  0.00    -0.047 A 
ATOM      8  C   UNL A   1      27.339  31.715  23.358  1.00  0.00     0.044 C 
ATOM      9  C   UNL A   1      28.201  30.485  23.342  1.00  0.00    -0.051 A 
ATOM     10  C   UNL A   1      29.580  30.590  23.521  1.00  0.00     0.004 A 
ATOM     11  C   UNL A   1      27.656  29.213  23.157  1.00  0.00     0.004 A 
ATOM     12  C   UNL A   1      30.392  29.442  23.542  1.00  0.00     0.004 A 
ATOM     13  C   UNL A   1      28.473  28.069  23.147  1.00  0.00     0.004 A 
ENDBRANCH   6   7
ENDBRANCH   5   6
BRANCH   5  14
ATOM     14  C   UNL A   1      33.109  26.212  23.647  1.00  0.00     0.051 C 
BRANCH  14  15
ATOM     15  C   UNL A   1      33.626  24.798  23.467  1.00  0.00    -0.043 A 
ATOM     16  C   UNL A   1      32.341  23.750  22.758  1.00  0.00     0.043 A 
ATOM     17  C   UNL A   1      35.010  24.004  24.467  1.00  0.00     0.019 A 
ATOM     18  C   UNL A   1      32.407  22.002  22.997  1.00  0.00     0.124 A 
ATOM     19  C   UNL A   1      35.095  22.222  24.611  1.00  0.00     0.021 A 
ATOM     20  F   UNL A   1      31.537  21.292  22.271  1.00  0.00    -0.207 F 
ATOM     21  C   UNL A   1      33.802  21.229  23.857  1.00  0.00     0.055 A 
ATOM     22  Br  UNL A   1      36.461  21.492  25.700  1.00  0.00    -0.051 Br
ENDBRANCH  14  15
ENDBRANCH   5  14
ENDBRANCH   3   5
ENDBRANCH   2   3
ENDBRANCH   1   2
BRANCH   1  23
ATOM     23  C   UNL A   1      32.913  30.851  27.242  1.00  0.00     0.275 C 
BRANCH  23  24
ATOM     24  O   UNL A   1      33.894  31.837  27.773  1.00  0.00    -0.458 OA
BRANCH  24  25
ATOM     25  C   UNL A   1      33.867  33.012  28.489  1.00  0.00     0.338 C 
ATOM     26  O   UNL A   1      33.028  33.875  28.263  1.00  0.00    -0.246 OA
BRANCH  25  27
ATOM     27  C   UNL A   1      34.959  33.329  29.481  1.00  0.00     0.060 A 
ATOM     28  C   UNL A   1      36.454  34.024  28.770  1.00  0.00     0.016 A 
ATOM     29  C   UNL A   1      35.049  32.076  30.704  1.00  0.00     0.016 A 
ATOM     30  C   UNL A   1      38.063  33.232  29.091  1.00  0.00     0.010 A 
ATOM     31  C   UNL A   1      36.613  31.358  31.124  1.00  0.00     0.010 A 
ATOM     32  C   UNL A   1      38.150  31.792  30.165  1.00  0.00    -0.014 A 
BRANCH  32  33
ATOM     33  C   UNL A   1      39.660  30.917  30.405  1.00  0.00     0.031 A 
ATOM     34  C   UNL A   1      40.091  29.085  29.359  1.00  0.00     0.074 A 
ATOM     35  C   UNL A   1      40.352  31.935  31.196  1.00  0.00     0.049 A 
ATOM     36  N   UNL A   1      40.786  27.965  29.686  1.00  0.00    -0.248 NA
ATOM     37  C   UNL A   1      39.566  28.512  27.846  1.00  0.00     0.031 C 
ATOM     38  C   UNL A   1      41.821  32.264  31.377  1.00  0.00     0.029 A 
ATOM     39  N   UNL A   1      39.867  32.439  32.437  1.00  0.00    -0.354 N 
ATOM     40  C   UNL A   1      41.229  27.243  28.612  1.00  0.00     0.074 A 
ATOM     41  C   UNL A   1      40.265  27.423  27.590  1.00  0.00     0.031 C 
ATOM     42  C   UNL A   1      42.140  32.402  32.665  1.00  0.00     0.029 A 
ATOM     43  C   UNL A   1      40.919  32.316  33.391  1.00  0.00     0.049 A 
ATOM     44  H   UNL A   1      38.969  32.807  32.605  1.00  0.00     0.167 HD
ATOM     45  C   UNL A   1      42.506  26.760  28.630  1.00  0.00     0.037 A 
ATOM     46  C   UNL A   1      40.825  31.803  34.638  1.00  0.00     0.037 A 
ATOM     47  C   UNL A   1      43.239  27.190  29.861  1.00  0.00     0.049 A 
ATOM     48  C   UNL A   1      41.668  30.530  34.797  1.00  0.00     0.074 A 
ATOM     49  C   UNL A   1      44.278  28.091  30.061  1.00  0.00     0.029 A 
ATOM     50  N   UNL A   1      42.732  26.943  31.151  1.00  0.00    -0.354 N 
ATOM     51  N   UNL A   1      42.221  29.842  33.811  1.00  0.00    -0.248 NA
ATOM     52  C   UNL A   1      42.004  29.965  36.102  1.00  0.00     0.031 C 
ATOM     53  C   UNL A   1      44.395  28.374  31.455  1.00  0.00     0.029 A 
ATOM     54  C   UNL A   1      43.402  27.686  32.135  1.00  0.00     0.049 A 
ATOM     55  H   UNL A   1      41.994  26.320  31.341  1.00  0.00     0.167 HD
ATOM     56  C   UNL A   1      42.747  28.655  34.311  1.00  0.00     0.074 A 
ATOM     57  C   UNL A   1      42.708  28.877  35.750  1.00  0.00     0.031 C 
ATOM     58  C   UNL A   1      43.107  27.535  33.575  1.00  0.00     0.037 A 
BRANCH  45  59
ATOM     59  C   UNL A   1      43.183  26.225  27.362  1.00  0.00     0.057 A 
ATOM     60  C   UNL A   1      42.962  24.903  26.938  1.00  0.00     0.134 A 
ATOM     61  C   UNL A   1      44.065  26.934  26.512  1.00  0.00     0.134 A 
ATOM     62  F   UNL A   1      42.062  24.114  27.535  1.00  0.00    -0.206 F 
ATOM     63  C   UNL A   1      43.628  24.317  25.848  1.00  0.00     0.040 A 
ATOM     64  C   UNL A   1      44.785  26.348  25.459  1.00  0.00     0.040 A 
ATOM     65  F   UNL A   1      44.213  28.260  26.571  1.00  0.00    -0.206 F 
ATOM     66  C   UNL A   1      44.568  25.029  25.121  1.00  0.00     0.006 A 
ENDBRANCH  45  59
BRANCH  46  67
ATOM     67  C   UNL A   1      39.563  32.299  35.268  1.00  0.00     0.057 A 
ATOM     68  C   UNL A   1      39.563  33.693  35.551  1.00  0.00     0.134 A 
ATOM     69  C   UNL A   1      38.329  31.731  34.957  1.00  0.00     0.134 A 
ATOM     70  F   UNL A   1      40.707  34.306  35.903  1.00  0.00    -0.206 F 
ATOM     71  C   UNL A   1      38.477  34.512  35.229  1.00  0.00     0.040 A 
ATOM     72  C   UNL A   1      37.203  32.540  34.731  1.00  0.00     0.040 A 
ATOM     73  F   UNL A   1      38.238  30.427  34.659  1.00  0.00    -0.206 F 
ATOM     74  C   UNL A   1      37.305  33.934  34.764  1.00  0.00     0.006 A 
ENDBRANCH  46  67
BRANCH  58  75
ATOM     75  C   UNL A   1      43.320  26.137  34.185  1.00  0.00     0.057 A 
ATOM     76  C   UNL A   1      44.547  25.453  34.236  1.00  0.00     0.134 A 
ATOM     77  C   UNL A   1      42.268  25.458  34.852  1.00  0.00     0.134 A 
ATOM     78  F   UNL A   1      45.699  26.021  33.859  1.00  0.00    -0.206 F 
ATOM     79  C   UNL A   1      44.678  24.152  34.747  1.00  0.00     0.040 A 
ATOM     80  C   UNL A   1      42.412  24.203  35.454  1.00  0.00     0.040 A 
ATOM     81  F   UNL A   1      41.040  25.981  34.977  1.00  0.00    -0.206 F 
ATOM     82  C   UNL A   1      43.609  23.520  35.360  1.00  0.00     0.006 A 
ENDBRANCH  58  75
ENDBRANCH  32  33
ENDBRANCH  25  27
ENDBRANCH  24  25
ENDBRANCH  23  24
ENDBRANCH   1  23
TORSDOF 15
ENDMDL
