MODEL 1
REMARK VINA RESULT:     -11.6      0.000      0.000
REMARK SMILES COc1cc(C(=O)N[C@H]2CCCC[C@H]2C(=O)OCCOC(=O)c2ccc(-c3c4nc(c(-c5c(F)cccc5F)c5ccc([nH]5)c(-c5c(F)cccc5F)c5nc(c(-c6c(F)cccc6F)c6ccc3[nH]6)C=C5)C=C4)cc2)cc(Cl)c1OC
REMARK SMILES IDX 18 1 17 2 15 3 16 4 14 5 9 6 10 7 11 8 13 9 12 10 8 11 6 12
REMARK SMILES IDX 7 13 5 15 3 16 4 17 80 18 78 19 77 20 79 21 2 22 1 23 81 24
REMARK SMILES IDX 82 25 19 26 20 27 21 28 22 29 23 30 24 31 76 32 25 33 75 34
REMARK SMILES IDX 26 35 27 36 28 37 69 38 29 39 74 40 68 41 70 42 30 43 73 44
REMARK SMILES IDX 67 45 66 46 31 48 57 49 40 50 56 51 41 52 44 53 55 54 71 55
REMARK SMILES IDX 42 56 43 57 54 59 72 60 45 61 32 62 33 63 38 64 34 65 35 66
REMARK SMILES IDX 37 67 39 68 36 69 58 70 59 71 64 72 60 73 61 74 63 75 65 76
REMARK SMILES IDX 62 77 46 78 47 79 52 80 48 81 49 82 51 83 53 84 50 85
REMARK H PARENT 8 14 70 47 44 58
REMARK Flexibility Score: inf
ROOT
ATOM      1  C   UNL A   1      38.138  20.354  25.003  1.00  0.00     0.274 C 
ENDROOT
BRANCH   1   2
ATOM      2  O   UNL A   1      37.299  21.439  25.457  1.00  0.00    -0.462 OA
BRANCH   2   3
ATOM      3  C   UNL A   1      36.413  21.917  24.554  1.00  0.00     0.311 C 
ATOM      4  O   UNL A   1      36.724  22.536  23.539  1.00  0.00    -0.252 OA
BRANCH   3   5
ATOM      5  C   UNL A   1      34.958  21.671  24.904  1.00  0.00     0.121 C 
ATOM      6  C   UNL A   1      33.897  22.638  24.336  1.00  0.00     0.096 C 
ATOM      7  C   UNL A   1      32.528  22.317  24.977  1.00  0.00     0.026 C 
ATOM      8  C   UNL A   1      32.149  20.837  24.867  1.00  0.00     0.002 C 
ATOM      9  C   UNL A   1      34.588  20.198  24.742  1.00  0.00     0.017 C 
ATOM     10  C   UNL A   1      33.241  19.919  25.409  1.00  0.00     0.001 C 
BRANCH   6  11
ATOM     11  N   UNL A   1      33.743  22.613  22.881  1.00  0.00    -0.348 N 
ATOM     12  C   UNL A   1      33.279  23.558  21.997  1.00  0.00     0.251 C 
ATOM     13  O   UNL A   1      33.274  23.292  20.795  1.00  0.00    -0.269 OA
ATOM     14  H   UNL A   1      34.022  21.767  22.459  1.00  0.00     0.164 HD
BRANCH  12  15
ATOM     15  C   UNL A   1      32.831  24.909  22.418  1.00  0.00     0.045 A 
ATOM     16  C   UNL A   1      31.009  26.287  23.236  1.00  0.00     0.163 A 
ATOM     17  C   UNL A   1      31.516  25.033  22.885  1.00  0.00     0.064 A 
ATOM     18  C   UNL A   1      31.795  27.441  23.103  1.00  0.00     0.179 A 
ATOM     19  C   UNL A   1      33.132  27.301  22.701  1.00  0.00     0.087 A 
ATOM     20  C   UNL A   1      33.654  26.039  22.380  1.00  0.00     0.038 A 
ATOM     21  Cl  UNL A   1      34.211  28.650  22.592  1.00  0.00    -0.080 Cl
BRANCH  16  22
ATOM     22  O   UNL A   1      29.698  26.412  23.626  1.00  0.00    -0.493 OA
ATOM     23  C   UNL A   1      29.521  25.953  24.967  1.00  0.00     0.278 C 
ENDBRANCH  16  22
BRANCH  18  24
ATOM     24  O   UNL A   1      31.235  28.629  23.504  1.00  0.00    -0.491 OA
ATOM     25  C   UNL A   1      30.597  29.352  22.453  1.00  0.00     0.278 C 
ENDBRANCH  18  24
ENDBRANCH  12  15
ENDBRANCH   6  11
ENDBRANCH   3   5
ENDBRANCH   2   3
ENDBRANCH   1   2
BRANCH   1  26
ATOM     26  C   UNL A   1      39.285  20.033  25.973  1.00  0.00     0.275 C 
BRANCH  26  27
ATOM     27  O   UNL A   1      40.203  19.039  25.467  1.00  0.00    -0.458 OA
BRANCH  27  28
ATOM     28  C   UNL A   1      41.461  19.192  25.928  1.00  0.00     0.338 C 
ATOM     29  O   UNL A   1      42.342  18.353  25.923  1.00  0.00    -0.246 OA
BRANCH  28  30
ATOM     30  C   UNL A   1      41.772  20.549  26.371  1.00  0.00     0.060 A 
ATOM     31  C   UNL A   1      42.111  21.475  25.378  1.00  0.00     0.016 A 
ATOM     32  C   UNL A   1      41.927  20.855  27.721  1.00  0.00     0.016 A 
ATOM     33  C   UNL A   1      42.607  22.721  25.729  1.00  0.00     0.010 A 
ATOM     34  C   UNL A   1      42.420  22.114  28.075  1.00  0.00     0.010 A 
ATOM     35  C   UNL A   1      42.762  23.047  27.080  1.00  0.00    -0.014 A 
BRANCH  35  36
ATOM     36  C   UNL A   1      43.222  24.402  27.440  1.00  0.00     0.031 A 
ATOM     37  C   UNL A   1      42.251  25.451  27.884  1.00  0.00     0.074 A 
ATOM     38  C   UNL A   1      44.539  24.662  27.374  1.00  0.00     0.049 A 
ATOM     39  N   UNL A   1      42.477  26.706  28.173  1.00  0.00    -0.248 NA
ATOM     40  C   UNL A   1      40.846  25.038  28.023  1.00  0.00     0.031 C 
ATOM     41  C   UNL A   1      45.567  23.693  26.990  1.00  0.00     0.029 A 
ATOM     42  N   UNL A   1      45.236  25.814  27.621  1.00  0.00    -0.354 N 
ATOM     43  C   UNL A   1      41.243  27.243  28.513  1.00  0.00     0.074 A 
ATOM     44  C   UNL A   1      40.269  26.177  28.388  1.00  0.00     0.031 C 
ATOM     45  C   UNL A   1      46.765  24.295  27.017  1.00  0.00     0.029 A 
ATOM     46  C   UNL A   1      46.580  25.696  27.377  1.00  0.00     0.049 A 
ATOM     47  H   UNL A   1      44.813  26.644  27.941  1.00  0.00     0.167 HD
ATOM     48  C   UNL A   1      40.958  28.511  28.893  1.00  0.00     0.037 A 
ATOM     49  C   UNL A   1      47.551  26.625  27.408  1.00  0.00     0.037 A 
ATOM     50  C   UNL A   1      41.940  29.558  29.021  1.00  0.00     0.049 A 
ATOM     51  C   UNL A   1      47.200  28.032  27.786  1.00  0.00     0.074 A 
ATOM     52  C   UNL A   1      41.756  30.869  29.425  1.00  0.00     0.029 A 
ATOM     53  N   UNL A   1      43.291  29.412  28.741  1.00  0.00    -0.354 N 
ATOM     54  N   UNL A   1      46.032  28.531  28.110  1.00  0.00    -0.248 NA
ATOM     55  C   UNL A   1      48.297  29.008  27.798  1.00  0.00     0.031 C 
ATOM     56  C   UNL A   1      42.991  31.526  29.354  1.00  0.00     0.029 A 
ATOM     57  C   UNL A   1      43.949  30.615  28.940  1.00  0.00     0.049 A 
ATOM     58  H   UNL A   1      43.719  28.577  28.445  1.00  0.00     0.167 HD
ATOM     59  C   UNL A   1      46.250  29.874  28.374  1.00  0.00     0.074 A 
ATOM     60  C   UNL A   1      47.670  30.109  28.187  1.00  0.00     0.031 C 
ATOM     61  C   UNL A   1      45.360  30.828  28.736  1.00  0.00     0.037 A 
BRANCH  48  62
ATOM     62  C   UNL A   1      39.523  28.845  29.166  1.00  0.00     0.057 A 
ATOM     63  C   UNL A   1      38.966  28.726  30.445  1.00  0.00     0.134 A 
ATOM     64  C   UNL A   1      38.699  29.329  28.143  1.00  0.00     0.134 A 
ATOM     65  F   UNL A   1      39.700  28.258  31.465  1.00  0.00    -0.206 F 
ATOM     66  C   UNL A   1      37.634  29.065  30.693  1.00  0.00     0.040 A 
ATOM     67  C   UNL A   1      37.372  29.687  28.382  1.00  0.00     0.040 A 
ATOM     68  F   UNL A   1      39.173  29.467  26.895  1.00  0.00    -0.206 F 
ATOM     69  C   UNL A   1      36.835  29.553  29.660  1.00  0.00     0.006 A 
ENDBRANCH  48  62
BRANCH  49  70
ATOM     70  C   UNL A   1      48.935  26.244  27.043  1.00  0.00     0.057 A 
ATOM     71  C   UNL A   1      49.368  26.276  25.715  1.00  0.00     0.134 A 
ATOM     72  C   UNL A   1      49.866  25.879  28.024  1.00  0.00     0.134 A 
ATOM     73  F   UNL A   1      48.516  26.605  24.734  1.00  0.00    -0.206 F 
ATOM     74  C   UNL A   1      50.682  25.955  25.372  1.00  0.00     0.040 A 
ATOM     75  C   UNL A   1      51.188  25.577  27.697  1.00  0.00     0.040 A 
ATOM     76  F   UNL A   1      49.508  25.840  29.316  1.00  0.00    -0.206 F 
ATOM     77  C   UNL A   1      51.598  25.611  26.366  1.00  0.00     0.006 A 
ENDBRANCH  49  70
BRANCH  61  78
ATOM     78  C   UNL A   1      45.902  32.205  28.959  1.00  0.00     0.057 A 
ATOM     79  C   UNL A   1      46.399  32.603  30.206  1.00  0.00     0.134 A 
ATOM     80  C   UNL A   1      45.946  33.136  27.914  1.00  0.00     0.134 A 
ATOM     81  F   UNL A   1      46.368  31.760  31.250  1.00  0.00    -0.206 F 
ATOM     82  C   UNL A   1      46.904  33.887  30.412  1.00  0.00     0.040 A 
ATOM     83  C   UNL A   1      46.465  34.417  28.102  1.00  0.00     0.040 A 
ATOM     84  F   UNL A   1      45.488  32.812  26.695  1.00  0.00    -0.206 F 
ATOM     85  C   UNL A   1      46.941  34.796  29.356  1.00  0.00     0.006 A 
ENDBRANCH  61  78
ENDBRANCH  35  36
ENDBRANCH  28  30
ENDBRANCH  27  28
ENDBRANCH  26  27
ENDBRANCH   1  26
TORSDOF 15
ENDMDL
MODEL 2
REMARK VINA RESULT:     -11.5      1.349      2.208
REMARK SMILES COc1cc(C(=O)N[C@H]2CCCC[C@H]2C(=O)OCCOC(=O)c2ccc(-c3c4nc(c(-c5c(F)cccc5F)c5ccc([nH]5)c(-c5c(F)cccc5F)c5nc(c(-c6c(F)cccc6F)c6ccc3[nH]6)C=C5)C=C4)cc2)cc(Cl)c1OC
REMARK SMILES IDX 18 1 17 2 15 3 16 4 14 5 9 6 10 7 11 8 13 9 12 10 8 11 6 12
REMARK SMILES IDX 7 13 5 15 3 16 4 17 80 18 78 19 77 20 79 21 2 22 1 23 81 24
REMARK SMILES IDX 82 25 19 26 20 27 21 28 22 29 23 30 24 31 76 32 25 33 75 34
REMARK SMILES IDX 26 35 27 36 28 37 69 38 29 39 74 40 68 41 70 42 30 43 73 44
REMARK SMILES IDX 67 45 66 46 31 48 57 49 40 50 56 51 41 52 44 53 55 54 71 55
REMARK SMILES IDX 42 56 43 57 54 59 72 60 45 61 32 62 33 63 38 64 34 65 35 66
REMARK SMILES IDX 37 67 39 68 36 69 58 70 59 71 64 72 60 73 61 74 63 75 65 76
REMARK SMILES IDX 62 77 46 78 47 79 52 80 48 81 49 82 51 83 53 84 50 85
REMARK H PARENT 8 14 70 47 44 58
REMARK Flexibility Score: inf
ROOT
ATOM      1  C   UNL A   1      38.505  20.876  25.396  1.00  0.00     0.274 C 
ENDROOT
BRANCH   1   2
ATOM      2  O   UNL A   1      37.194  20.743  24.805  1.00  0.00    -0.462 OA
BRANCH   2   3
ATOM      3  C   UNL A   1      36.401  21.838  24.875  1.00  0.00     0.311 C 
ATOM      4  O   UNL A   1      36.808  22.994  24.792  1.00  0.00    -0.252 OA
BRANCH   3   5
ATOM      5  C   UNL A   1      34.933  21.540  25.114  1.00  0.00     0.121 C 
ATOM      6  C   UNL A   1      33.890  22.551  24.591  1.00  0.00     0.096 C 
ATOM      7  C   UNL A   1      32.493  22.150  25.115  1.00  0.00     0.026 C 
ATOM      8  C   UNL A   1      32.145  20.685  24.829  1.00  0.00     0.002 C 
ATOM      9  C   UNL A   1      34.597  20.089  24.778  1.00  0.00     0.017 C 
ATOM     10  C   UNL A   1      33.220  19.727  25.333  1.00  0.00     0.001 C 
BRANCH   6  11
ATOM     11  N   UNL A   1      33.818  22.678  23.135  1.00  0.00    -0.348 N 
ATOM     12  C   UNL A   1      33.276  23.654  22.331  1.00  0.00     0.251 C 
ATOM     13  O   UNL A   1      33.371  23.533  21.110  1.00  0.00    -0.269 OA
ATOM     14  H   UNL A   1      34.232  21.932  22.643  1.00  0.00     0.164 HD
BRANCH  12  15
ATOM     15  C   UNL A   1      32.627  24.876  22.867  1.00  0.00     0.045 A 
ATOM     16  C   UNL A   1      32.918  27.127  23.724  1.00  0.00     0.163 A 
ATOM     17  C   UNL A   1      33.455  25.968  23.156  1.00  0.00     0.064 A 
ATOM     18  C   UNL A   1      31.553  27.206  24.037  1.00  0.00     0.179 A 
ATOM     19  C   UNL A   1      30.718  26.136  23.682  1.00  0.00     0.087 A 
ATOM     20  C   UNL A   1      31.249  24.984  23.080  1.00  0.00     0.038 A 
ATOM     21  Cl  UNL A   1      29.009  26.171  23.942  1.00  0.00    -0.080 Cl
BRANCH  16  22
ATOM     22  O   UNL A   1      33.746  28.168  24.070  1.00  0.00    -0.493 OA
ATOM     23  C   UNL A   1      34.147  28.903  22.914  1.00  0.00     0.278 C 
ENDBRANCH  16  22
BRANCH  18  24
ATOM     24  O   UNL A   1      31.099  28.392  24.560  1.00  0.00    -0.491 OA
ATOM     25  C   UNL A   1      30.496  29.256  23.598  1.00  0.00     0.278 C 
ENDBRANCH  18  24
ENDBRANCH  12  15
ENDBRANCH   6  11
ENDBRANCH   3   5
ENDBRANCH   2   3
ENDBRANCH   1   2
BRANCH   1  26
ATOM     26  C   UNL A   1      39.328  19.580  25.331  1.00  0.00     0.275 C 
BRANCH  26  27
ATOM     27  O   UNL A   1      40.206  19.401  26.464  1.00  0.00    -0.458 OA
BRANCH  27  28
ATOM     28  C   UNL A   1      41.505  19.619  26.174  1.00  0.00     0.338 C 
ATOM     29  O   UNL A   1      42.237  18.888  25.535  1.00  0.00    -0.246 OA
BRANCH  28  30
ATOM     30  C   UNL A   1      41.999  20.925  26.606  1.00  0.00     0.060 A 
ATOM     31  C   UNL A   1      41.937  21.200  27.976  1.00  0.00     0.016 A 
ATOM     32  C   UNL A   1      42.319  21.920  25.686  1.00  0.00     0.016 A 
ATOM     33  C   UNL A   1      42.200  22.479  28.441  1.00  0.00     0.010 A 
ATOM     34  C   UNL A   1      42.592  23.208  26.155  1.00  0.00     0.010 A 
ATOM     35  C   UNL A   1      42.530  23.490  27.531  1.00  0.00    -0.014 A 
BRANCH  35  36
ATOM     36  C   UNL A   1      42.879  24.828  28.047  1.00  0.00     0.031 A 
ATOM     37  C   UNL A   1      41.816  25.840  28.337  1.00  0.00     0.074 A 
ATOM     38  C   UNL A   1      44.176  25.105  28.265  1.00  0.00     0.049 A 
ATOM     39  N   UNL A   1      41.952  27.080  28.732  1.00  0.00    -0.248 NA
ATOM     40  C   UNL A   1      40.422  25.407  28.165  1.00  0.00     0.031 C 
ATOM     41  C   UNL A   1      45.281  24.169  28.049  1.00  0.00     0.029 A 
ATOM     42  N   UNL A   1      44.784  26.248  28.708  1.00  0.00    -0.354 N 
ATOM     43  C   UNL A   1      40.664  27.585  28.840  1.00  0.00     0.074 A 
ATOM     44  C   UNL A   1      39.758  26.517  28.464  1.00  0.00     0.031 C 
ATOM     45  C   UNL A   1      46.435  24.781  28.351  1.00  0.00     0.029 A 
ATOM     46  C   UNL A   1      46.152  26.158  28.738  1.00  0.00     0.049 A 
ATOM     47  H   UNL A   1      44.288  27.055  28.978  1.00  0.00     0.167 HD
ATOM     48  C   UNL A   1      40.281  28.827  29.220  1.00  0.00     0.037 A 
ATOM     49  C   UNL A   1      47.076  27.094  29.015  1.00  0.00     0.037 A 
ATOM     50  C   UNL A   1      41.193  29.875  29.600  1.00  0.00     0.049 A 
ATOM     51  C   UNL A   1      46.626  28.474  29.386  1.00  0.00     0.074 A 
ATOM     52  C   UNL A   1      40.904  31.160  30.025  1.00  0.00     0.029 A 
ATOM     53  N   UNL A   1      42.576  29.759  29.594  1.00  0.00    -0.354 N 
ATOM     54  N   UNL A   1      45.406  28.941  29.491  1.00  0.00    -0.248 NA
ATOM     55  C   UNL A   1      47.677  29.459  29.672  1.00  0.00     0.031 C 
ATOM     56  C   UNL A   1      42.113  31.832  30.242  1.00  0.00     0.029 A 
ATOM     57  C   UNL A   1      43.155  30.955  29.985  1.00  0.00     0.049 A 
ATOM     58  H   UNL A   1      43.073  28.945  29.348  1.00  0.00     0.167 HD
ATOM     59  C   UNL A   1      45.538  30.271  29.863  1.00  0.00     0.074 A 
ATOM     60  C   UNL A   1      46.960  30.530  29.981  1.00  0.00     0.031 C 
ATOM     61  C   UNL A   1      44.572  31.194  30.085  1.00  0.00     0.037 A 
BRANCH  48  62
ATOM     62  C   UNL A   1      38.813  29.130  29.212  1.00  0.00     0.057 A 
ATOM     63  C   UNL A   1      38.029  29.026  30.366  1.00  0.00     0.134 A 
ATOM     64  C   UNL A   1      38.186  29.571  28.040  1.00  0.00     0.134 A 
ATOM     65  F   UNL A   1      38.569  28.599  31.518  1.00  0.00    -0.206 F 
ATOM     66  C   UNL A   1      36.668  29.337  30.352  1.00  0.00     0.040 A 
ATOM     67  C   UNL A   1      36.830  29.901  28.017  1.00  0.00     0.040 A 
ATOM     68  F   UNL A   1      38.882  29.694  26.900  1.00  0.00    -0.206 F 
ATOM     69  C   UNL A   1      36.066  29.781  29.176  1.00  0.00     0.006 A 
ENDBRANCH  48  62
BRANCH  49  70
ATOM     70  C   UNL A   1      48.513  26.747  28.920  1.00  0.00     0.057 A 
ATOM     71  C   UNL A   1      49.211  26.244  30.021  1.00  0.00     0.134 A 
ATOM     72  C   UNL A   1      49.208  26.874  27.711  1.00  0.00     0.134 A 
ATOM     73  F   UNL A   1      48.599  26.114  31.207  1.00  0.00    -0.206 F 
ATOM     74  C   UNL A   1      50.555  25.880  29.925  1.00  0.00     0.040 A 
ATOM     75  C   UNL A   1      50.545  26.494  27.595  1.00  0.00     0.040 A 
ATOM     76  F   UNL A   1      48.587  27.343  26.619  1.00  0.00    -0.206 F 
ATOM     77  C   UNL A   1      51.223  25.998  28.706  1.00  0.00     0.006 A 
ENDBRANCH  49  70
BRANCH  61  78
ATOM     78  C   UNL A   1      45.029  32.562  30.485  1.00  0.00     0.057 A 
ATOM     79  C   UNL A   1      45.242  33.570  29.537  1.00  0.00     0.134 A 
ATOM     80  C   UNL A   1      45.240  32.880  31.832  1.00  0.00     0.134 A 
ATOM     81  F   UNL A   1      45.071  33.319  28.230  1.00  0.00    -0.206 F 
ATOM     82  C   UNL A   1      45.668  34.844  29.913  1.00  0.00     0.040 A 
ATOM     83  C   UNL A   1      45.649  34.155  32.223  1.00  0.00     0.040 A 
ATOM     84  F   UNL A   1      45.049  31.958  32.788  1.00  0.00    -0.206 F 
ATOM     85  C   UNL A   1      45.869  35.139  31.261  1.00  0.00     0.006 A 
ENDBRANCH  61  78
ENDBRANCH  35  36
ENDBRANCH  28  30
ENDBRANCH  27  28
ENDBRANCH  26  27
ENDBRANCH   1  26
TORSDOF 15
ENDMDL
MODEL 3
REMARK VINA RESULT:     -11.5      4.796     10.156
REMARK SMILES COc1cc(C(=O)N[C@H]2CCCC[C@H]2C(=O)OCCOC(=O)c2ccc(-c3c4nc(c(-c5c(F)cccc5F)c5ccc([nH]5)c(-c5c(F)cccc5F)c5nc(c(-c6c(F)cccc6F)c6ccc3[nH]6)C=C5)C=C4)cc2)cc(Cl)c1OC
REMARK SMILES IDX 18 1 17 2 15 3 16 4 14 5 9 6 10 7 11 8 13 9 12 10 8 11 6 12
REMARK SMILES IDX 7 13 5 15 3 16 4 17 80 18 78 19 77 20 79 21 2 22 1 23 81 24
REMARK SMILES IDX 82 25 19 26 20 27 21 28 22 29 23 30 24 31 76 32 25 33 75 34
REMARK SMILES IDX 26 35 27 36 28 37 69 38 29 39 74 40 68 41 70 42 30 43 73 44
REMARK SMILES IDX 67 45 66 46 31 48 57 49 40 50 56 51 41 52 44 53 55 54 71 55
REMARK SMILES IDX 42 56 43 57 54 59 72 60 45 61 32 62 33 63 38 64 34 65 35 66
REMARK SMILES IDX 37 67 39 68 36 69 58 70 59 71 64 72 60 73 61 74 63 75 65 76
REMARK SMILES IDX 62 77 46 78 47 79 52 80 48 81 49 82 51 83 53 84 50 85
REMARK H PARENT 8 14 70 47 44 58
REMARK Flexibility Score: inf
ROOT
ATOM      1  C   UNL A   1      31.508  31.680  26.913  1.00  0.00     0.274 C 
ENDROOT
BRANCH   1   2
ATOM      2  O   UNL A   1      31.533  31.029  25.624  1.00  0.00    -0.462 OA
BRANCH   2   3
ATOM      3  C   UNL A   1      32.278  29.903  25.546  1.00  0.00     0.311 C 
ATOM      4  O   UNL A   1      33.175  29.611  26.332  1.00  0.00    -0.252 OA
BRANCH   3   5
ATOM      5  C   UNL A   1      31.954  29.012  24.362  1.00  0.00     0.121 C 
ATOM      6  C   UNL A   1      32.304  27.512  24.460  1.00  0.00     0.096 C 
ATOM      7  C   UNL A   1      32.074  26.849  23.084  1.00  0.00     0.026 C 
ATOM      8  C   UNL A   1      30.680  27.130  22.511  1.00  0.00     0.002 C 
ATOM      9  C   UNL A   1      30.545  29.275  23.835  1.00  0.00     0.017 C 
ATOM     10  C   UNL A   1      30.366  28.623  22.466  1.00  0.00     0.001 C 
BRANCH   6  11
ATOM     11  N   UNL A   1      31.555  26.760  25.467  1.00  0.00    -0.348 N 
ATOM     12  C   UNL A   1      31.703  25.479  25.946  1.00  0.00     0.251 C 
ATOM     13  O   UNL A   1      30.941  25.086  26.829  1.00  0.00    -0.269 OA
ATOM     14  H   UNL A   1      30.812  27.261  25.876  1.00  0.00     0.164 HD
BRANCH  12  15
ATOM     15  C   UNL A   1      32.774  24.561  25.484  1.00  0.00     0.045 A 
ATOM     16  C   UNL A   1      33.341  22.556  24.241  1.00  0.00     0.163 A 
ATOM     17  C   UNL A   1      32.394  23.495  24.659  1.00  0.00     0.064 A 
ATOM     18  C   UNL A   1      34.676  22.650  24.660  1.00  0.00     0.179 A 
ATOM     19  C   UNL A   1      35.064  23.758  25.429  1.00  0.00     0.087 A 
ATOM     20  C   UNL A   1      34.122  24.721  25.822  1.00  0.00     0.038 A 
ATOM     21  Cl  UNL A   1      36.703  24.015  25.921  1.00  0.00    -0.080 Cl
BRANCH  16  22
ATOM     22  O   UNL A   1      32.950  21.474  23.491  1.00  0.00    -0.493 OA
ATOM     23  C   UNL A   1      32.377  20.462  24.320  1.00  0.00     0.278 C 
ENDBRANCH  16  22
BRANCH  18  24
ATOM     24  O   UNL A   1      35.551  21.708  24.177  1.00  0.00    -0.491 OA
ATOM     25  C   UNL A   1      36.007  20.781  25.160  1.00  0.00     0.278 C 
ENDBRANCH  18  24
ENDBRANCH  12  15
ENDBRANCH   6  11
ENDBRANCH   3   5
ENDBRANCH   2   3
ENDBRANCH   1   2
BRANCH   1  26
ATOM     26  C   UNL A   1      32.240  33.031  26.921  1.00  0.00     0.275 C 
BRANCH  26  27
ATOM     27  O   UNL A   1      32.156  33.722  28.186  1.00  0.00    -0.458 OA
BRANCH  27  28
ATOM     28  C   UNL A   1      33.211  34.527  28.426  1.00  0.00     0.338 C 
ATOM     29  O   UNL A   1      33.222  35.742  28.381  1.00  0.00    -0.246 OA
BRANCH  28  30
ATOM     30  C   UNL A   1      34.407  33.819  28.881  1.00  0.00     0.060 A 
ATOM     31  C   UNL A   1      34.216  32.801  29.822  1.00  0.00     0.016 A 
ATOM     32  C   UNL A   1      35.684  34.269  28.557  1.00  0.00     0.016 A 
ATOM     33  C   UNL A   1      35.308  32.219  30.447  1.00  0.00     0.010 A 
ATOM     34  C   UNL A   1      36.785  33.677  29.182  1.00  0.00     0.010 A 
ATOM     35  C   UNL A   1      36.599  32.654  30.128  1.00  0.00    -0.014 A 
BRANCH  35  36
ATOM     36  C   UNL A   1      37.754  31.976  30.747  1.00  0.00     0.031 A 
ATOM     37  C   UNL A   1      38.510  30.917  30.009  1.00  0.00     0.074 A 
ATOM     38  C   UNL A   1      38.119  32.350  31.986  1.00  0.00     0.049 A 
ATOM     39  N   UNL A   1      39.504  30.178  30.427  1.00  0.00    -0.248 NA
ATOM     40  C   UNL A   1      38.098  30.652  28.622  1.00  0.00     0.031 C 
ATOM     41  C   UNL A   1      37.468  33.401  32.770  1.00  0.00     0.029 A 
ATOM     42  N   UNL A   1      39.116  31.888  32.801  1.00  0.00    -0.354 N 
ATOM     43  C   UNL A   1      39.831  29.347  29.365  1.00  0.00     0.074 A 
ATOM     44  C   UNL A   1      38.924  29.670  28.282  1.00  0.00     0.031 C 
ATOM     45  C   UNL A   1      38.078  33.497  33.961  1.00  0.00     0.029 A 
ATOM     46  C   UNL A   1      39.129  32.488  34.034  1.00  0.00     0.049 A 
ATOM     47  H   UNL A   1      39.760  31.194  32.530  1.00  0.00     0.167 HD
ATOM     48  C   UNL A   1      40.801  28.404  29.307  1.00  0.00     0.037 A 
ATOM     49  C   UNL A   1      39.883  32.229  35.117  1.00  0.00     0.037 A 
ATOM     50  C   UNL A   1      41.703  28.101  30.389  1.00  0.00     0.049 A 
ATOM     51  C   UNL A   1      40.917  31.147  35.041  1.00  0.00     0.074 A 
ATOM     52  C   UNL A   1      42.736  27.182  30.421  1.00  0.00     0.029 A 
ATOM     53  N   UNL A   1      41.671  28.710  31.636  1.00  0.00    -0.354 N 
ATOM     54  N   UNL A   1      41.223  30.370  34.030  1.00  0.00    -0.248 NA
ATOM     55  C   UNL A   1      41.709  30.902  36.252  1.00  0.00     0.031 C 
ATOM     56  C   UNL A   1      43.308  27.210  31.700  1.00  0.00     0.029 A 
ATOM     57  C   UNL A   1      42.652  28.171  32.452  1.00  0.00     0.049 A 
ATOM     58  H   UNL A   1      41.045  29.422  31.902  1.00  0.00     0.167 HD
ATOM     59  C   UNL A   1      42.246  29.548  34.478  1.00  0.00     0.074 A 
ATOM     60  C   UNL A   1      42.521  29.935  35.849  1.00  0.00     0.031 C 
ATOM     61  C   UNL A   1      42.899  28.562  33.817  1.00  0.00     0.037 A 
BRANCH  48  62
ATOM     62  C   UNL A   1      40.918  27.609  28.042  1.00  0.00     0.057 A 
ATOM     63  C   UNL A   1      41.686  28.050  26.958  1.00  0.00     0.134 A 
ATOM     64  C   UNL A   1      40.284  26.366  27.924  1.00  0.00     0.134 A 
ATOM     65  F   UNL A   1      42.309  29.237  27.005  1.00  0.00    -0.206 F 
ATOM     66  C   UNL A   1      41.807  27.288  25.794  1.00  0.00     0.040 A 
ATOM     67  C   UNL A   1      40.412  25.587  26.773  1.00  0.00     0.040 A 
ATOM     68  F   UNL A   1      39.535  25.886  28.928  1.00  0.00    -0.206 F 
ATOM     69  C   UNL A   1      41.174  26.050  25.702  1.00  0.00     0.006 A 
ENDBRANCH  48  62
BRANCH  49  70
ATOM     70  C   UNL A   1      39.656  32.997  36.362  1.00  0.00     0.057 A 
ATOM     71  C   UNL A   1      38.713  32.583  37.307  1.00  0.00     0.134 A 
ATOM     72  C   UNL A   1      40.410  34.141  36.653  1.00  0.00     0.134 A 
ATOM     73  F   UNL A   1      37.953  31.503  37.075  1.00  0.00    -0.206 F 
ATOM     74  C   UNL A   1      38.524  33.283  38.499  1.00  0.00     0.040 A 
ATOM     75  C   UNL A   1      40.247  34.837  37.850  1.00  0.00     0.040 A 
ATOM     76  F   UNL A   1      41.336  34.580  35.787  1.00  0.00    -0.206 F 
ATOM     77  C   UNL A   1      39.298  34.409  38.777  1.00  0.00     0.006 A 
ENDBRANCH  49  70
BRANCH  61  78
ATOM     78  C   UNL A   1      43.975  27.846  34.571  1.00  0.00     0.057 A 
ATOM     79  C   UNL A   1      45.286  28.335  34.618  1.00  0.00     0.134 A 
ATOM     80  C   UNL A   1      43.695  26.666  35.271  1.00  0.00     0.134 A 
ATOM     81  F   UNL A   1      45.619  29.452  33.953  1.00  0.00    -0.206 F 
ATOM     82  C   UNL A   1      46.288  27.665  35.321  1.00  0.00     0.040 A 
ATOM     83  C   UNL A   1      44.683  25.997  35.992  1.00  0.00     0.040 A 
ATOM     84  F   UNL A   1      42.457  26.150  35.266  1.00  0.00    -0.206 F 
ATOM     85  C   UNL A   1      45.985  26.494  36.014  1.00  0.00     0.006 A 
ENDBRANCH  61  78
ENDBRANCH  35  36
ENDBRANCH  28  30
ENDBRANCH  27  28
ENDBRANCH  26  27
ENDBRANCH   1  26
TORSDOF 15
ENDMDL
