MODEL 1
REMARK VINA RESULT:     -12.6      0.000      0.000
REMARK SMILES COc1ccc2c(c1)c(Cc1nc(-c3ccc(C(=O)OCCOC(=O)c4ccc(-c5c6nc(c(-c7c(F)cccc7F)c7ccc([nH]7)c(-c7c(F)cccc7F)c7nc(c(-c8c(F)cccc8F)c8ccc5[nH]8)C=C7)C=C6)cc4)cc3)cs1)c(C)n2C(=O)c1ccc(Cl)cc1
REMARK SMILES IDX 20 1 18 2 19 3 17 4 14 5 15 6 81 7 16 8 80 9 13 10 11 11
REMARK SMILES IDX 12 12 83 13 82 14 10 15 9 16 3 17 4 18 8 19 5 20 7 21 6 22
REMARK SMILES IDX 86 23 84 24 85 25 2 26 1 27 87 28 88 29 89 30 90 31 95 32
REMARK SMILES IDX 91 33 94 34 92 35 93 36 21 37 22 38 23 39 24 40 25 41 26 42
REMARK SMILES IDX 27 43 79 44 28 45 78 46 29 47 30 48 31 49 72 50 32 51 77 52
REMARK SMILES IDX 71 53 73 54 33 55 76 56 70 57 69 58 34 60 60 61 43 62 59 63
REMARK SMILES IDX 44 64 47 65 58 66 74 67 45 68 46 69 57 71 75 72 48 73 35 74
REMARK SMILES IDX 36 75 41 76 37 77 38 78 40 79 42 80 39 81 61 82 62 83 67 84
REMARK SMILES IDX 63 85 64 86 66 87 68 88 65 89 49 90 50 91 55 92 51 93 52 94
REMARK SMILES IDX 54 95 56 96 53 97
REMARK H PARENT 73 59 47 70
REMARK Flexibility Score: inf
ROOT
ATOM      1  O   UNL A   1      35.062  33.559  28.377  1.00  0.00    -0.458 OA
ENDROOT
BRANCH   1   2
ATOM      2  C   UNL A   1      35.904  32.556  28.022  1.00  0.00     0.338 C 
ATOM      3  O   UNL A   1      37.123  32.603  28.009  1.00  0.00    -0.246 OA
BRANCH   2   4
ATOM      4  C   UNL A   1      35.133  31.302  27.790  1.00  0.00     0.060 A 
ATOM      5  C   UNL A   1      33.560  29.140  26.911  1.00  0.00     0.001 A 
ATOM      6  C   UNL A   1      32.969  30.370  27.191  1.00  0.00     0.011 A 
ATOM      7  C   UNL A   1      34.915  28.956  27.209  1.00  0.00     0.011 A 
ATOM      8  C   UNL A   1      33.752  31.419  27.669  1.00  0.00     0.016 A 
ATOM      9  C   UNL A   1      35.709  30.043  27.623  1.00  0.00     0.016 A 
BRANCH   5  10
ATOM     10  C   UNL A   1      32.729  28.088  26.362  1.00  0.00     0.081 A 
ATOM     11  C   UNL A   1      31.992  26.013  26.327  1.00  0.00     0.098 A 
ATOM     12  N   UNL A   1      33.055  26.765  26.538  1.00  0.00    -0.241 NA
ATOM     13  S   UNL A   1      30.665  26.822  25.591  1.00  0.00    -0.126 S 
ATOM     14  C   UNL A   1      31.497  28.315  25.779  1.00  0.00     0.095 A 
BRANCH  11  15
ATOM     15  C   UNL A   1      31.875  24.586  26.792  1.00  0.00     0.105 C 
BRANCH  15  16
ATOM     16  C   UNL A   1      32.605  23.648  25.859  1.00  0.00    -0.012 A 
ATOM     17  C   UNL A   1      32.412  24.723  22.182  1.00  0.00     0.119 A 
ATOM     18  C   UNL A   1      33.207  23.700  21.729  1.00  0.00     0.048 A 
ATOM     19  C   UNL A   1      32.137  24.776  23.544  1.00  0.00     0.057 A 
ATOM     20  C   UNL A   1      33.708  22.725  22.604  1.00  0.00     0.031 A 
ATOM     21  C   UNL A   1      32.676  23.819  24.451  1.00  0.00     0.008 A 
ATOM     22  C   UNL A   1      33.471  22.788  23.967  1.00  0.00     0.057 A 
ATOM     23  N   UNL A   1      33.877  21.948  25.009  1.00  0.00    -0.280 N 
ATOM     24  C   UNL A   1      33.321  22.494  26.181  1.00  0.00     0.028 A 
ATOM     25  C   UNL A   1      33.483  21.925  27.553  1.00  0.00     0.065 C 
BRANCH  17  26
ATOM     26  O   UNL A   1      31.903  25.719  21.396  1.00  0.00    -0.497 OA
ATOM     27  C   UNL A   1      31.422  26.869  22.089  1.00  0.00     0.278 C 
ENDBRANCH  17  26
BRANCH  23  28
ATOM     28  C   UNL A   1      34.649  20.738  24.893  1.00  0.00     0.262 C 
ATOM     29  O   UNL A   1      35.876  20.834  24.871  1.00  0.00    -0.268 OA
BRANCH  28  30
ATOM     30  C   UNL A   1      34.184  19.323  24.836  1.00  0.00     0.040 A 
ATOM     31  C   UNL A   1      35.036  18.271  24.473  1.00  0.00     0.015 A 
ATOM     32  C   UNL A   1      32.911  19.023  25.355  1.00  0.00     0.015 A 
ATOM     33  C   UNL A   1      34.595  16.942  24.594  1.00  0.00     0.021 A 
ATOM     34  C   UNL A   1      32.475  17.697  25.467  1.00  0.00     0.021 A 
ATOM     35  C   UNL A   1      33.318  16.659  25.081  1.00  0.00     0.041 A 
ATOM     36  Cl  UNL A   1      32.787  15.028  25.207  1.00  0.00    -0.084 Cl
ENDBRANCH  28  30
ENDBRANCH  23  28
ENDBRANCH  15  16
ENDBRANCH  11  15
ENDBRANCH   5  10
ENDBRANCH   2   4
ENDBRANCH   1   2
BRANCH   1  37
ATOM     37  C   UNL A   1      35.312  34.212  29.645  1.00  0.00     0.275 C 
BRANCH  37  38
ATOM     38  C   UNL A   1      34.252  33.807  30.678  1.00  0.00     0.275 C 
BRANCH  38  39
ATOM     39  O   UNL A   1      34.556  32.482  31.142  1.00  0.00    -0.458 OA
BRANCH  39  40
ATOM     40  C   UNL A   1      35.558  32.377  32.043  1.00  0.00     0.338 C 
ATOM     41  O   UNL A   1      35.510  32.659  33.235  1.00  0.00    -0.246 OA
BRANCH  40  42
ATOM     42  C   UNL A   1      36.603  31.534  31.421  1.00  0.00     0.060 A 
ATOM     43  C   UNL A   1      36.413  30.171  31.173  1.00  0.00     0.016 A 
ATOM     44  C   UNL A   1      37.873  32.091  31.295  1.00  0.00     0.016 A 
ATOM     45  C   UNL A   1      37.523  29.334  31.002  1.00  0.00     0.010 A 
ATOM     46  C   UNL A   1      38.965  31.251  31.091  1.00  0.00     0.010 A 
ATOM     47  C   UNL A   1      38.825  29.853  31.069  1.00  0.00    -0.014 A 
BRANCH  47  48
ATOM     48  C   UNL A   1      39.988  28.993  30.729  1.00  0.00     0.031 A 
ATOM     49  C   UNL A   1      40.726  28.756  31.988  1.00  0.00     0.074 A 
ATOM     50  C   UNL A   1      40.425  28.404  29.579  1.00  0.00     0.049 A 
ATOM     51  N   UNL A   1      41.645  29.529  32.467  1.00  0.00    -0.248 NA
ATOM     52  C   UNL A   1      40.212  27.768  32.950  1.00  0.00     0.031 C 
ATOM     53  C   UNL A   1      39.732  28.254  28.296  1.00  0.00     0.029 A 
ATOM     54  N   UNL A   1      41.632  27.759  29.319  1.00  0.00    -0.354 N 
ATOM     55  C   UNL A   1      42.024  28.921  33.652  1.00  0.00     0.074 A 
ATOM     56  C   UNL A   1      40.924  28.084  34.034  1.00  0.00     0.031 C 
ATOM     57  C   UNL A   1      40.431  27.426  27.473  1.00  0.00     0.029 A 
ATOM     58  C   UNL A   1      41.721  27.104  28.073  1.00  0.00     0.049 A 
ATOM     59  H   UNL A   1      42.376  27.760  29.965  1.00  0.00     0.167 HD
ATOM     60  C   UNL A   1      43.351  28.813  33.938  1.00  0.00     0.037 A 
ATOM     61  C   UNL A   1      42.773  26.394  27.544  1.00  0.00     0.037 A 
ATOM     62  C   UNL A   1      44.118  29.667  33.054  1.00  0.00     0.049 A 
ATOM     63  C   UNL A   1      43.991  26.721  28.275  1.00  0.00     0.074 A 
ATOM     64  C   UNL A   1      44.374  31.010  32.880  1.00  0.00     0.029 A 
ATOM     65  N   UNL A   1      44.429  29.054  31.874  1.00  0.00    -0.354 N 
ATOM     66  N   UNL A   1      44.707  27.764  28.003  1.00  0.00    -0.248 NA
ATOM     67  C   UNL A   1      44.294  26.040  29.528  1.00  0.00     0.031 C 
ATOM     68  C   UNL A   1      44.824  31.175  31.532  1.00  0.00     0.029 A 
ATOM     69  C   UNL A   1      44.874  29.928  30.927  1.00  0.00     0.049 A 
ATOM     70  H   UNL A   1      44.341  28.084  31.724  1.00  0.00     0.167 HD
ATOM     71  C   UNL A   1      45.140  28.154  29.244  1.00  0.00     0.074 A 
ATOM     72  C   UNL A   1      45.098  26.956  30.072  1.00  0.00     0.031 C 
ATOM     73  C   UNL A   1      45.071  29.472  29.579  1.00  0.00     0.037 A 
BRANCH  60  74
ATOM     74  C   UNL A   1      43.998  27.571  34.538  1.00  0.00     0.057 A 
ATOM     75  C   UNL A   1      44.136  26.315  33.906  1.00  0.00     0.134 A 
ATOM     76  C   UNL A   1      44.801  27.739  35.682  1.00  0.00     0.134 A 
ATOM     77  F   UNL A   1      43.494  25.979  32.784  1.00  0.00    -0.206 F 
ATOM     78  C   UNL A   1      45.031  25.333  34.342  1.00  0.00     0.040 A 
ATOM     79  C   UNL A   1      45.732  26.779  36.100  1.00  0.00     0.040 A 
ATOM     80  F   UNL A   1      44.766  28.881  36.384  1.00  0.00    -0.206 F 
ATOM     81  C   UNL A   1      45.859  25.576  35.422  1.00  0.00     0.006 A 
ENDBRANCH  60  74
BRANCH  61  82
ATOM     82  C   UNL A   1      42.905  25.330  26.513  1.00  0.00     0.057 A 
ATOM     83  C   UNL A   1      42.383  24.102  26.866  1.00  0.00     0.134 A 
ATOM     84  C   UNL A   1      43.802  25.282  25.435  1.00  0.00     0.134 A 
ATOM     85  F   UNL A   1      41.858  24.025  28.093  1.00  0.00    -0.206 F 
ATOM     86  C   UNL A   1      42.545  22.927  26.110  1.00  0.00     0.040 A 
ATOM     87  C   UNL A   1      44.053  24.097  24.707  1.00  0.00     0.040 A 
ATOM     88  F   UNL A   1      44.542  26.352  25.118  1.00  0.00    -0.206 F 
ATOM     89  C   UNL A   1      43.390  22.919  25.020  1.00  0.00     0.006 A 
ENDBRANCH  61  82
BRANCH  73  90
ATOM     90  C   UNL A   1      45.066  30.435  28.436  1.00  0.00     0.057 A 
ATOM     91  C   UNL A   1      46.294  30.894  27.962  1.00  0.00     0.134 A 
ATOM     92  C   UNL A   1      43.912  30.874  27.765  1.00  0.00     0.134 A 
ATOM     93  F   UNL A   1      47.432  30.524  28.569  1.00  0.00    -0.206 F 
ATOM     94  C   UNL A   1      46.383  31.737  26.854  1.00  0.00     0.040 A 
ATOM     95  C   UNL A   1      43.989  31.690  26.634  1.00  0.00     0.040 A 
ATOM     96  F   UNL A   1      42.689  30.521  28.184  1.00  0.00    -0.206 F 
ATOM     97  C   UNL A   1      45.230  32.124  26.176  1.00  0.00     0.006 A 
ENDBRANCH  73  90
ENDBRANCH  47  48
ENDBRANCH  40  42
ENDBRANCH  39  40
ENDBRANCH  38  39
ENDBRANCH  37  38
ENDBRANCH   1  37
TORSDOF 17
ENDMDL
MODEL 2
REMARK VINA RESULT:     -12.5      1.303      2.201
REMARK SMILES COc1ccc2c(c1)c(Cc1nc(-c3ccc(C(=O)OCCOC(=O)c4ccc(-c5c6nc(c(-c7c(F)cccc7F)c7ccc([nH]7)c(-c7c(F)cccc7F)c7nc(c(-c8c(F)cccc8F)c8ccc5[nH]8)C=C7)C=C6)cc4)cc3)cs1)c(C)n2C(=O)c1ccc(Cl)cc1
REMARK SMILES IDX 20 1 18 2 19 3 17 4 14 5 15 6 81 7 16 8 80 9 13 10 11 11
REMARK SMILES IDX 12 12 83 13 82 14 10 15 9 16 3 17 4 18 8 19 5 20 7 21 6 22
REMARK SMILES IDX 86 23 84 24 85 25 2 26 1 27 87 28 88 29 89 30 90 31 95 32
REMARK SMILES IDX 91 33 94 34 92 35 93 36 21 37 22 38 23 39 24 40 25 41 26 42
REMARK SMILES IDX 27 43 79 44 28 45 78 46 29 47 30 48 31 49 72 50 32 51 77 52
REMARK SMILES IDX 71 53 73 54 33 55 76 56 70 57 69 58 34 60 60 61 43 62 59 63
REMARK SMILES IDX 44 64 47 65 58 66 74 67 45 68 46 69 57 71 75 72 48 73 35 74
REMARK SMILES IDX 36 75 41 76 37 77 38 78 40 79 42 80 39 81 61 82 62 83 67 84
REMARK SMILES IDX 63 85 64 86 66 87 68 88 65 89 49 90 50 91 55 92 51 93 52 94
REMARK SMILES IDX 54 95 56 96 53 97
REMARK H PARENT 73 59 47 70
REMARK Flexibility Score: inf
ROOT
ATOM      1  O   UNL A   1      34.581  33.597  27.635  1.00  0.00    -0.458 OA
ENDROOT
BRANCH   1   2
ATOM      2  C   UNL A   1      33.338  33.163  27.962  1.00  0.00     0.338 C 
ATOM      3  O   UNL A   1      32.527  33.745  28.663  1.00  0.00    -0.246 OA
BRANCH   2   4
ATOM      4  C   UNL A   1      33.019  31.918  27.207  1.00  0.00     0.060 A 
ATOM      5  C   UNL A   1      32.423  29.346  26.231  1.00  0.00     0.001 A 
ATOM      6  C   UNL A   1      33.670  29.612  26.790  1.00  0.00     0.011 A 
ATOM      7  C   UNL A   1      31.529  30.404  26.033  1.00  0.00     0.011 A 
ATOM      8  C   UNL A   1      33.969  30.902  27.228  1.00  0.00     0.016 A 
ATOM      9  C   UNL A   1      31.814  31.685  26.545  1.00  0.00     0.016 A 
BRANCH   5  10
ATOM     10  C   UNL A   1      32.123  27.984  25.838  1.00  0.00     0.081 A 
ATOM     11  C   UNL A   1      32.163  25.809  26.184  1.00  0.00     0.098 A 
ATOM     12  N   UNL A   1      32.843  26.928  26.342  1.00  0.00    -0.241 NA
ATOM     13  S   UNL A   1      30.802  25.929  25.139  1.00  0.00    -0.126 S 
ATOM     14  C   UNL A   1      31.020  27.633  25.083  1.00  0.00     0.095 A 
BRANCH  11  15
ATOM     15  C   UNL A   1      32.457  24.540  26.939  1.00  0.00     0.105 C 
BRANCH  15  16
ATOM     16  C   UNL A   1      32.916  23.446  26.004  1.00  0.00    -0.012 A 
ATOM     17  C   UNL A   1      36.688  23.531  25.312  1.00  0.00     0.119 A 
ATOM     18  C   UNL A   1      36.679  22.405  24.528  1.00  0.00     0.048 A 
ATOM     19  C   UNL A   1      35.475  23.968  25.833  1.00  0.00     0.057 A 
ATOM     20  C   UNL A   1      35.485  21.728  24.238  1.00  0.00     0.031 A 
ATOM     21  C   UNL A   1      34.261  23.266  25.585  1.00  0.00     0.008 A 
ATOM     22  C   UNL A   1      34.276  22.133  24.780  1.00  0.00     0.057 A 
ATOM     23  N   UNL A   1      32.987  21.609  24.643  1.00  0.00    -0.280 N 
ATOM     24  C   UNL A   1      32.149  22.445  25.406  1.00  0.00     0.028 A 
ATOM     25  C   UNL A   1      30.673  22.275  25.552  1.00  0.00     0.065 C 
BRANCH  17  26
ATOM     26  O   UNL A   1      37.810  24.232  25.654  1.00  0.00    -0.497 OA
ATOM     27  C   UNL A   1      38.735  23.550  26.499  1.00  0.00     0.278 C 
ENDBRANCH  17  26
BRANCH  23  28
ATOM     28  C   UNL A   1      32.593  20.486  23.832  1.00  0.00     0.262 C 
ATOM     29  O   UNL A   1      32.163  20.711  22.700  1.00  0.00    -0.268 OA
BRANCH  28  30
ATOM     30  C   UNL A   1      32.666  19.029  24.138  1.00  0.00     0.040 A 
ATOM     31  C   UNL A   1      33.075  18.086  23.187  1.00  0.00     0.015 A 
ATOM     32  C   UNL A   1      32.510  18.626  25.478  1.00  0.00     0.015 A 
ATOM     33  C   UNL A   1      33.284  16.750  23.572  1.00  0.00     0.021 A 
ATOM     34  C   UNL A   1      32.713  17.292  25.854  1.00  0.00     0.021 A 
ATOM     35  C   UNL A   1      33.095  16.356  24.897  1.00  0.00     0.041 A 
ATOM     36  Cl  UNL A   1      33.339  14.715  25.350  1.00  0.00    -0.084 Cl
ENDBRANCH  28  30
ENDBRANCH  23  28
ENDBRANCH  15  16
ENDBRANCH  11  15
ENDBRANCH   5  10
ENDBRANCH   2   4
ENDBRANCH   1   2
BRANCH   1  37
ATOM     37  C   UNL A   1      35.247  34.464  28.584  1.00  0.00     0.275 C 
BRANCH  37  38
ATOM     38  C   UNL A   1      36.330  33.694  29.350  1.00  0.00     0.275 C 
BRANCH  38  39
ATOM     39  O   UNL A   1      36.025  33.758  30.752  1.00  0.00    -0.458 OA
BRANCH  39  40
ATOM     40  C   UNL A   1      35.536  32.630  31.313  1.00  0.00     0.338 C 
ATOM     41  O   UNL A   1      34.356  32.339  31.472  1.00  0.00    -0.246 OA
BRANCH  40  42
ATOM     42  C   UNL A   1      36.655  31.664  31.371  1.00  0.00     0.060 A 
ATOM     43  C   UNL A   1      37.965  32.054  31.666  1.00  0.00     0.016 A 
ATOM     44  C   UNL A   1      36.405  30.378  30.898  1.00  0.00     0.016 A 
ATOM     45  C   UNL A   1      39.037  31.232  31.295  1.00  0.00     0.010 A 
ATOM     46  C   UNL A   1      37.480  29.557  30.564  1.00  0.00     0.010 A 
ATOM     47  C   UNL A   1      38.806  30.015  30.636  1.00  0.00    -0.014 A 
BRANCH  47  48
ATOM     48  C   UNL A   1      39.932  29.077  30.390  1.00  0.00     0.031 A 
ATOM     49  C   UNL A   1      40.605  28.867  31.691  1.00  0.00     0.074 A 
ATOM     50  C   UNL A   1      40.383  28.405  29.291  1.00  0.00     0.049 A 
ATOM     51  N   UNL A   1      41.544  29.613  32.170  1.00  0.00    -0.248 NA
ATOM     52  C   UNL A   1      39.997  27.959  32.677  1.00  0.00     0.031 C 
ATOM     53  C   UNL A   1      39.735  28.226  27.989  1.00  0.00     0.029 A 
ATOM     54  N   UNL A   1      41.561  27.684  29.117  1.00  0.00    -0.354 N 
ATOM     55  C   UNL A   1      41.841  29.049  33.400  1.00  0.00     0.074 A 
ATOM     56  C   UNL A   1      40.681  28.293  33.775  1.00  0.00     0.031 C 
ATOM     57  C   UNL A   1      40.419  27.320  27.239  1.00  0.00     0.029 A 
ATOM     58  C   UNL A   1      41.664  26.961  27.910  1.00  0.00     0.049 A 
ATOM     59  H   UNL A   1      42.277  27.679  29.793  1.00  0.00     0.167 HD
ATOM     60  C   UNL A   1      43.147  28.885  33.748  1.00  0.00     0.037 A 
ATOM     61  C   UNL A   1      42.695  26.169  27.464  1.00  0.00     0.037 A 
ATOM     62  C   UNL A   1      43.995  29.649  32.856  1.00  0.00     0.049 A 
ATOM     63  C   UNL A   1      43.899  26.468  28.230  1.00  0.00     0.074 A 
ATOM     64  C   UNL A   1      44.333  30.966  32.627  1.00  0.00     0.029 A 
ATOM     65  N   UNL A   1      44.319  28.959  31.723  1.00  0.00    -0.354 N 
ATOM     66  N   UNL A   1      44.682  27.456  27.937  1.00  0.00    -0.248 NA
ATOM     67  C   UNL A   1      44.113  25.839  29.528  1.00  0.00     0.031 C 
ATOM     68  C   UNL A   1      44.846  31.036  31.293  1.00  0.00     0.029 A 
ATOM     69  C   UNL A   1      44.851  29.758  30.753  1.00  0.00     0.049 A 
ATOM     70  H   UNL A   1      44.184  27.989  31.618  1.00  0.00     0.167 HD
ATOM     71  C   UNL A   1      45.086  27.886  29.174  1.00  0.00     0.074 A 
ATOM     72  C   UNL A   1      44.943  26.737  30.059  1.00  0.00     0.031 C 
ATOM     73  C   UNL A   1      45.077  29.221  29.440  1.00  0.00     0.037 A 
BRANCH  60  74
ATOM     74  C   UNL A   1      43.698  27.643  34.437  1.00  0.00     0.057 A 
ATOM     75  C   UNL A   1      43.764  26.344  33.886  1.00  0.00     0.134 A 
ATOM     76  C   UNL A   1      44.491  27.830  35.585  1.00  0.00     0.134 A 
ATOM     77  F   UNL A   1      43.122  25.982  32.772  1.00  0.00    -0.206 F 
ATOM     78  C   UNL A   1      44.583  25.335  34.401  1.00  0.00     0.040 A 
ATOM     79  C   UNL A   1      45.347  26.839  36.082  1.00  0.00     0.040 A 
ATOM     80  F   UNL A   1      44.519  29.013  36.216  1.00  0.00    -0.206 F 
ATOM     81  C   UNL A   1      45.406  25.590  35.482  1.00  0.00     0.006 A 
ENDBRANCH  60  74
BRANCH  61  82
ATOM     82  C   UNL A   1      42.809  25.047  26.494  1.00  0.00     0.057 A 
ATOM     83  C   UNL A   1      42.301  23.840  26.929  1.00  0.00     0.134 A 
ATOM     84  C   UNL A   1      43.684  24.939  25.402  1.00  0.00     0.134 A 
ATOM     85  F   UNL A   1      41.802  23.833  28.170  1.00  0.00    -0.206 F 
ATOM     86  C   UNL A   1      42.451  22.623  26.239  1.00  0.00     0.040 A 
ATOM     87  C   UNL A   1      43.924  23.714  24.739  1.00  0.00     0.040 A 
ATOM     88  F   UNL A   1      44.413  25.990  25.007  1.00  0.00    -0.206 F 
ATOM     89  C   UNL A   1      43.273  22.554  25.135  1.00  0.00     0.006 A 
ENDBRANCH  61  82
BRANCH  73  90
ATOM     90  C   UNL A   1      45.172  30.122  28.251  1.00  0.00     0.057 A 
ATOM     91  C   UNL A   1      43.999  30.715  27.784  1.00  0.00     0.134 A 
ATOM     92  C   UNL A   1      46.369  30.460  27.598  1.00  0.00     0.134 A 
ATOM     93  F   UNL A   1      42.821  30.421  28.356  1.00  0.00    -0.206 F 
ATOM     94  C   UNL A   1      44.009  31.624  26.727  1.00  0.00     0.040 A 
ATOM     95  C   UNL A   1      46.397  31.395  26.560  1.00  0.00     0.040 A 
ATOM     96  F   UNL A   1      47.534  29.900  27.950  1.00  0.00    -0.206 F 
ATOM     97  C   UNL A   1      45.211  31.980  26.122  1.00  0.00     0.006 A 
ENDBRANCH  73  90
ENDBRANCH  47  48
ENDBRANCH  40  42
ENDBRANCH  39  40
ENDBRANCH  38  39
ENDBRANCH  37  38
ENDBRANCH   1  37
TORSDOF 17
ENDMDL
MODEL 3
REMARK VINA RESULT:     -11.9      3.499      8.665
REMARK SMILES COc1ccc2c(c1)c(Cc1nc(-c3ccc(C(=O)OCCOC(=O)c4ccc(-c5c6nc(c(-c7c(F)cccc7F)c7ccc([nH]7)c(-c7c(F)cccc7F)c7nc(c(-c8c(F)cccc8F)c8ccc5[nH]8)C=C7)C=C6)cc4)cc3)cs1)c(C)n2C(=O)c1ccc(Cl)cc1
REMARK SMILES IDX 20 1 18 2 19 3 17 4 14 5 15 6 81 7 16 8 80 9 13 10 11 11
REMARK SMILES IDX 12 12 83 13 82 14 10 15 9 16 3 17 4 18 8 19 5 20 7 21 6 22
REMARK SMILES IDX 86 23 84 24 85 25 2 26 1 27 87 28 88 29 89 30 90 31 95 32
REMARK SMILES IDX 91 33 94 34 92 35 93 36 21 37 22 38 23 39 24 40 25 41 26 42
REMARK SMILES IDX 27 43 79 44 28 45 78 46 29 47 30 48 31 49 72 50 32 51 77 52
REMARK SMILES IDX 71 53 73 54 33 55 76 56 70 57 69 58 34 60 60 61 43 62 59 63
REMARK SMILES IDX 44 64 47 65 58 66 74 67 45 68 46 69 57 71 75 72 48 73 35 74
REMARK SMILES IDX 36 75 41 76 37 77 38 78 40 79 42 80 39 81 61 82 62 83 67 84
REMARK SMILES IDX 63 85 64 86 66 87 68 88 65 89 49 90 50 91 55 92 51 93 52 94
REMARK SMILES IDX 54 95 56 96 53 97
REMARK H PARENT 73 59 47 70
REMARK Flexibility Score: inf
ROOT
ATOM      1  O   UNL A   1      41.339  23.845  26.159  1.00  0.00    -0.458 OA
ENDROOT
BRANCH   1   2
ATOM      2  C   UNL A   1      40.330  23.895  27.065  1.00  0.00     0.338 C 
ATOM      3  O   UNL A   1      40.372  24.416  28.168  1.00  0.00    -0.246 OA
BRANCH   2   4
ATOM      4  C   UNL A   1      39.079  23.353  26.465  1.00  0.00     0.060 A 
ATOM      5  C   UNL A   1      36.705  22.031  25.732  1.00  0.00     0.001 A 
ATOM      6  C   UNL A   1      37.915  21.342  25.747  1.00  0.00     0.011 A 
ATOM      7  C   UNL A   1      36.709  23.413  25.946  1.00  0.00     0.011 A 
ATOM      8  C   UNL A   1      39.091  22.020  26.068  1.00  0.00     0.016 A 
ATOM      9  C   UNL A   1      37.890  24.071  26.339  1.00  0.00     0.016 A 
BRANCH   5  10
ATOM     10  C   UNL A   1      35.494  21.285  25.451  1.00  0.00     0.081 A 
ATOM     11  C   UNL A   1      33.390  21.167  24.812  1.00  0.00     0.098 A 
ATOM     12  N   UNL A   1      34.265  21.898  25.474  1.00  0.00    -0.241 NA
ATOM     13  S   UNL A   1      33.917  19.575  24.428  1.00  0.00    -0.126 S 
ATOM     14  C   UNL A   1      35.490  19.983  24.991  1.00  0.00     0.095 A 
BRANCH  11  15
ATOM     15  C   UNL A   1      32.072  21.694  24.310  1.00  0.00     0.105 C 
BRANCH  15  16
ATOM     16  C   UNL A   1      31.996  23.196  24.457  1.00  0.00    -0.012 A 
ATOM     17  C   UNL A   1      32.904  25.077  21.240  1.00  0.00     0.119 A 
ATOM     18  C   UNL A   1      32.656  26.319  21.768  1.00  0.00     0.048 A 
ATOM     19  C   UNL A   1      32.732  23.974  22.068  1.00  0.00     0.057 A 
ATOM     20  C   UNL A   1      32.265  26.477  23.105  1.00  0.00     0.031 A 
ATOM     21  C   UNL A   1      32.292  24.115  23.416  1.00  0.00     0.008 A 
ATOM     22  C   UNL A   1      32.055  25.384  23.930  1.00  0.00     0.057 A 
ATOM     23  N   UNL A   1      31.657  25.307  25.268  1.00  0.00    -0.280 N 
ATOM     24  C   UNL A   1      31.633  23.935  25.584  1.00  0.00     0.028 A 
ATOM     25  C   UNL A   1      31.269  23.368  26.916  1.00  0.00     0.065 C 
BRANCH  17  26
ATOM     26  O   UNL A   1      33.269  24.841  19.944  1.00  0.00    -0.497 OA
ATOM     27  C   UNL A   1      32.501  25.519  18.950  1.00  0.00     0.278 C 
ENDBRANCH  17  26
BRANCH  23  28
ATOM     28  C   UNL A   1      31.392  26.410  26.156  1.00  0.00     0.262 C 
ATOM     29  O   UNL A   1      30.377  26.361  26.852  1.00  0.00    -0.268 OA
BRANCH  28  30
ATOM     30  C   UNL A   1      32.203  27.633  26.411  1.00  0.00     0.040 A 
ATOM     31  C   UNL A   1      31.631  28.828  26.867  1.00  0.00     0.015 A 
ATOM     32  C   UNL A   1      33.606  27.515  26.382  1.00  0.00     0.015 A 
ATOM     33  C   UNL A   1      32.458  29.898  27.249  1.00  0.00     0.021 A 
ATOM     34  C   UNL A   1      34.425  28.588  26.756  1.00  0.00     0.021 A 
ATOM     35  C   UNL A   1      33.847  29.779  27.185  1.00  0.00     0.041 A 
ATOM     36  Cl  UNL A   1      34.846  31.103  27.639  1.00  0.00    -0.084 Cl
ENDBRANCH  28  30
ENDBRANCH  23  28
ENDBRANCH  15  16
ENDBRANCH  11  15
ENDBRANCH   5  10
ENDBRANCH   2   4
ENDBRANCH   1   2
BRANCH   1  37
ATOM     37  C   UNL A   1      42.449  22.964  26.456  1.00  0.00     0.275 C 
BRANCH  37  38
ATOM     38  C   UNL A   1      43.393  22.862  25.251  1.00  0.00     0.275 C 
BRANCH  38  39
ATOM     39  O   UNL A   1      43.568  24.178  24.700  1.00  0.00    -0.458 OA
BRANCH  39  40
ATOM     40  C   UNL A   1      44.720  24.811  25.013  1.00  0.00     0.338 C 
ATOM     41  O   UNL A   1      45.846  24.530  24.616  1.00  0.00    -0.246 OA
BRANCH  40  42
ATOM     42  C   UNL A   1      44.343  26.105  25.622  1.00  0.00     0.060 A 
ATOM     43  C   UNL A   1      44.926  26.571  26.806  1.00  0.00     0.016 A 
ATOM     44  C   UNL A   1      43.222  26.747  25.104  1.00  0.00     0.016 A 
ATOM     45  C   UNL A   1      44.268  27.543  27.570  1.00  0.00     0.010 A 
ATOM     46  C   UNL A   1      42.595  27.736  25.859  1.00  0.00     0.010 A 
ATOM     47  C   UNL A   1      43.031  28.059  27.154  1.00  0.00    -0.014 A 
BRANCH  47  48
ATOM     48  C   UNL A   1      42.418  29.200  27.883  1.00  0.00     0.031 A 
ATOM     49  C   UNL A   1      43.400  30.306  27.846  1.00  0.00     0.074 A 
ATOM     50  C   UNL A   1      41.209  29.401  28.482  1.00  0.00     0.049 A 
ATOM     51  N   UNL A   1      44.352  30.483  28.701  1.00  0.00    -0.248 NA
ATOM     52  C   UNL A   1      43.542  31.102  26.616  1.00  0.00     0.031 C 
ATOM     53  C   UNL A   1      39.994  28.586  28.406  1.00  0.00     0.029 A 
ATOM     54  N   UNL A   1      40.790  30.448  29.300  1.00  0.00    -0.354 N 
ATOM     55  C   UNL A   1      45.012  31.615  28.254  1.00  0.00     0.074 A 
ATOM     56  C   UNL A   1      44.695  31.730  26.860  1.00  0.00     0.031 C 
ATOM     57  C   UNL A   1      38.947  29.240  28.979  1.00  0.00     0.029 A 
ATOM     58  C   UNL A   1      39.419  30.455  29.632  1.00  0.00     0.049 A 
ATOM     59  H   UNL A   1      41.413  31.139  29.627  1.00  0.00     0.167 HD
ATOM     60  C   UNL A   1      45.359  32.572  29.158  1.00  0.00     0.037 A 
ATOM     61  C   UNL A   1      38.726  31.349  30.412  1.00  0.00     0.037 A 
ATOM     62  C   UNL A   1      45.236  32.048  30.503  1.00  0.00     0.049 A 
ATOM     63  C   UNL A   1      39.666  32.117  31.218  1.00  0.00     0.074 A 
ATOM     64  C   UNL A   1      45.899  31.173  31.336  1.00  0.00     0.029 A 
ATOM     65  N   UNL A   1      43.972  32.182  31.003  1.00  0.00    -0.354 N 
ATOM     66  N   UNL A   1      40.140  31.679  32.341  1.00  0.00    -0.248 NA
ATOM     67  C   UNL A   1      40.330  33.285  30.651  1.00  0.00     0.031 C 
ATOM     68  C   UNL A   1      44.964  30.767  32.340  1.00  0.00     0.029 A 
ATOM     69  C   UNL A   1      43.766  31.432  32.124  1.00  0.00     0.049 A 
ATOM     70  H   UNL A   1      43.283  32.757  30.597  1.00  0.00     0.167 HD
ATOM     71  C   UNL A   1      41.424  32.158  32.324  1.00  0.00     0.074 A 
ATOM     72  C   UNL A   1      41.402  33.320  31.445  1.00  0.00     0.031 C 
ATOM     73  C   UNL A   1      42.441  31.321  32.667  1.00  0.00     0.037 A 
BRANCH  60  74
ATOM     74  C   UNL A   1      45.218  34.069  28.914  1.00  0.00     0.057 A 
ATOM     75  C   UNL A   1      46.276  34.991  28.752  1.00  0.00     0.134 A 
ATOM     76  C   UNL A   1      43.959  34.550  28.507  1.00  0.00     0.134 A 
ATOM     77  F   UNL A   1      47.550  34.709  29.036  1.00  0.00    -0.206 F 
ATOM     78  C   UNL A   1      46.107  36.259  28.187  1.00  0.00     0.040 A 
ATOM     79  C   UNL A   1      43.787  35.801  27.901  1.00  0.00     0.040 A 
ATOM     80  F   UNL A   1      42.864  33.783  28.611  1.00  0.00    -0.206 F 
ATOM     81  C   UNL A   1      44.866  36.656  27.727  1.00  0.00     0.006 A 
ENDBRANCH  60  74
BRANCH  61  82
ATOM     82  C   UNL A   1      37.299  31.760  30.519  1.00  0.00     0.057 A 
ATOM     83  C   UNL A   1      36.935  32.830  29.728  1.00  0.00     0.134 A 
ATOM     84  C   UNL A   1      36.401  31.487  31.562  1.00  0.00     0.134 A 
ATOM     85  F   UNL A   1      37.915  33.372  28.997  1.00  0.00    -0.206 F 
ATOM     86  C   UNL A   1      35.688  33.476  29.796  1.00  0.00     0.040 A 
ATOM     87  C   UNL A   1      35.176  32.177  31.709  1.00  0.00     0.040 A 
ATOM     88  F   UNL A   1      36.724  30.619  32.529  1.00  0.00    -0.206 F 
ATOM     89  C   UNL A   1      34.798  33.152  30.798  1.00  0.00     0.006 A 
ENDBRANCH  61  82
BRANCH  73  90
ATOM     90  C   UNL A   1      42.068  30.169  33.545  1.00  0.00     0.057 A 
ATOM     91  C   UNL A   1      41.883  28.924  32.946  1.00  0.00     0.134 A 
ATOM     92  C   UNL A   1      41.942  30.237  34.943  1.00  0.00     0.134 A 
ATOM     93  F   UNL A   1      41.974  28.796  31.614  1.00  0.00    -0.206 F 
ATOM     94  C   UNL A   1      41.604  27.783  33.699  1.00  0.00     0.040 A 
ATOM     95  C   UNL A   1      41.698  29.097  35.711  1.00  0.00     0.040 A 
ATOM     96  F   UNL A   1      42.057  31.403  35.594  1.00  0.00    -0.206 F 
ATOM     97  C   UNL A   1      41.528  27.863  35.087  1.00  0.00     0.006 A 
ENDBRANCH  73  90
ENDBRANCH  47  48
ENDBRANCH  40  42
ENDBRANCH  39  40
ENDBRANCH  38  39
ENDBRANCH  37  38
ENDBRANCH   1  37
TORSDOF 17
ENDMDL
