MODEL 1
REMARK VINA RESULT:     -12.5      0.000      0.000
REMARK SMILES Cc1nccn1C1(C(=O)OCCOC(=O)c2ccc(-c3c4nc(c(-c5c(F)cccc5F)c5ccc([nH]5)c(-c5c(F)cccc5F)c5nc(c(-c6c(F)cccc6F)c6ccc3[nH]6)C=C5)C=C4)cc2)CCN(c2nccc3occc23)CC1
REMARK SMILES IDX 12 1 11 2 10 3 8 4 9 5 7 6 70 7 83 8 71 9 82 10 72 11 6 12
REMARK SMILES IDX 1 13 2 14 3 15 4 16 5 17 73 18 74 19 81 20 75 21 77 22 80 23
REMARK SMILES IDX 76 24 78 25 79 26 13 27 14 28 15 29 16 30 17 31 69 32 18 33
REMARK SMILES IDX 68 34 19 35 20 36 21 37 62 38 22 39 67 40 61 41 63 42 23 43
REMARK SMILES IDX 66 44 60 45 59 46 24 48 50 49 33 50 49 51 34 52 37 53 48 54
REMARK SMILES IDX 64 55 35 56 36 57 47 59 65 60 38 61 25 62 26 63 31 64 27 65
REMARK SMILES IDX 28 66 30 67 32 68 29 69 51 70 52 71 57 72 53 73 54 74 56 75
REMARK SMILES IDX 58 76 55 77 39 78 40 79 45 80 41 81 42 82 44 83 46 84 43 85
REMARK H PARENT 63 47 37 58
REMARK Flexibility Score: inf
ROOT
ATOM      1  C   UNL A   1      33.021  30.827  26.900  1.00  0.00     0.275 C 
ENDROOT
BRANCH   1   2
ATOM      2  C   UNL A   1      32.227  29.591  27.289  1.00  0.00     0.274 C 
BRANCH   2   3
ATOM      3  O   UNL A   1      31.682  29.016  26.092  1.00  0.00    -0.460 OA
BRANCH   3   4
ATOM      4  C   UNL A   1      31.473  27.675  26.053  1.00  0.00     0.332 C 
ATOM      5  O   UNL A   1      31.074  27.051  27.034  1.00  0.00    -0.249 OA
BRANCH   4   6
ATOM      6  C   UNL A   1      31.791  27.015  24.654  1.00  0.00     0.146 C 
ATOM      7  C   UNL A   1      33.337  27.069  24.402  1.00  0.00     0.062 C 
ATOM      8  C   UNL A   1      31.258  25.568  24.841  1.00  0.00     0.062 C 
ATOM      9  C   UNL A   1      34.089  25.786  24.040  1.00  0.00     0.121 C 
ATOM     10  C   UNL A   1      32.009  24.511  24.061  1.00  0.00     0.121 C 
ATOM     11  N   UNL A   1      33.409  24.549  24.463  1.00  0.00    -0.356 N 
BRANCH   6  12
ATOM     12  N   UNL A   1      30.965  27.692  23.589  1.00  0.00    -0.318 N 
ATOM     13  C   UNL A   1      28.559  26.751  23.889  1.00  0.00     0.087 C 
ATOM     14  C   UNL A   1      29.601  27.626  23.302  1.00  0.00     0.106 A 
ATOM     15  N   UNL A   1      29.259  28.512  22.381  1.00  0.00    -0.242 NA
ATOM     16  C   UNL A   1      30.385  29.181  22.043  1.00  0.00     0.131 A 
ATOM     17  C   UNL A   1      31.447  28.688  22.748  1.00  0.00     0.108 A 
ENDBRANCH   6  12
BRANCH  11  18
ATOM     18  C   UNL A   1      34.123  23.454  23.913  1.00  0.00     0.139 A 
ATOM     19  N   UNL A   1      35.196  23.740  23.120  1.00  0.00    -0.238 NA
ATOM     20  C   UNL A   1      34.034  22.113  24.344  1.00  0.00     0.063 A 
ATOM     21  C   UNL A   1      36.309  22.995  23.240  1.00  0.00     0.117 A 
ATOM     22  C   UNL A   1      35.250  21.461  24.523  1.00  0.00     0.139 A 
ATOM     23  C   UNL A   1      33.042  21.154  24.689  1.00  0.00     0.054 A 
ATOM     24  C   UNL A   1      36.470  22.020  24.199  1.00  0.00     0.068 A 
ATOM     25  O   UNL A   1      35.059  20.204  25.006  1.00  0.00    -0.464 OA
ATOM     26  C   UNL A   1      33.716  19.990  24.997  1.00  0.00     0.196 A 
ENDBRANCH  11  18
ENDBRANCH   4   6
ENDBRANCH   3   4
ENDBRANCH   2   3
ENDBRANCH   1   2
BRANCH   1  27
ATOM     27  O   UNL A   1      34.428  30.568  26.969  1.00  0.00    -0.458 OA
BRANCH  27  28
ATOM     28  C   UNL A   1      35.131  31.462  27.706  1.00  0.00     0.338 C 
ATOM     29  O   UNL A   1      35.095  32.673  27.619  1.00  0.00    -0.246 OA
BRANCH  28  30
ATOM     30  C   UNL A   1      36.195  30.763  28.436  1.00  0.00     0.060 A 
ATOM     31  C   UNL A   1      37.213  31.555  28.977  1.00  0.00     0.016 A 
ATOM     32  C   UNL A   1      36.331  29.376  28.298  1.00  0.00     0.016 A 
ATOM     33  C   UNL A   1      38.439  30.974  29.227  1.00  0.00     0.010 A 
ATOM     34  C   UNL A   1      37.560  28.803  28.523  1.00  0.00     0.010 A 
ATOM     35  C   UNL A   1      38.614  29.620  28.926  1.00  0.00    -0.014 A 
BRANCH  35  36
ATOM     36  C   UNL A   1      39.911  29.031  29.173  1.00  0.00     0.031 A 
ATOM     37  C   UNL A   1      40.231  28.930  30.615  1.00  0.00     0.074 A 
ATOM     38  C   UNL A   1      40.676  28.518  28.194  1.00  0.00     0.049 A 
ATOM     39  N   UNL A   1      41.121  29.593  31.272  1.00  0.00    -0.248 NA
ATOM     40  C   UNL A   1      39.334  28.126  31.463  1.00  0.00     0.031 C 
ATOM     41  C   UNL A   1      40.331  28.283  26.790  1.00  0.00     0.029 A 
ATOM     42  N   UNL A   1      41.926  27.998  28.292  1.00  0.00    -0.354 N 
ATOM     43  C   UNL A   1      41.026  29.149  32.587  1.00  0.00     0.074 A 
ATOM     44  C   UNL A   1      39.796  28.411  32.680  1.00  0.00     0.031 C 
ATOM     45  C   UNL A   1      41.258  27.463  26.238  1.00  0.00     0.029 A 
ATOM     46  C   UNL A   1      42.315  27.223  27.208  1.00  0.00     0.049 A 
ATOM     47  H   UNL A   1      42.510  28.157  29.068  1.00  0.00     0.167 HD
ATOM     48  C   UNL A   1      42.093  29.207  33.428  1.00  0.00     0.037 A 
ATOM     49  C   UNL A   1      43.382  26.383  27.184  1.00  0.00     0.037 A 
ATOM     50  C   UNL A   1      43.104  30.101  32.923  1.00  0.00     0.049 A 
ATOM     51  C   UNL A   1      44.283  26.773  28.302  1.00  0.00     0.074 A 
ATOM     52  C   UNL A   1      43.143  31.448  32.615  1.00  0.00     0.029 A 
ATOM     53  N   UNL A   1      44.191  29.541  32.297  1.00  0.00    -0.354 N 
ATOM     54  N   UNL A   1      44.970  27.881  28.327  1.00  0.00    -0.248 NA
ATOM     55  C   UNL A   1      44.046  26.158  29.603  1.00  0.00     0.031 C 
ATOM     56  C   UNL A   1      43.951  31.533  31.443  1.00  0.00     0.029 A 
ATOM     57  C   UNL A   1      44.408  30.250  31.143  1.00  0.00     0.049 A 
ATOM     58  H   UNL A   1      44.717  28.773  32.617  1.00  0.00     0.167 HD
ATOM     59  C   UNL A   1      44.870  28.330  29.637  1.00  0.00     0.074 A 
ATOM     60  C   UNL A   1      44.351  27.192  30.393  1.00  0.00     0.031 C 
ATOM     61  C   UNL A   1      44.931  29.662  29.935  1.00  0.00     0.037 A 
BRANCH  48  62
ATOM     62  C   UNL A   1      42.394  28.173  34.485  1.00  0.00     0.057 A 
ATOM     63  C   UNL A   1      42.791  26.887  34.079  1.00  0.00     0.134 A 
ATOM     64  C   UNL A   1      42.029  28.285  35.842  1.00  0.00     0.134 A 
ATOM     65  F   UNL A   1      43.156  26.646  32.810  1.00  0.00    -0.206 F 
ATOM     66  C   UNL A   1      42.741  25.781  34.935  1.00  0.00     0.040 A 
ATOM     67  C   UNL A   1      42.027  27.198  36.719  1.00  0.00     0.040 A 
ATOM     68  F   UNL A   1      41.553  29.416  36.374  1.00  0.00    -0.206 F 
ATOM     69  C   UNL A   1      42.348  25.933  36.258  1.00  0.00     0.006 A 
ENDBRANCH  48  62
BRANCH  49  70
ATOM     70  C   UNL A   1      43.502  25.069  26.510  1.00  0.00     0.057 A 
ATOM     71  C   UNL A   1      42.669  23.996  26.861  1.00  0.00     0.134 A 
ATOM     72  C   UNL A   1      44.231  24.917  25.316  1.00  0.00     0.134 A 
ATOM     73  F   UNL A   1      41.902  24.061  27.959  1.00  0.00    -0.206 F 
ATOM     74  C   UNL A   1      42.546  22.853  26.058  1.00  0.00     0.040 A 
ATOM     75  C   UNL A   1      44.123  23.778  24.511  1.00  0.00     0.040 A 
ATOM     76  F   UNL A   1      45.003  25.905  24.843  1.00  0.00    -0.206 F 
ATOM     77  C   UNL A   1      43.265  22.748  24.872  1.00  0.00     0.006 A 
ENDBRANCH  49  70
BRANCH  61  78
ATOM     78  C   UNL A   1      45.356  30.607  28.846  1.00  0.00     0.057 A 
ATOM     79  C   UNL A   1      44.485  31.162  27.896  1.00  0.00     0.134 A 
ATOM     80  C   UNL A   1      46.672  31.082  28.851  1.00  0.00     0.134 A 
ATOM     81  F   UNL A   1      43.182  30.851  27.881  1.00  0.00    -0.206 F 
ATOM     82  C   UNL A   1      44.921  32.105  26.960  1.00  0.00     0.040 A 
ATOM     83  C   UNL A   1      47.110  32.050  27.947  1.00  0.00     0.040 A 
ATOM     84  F   UNL A   1      47.546  30.641  29.771  1.00  0.00    -0.206 F 
ATOM     85  C   UNL A   1      46.237  32.556  26.988  1.00  0.00     0.006 A 
ENDBRANCH  61  78
ENDBRANCH  35  36
ENDBRANCH  28  30
ENDBRANCH  27  28
ENDBRANCH   1  27
TORSDOF 13
ENDMDL
MODEL 2
REMARK VINA RESULT:     -12.5      1.045      1.995
REMARK SMILES Cc1nccn1C1(C(=O)OCCOC(=O)c2ccc(-c3c4nc(c(-c5c(F)cccc5F)c5ccc([nH]5)c(-c5c(F)cccc5F)c5nc(c(-c6c(F)cccc6F)c6ccc3[nH]6)C=C5)C=C4)cc2)CCN(c2nccc3occc23)CC1
REMARK SMILES IDX 12 1 11 2 10 3 8 4 9 5 7 6 70 7 83 8 71 9 82 10 72 11 6 12
REMARK SMILES IDX 1 13 2 14 3 15 4 16 5 17 73 18 74 19 81 20 75 21 77 22 80 23
REMARK SMILES IDX 76 24 78 25 79 26 13 27 14 28 15 29 16 30 17 31 69 32 18 33
REMARK SMILES IDX 68 34 19 35 20 36 21 37 62 38 22 39 67 40 61 41 63 42 23 43
REMARK SMILES IDX 66 44 60 45 59 46 24 48 50 49 33 50 49 51 34 52 37 53 48 54
REMARK SMILES IDX 64 55 35 56 36 57 47 59 65 60 38 61 25 62 26 63 31 64 27 65
REMARK SMILES IDX 28 66 30 67 32 68 29 69 51 70 52 71 57 72 53 73 54 74 56 75
REMARK SMILES IDX 58 76 55 77 39 78 40 79 45 80 41 81 42 82 44 83 46 84 43 85
REMARK H PARENT 63 47 37 58
REMARK Flexibility Score: inf
ROOT
ATOM      1  C   UNL A   1      32.923  31.139  27.249  1.00  0.00     0.275 C 
ENDROOT
BRANCH   1   2
ATOM      2  C   UNL A   1      32.174  30.396  26.156  1.00  0.00     0.274 C 
BRANCH   2   3
ATOM      3  O   UNL A   1      32.784  29.106  25.995  1.00  0.00    -0.460 OA
BRANCH   3   4
ATOM      4  C   UNL A   1      32.904  28.598  24.743  1.00  0.00     0.332 C 
ATOM      5  O   UNL A   1      33.282  29.285  23.796  1.00  0.00    -0.249 OA
BRANCH   4   6
ATOM      6  C   UNL A   1      32.516  27.071  24.628  1.00  0.00     0.146 C 
ATOM      7  C   UNL A   1      33.602  26.331  23.773  1.00  0.00     0.062 C 
ATOM      8  C   UNL A   1      32.502  26.619  26.114  1.00  0.00     0.062 C 
ATOM      9  C   UNL A   1      34.275  25.074  24.332  1.00  0.00     0.121 C 
ATOM     10  C   UNL A   1      32.893  25.175  26.339  1.00  0.00     0.121 C 
ATOM     11  N   UNL A   1      34.231  24.968  25.801  1.00  0.00    -0.356 N 
BRANCH   6  12
ATOM     12  N   UNL A   1      31.115  26.958  24.083  1.00  0.00    -0.318 N 
ATOM     13  C   UNL A   1      30.662  24.404  23.888  1.00  0.00     0.087 C 
ATOM     14  C   UNL A   1      30.316  25.843  23.824  1.00  0.00     0.106 A 
ATOM     15  N   UNL A   1      29.083  26.199  23.502  1.00  0.00    -0.242 NA
ATOM     16  C   UNL A   1      29.041  27.550  23.542  1.00  0.00     0.131 A 
ATOM     17  C   UNL A   1      30.272  28.043  23.873  1.00  0.00     0.108 A 
ENDBRANCH   6  12
BRANCH  11  18
ATOM     18  C   UNL A   1      34.728  23.689  26.157  1.00  0.00     0.139 A 
ATOM     19  N   UNL A   1      33.814  22.732  26.488  1.00  0.00    -0.238 NA
ATOM     20  C   UNL A   1      36.033  23.214  25.907  1.00  0.00     0.063 A 
ATOM     21  C   UNL A   1      34.002  21.475  26.048  1.00  0.00     0.117 A 
ATOM     22  C   UNL A   1      36.110  21.934  25.367  1.00  0.00     0.139 A 
ATOM     23  C   UNL A   1      37.382  23.652  26.024  1.00  0.00     0.054 A 
ATOM     24  C   UNL A   1      35.014  21.116  25.186  1.00  0.00     0.068 A 
ATOM     25  O   UNL A   1      37.401  21.600  25.098  1.00  0.00    -0.464 OA
ATOM     26  C   UNL A   1      38.170  22.601  25.602  1.00  0.00     0.196 A 
ENDBRANCH  11  18
ENDBRANCH   4   6
ENDBRANCH   3   4
ENDBRANCH   2   3
ENDBRANCH   1   2
BRANCH   1  27
ATOM     27  O   UNL A   1      34.322  30.836  27.200  1.00  0.00    -0.458 OA
BRANCH  27  28
ATOM     28  C   UNL A   1      35.116  31.725  27.845  1.00  0.00     0.338 C 
ATOM     29  O   UNL A   1      35.138  32.931  27.697  1.00  0.00    -0.246 OA
BRANCH  28  30
ATOM     30  C   UNL A   1      36.186  31.004  28.544  1.00  0.00     0.060 A 
ATOM     31  C   UNL A   1      37.302  31.755  28.932  1.00  0.00     0.016 A 
ATOM     32  C   UNL A   1      36.210  29.605  28.516  1.00  0.00     0.016 A 
ATOM     33  C   UNL A   1      38.500  31.101  29.132  1.00  0.00     0.010 A 
ATOM     34  C   UNL A   1      37.410  28.956  28.690  1.00  0.00     0.010 A 
ATOM     35  C   UNL A   1      38.550  29.718  28.936  1.00  0.00    -0.014 A 
BRANCH  35  36
ATOM     36  C   UNL A   1      39.818  29.050  29.127  1.00  0.00     0.031 A 
ATOM     37  C   UNL A   1      40.112  28.773  30.551  1.00  0.00     0.074 A 
ATOM     38  C   UNL A   1      40.577  28.618  28.104  1.00  0.00     0.049 A 
ATOM     39  N   UNL A   1      41.019  29.319  31.288  1.00  0.00    -0.248 NA
ATOM     40  C   UNL A   1      39.171  27.917  31.293  1.00  0.00     0.031 C 
ATOM     41  C   UNL A   1      40.243  28.559  26.679  1.00  0.00     0.029 A 
ATOM     42  N   UNL A   1      41.803  28.038  28.154  1.00  0.00    -0.354 N 
ATOM     43  C   UNL A   1      40.886  28.733  32.543  1.00  0.00     0.074 A 
ATOM     44  C   UNL A   1      39.626  28.043  32.539  1.00  0.00     0.031 C 
ATOM     45  C   UNL A   1      41.143  27.768  26.047  1.00  0.00     0.029 A 
ATOM     46  C   UNL A   1      42.175  27.375  26.993  1.00  0.00     0.049 A 
ATOM     47  H   UNL A   1      42.381  28.083  28.950  1.00  0.00     0.167 HD
ATOM     48  C   UNL A   1      41.942  28.651  33.397  1.00  0.00     0.037 A 
ATOM     49  C   UNL A   1      43.207  26.499  26.885  1.00  0.00     0.037 A 
ATOM     50  C   UNL A   1      42.996  29.552  33.006  1.00  0.00     0.049 A 
ATOM     51  C   UNL A   1      44.107  26.720  28.050  1.00  0.00     0.074 A 
ATOM     52  C   UNL A   1      43.096  30.922  32.854  1.00  0.00     0.029 A 
ATOM     53  N   UNL A   1      44.069  29.021  32.332  1.00  0.00    -0.354 N 
ATOM     54  N   UNL A   1      44.838  27.789  28.208  1.00  0.00    -0.248 NA
ATOM     55  C   UNL A   1      43.825  25.974  29.269  1.00  0.00     0.031 C 
ATOM     56  C   UNL A   1      43.923  31.105  31.707  1.00  0.00     0.029 A 
ATOM     57  C   UNL A   1      44.332  29.846  31.269  1.00  0.00     0.049 A 
ATOM     58  H   UNL A   1      44.558  28.199  32.568  1.00  0.00     0.167 HD
ATOM     59  C   UNL A   1      44.736  28.091  29.559  1.00  0.00     0.074 A 
ATOM     60  C   UNL A   1      44.161  26.897  30.175  1.00  0.00     0.031 C 
ATOM     61  C   UNL A   1      44.848  29.376  30.006  1.00  0.00     0.037 A 
BRANCH  48  62
ATOM     62  C   UNL A   1      42.184  27.492  34.332  1.00  0.00     0.057 A 
ATOM     63  C   UNL A   1      41.893  27.652  35.698  1.00  0.00     0.134 A 
ATOM     64  C   UNL A   1      42.955  26.354  34.015  1.00  0.00     0.134 A 
ATOM     65  F   UNL A   1      41.172  28.698  36.131  1.00  0.00    -0.206 F 
ATOM     66  C   UNL A   1      42.406  26.797  36.679  1.00  0.00     0.040 A 
ATOM     67  C   UNL A   1      43.427  25.464  34.982  1.00  0.00     0.040 A 
ATOM     68  F   UNL A   1      43.386  26.093  32.776  1.00  0.00    -0.206 F 
ATOM     69  C   UNL A   1      43.185  25.703  36.323  1.00  0.00     0.006 A 
ENDBRANCH  48  62
BRANCH  49  70
ATOM     70  C   UNL A   1      43.283  25.265  26.067  1.00  0.00     0.057 A 
ATOM     71  C   UNL A   1      44.384  25.014  25.237  1.00  0.00     0.134 A 
ATOM     72  C   UNL A   1      42.423  24.175  26.297  1.00  0.00     0.134 A 
ATOM     73  F   UNL A   1      45.284  25.977  24.989  1.00  0.00    -0.206 F 
ATOM     74  C   UNL A   1      44.633  23.746  24.690  1.00  0.00     0.040 A 
ATOM     75  C   UNL A   1      42.656  22.908  25.752  1.00  0.00     0.040 A 
ATOM     76  F   UNL A   1      41.379  24.277  27.131  1.00  0.00    -0.206 F 
ATOM     77  C   UNL A   1      43.774  22.686  24.958  1.00  0.00     0.006 A 
ENDBRANCH  49  70
BRANCH  61  78
ATOM     78  C   UNL A   1      45.328  30.420  29.037  1.00  0.00     0.057 A 
ATOM     79  C   UNL A   1      44.494  31.114  28.147  1.00  0.00     0.134 A 
ATOM     80  C   UNL A   1      46.662  30.835  29.110  1.00  0.00     0.134 A 
ATOM     81  F   UNL A   1      43.181  30.862  28.083  1.00  0.00    -0.206 F 
ATOM     82  C   UNL A   1      44.983  32.138  27.329  1.00  0.00     0.040 A 
ATOM     83  C   UNL A   1      47.152  31.880  28.326  1.00  0.00     0.040 A 
ATOM     84  F   UNL A   1      47.503  30.257  29.982  1.00  0.00    -0.206 F 
ATOM     85  C   UNL A   1      46.315  32.528  27.421  1.00  0.00     0.006 A 
ENDBRANCH  61  78
ENDBRANCH  35  36
ENDBRANCH  28  30
ENDBRANCH  27  28
ENDBRANCH   1  27
TORSDOF 13
ENDMDL
MODEL 3
REMARK VINA RESULT:     -12.4      2.245      7.882
REMARK SMILES Cc1nccn1C1(C(=O)OCCOC(=O)c2ccc(-c3c4nc(c(-c5c(F)cccc5F)c5ccc([nH]5)c(-c5c(F)cccc5F)c5nc(c(-c6c(F)cccc6F)c6ccc3[nH]6)C=C5)C=C4)cc2)CCN(c2nccc3occc23)CC1
REMARK SMILES IDX 12 1 11 2 10 3 8 4 9 5 7 6 70 7 83 8 71 9 82 10 72 11 6 12
REMARK SMILES IDX 1 13 2 14 3 15 4 16 5 17 73 18 74 19 81 20 75 21 77 22 80 23
REMARK SMILES IDX 76 24 78 25 79 26 13 27 14 28 15 29 16 30 17 31 69 32 18 33
REMARK SMILES IDX 68 34 19 35 20 36 21 37 62 38 22 39 67 40 61 41 63 42 23 43
REMARK SMILES IDX 66 44 60 45 59 46 24 48 50 49 33 50 49 51 34 52 37 53 48 54
REMARK SMILES IDX 64 55 35 56 36 57 47 59 65 60 38 61 25 62 26 63 31 64 27 65
REMARK SMILES IDX 28 66 30 67 32 68 29 69 51 70 52 71 57 72 53 73 54 74 56 75
REMARK SMILES IDX 58 76 55 77 39 78 40 79 45 80 41 81 42 82 44 83 46 84 43 85
REMARK H PARENT 63 47 37 58
REMARK Flexibility Score: inf
ROOT
ATOM      1  C   UNL A   1      38.539  20.997  25.742  1.00  0.00     0.275 C 
ENDROOT
BRANCH   1   2
ATOM      2  C   UNL A   1      37.423  21.067  24.713  1.00  0.00     0.274 C 
BRANCH   2   3
ATOM      3  O   UNL A   1      36.780  22.345  24.839  1.00  0.00    -0.460 OA
BRANCH   3   4
ATOM      4  C   UNL A   1      36.110  22.841  23.768  1.00  0.00     0.332 C 
ATOM      5  O   UNL A   1      36.636  22.942  22.661  1.00  0.00    -0.249 OA
BRANCH   4   6
ATOM      6  C   UNL A   1      34.622  23.268  24.082  1.00  0.00     0.146 C 
ATOM      7  C   UNL A   1      34.637  24.475  25.083  1.00  0.00     0.062 C 
ATOM      8  C   UNL A   1      34.082  23.652  22.677  1.00  0.00     0.062 C 
ATOM      9  C   UNL A   1      33.859  25.749  24.740  1.00  0.00     0.121 C 
ATOM     10  C   UNL A   1      33.033  24.741  22.678  1.00  0.00     0.121 C 
ATOM     11  N   UNL A   1      33.601  25.930  23.301  1.00  0.00    -0.356 N 
BRANCH   6  12
ATOM     12  N   UNL A   1      33.856  22.065  24.574  1.00  0.00    -0.318 N 
ATOM     13  C   UNL A   1      34.314  21.963  27.132  1.00  0.00     0.087 C 
ATOM     14  C   UNL A   1      33.680  21.549  25.858  1.00  0.00     0.106 A 
ATOM     15  N   UNL A   1      32.794  20.567  25.865  1.00  0.00    -0.242 NA
ATOM     16  C   UNL A   1      32.366  20.415  24.591  1.00  0.00     0.131 A 
ATOM     17  C   UNL A   1      33.012  21.302  23.775  1.00  0.00     0.108 A 
ENDBRANCH   6  12
BRANCH  11  18
ATOM     18  C   UNL A   1      32.733  27.042  23.154  1.00  0.00     0.139 A 
ATOM     19  N   UNL A   1      31.722  26.931  22.245  1.00  0.00    -0.238 NA
ATOM     20  C   UNL A   1      32.615  28.118  24.058  1.00  0.00     0.063 A 
ATOM     21  C   UNL A   1      30.508  27.415  22.562  1.00  0.00     0.117 A 
ATOM     22  C   UNL A   1      31.313  28.480  24.389  1.00  0.00     0.139 A 
ATOM     23  C   UNL A   1      33.447  29.003  24.798  1.00  0.00     0.054 A 
ATOM     24  C   UNL A   1      30.194  27.923  23.803  1.00  0.00     0.068 A 
ATOM     25  O   UNL A   1      31.308  29.475  25.316  1.00  0.00    -0.464 OA
ATOM     26  C   UNL A   1      32.602  29.860  25.474  1.00  0.00     0.196 A 
ENDBRANCH  11  18
ENDBRANCH   4   6
ENDBRANCH   3   4
ENDBRANCH   2   3
ENDBRANCH   1   2
BRANCH   1  27
ATOM     27  O   UNL A   1      38.956  22.312  26.127  1.00  0.00    -0.458 OA
BRANCH  27  28
ATOM     28  C   UNL A   1      40.016  22.344  26.969  1.00  0.00     0.338 C 
ATOM     29  O   UNL A   1      40.404  21.451  27.695  1.00  0.00    -0.246 OA
BRANCH  28  30
ATOM     30  C   UNL A   1      40.471  23.731  27.127  1.00  0.00     0.060 A 
ATOM     31  C   UNL A   1      41.558  23.944  27.983  1.00  0.00     0.016 A 
ATOM     32  C   UNL A   1      39.649  24.781  26.701  1.00  0.00     0.016 A 
ATOM     33  C   UNL A   1      41.718  25.193  28.546  1.00  0.00     0.010 A 
ATOM     34  C   UNL A   1      39.794  26.018  27.283  1.00  0.00     0.010 A 
ATOM     35  C   UNL A   1      40.788  26.191  28.242  1.00  0.00    -0.014 A 
BRANCH  35  36
ATOM     36  C   UNL A   1      40.958  27.488  28.859  1.00  0.00     0.031 A 
ATOM     37  C   UNL A   1      42.130  28.224  28.334  1.00  0.00     0.074 A 
ATOM     38  C   UNL A   1      40.065  28.008  29.719  1.00  0.00     0.049 A 
ATOM     39  N   UNL A   1      43.227  28.501  28.954  1.00  0.00    -0.248 NA
ATOM     40  C   UNL A   1      42.159  28.534  26.895  1.00  0.00     0.031 C 
ATOM     41  C   UNL A   1      38.732  27.511  30.066  1.00  0.00     0.029 A 
ATOM     42  N   UNL A   1      40.142  29.178  30.404  1.00  0.00    -0.354 N 
ATOM     43  C   UNL A   1      44.013  29.191  28.037  1.00  0.00     0.074 A 
ATOM     44  C   UNL A   1      43.398  29.004  26.751  1.00  0.00     0.031 C 
ATOM     45  C   UNL A   1      38.049  28.490  30.708  1.00  0.00     0.029 A 
ATOM     46  C   UNL A   1      38.934  29.623  30.922  1.00  0.00     0.049 A 
ATOM     47  H   UNL A   1      40.986  29.671  30.522  1.00  0.00     0.167 HD
ATOM     48  C   UNL A   1      44.964  30.072  28.447  1.00  0.00     0.037 A 
ATOM     49  C   UNL A   1      38.696  30.873  31.397  1.00  0.00     0.037 A 
ATOM     50  C   UNL A   1      45.285  29.879  29.838  1.00  0.00     0.049 A 
ATOM     51  C   UNL A   1      40.014  31.504  31.679  1.00  0.00     0.074 A 
ATOM     52  C   UNL A   1      45.792  28.828  30.581  1.00  0.00     0.029 A 
ATOM     53  N   UNL A   1      44.723  30.743  30.746  1.00  0.00    -0.354 N 
ATOM     54  N   UNL A   1      40.805  31.130  32.647  1.00  0.00    -0.248 NA
ATOM     55  C   UNL A   1      40.661  32.226  30.591  1.00  0.00     0.031 C 
ATOM     56  C   UNL A   1      45.085  28.879  31.818  1.00  0.00     0.029 A 
ATOM     57  C   UNL A   1      44.241  29.988  31.784  1.00  0.00     0.049 A 
ATOM     58  H   UNL A   1      44.675  31.723  30.667  1.00  0.00     0.167 HD
ATOM     59  C   UNL A   1      42.079  31.169  32.097  1.00  0.00     0.074 A 
ATOM     60  C   UNL A   1      41.936  31.921  30.853  1.00  0.00     0.031 C 
ATOM     61  C   UNL A   1      43.067  30.340  32.546  1.00  0.00     0.037 A 
BRANCH  48  62
ATOM     62  C   UNL A   1      45.307  31.347  27.716  1.00  0.00     0.057 A 
ATOM     63  C   UNL A   1      46.619  31.522  27.241  1.00  0.00     0.134 A 
ATOM     64  C   UNL A   1      44.512  32.511  27.720  1.00  0.00     0.134 A 
ATOM     65  F   UNL A   1      47.478  30.492  27.193  1.00  0.00    -0.206 F 
ATOM     66  C   UNL A   1      47.126  32.776  26.885  1.00  0.00     0.040 A 
ATOM     67  C   UNL A   1      44.993  33.759  27.315  1.00  0.00     0.040 A 
ATOM     68  F   UNL A   1      43.269  32.539  28.211  1.00  0.00    -0.206 F 
ATOM     69  C   UNL A   1      46.314  33.903  26.931  1.00  0.00     0.006 A 
ENDBRANCH  48  62
BRANCH  49  70
ATOM     70  C   UNL A   1      37.456  31.678  31.282  1.00  0.00     0.057 A 
ATOM     71  C   UNL A   1      36.980  32.101  30.033  1.00  0.00     0.134 A 
ATOM     72  C   UNL A   1      36.559  31.805  32.358  1.00  0.00     0.134 A 
ATOM     73  F   UNL A   1      37.745  31.982  28.937  1.00  0.00    -0.206 F 
ATOM     74  C   UNL A   1      35.679  32.593  29.858  1.00  0.00     0.040 A 
ATOM     75  C   UNL A   1      35.262  32.302  32.198  1.00  0.00     0.040 A 
ATOM     76  F   UNL A   1      36.878  31.367  33.585  1.00  0.00    -0.206 F 
ATOM     77  C   UNL A   1      34.811  32.683  30.941  1.00  0.00     0.006 A 
ENDBRANCH  49  70
BRANCH  61  78
ATOM     78  C   UNL A   1      42.816  29.562  33.807  1.00  0.00     0.057 A 
ATOM     79  C   UNL A   1      43.035  30.063  35.100  1.00  0.00     0.134 A 
ATOM     80  C   UNL A   1      42.198  28.312  33.709  1.00  0.00     0.134 A 
ATOM     81  F   UNL A   1      43.522  31.295  35.297  1.00  0.00    -0.206 F 
ATOM     82  C   UNL A   1      42.700  29.325  36.240  1.00  0.00     0.040 A 
ATOM     83  C   UNL A   1      41.826  27.582  34.838  1.00  0.00     0.040 A 
ATOM     84  F   UNL A   1      41.903  27.797  32.504  1.00  0.00    -0.206 F 
ATOM     85  C   UNL A   1      42.088  28.082  36.111  1.00  0.00     0.006 A 
ENDBRANCH  61  78
ENDBRANCH  35  36
ENDBRANCH  28  30
ENDBRANCH  27  28
ENDBRANCH   1  27
TORSDOF 13
ENDMDL
