MODEL 1
REMARK VINA RESULT:     -10.6      0.000      0.000
REMARK SMILES C[C@H](C(=O)OCCOC(=O)c1ccc(-c2c3nc(c(-c4c(F)cccc4F)c4ccc([nH]4)c(-c4c(F)cccc4F)c4nc(c(-c5c(F)cccc5F)c5ccc2[nH]5)C=C4)C=C3)cc1)S(=O)(=O)NC[C@@H]1C[N@@H+](C)CCO1
REMARK SMILES IDX 6 1 5 2 3 3 4 4 2 5 1 6 65 7 66 8 67 9 68 10 69 12 70 13
REMARK SMILES IDX 71 14 76 15 72 16 75 17 73 18 74 19 7 21 8 22 9 23 10 24
REMARK SMILES IDX 11 25 12 26 64 27 13 28 63 29 14 30 15 31 16 32 57 33 17 34
REMARK SMILES IDX 62 35 56 36 58 37 18 38 61 39 55 40 54 41 19 43 45 44 28 45
REMARK SMILES IDX 44 46 29 47 32 48 43 49 59 50 30 51 31 52 42 54 60 55 33 56
REMARK SMILES IDX 20 57 21 58 26 59 22 60 23 61 25 62 27 63 24 64 46 65 47 66
REMARK SMILES IDX 52 67 48 68 49 69 51 70 53 71 50 72 34 73 35 74 40 75 36 76
REMARK SMILES IDX 37 77 39 78 41 79 38 80
REMARK H PARENT 68 11 72 20 58 42 32 53
REMARK Flexibility Score: inf
ROOT
ATOM      1  C   UNL A   1      31.095  31.578  26.535  1.00  0.00     0.274 C 
ENDROOT
BRANCH   1   2
ATOM      2  O   UNL A   1      32.199  30.863  25.935  1.00  0.00    -0.461 OA
BRANCH   2   3
ATOM      3  C   UNL A   1      32.339  29.554  26.294  1.00  0.00     0.325 C 
ATOM      4  O   UNL A   1      31.758  29.048  27.245  1.00  0.00    -0.251 OA
BRANCH   3   5
ATOM      5  C   UNL A   1      33.229  28.778  25.377  1.00  0.00     0.230 C 
ATOM      6  C   UNL A   1      33.832  27.526  25.984  1.00  0.00     0.039 C 
BRANCH   5   7
ATOM      7  S   UNL A   1      32.496  28.548  23.769  1.00  0.00     0.225 S 
ATOM      8  O   UNL A   1      33.491  28.796  22.757  1.00  0.00    -0.212 OA
ATOM      9  O   UNL A   1      31.838  27.251  23.781  1.00  0.00    -0.212 OA
BRANCH   7  10
ATOM     10  N   UNL A   1      31.241  29.605  23.555  1.00  0.00    -0.212 NA
ATOM     11  H   UNL A   1      31.654  30.531  23.654  1.00  0.00     0.141 HD
BRANCH  10  12
ATOM     12  C   UNL A   1      30.372  29.700  22.378  1.00  0.00     0.136 C 
BRANCH  12  13
ATOM     13  C   UNL A   1      28.852  29.854  22.595  1.00  0.00     0.188 C 
ATOM     14  C   UNL A   1      28.061  30.453  21.419  1.00  0.00     0.295 C 
ATOM     15  O   UNL A   1      28.619  30.710  23.754  1.00  0.00    -0.365 OA
ATOM     16  N   UNL A   1      28.605  31.778  21.085  1.00  0.00    -0.333 N 
ATOM     17  C   UNL A   1      29.010  32.078  23.516  1.00  0.00     0.222 C 
ATOM     18  C   UNL A   1      28.028  32.305  19.854  1.00  0.00     0.332 C 
ATOM     19  C   UNL A   1      28.406  32.676  22.228  1.00  0.00     0.290 C 
ATOM     20  H   UNL A   1      29.607  31.699  20.905  1.00  0.00     0.348 HD
ENDBRANCH  12  13
ENDBRANCH  10  12
ENDBRANCH   7  10
ENDBRANCH   5   7
ENDBRANCH   3   5
ENDBRANCH   2   3
ENDBRANCH   1   2
BRANCH   1  21
ATOM     21  C   UNL A   1      31.432  33.032  26.874  1.00  0.00     0.275 C 
BRANCH  21  22
ATOM     22  O   UNL A   1      32.849  33.271  26.845  1.00  0.00    -0.458 OA
BRANCH  22  23
ATOM     23  C   UNL A   1      33.360  33.749  28.001  1.00  0.00     0.338 C 
ATOM     24  O   UNL A   1      32.844  34.554  28.762  1.00  0.00    -0.246 OA
BRANCH  23  25
ATOM     25  C   UNL A   1      34.597  33.035  28.335  1.00  0.00     0.060 A 
ATOM     26  C   UNL A   1      34.497  31.668  28.605  1.00  0.00     0.016 A 
ATOM     27  C   UNL A   1      35.806  33.708  28.500  1.00  0.00     0.016 A 
ATOM     28  C   UNL A   1      35.597  30.957  29.056  1.00  0.00     0.010 A 
ATOM     29  C   UNL A   1      36.911  33.000  28.978  1.00  0.00     0.010 A 
ATOM     30  C   UNL A   1      36.798  31.630  29.280  1.00  0.00    -0.014 A 
BRANCH  30  31
ATOM     31  C   UNL A   1      37.879  30.922  29.989  1.00  0.00     0.031 A 
ATOM     32  C   UNL A   1      38.097  31.221  31.442  1.00  0.00     0.074 A 
ATOM     33  C   UNL A   1      38.603  29.984  29.357  1.00  0.00     0.049 A 
ATOM     34  N   UNL A   1      39.052  30.819  32.236  1.00  0.00    -0.248 NA
ATOM     35  C   UNL A   1      37.099  32.090  32.086  1.00  0.00     0.031 C 
ATOM     36  C   UNL A   1      38.399  29.547  27.977  1.00  0.00     0.029 A 
ATOM     37  N   UNL A   1      39.658  29.232  29.800  1.00  0.00    -0.354 N 
ATOM     38  C   UNL A   1      38.787  31.406  33.465  1.00  0.00     0.074 A 
ATOM     39  C   UNL A   1      37.585  32.195  33.314  1.00  0.00     0.031 C 
ATOM     40  C   UNL A   1      39.317  28.612  27.677  1.00  0.00     0.029 A 
ATOM     41  C   UNL A   1      40.197  28.427  28.828  1.00  0.00     0.049 A 
ATOM     42  H   UNL A   1      39.996  29.265  30.724  1.00  0.00     0.167 HD
ATOM     43  C   UNL A   1      39.494  31.297  34.614  1.00  0.00     0.037 A 
ATOM     44  C   UNL A   1      41.303  27.660  28.861  1.00  0.00     0.037 A 
ATOM     45  C   UNL A   1      40.682  30.500  34.748  1.00  0.00     0.049 A 
ATOM     46  C   UNL A   1      42.114  27.614  30.125  1.00  0.00     0.074 A 
ATOM     47  C   UNL A   1      41.497  30.336  35.853  1.00  0.00     0.029 A 
ATOM     48  N   UNL A   1      41.222  29.724  33.732  1.00  0.00    -0.354 N 
ATOM     49  N   UNL A   1      41.896  28.217  31.270  1.00  0.00    -0.248 NA
ATOM     50  C   UNL A   1      43.330  26.792  30.101  1.00  0.00     0.031 C 
ATOM     51  C   UNL A   1      42.548  29.485  35.495  1.00  0.00     0.029 A 
ATOM     52  C   UNL A   1      42.366  29.088  34.179  1.00  0.00     0.049 A 
ATOM     53  H   UNL A   1      40.846  29.639  32.826  1.00  0.00     0.167 HD
ATOM     54  C   UNL A   1      42.936  27.836  32.107  1.00  0.00     0.074 A 
ATOM     55  C   UNL A   1      43.778  26.939  31.340  1.00  0.00     0.031 C 
ATOM     56  C   UNL A   1      43.179  28.197  33.391  1.00  0.00     0.037 A 
BRANCH  43  57
ATOM     57  C   UNL A   1      39.019  32.098  35.789  1.00  0.00     0.057 A 
ATOM     58  C   UNL A   1      38.192  31.551  36.776  1.00  0.00     0.134 A 
ATOM     59  C   UNL A   1      39.394  33.440  35.929  1.00  0.00     0.134 A 
ATOM     60  F   UNL A   1      37.777  30.278  36.687  1.00  0.00    -0.206 F 
ATOM     61  C   UNL A   1      37.738  32.315  37.853  1.00  0.00     0.040 A 
ATOM     62  C   UNL A   1      38.964  34.209  37.012  1.00  0.00     0.040 A 
ATOM     63  F   UNL A   1      40.181  34.027  35.015  1.00  0.00    -0.206 F 
ATOM     64  C   UNL A   1      38.129  33.648  37.975  1.00  0.00     0.006 A 
ENDBRANCH  43  57
BRANCH  44  65
ATOM     65  C   UNL A   1      41.725  26.919  27.647  1.00  0.00     0.057 A 
ATOM     66  C   UNL A   1      41.369  25.581  27.451  1.00  0.00     0.134 A 
ATOM     67  C   UNL A   1      42.498  27.535  26.654  1.00  0.00     0.134 A 
ATOM     68  F   UNL A   1      40.649  24.932  28.377  1.00  0.00    -0.206 F 
ATOM     69  C   UNL A   1      41.772  24.878  26.314  1.00  0.00     0.040 A 
ATOM     70  C   UNL A   1      42.889  26.851  25.502  1.00  0.00     0.040 A 
ATOM     71  F   UNL A   1      42.872  28.816  26.784  1.00  0.00    -0.206 F 
ATOM     72  C   UNL A   1      42.529  25.516  25.332  1.00  0.00     0.006 A 
ENDBRANCH  44  65
BRANCH  56  73
ATOM     73  C   UNL A   1      44.383  27.597  34.047  1.00  0.00     0.057 A 
ATOM     74  C   UNL A   1      45.620  28.250  34.050  1.00  0.00     0.134 A 
ATOM     75  C   UNL A   1      44.291  26.371  34.717  1.00  0.00     0.134 A 
ATOM     76  F   UNL A   1      45.773  29.421  33.414  1.00  0.00    -0.206 F 
ATOM     77  C   UNL A   1      46.732  27.695  34.684  1.00  0.00     0.040 A 
ATOM     78  C   UNL A   1      45.390  25.817  35.374  1.00  0.00     0.040 A 
ATOM     79  F   UNL A   1      43.130  25.701  34.757  1.00  0.00    -0.206 F 
ATOM     80  C   UNL A   1      46.617  26.478  35.353  1.00  0.00     0.006 A 
ENDBRANCH  56  73
ENDBRANCH  30  31
ENDBRANCH  23  25
ENDBRANCH  22  23
ENDBRANCH  21  22
ENDBRANCH   1  21
TORSDOF 15
ENDMDL
MODEL 2
REMARK VINA RESULT:     -10.6      1.139      6.529
REMARK SMILES C[C@H](C(=O)OCCOC(=O)c1ccc(-c2c3nc(c(-c4c(F)cccc4F)c4ccc([nH]4)c(-c4c(F)cccc4F)c4nc(c(-c5c(F)cccc5F)c5ccc2[nH]5)C=C4)C=C3)cc1)S(=O)(=O)NC[C@@H]1C[N@@H+](C)CCO1
REMARK SMILES IDX 6 1 5 2 3 3 4 4 2 5 1 6 65 7 66 8 67 9 68 10 69 12 70 13
REMARK SMILES IDX 71 14 76 15 72 16 75 17 73 18 74 19 7 21 8 22 9 23 10 24
REMARK SMILES IDX 11 25 12 26 64 27 13 28 63 29 14 30 15 31 16 32 57 33 17 34
REMARK SMILES IDX 62 35 56 36 58 37 18 38 61 39 55 40 54 41 19 43 45 44 28 45
REMARK SMILES IDX 44 46 29 47 32 48 43 49 59 50 30 51 31 52 42 54 60 55 33 56
REMARK SMILES IDX 20 57 21 58 26 59 22 60 23 61 25 62 27 63 24 64 46 65 47 66
REMARK SMILES IDX 52 67 48 68 49 69 51 70 53 71 50 72 34 73 35 74 40 75 36 76
REMARK SMILES IDX 37 77 39 78 41 79 38 80
REMARK H PARENT 68 11 72 20 58 42 32 53
REMARK Flexibility Score: inf
ROOT
ATOM      1  C   UNL A   1      31.787  28.533  27.282  1.00  0.00     0.274 C 
ENDROOT
BRANCH   1   2
ATOM      2  O   UNL A   1      31.309  27.654  26.238  1.00  0.00    -0.461 OA
BRANCH   2   3
ATOM      3  C   UNL A   1      32.261  26.985  25.527  1.00  0.00     0.325 C 
ATOM      4  O   UNL A   1      33.372  26.720  25.969  1.00  0.00    -0.251 OA
BRANCH   3   5
ATOM      5  C   UNL A   1      31.798  26.552  24.174  1.00  0.00     0.230 C 
ATOM      6  C   UNL A   1      30.349  26.109  24.109  1.00  0.00     0.039 C 
BRANCH   5   7
ATOM      7  S   UNL A   1      32.285  27.699  22.900  1.00  0.00     0.225 S 
ATOM      8  O   UNL A   1      32.876  28.861  23.513  1.00  0.00    -0.212 OA
ATOM      9  O   UNL A   1      33.077  26.955  21.935  1.00  0.00    -0.212 OA
BRANCH   7  10
ATOM     10  N   UNL A   1      30.966  28.172  22.020  1.00  0.00    -0.212 NA
ATOM     11  H   UNL A   1      30.224  27.524  22.285  1.00  0.00     0.141 HD
BRANCH  10  12
ATOM     12  C   UNL A   1      30.338  29.496  22.033  1.00  0.00     0.136 C 
BRANCH  12  13
ATOM     13  C   UNL A   1      28.810  29.586  22.230  1.00  0.00     0.188 C 
ATOM     14  C   UNL A   1      28.046  30.437  21.201  1.00  0.00     0.295 C 
ATOM     15  O   UNL A   1      28.531  30.148  23.548  1.00  0.00    -0.365 OA
ATOM     16  N   UNL A   1      28.582  31.807  21.201  1.00  0.00    -0.333 N 
ATOM     17  C   UNL A   1      28.910  31.536  23.647  1.00  0.00     0.222 C 
ATOM     18  C   UNL A   1      28.034  32.601  20.108  1.00  0.00     0.332 C 
ATOM     19  C   UNL A   1      28.336  32.413  22.515  1.00  0.00     0.290 C 
ATOM     20  H   UNL A   1      29.589  31.778  21.040  1.00  0.00     0.348 HD
ENDBRANCH  12  13
ENDBRANCH  10  12
ENDBRANCH   7  10
ENDBRANCH   5   7
ENDBRANCH   3   5
ENDBRANCH   2   3
ENDBRANCH   1   2
BRANCH   1  21
ATOM     21  C   UNL A   1      31.755  30.012  26.886  1.00  0.00     0.275 C 
BRANCH  21  22
ATOM     22  O   UNL A   1      33.052  30.485  26.487  1.00  0.00    -0.458 OA
BRANCH  22  23
ATOM     23  C   UNL A   1      33.510  31.535  27.203  1.00  0.00     0.338 C 
ATOM     24  O   UNL A   1      32.889  32.533  27.534  1.00  0.00    -0.246 OA
BRANCH  23  25
ATOM     25  C   UNL A   1      34.862  31.251  27.698  1.00  0.00     0.060 A 
ATOM     26  C   UNL A   1      35.179  29.919  27.973  1.00  0.00     0.016 A 
ATOM     27  C   UNL A   1      35.756  32.275  28.003  1.00  0.00     0.016 A 
ATOM     28  C   UNL A   1      36.386  29.591  28.568  1.00  0.00     0.010 A 
ATOM     29  C   UNL A   1      36.965  31.951  28.625  1.00  0.00     0.010 A 
ATOM     30  C   UNL A   1      37.266  30.610  28.930  1.00  0.00    -0.014 A 
BRANCH  30  31
ATOM     31  C   UNL A   1      38.424  30.272  29.779  1.00  0.00     0.031 A 
ATOM     32  C   UNL A   1      39.481  29.369  29.220  1.00  0.00     0.074 A 
ATOM     33  C   UNL A   1      38.552  30.820  30.998  1.00  0.00     0.049 A 
ATOM     34  N   UNL A   1      40.516  28.839  29.813  1.00  0.00    -0.248 NA
ATOM     35  C   UNL A   1      39.352  29.017  27.796  1.00  0.00     0.031 C 
ATOM     36  C   UNL A   1      37.633  31.791  31.590  1.00  0.00     0.029 A 
ATOM     37  N   UNL A   1      39.512  30.633  31.956  1.00  0.00    -0.354 N 
ATOM     38  C   UNL A   1      41.148  28.070  28.845  1.00  0.00     0.074 A 
ATOM     39  C   UNL A   1      40.380  28.199  27.627  1.00  0.00     0.031 C 
ATOM     40  C   UNL A   1      38.064  32.101  32.824  1.00  0.00     0.029 A 
ATOM     41  C   UNL A   1      39.258  31.314  33.121  1.00  0.00     0.049 A 
ATOM     42  H   UNL A   1      40.306  30.065  31.824  1.00  0.00     0.167 HD
ATOM     43  C   UNL A   1      42.268  27.321  28.971  1.00  0.00     0.037 A 
ATOM     44  C   UNL A   1      39.900  31.268  34.302  1.00  0.00     0.037 A 
ATOM     45  C   UNL A   1      43.023  27.214  30.189  1.00  0.00     0.049 A 
ATOM     46  C   UNL A   1      41.098  30.370  34.441  1.00  0.00     0.074 A 
ATOM     47  C   UNL A   1      44.157  26.463  30.443  1.00  0.00     0.029 A 
ATOM     48  N   UNL A   1      42.717  27.890  31.362  1.00  0.00    -0.354 N 
ATOM     49  N   UNL A   1      41.659  29.597  33.542  1.00  0.00    -0.248 NA
ATOM     50  C   UNL A   1      41.743  30.327  35.759  1.00  0.00     0.031 C 
ATOM     51  C   UNL A   1      44.517  26.661  31.781  1.00  0.00     0.029 A 
ATOM     52  C   UNL A   1      43.632  27.566  32.348  1.00  0.00     0.049 A 
ATOM     53  H   UNL A   1      41.960  28.510  31.475  1.00  0.00     0.167 HD
ATOM     54  C   UNL A   1      42.733  28.988  34.179  1.00  0.00     0.074 A 
ATOM     55  C   UNL A   1      42.750  29.493  35.538  1.00  0.00     0.031 C 
ATOM     56  C   UNL A   1      43.623  28.091  33.689  1.00  0.00     0.037 A 
BRANCH  43  57
ATOM     57  C   UNL A   1      42.700  26.530  27.774  1.00  0.00     0.057 A 
ATOM     58  C   UNL A   1      42.264  25.219  27.552  1.00  0.00     0.134 A 
ATOM     59  C   UNL A   1      43.571  27.091  26.831  1.00  0.00     0.134 A 
ATOM     60  F   UNL A   1      41.448  24.615  28.430  1.00  0.00    -0.206 F 
ATOM     61  C   UNL A   1      42.693  24.485  26.444  1.00  0.00     0.040 A 
ATOM     62  C   UNL A   1      43.991  26.376  25.709  1.00  0.00     0.040 A 
ATOM     63  F   UNL A   1      44.030  28.342  26.988  1.00  0.00    -0.206 F 
ATOM     64  C   UNL A   1      43.556  25.067  25.516  1.00  0.00     0.006 A 
ENDBRANCH  43  57
BRANCH  44  65
ATOM     65  C   UNL A   1      39.394  32.058  35.451  1.00  0.00     0.057 A 
ATOM     66  C   UNL A   1      39.839  33.362  35.689  1.00  0.00     0.134 A 
ATOM     67  C   UNL A   1      38.450  31.525  36.339  1.00  0.00     0.134 A 
ATOM     68  F   UNL A   1      40.757  33.919  34.886  1.00  0.00    -0.206 F 
ATOM     69  C   UNL A   1      39.371  34.106  36.774  1.00  0.00     0.040 A 
ATOM     70  C   UNL A   1      37.957  32.265  37.414  1.00  0.00     0.040 A 
ATOM     71  F   UNL A   1      37.984  30.279  36.165  1.00  0.00    -0.206 F 
ATOM     72  C   UNL A   1      38.421  33.559  37.636  1.00  0.00     0.006 A 
ENDBRANCH  44  65
BRANCH  56  73
ATOM     73  C   UNL A   1      44.699  27.626  34.621  1.00  0.00     0.057 A 
ATOM     74  C   UNL A   1      45.907  28.318  34.753  1.00  0.00     0.134 A 
ATOM     75  C   UNL A   1      44.504  26.496  35.424  1.00  0.00     0.134 A 
ATOM     76  F   UNL A   1      46.156  29.401  34.000  1.00  0.00    -0.206 F 
ATOM     77  C   UNL A   1      46.895  27.892  35.640  1.00  0.00     0.040 A 
ATOM     78  C   UNL A   1      45.475  26.072  36.331  1.00  0.00     0.040 A 
ATOM     79  F   UNL A   1      43.363  25.795  35.350  1.00  0.00    -0.206 F 
ATOM     80  C   UNL A   1      46.678  26.769  36.437  1.00  0.00     0.006 A 
ENDBRANCH  56  73
ENDBRANCH  30  31
ENDBRANCH  23  25
ENDBRANCH  22  23
ENDBRANCH  21  22
ENDBRANCH   1  21
TORSDOF 15
ENDMDL
MODEL 3
REMARK VINA RESULT:     -10.5      2.115      7.263
REMARK SMILES C[C@H](C(=O)OCCOC(=O)c1ccc(-c2c3nc(c(-c4c(F)cccc4F)c4ccc([nH]4)c(-c4c(F)cccc4F)c4nc(c(-c5c(F)cccc5F)c5ccc2[nH]5)C=C4)C=C3)cc1)S(=O)(=O)NC[C@@H]1C[N@@H+](C)CCO1
REMARK SMILES IDX 6 1 5 2 3 3 4 4 2 5 1 6 65 7 66 8 67 9 68 10 69 12 70 13
REMARK SMILES IDX 71 14 76 15 72 16 75 17 73 18 74 19 7 21 8 22 9 23 10 24
REMARK SMILES IDX 11 25 12 26 64 27 13 28 63 29 14 30 15 31 16 32 57 33 17 34
REMARK SMILES IDX 62 35 56 36 58 37 18 38 61 39 55 40 54 41 19 43 45 44 28 45
REMARK SMILES IDX 44 46 29 47 32 48 43 49 59 50 30 51 31 52 42 54 60 55 33 56
REMARK SMILES IDX 20 57 21 58 26 59 22 60 23 61 25 62 27 63 24 64 46 65 47 66
REMARK SMILES IDX 52 67 48 68 49 69 51 70 53 71 50 72 34 73 35 74 40 75 36 76
REMARK SMILES IDX 37 77 39 78 41 79 38 80
REMARK H PARENT 68 11 72 20 58 42 32 53
REMARK Flexibility Score: inf
ROOT
ATOM      1  C   UNL A   1      31.015  30.677  25.086  1.00  0.00     0.274 C 
ENDROOT
BRANCH   1   2
ATOM      2  O   UNL A   1      31.899  29.560  24.838  1.00  0.00    -0.461 OA
BRANCH   2   3
ATOM      3  C   UNL A   1      31.398  28.320  25.106  1.00  0.00     0.325 C 
ATOM      4  O   UNL A   1      30.442  27.836  24.515  1.00  0.00    -0.251 OA
BRANCH   3   5
ATOM      5  C   UNL A   1      32.167  27.581  26.154  1.00  0.00     0.230 C 
ATOM      6  C   UNL A   1      31.748  27.882  27.580  1.00  0.00     0.039 C 
BRANCH   5   7
ATOM      7  S   UNL A   1      32.324  25.848  25.773  1.00  0.00     0.225 S 
ATOM      8  O   UNL A   1      33.654  25.410  26.109  1.00  0.00    -0.212 OA
ATOM      9  O   UNL A   1      31.200  25.169  26.397  1.00  0.00    -0.212 OA
BRANCH   7  10
ATOM     10  N   UNL A   1      32.069  25.591  24.158  1.00  0.00    -0.212 NA
ATOM     11  H   UNL A   1      31.656  26.457  23.814  1.00  0.00     0.141 HD
BRANCH  10  12
ATOM     12  C   UNL A   1      33.082  25.230  23.162  1.00  0.00     0.136 C 
BRANCH  12  13
ATOM     13  C   UNL A   1      33.029  23.822  22.534  1.00  0.00     0.188 C 
ATOM     14  C   UNL A   1      32.184  22.779  23.287  1.00  0.00     0.295 C 
ATOM     15  O   UNL A   1      34.385  23.290  22.438  1.00  0.00    -0.365 OA
ATOM     16  N   UNL A   1      32.685  22.640  24.663  1.00  0.00    -0.333 N 
ATOM     17  C   UNL A   1      34.957  23.002  23.730  1.00  0.00     0.222 C 
ATOM     18  C   UNL A   1      31.801  21.818  25.480  1.00  0.00     0.332 C 
ATOM     19  C   UNL A   1      34.056  22.120  24.619  1.00  0.00     0.290 C 
ATOM     20  H   UNL A   1      32.699  23.557  25.113  1.00  0.00     0.348 HD
ENDBRANCH  12  13
ENDBRANCH  10  12
ENDBRANCH   7  10
ENDBRANCH   5   7
ENDBRANCH   3   5
ENDBRANCH   2   3
ENDBRANCH   1   2
BRANCH   1  21
ATOM     21  C   UNL A   1      31.347  31.434  26.375  1.00  0.00     0.275 C 
BRANCH  21  22
ATOM     22  O   UNL A   1      32.673  31.135  26.841  1.00  0.00    -0.458 OA
BRANCH  22  23
ATOM     23  C   UNL A   1      33.326  32.186  27.384  1.00  0.00     0.338 C 
ATOM     24  O   UNL A   1      32.876  33.297  27.617  1.00  0.00    -0.246 OA
BRANCH  23  25
ATOM     25  C   UNL A   1      34.660  31.770  27.830  1.00  0.00     0.060 A 
ATOM     26  C   UNL A   1      34.821  30.438  28.220  1.00  0.00     0.016 A 
ATOM     27  C   UNL A   1      35.698  32.688  27.982  1.00  0.00     0.016 A 
ATOM     28  C   UNL A   1      36.014  30.007  28.778  1.00  0.00     0.010 A 
ATOM     29  C   UNL A   1      36.894  32.263  28.567  1.00  0.00     0.010 A 
ATOM     30  C   UNL A   1      37.040  30.927  28.987  1.00  0.00    -0.014 A 
BRANCH  30  31
ATOM     31  C   UNL A   1      38.199  30.516  29.801  1.00  0.00     0.031 A 
ATOM     32  C   UNL A   1      39.212  29.596  29.190  1.00  0.00     0.074 A 
ATOM     33  C   UNL A   1      38.369  31.014  31.037  1.00  0.00     0.049 A 
ATOM     34  N   UNL A   1      40.237  29.008  29.744  1.00  0.00    -0.248 NA
ATOM     35  C   UNL A   1      39.045  29.302  27.757  1.00  0.00     0.031 C 
ATOM     36  C   UNL A   1      37.497  31.995  31.681  1.00  0.00     0.029 A 
ATOM     37  N   UNL A   1      39.338  30.756  31.969  1.00  0.00    -0.354 N 
ATOM     38  C   UNL A   1      40.822  28.252  28.737  1.00  0.00     0.074 A 
ATOM     39  C   UNL A   1      40.038  28.453  27.539  1.00  0.00     0.031 C 
ATOM     40  C   UNL A   1      37.962  32.244  32.917  1.00  0.00     0.029 A 
ATOM     41  C   UNL A   1      39.130  31.403  33.162  1.00  0.00     0.049 A 
ATOM     42  H   UNL A   1      40.108  30.165  31.801  1.00  0.00     0.167 HD
ATOM     43  C   UNL A   1      41.916  27.458  28.815  1.00  0.00     0.037 A 
ATOM     44  C   UNL A   1      39.791  31.290  34.329  1.00  0.00     0.037 A 
ATOM     45  C   UNL A   1      42.688  27.279  30.013  1.00  0.00     0.049 A 
ATOM     46  C   UNL A   1      40.957  30.344  34.412  1.00  0.00     0.074 A 
ATOM     47  C   UNL A   1      43.797  26.479  30.218  1.00  0.00     0.029 A 
ATOM     48  N   UNL A   1      42.428  27.923  31.215  1.00  0.00    -0.354 N 
ATOM     49  N   UNL A   1      41.473  29.585  33.475  1.00  0.00    -0.248 NA
ATOM     50  C   UNL A   1      41.623  30.230  35.715  1.00  0.00     0.031 C 
ATOM     51  C   UNL A   1      44.189  26.614  31.555  1.00  0.00     0.029 A 
ATOM     52  C   UNL A   1      43.347  27.529  32.171  1.00  0.00     0.049 A 
ATOM     53  H   UNL A   1      41.697  28.565  31.365  1.00  0.00     0.167 HD
ATOM     54  C   UNL A   1      42.535  28.915  34.069  1.00  0.00     0.074 A 
ATOM     55  C   UNL A   1      42.594  29.369  35.445  1.00  0.00     0.031 C 
ATOM     56  C   UNL A   1      43.382  28.004  33.531  1.00  0.00     0.037 A 
BRANCH  43  57
ATOM     57  C   UNL A   1      42.297  26.696  27.582  1.00  0.00     0.057 A 
ATOM     58  C   UNL A   1      41.846  25.393  27.344  1.00  0.00     0.134 A 
ATOM     59  C   UNL A   1      43.133  27.279  26.620  1.00  0.00     0.134 A 
ATOM     60  F   UNL A   1      41.063  24.771  28.237  1.00  0.00    -0.206 F 
ATOM     61  C   UNL A   1      42.229  24.687  26.201  1.00  0.00     0.040 A 
ATOM     62  C   UNL A   1      43.505  26.591  25.464  1.00  0.00     0.040 A 
ATOM     63  F   UNL A   1      43.603  28.523  26.790  1.00  0.00    -0.206 F 
ATOM     64  C   UNL A   1      43.057  25.288  25.255  1.00  0.00     0.006 A 
ENDBRANCH  43  57
BRANCH  44  65
ATOM     65  C   UNL A   1      39.335  32.056  35.514  1.00  0.00     0.057 A 
ATOM     66  C   UNL A   1      38.437  31.506  36.434  1.00  0.00     0.134 A 
ATOM     67  C   UNL A   1      39.788  33.360  35.754  1.00  0.00     0.134 A 
ATOM     68  F   UNL A   1      37.950  30.270  36.247  1.00  0.00    -0.206 F 
ATOM     69  C   UNL A   1      37.998  32.227  37.546  1.00  0.00     0.040 A 
ATOM     70  C   UNL A   1      39.376  34.084  36.873  1.00  0.00     0.040 A 
ATOM     71  F   UNL A   1      40.650  33.944  34.908  1.00  0.00    -0.206 F 
ATOM     72  C   UNL A   1      38.474  33.518  37.772  1.00  0.00     0.006 A 
ENDBRANCH  44  65
BRANCH  56  73
ATOM     73  C   UNL A   1      44.456  27.466  34.424  1.00  0.00     0.057 A 
ATOM     74  C   UNL A   1      44.275  26.295  35.168  1.00  0.00     0.134 A 
ATOM     75  C   UNL A   1      45.697  28.106  34.508  1.00  0.00     0.134 A 
ATOM     76  F   UNL A   1      43.101  25.645  35.138  1.00  0.00    -0.206 F 
ATOM     77  C   UNL A   1      45.288  25.787  35.981  1.00  0.00     0.040 A 
ATOM     78  C   UNL A   1      46.727  27.596  35.300  1.00  0.00     0.040 A 
ATOM     79  F   UNL A   1      45.935  29.228  33.813  1.00  0.00    -0.206 F 
ATOM     80  C   UNL A   1      46.521  26.436  36.044  1.00  0.00     0.006 A 
ENDBRANCH  56  73
ENDBRANCH  30  31
ENDBRANCH  23  25
ENDBRANCH  22  23
ENDBRANCH  21  22
ENDBRANCH   1  21
TORSDOF 15
ENDMDL
