MODEL 1
REMARK VINA RESULT:     -11.2      0.000      0.000
REMARK SMILES Cc1cc(C)c2c(=O)n(CCCC(=O)OCCOC(=O)c3ccc(-c4c5nc(c(-c6c(F)cccc6F)c6ccc([nH]6)c(-c6c(F)cccc6F)c6nc(c(-c7c(F)cccc7F)c7ccc4[nH]7)C=C6)C=C5)cc3)sc2n1
REMARK SMILES IDX 16 1 15 2 13 3 14 4 12 5 11 6 10 7 9 8 1 9 2 10 3 11 77 12
REMARK SMILES IDX 4 13 76 14 5 15 6 16 75 17 7 18 8 19 17 20 18 21 19 22 20 23
REMARK SMILES IDX 21 24 22 25 74 26 23 27 73 28 24 29 25 30 26 31 67 32 27 33
REMARK SMILES IDX 72 34 66 35 68 36 28 37 71 38 65 39 64 40 29 42 55 43 38 44
REMARK SMILES IDX 54 45 39 46 42 47 53 48 69 49 40 50 41 51 52 53 70 54 43 55
REMARK SMILES IDX 30 56 31 57 36 58 32 59 33 60 35 61 37 62 34 63 56 64 57 65
REMARK SMILES IDX 62 66 58 67 59 68 61 69 63 70 60 71 44 72 45 73 50 74 46 75
REMARK SMILES IDX 47 76 49 77 51 78 48 79
REMARK H PARENT 68 41 42 52
REMARK Flexibility Score: inf
ROOT
ATOM      1  C   UNL A   1      33.624  35.677  28.812  1.00  0.00     0.274 C 
ENDROOT
BRANCH   1   2
ATOM      2  O   UNL A   1      33.354  34.270  28.717  1.00  0.00    -0.462 OA
BRANCH   2   3
ATOM      3  C   UNL A   1      34.288  33.451  28.181  1.00  0.00     0.305 C 
ATOM      4  O   UNL A   1      35.192  33.822  27.441  1.00  0.00    -0.252 OA
BRANCH   3   5
ATOM      5  C   UNL A   1      34.064  31.990  28.538  1.00  0.00     0.124 C 
BRANCH   5   6
ATOM      6  C   UNL A   1      33.930  30.937  27.427  1.00  0.00     0.035 C 
BRANCH   6   7
ATOM      7  C   UNL A   1      32.592  30.779  26.686  1.00  0.00     0.139 C 
BRANCH   7   8
ATOM      8  N   UNL A   1      32.257  29.414  26.314  1.00  0.00    -0.262 N 
ATOM      9  C   UNL A   1      30.523  23.595  26.454  1.00  0.00     0.067 C 
ATOM     10  C   UNL A   1      30.790  24.986  25.970  1.00  0.00     0.039 A 
ATOM     11  C   UNL A   1      30.114  25.512  24.860  1.00  0.00     0.027 A 
ATOM     12  N   UNL A   1      31.670  25.705  26.696  1.00  0.00    -0.241 NA
ATOM     13  C   UNL A   1      30.300  26.855  24.489  1.00  0.00    -0.033 A 
ATOM     14  C   UNL A   1      31.813  26.986  26.325  1.00  0.00     0.146 A 
ATOM     15  C   UNL A   1      29.628  27.434  23.286  1.00  0.00     0.045 C 
ATOM     16  C   UNL A   1      31.137  27.611  25.295  1.00  0.00     0.081 A 
ATOM     17  S   UNL A   1      32.912  28.073  27.151  1.00  0.00    -0.035 S 
ATOM     18  C   UNL A   1      31.394  29.070  25.284  1.00  0.00     0.270 A 
ATOM     19  O   UNL A   1      30.856  29.836  24.495  1.00  0.00    -0.268 OA
ENDBRANCH   7   8
ENDBRANCH   6   7
ENDBRANCH   5   6
ENDBRANCH   3   5
ENDBRANCH   2   3
ENDBRANCH   1   2
BRANCH   1  20
ATOM     20  C   UNL A   1      32.988  36.242  30.071  1.00  0.00     0.275 C 
BRANCH  20  21
ATOM     21  O   UNL A   1      32.670  35.182  30.969  1.00  0.00    -0.458 OA
BRANCH  21  22
ATOM     22  C   UNL A   1      32.923  35.450  32.268  1.00  0.00     0.338 C 
ATOM     23  O   UNL A   1      32.350  36.242  32.994  1.00  0.00    -0.246 OA
BRANCH  22  24
ATOM     24  C   UNL A   1      34.125  34.733  32.681  1.00  0.00     0.060 A 
ATOM     25  C   UNL A   1      35.261  35.492  32.982  1.00  0.00     0.016 A 
ATOM     26  C   UNL A   1      34.175  33.350  32.478  1.00  0.00     0.016 A 
ATOM     27  C   UNL A   1      36.491  34.880  32.902  1.00  0.00     0.010 A 
ATOM     28  C   UNL A   1      35.401  32.746  32.384  1.00  0.00     0.010 A 
ATOM     29  C   UNL A   1      36.541  33.536  32.518  1.00  0.00    -0.014 A 
BRANCH  29  30
ATOM     30  C   UNL A   1      37.835  32.945  32.273  1.00  0.00     0.031 A 
ATOM     31  C   UNL A   1      38.734  32.935  33.447  1.00  0.00     0.074 A 
ATOM     32  C   UNL A   1      38.107  32.318  31.115  1.00  0.00     0.049 A 
ATOM     33  N   UNL A   1      39.903  33.469  33.563  1.00  0.00    -0.248 NA
ATOM     34  C   UNL A   1      38.211  32.341  34.689  1.00  0.00     0.031 C 
ATOM     35  C   UNL A   1      37.183  31.984  30.026  1.00  0.00     0.029 A 
ATOM     36  N   UNL A   1      39.267  31.731  30.726  1.00  0.00    -0.354 N 
ATOM     37  C   UNL A   1      40.343  33.129  34.838  1.00  0.00     0.074 A 
ATOM     38  C   UNL A   1      39.215  32.568  35.533  1.00  0.00     0.031 C 
ATOM     39  C   UNL A   1      37.762  31.064  29.222  1.00  0.00     0.029 A 
ATOM     40  C   UNL A   1      39.129  30.850  29.666  1.00  0.00     0.049 A 
ATOM     41  H   UNL A   1      40.131  31.914  31.161  1.00  0.00     0.167 HD
ATOM     42  C   UNL A   1      41.662  33.127  35.159  1.00  0.00     0.037 A 
ATOM     43  C   UNL A   1      40.055  29.950  29.257  1.00  0.00     0.037 A 
ATOM     44  C   UNL A   1      42.440  33.905  34.237  1.00  0.00     0.049 A 
ATOM     45  C   UNL A   1      41.364  30.364  29.824  1.00  0.00     0.074 A 
ATOM     46  C   UNL A   1      42.445  35.233  33.860  1.00  0.00     0.029 A 
ATOM     47  N   UNL A   1      43.159  33.237  33.277  1.00  0.00    -0.354 N 
ATOM     48  N   UNL A   1      42.019  31.432  29.466  1.00  0.00    -0.248 NA
ATOM     49  C   UNL A   1      41.752  29.800  31.110  1.00  0.00     0.031 C 
ATOM     50  C   UNL A   1      42.757  35.223  32.470  1.00  0.00     0.029 A 
ATOM     51  C   UNL A   1      42.956  33.893  32.091  1.00  0.00     0.049 A 
ATOM     52  H   UNL A   1      43.715  32.437  33.415  1.00  0.00     0.167 HD
ATOM     53  C   UNL A   1      42.596  31.908  30.634  1.00  0.00     0.074 A 
ATOM     54  C   UNL A   1      42.484  30.809  31.589  1.00  0.00     0.031 C 
ATOM     55  C   UNL A   1      42.855  33.237  30.807  1.00  0.00     0.037 A 
BRANCH  42  56
ATOM     56  C   UNL A   1      42.279  32.137  36.108  1.00  0.00     0.057 A 
ATOM     57  C   UNL A   1      43.011  32.600  37.212  1.00  0.00     0.134 A 
ATOM     58  C   UNL A   1      42.415  30.763  35.823  1.00  0.00     0.134 A 
ATOM     59  F   UNL A   1      42.987  33.896  37.560  1.00  0.00    -0.206 F 
ATOM     60  C   UNL A   1      43.856  31.764  37.950  1.00  0.00     0.040 A 
ATOM     61  C   UNL A   1      43.211  29.908  36.586  1.00  0.00     0.040 A 
ATOM     62  F   UNL A   1      41.870  30.199  34.737  1.00  0.00    -0.206 F 
ATOM     63  C   UNL A   1      43.959  30.413  37.637  1.00  0.00     0.006 A 
ENDBRANCH  42  56
BRANCH  43  64
ATOM     64  C   UNL A   1      39.823  28.602  28.692  1.00  0.00     0.057 A 
ATOM     65  C   UNL A   1      40.336  28.248  27.438  1.00  0.00     0.134 A 
ATOM     66  C   UNL A   1      39.320  27.546  29.474  1.00  0.00     0.134 A 
ATOM     67  F   UNL A   1      40.876  29.178  26.638  1.00  0.00    -0.206 F 
ATOM     68  C   UNL A   1      40.365  26.920  26.993  1.00  0.00     0.040 A 
ATOM     69  C   UNL A   1      39.333  26.218  29.038  1.00  0.00     0.040 A 
ATOM     70  F   UNL A   1      38.880  27.754  30.723  1.00  0.00    -0.206 F 
ATOM     71  C   UNL A   1      39.871  25.897  27.799  1.00  0.00     0.006 A 
ENDBRANCH  43  64
BRANCH  55  72
ATOM     72  C   UNL A   1      42.750  34.142  29.611  1.00  0.00     0.057 A 
ATOM     73  C   UNL A   1      41.578  34.820  29.250  1.00  0.00     0.134 A 
ATOM     74  C   UNL A   1      43.922  34.492  28.930  1.00  0.00     0.134 A 
ATOM     75  F   UNL A   1      40.430  34.622  29.910  1.00  0.00    -0.206 F 
ATOM     76  C   UNL A   1      41.568  35.786  28.239  1.00  0.00     0.040 A 
ATOM     77  C   UNL A   1      43.932  35.479  27.941  1.00  0.00     0.040 A 
ATOM     78  F   UNL A   1      45.093  33.925  29.263  1.00  0.00    -0.206 F 
ATOM     79  C   UNL A   1      42.751  36.126  27.590  1.00  0.00     0.006 A 
ENDBRANCH  55  72
ENDBRANCH  29  30
ENDBRANCH  22  24
ENDBRANCH  21  22
ENDBRANCH  20  21
ENDBRANCH   1  20
TORSDOF 14
ENDMDL
MODEL 2
REMARK VINA RESULT:     -11.0      6.176     10.893
REMARK SMILES Cc1cc(C)c2c(=O)n(CCCC(=O)OCCOC(=O)c3ccc(-c4c5nc(c(-c6c(F)cccc6F)c6ccc([nH]6)c(-c6c(F)cccc6F)c6nc(c(-c7c(F)cccc7F)c7ccc4[nH]7)C=C6)C=C5)cc3)sc2n1
REMARK SMILES IDX 16 1 15 2 13 3 14 4 12 5 11 6 10 7 9 8 1 9 2 10 3 11 77 12
REMARK SMILES IDX 4 13 76 14 5 15 6 16 75 17 7 18 8 19 17 20 18 21 19 22 20 23
REMARK SMILES IDX 21 24 22 25 74 26 23 27 73 28 24 29 25 30 26 31 67 32 27 33
REMARK SMILES IDX 72 34 66 35 68 36 28 37 71 38 65 39 64 40 29 42 55 43 38 44
REMARK SMILES IDX 54 45 39 46 42 47 53 48 69 49 40 50 41 51 52 53 70 54 43 55
REMARK SMILES IDX 30 56 31 57 36 58 32 59 33 60 35 61 37 62 34 63 56 64 57 65
REMARK SMILES IDX 62 66 58 67 59 68 61 69 63 70 60 71 44 72 45 73 50 74 46 75
REMARK SMILES IDX 47 76 49 77 51 78 48 79
REMARK H PARENT 68 41 42 52
REMARK Flexibility Score: inf
ROOT
ATOM      1  C   UNL A   1      42.716  18.668  26.518  1.00  0.00     0.274 C 
ENDROOT
BRANCH   1   2
ATOM      2  O   UNL A   1      41.716  19.616  26.112  1.00  0.00    -0.462 OA
BRANCH   2   3
ATOM      3  C   UNL A   1      41.675  20.831  26.706  1.00  0.00     0.305 C 
ATOM      4  O   UNL A   1      42.299  21.128  27.718  1.00  0.00    -0.252 OA
BRANCH   3   5
ATOM      5  C   UNL A   1      40.710  21.786  26.023  1.00  0.00     0.124 C 
BRANCH   5   6
ATOM      6  C   UNL A   1      39.403  22.192  26.722  1.00  0.00     0.035 C 
BRANCH   6   7
ATOM      7  C   UNL A   1      38.415  23.127  26.005  1.00  0.00     0.139 C 
BRANCH   7   8
ATOM      8  N   UNL A   1      37.214  22.479  25.504  1.00  0.00    -0.262 N 
ATOM      9  C   UNL A   1      32.613  18.612  24.625  1.00  0.00     0.067 C 
ATOM     10  C   UNL A   1      33.423  19.870  24.666  1.00  0.00     0.039 A 
ATOM     11  C   UNL A   1      32.807  21.131  24.666  1.00  0.00     0.027 A 
ATOM     12  N   UNL A   1      34.758  19.711  24.757  1.00  0.00    -0.241 NA
ATOM     13  C   UNL A   1      33.581  22.295  24.814  1.00  0.00    -0.033 A 
ATOM     14  C   UNL A   1      35.465  20.840  24.912  1.00  0.00     0.146 A 
ATOM     15  C   UNL A   1      32.960  23.655  24.776  1.00  0.00     0.045 C 
ATOM     16  C   UNL A   1      34.943  22.117  24.997  1.00  0.00     0.081 A 
ATOM     17  S   UNL A   1      37.213  20.830  25.047  1.00  0.00    -0.035 S 
ATOM     18  C   UNL A   1      35.985  23.106  25.358  1.00  0.00     0.270 A 
ATOM     19  O   UNL A   1      35.743  24.291  25.545  1.00  0.00    -0.268 OA
ENDBRANCH   7   8
ENDBRANCH   6   7
ENDBRANCH   5   6
ENDBRANCH   3   5
ENDBRANCH   2   3
ENDBRANCH   1   2
BRANCH   1  20
ATOM     20  C   UNL A   1      43.779  18.545  25.440  1.00  0.00     0.275 C 
BRANCH  20  21
ATOM     21  O   UNL A   1      44.649  19.673  25.488  1.00  0.00    -0.458 OA
BRANCH  21  22
ATOM     22  C   UNL A   1      44.634  20.443  24.379  1.00  0.00     0.338 C 
ATOM     23  O   UNL A   1      44.549  20.082  23.218  1.00  0.00    -0.246 OA
BRANCH  22  24
ATOM     24  C   UNL A   1      44.887  21.830  24.754  1.00  0.00     0.060 A 
ATOM     25  C   UNL A   1      45.792  22.066  25.795  1.00  0.00     0.016 A 
ATOM     26  C   UNL A   1      44.018  22.815  24.273  1.00  0.00     0.016 A 
ATOM     27  C   UNL A   1      45.698  23.256  26.479  1.00  0.00     0.010 A 
ATOM     28  C   UNL A   1      43.916  23.993  24.965  1.00  0.00     0.010 A 
ATOM     29  C   UNL A   1      44.700  24.162  26.104  1.00  0.00    -0.014 A 
BRANCH  29  30
ATOM     30  C   UNL A   1      44.496  25.330  26.928  1.00  0.00     0.031 A 
ATOM     31  C   UNL A   1      45.539  26.369  26.784  1.00  0.00     0.074 A 
ATOM     32  C   UNL A   1      43.361  25.499  27.628  1.00  0.00     0.049 A 
ATOM     33  N   UNL A   1      46.308  26.861  27.696  1.00  0.00    -0.248 NA
ATOM     34  C   UNL A   1      45.833  26.842  25.421  1.00  0.00     0.031 C 
ATOM     35  C   UNL A   1      42.135  24.695  27.577  1.00  0.00     0.029 A 
ATOM     36  N   UNL A   1      43.024  26.522  28.454  1.00  0.00    -0.354 N 
ATOM     37  C   UNL A   1      47.066  27.836  27.057  1.00  0.00     0.074 A 
ATOM     38  C   UNL A   1      46.842  27.680  25.645  1.00  0.00     0.031 C 
ATOM     39  C   UNL A   1      41.128  25.387  28.155  1.00  0.00     0.029 A 
ATOM     40  C   UNL A   1      41.668  26.612  28.722  1.00  0.00     0.049 A 
ATOM     41  H   UNL A   1      43.685  27.147  28.829  1.00  0.00     0.167 HD
ATOM     42  C   UNL A   1      47.654  28.847  27.747  1.00  0.00     0.037 A 
ATOM     43  C   UNL A   1      41.039  27.669  29.289  1.00  0.00     0.037 A 
ATOM     44  C   UNL A   1      47.773  28.544  29.145  1.00  0.00     0.049 A 
ATOM     45  C   UNL A   1      42.072  28.496  29.964  1.00  0.00     0.074 A 
ATOM     46  C   UNL A   1      48.419  27.561  29.868  1.00  0.00     0.029 A 
ATOM     47  N   UNL A   1      46.871  29.114  30.008  1.00  0.00    -0.354 N 
ATOM     48  N   UNL A   1      42.738  28.126  31.023  1.00  0.00    -0.248 NA
ATOM     49  C   UNL A   1      42.673  29.583  29.203  1.00  0.00     0.031 C 
ATOM     50  C   UNL A   1      47.555  27.278  30.964  1.00  0.00     0.029 A 
ATOM     51  C   UNL A   1      46.452  28.129  30.864  1.00  0.00     0.049 A 
ATOM     52  H   UNL A   1      46.577  30.054  30.010  1.00  0.00     0.167 HD
ATOM     53  C   UNL A   1      44.015  28.633  30.838  1.00  0.00     0.074 A 
ATOM     54  C   UNL A   1      43.888  29.605  29.756  1.00  0.00     0.031 C 
ATOM     55  C   UNL A   1      45.107  28.018  31.382  1.00  0.00     0.037 A 
BRANCH  42  56
ATOM     56  C   UNL A   1      47.800  30.241  27.203  1.00  0.00     0.057 A 
ATOM     57  C   UNL A   1      49.055  30.867  27.230  1.00  0.00     0.134 A 
ATOM     58  C   UNL A   1      46.707  31.085  26.915  1.00  0.00     0.134 A 
ATOM     59  F   UNL A   1      50.164  30.173  27.527  1.00  0.00    -0.206 F 
ATOM     60  C   UNL A   1      49.206  32.244  27.033  1.00  0.00     0.040 A 
ATOM     61  C   UNL A   1      46.853  32.449  26.661  1.00  0.00     0.040 A 
ATOM     62  F   UNL A   1      45.439  30.658  26.965  1.00  0.00    -0.206 F 
ATOM     63  C   UNL A   1      48.102  33.040  26.749  1.00  0.00     0.006 A 
ENDBRANCH  42  56
BRANCH  43  64
ATOM     64  C   UNL A   1      39.676  28.172  29.008  1.00  0.00     0.057 A 
ATOM     65  C   UNL A   1      38.680  28.143  29.992  1.00  0.00     0.134 A 
ATOM     66  C   UNL A   1      39.387  28.931  27.859  1.00  0.00     0.134 A 
ATOM     67  F   UNL A   1      38.879  27.482  31.141  1.00  0.00    -0.206 F 
ATOM     68  C   UNL A   1      37.474  28.842  29.852  1.00  0.00     0.040 A 
ATOM     69  C   UNL A   1      38.184  29.626  27.702  1.00  0.00     0.040 A 
ATOM     70  F   UNL A   1      40.297  29.098  26.889  1.00  0.00    -0.206 F 
ATOM     71  C   UNL A   1      37.227  29.595  28.707  1.00  0.00     0.006 A 
ENDBRANCH  43  64
BRANCH  55  72
ATOM     72  C   UNL A   1      44.879  26.938  32.400  1.00  0.00     0.057 A 
ATOM     73  C   UNL A   1      44.698  25.586  32.073  1.00  0.00     0.134 A 
ATOM     74  C   UNL A   1      45.052  27.245  33.755  1.00  0.00     0.134 A 
ATOM     75  F   UNL A   1      44.621  25.186  30.798  1.00  0.00    -0.206 F 
ATOM     76  C   UNL A   1      44.666  24.590  33.053  1.00  0.00     0.040 A 
ATOM     77  C   UNL A   1      45.055  26.255  34.740  1.00  0.00     0.040 A 
ATOM     78  F   UNL A   1      45.288  28.511  34.137  1.00  0.00    -0.206 F 
ATOM     79  C   UNL A   1      44.858  24.922  34.390  1.00  0.00     0.006 A 
ENDBRANCH  55  72
ENDBRANCH  29  30
ENDBRANCH  22  24
ENDBRANCH  21  22
ENDBRANCH  20  21
ENDBRANCH   1  20
TORSDOF 14
ENDMDL
MODEL 3
REMARK VINA RESULT:     -11.0      1.272      1.895
REMARK SMILES Cc1cc(C)c2c(=O)n(CCCC(=O)OCCOC(=O)c3ccc(-c4c5nc(c(-c6c(F)cccc6F)c6ccc([nH]6)c(-c6c(F)cccc6F)c6nc(c(-c7c(F)cccc7F)c7ccc4[nH]7)C=C6)C=C5)cc3)sc2n1
REMARK SMILES IDX 16 1 15 2 13 3 14 4 12 5 11 6 10 7 9 8 1 9 2 10 3 11 77 12
REMARK SMILES IDX 4 13 76 14 5 15 6 16 75 17 7 18 8 19 17 20 18 21 19 22 20 23
REMARK SMILES IDX 21 24 22 25 74 26 23 27 73 28 24 29 25 30 26 31 67 32 27 33
REMARK SMILES IDX 72 34 66 35 68 36 28 37 71 38 65 39 64 40 29 42 55 43 38 44
REMARK SMILES IDX 54 45 39 46 42 47 53 48 69 49 40 50 41 51 52 53 70 54 43 55
REMARK SMILES IDX 30 56 31 57 36 58 32 59 33 60 35 61 37 62 34 63 56 64 57 65
REMARK SMILES IDX 62 66 58 67 59 68 61 69 63 70 60 71 44 72 45 73 50 74 46 75
REMARK SMILES IDX 47 76 49 77 51 78 48 79
REMARK H PARENT 68 41 42 52
REMARK Flexibility Score: inf
ROOT
ATOM      1  C   UNL A   1      33.462  35.941  28.734  1.00  0.00     0.274 C 
ENDROOT
BRANCH   1   2
ATOM      2  O   UNL A   1      33.947  34.594  28.849  1.00  0.00    -0.462 OA
BRANCH   2   3
ATOM      3  C   UNL A   1      33.432  33.633  28.048  1.00  0.00     0.305 C 
ATOM      4  O   UNL A   1      32.299  33.654  27.582  1.00  0.00    -0.252 OA
BRANCH   3   5
ATOM      5  C   UNL A   1      34.388  32.471  27.834  1.00  0.00     0.124 C 
BRANCH   5   6
ATOM      6  C   UNL A   1      33.896  31.025  28.004  1.00  0.00     0.035 C 
BRANCH   6   7
ATOM      7  C   UNL A   1      34.227  29.977  26.929  1.00  0.00     0.139 C 
BRANCH   7   8
ATOM      8  N   UNL A   1      33.124  29.638  26.045  1.00  0.00    -0.262 N 
ATOM      9  C   UNL A   1      28.578  29.921  22.027  1.00  0.00     0.067 C 
ATOM     10  C   UNL A   1      29.719  29.405  22.847  1.00  0.00     0.039 A 
ATOM     11  C   UNL A   1      30.462  28.288  22.436  1.00  0.00     0.027 A 
ATOM     12  N   UNL A   1      30.014  30.107  23.959  1.00  0.00    -0.241 NA
ATOM     13  C   UNL A   1      31.595  27.886  23.164  1.00  0.00    -0.033 A 
ATOM     14  C   UNL A   1      31.108  29.707  24.621  1.00  0.00     0.146 A 
ATOM     15  C   UNL A   1      32.383  26.676  22.777  1.00  0.00     0.045 C 
ATOM     16  C   UNL A   1      31.943  28.668  24.255  1.00  0.00     0.081 A 
ATOM     17  S   UNL A   1      31.646  30.499  26.090  1.00  0.00    -0.035 S 
ATOM     18  C   UNL A   1      33.158  28.623  25.101  1.00  0.00     0.270 A 
ATOM     19  O   UNL A   1      34.065  27.821  24.922  1.00  0.00    -0.268 OA
ENDBRANCH   7   8
ENDBRANCH   6   7
ENDBRANCH   5   6
ENDBRANCH   3   5
ENDBRANCH   2   3
ENDBRANCH   1   2
BRANCH   1  20
ATOM     20  C   UNL A   1      32.923  36.412  30.073  1.00  0.00     0.275 C 
BRANCH  20  21
ATOM     21  O   UNL A   1      32.581  35.287  30.879  1.00  0.00    -0.458 OA
BRANCH  21  22
ATOM     22  C   UNL A   1      32.757  35.470  32.205  1.00  0.00     0.338 C 
ATOM     23  O   UNL A   1      32.120  36.191  32.953  1.00  0.00    -0.246 OA
BRANCH  22  24
ATOM     24  C   UNL A   1      33.961  34.765  32.631  1.00  0.00     0.060 A 
ATOM     25  C   UNL A   1      35.084  35.535  32.954  1.00  0.00     0.016 A 
ATOM     26  C   UNL A   1      34.031  33.384  32.419  1.00  0.00     0.016 A 
ATOM     27  C   UNL A   1      36.322  34.938  32.888  1.00  0.00     0.010 A 
ATOM     28  C   UNL A   1      35.265  32.795  32.340  1.00  0.00     0.010 A 
ATOM     29  C   UNL A   1      36.393  33.598  32.496  1.00  0.00    -0.014 A 
BRANCH  29  30
ATOM     30  C   UNL A   1      37.698  33.024  32.266  1.00  0.00     0.031 A 
ATOM     31  C   UNL A   1      38.579  33.013  33.453  1.00  0.00     0.074 A 
ATOM     32  C   UNL A   1      37.995  32.410  31.106  1.00  0.00     0.049 A 
ATOM     33  N   UNL A   1      39.740  33.560  33.592  1.00  0.00    -0.248 NA
ATOM     34  C   UNL A   1      38.044  32.403  34.682  1.00  0.00     0.031 C 
ATOM     35  C   UNL A   1      37.092  32.075  30.000  1.00  0.00     0.029 A 
ATOM     36  N   UNL A   1      39.168  31.839  30.731  1.00  0.00    -0.354 N 
ATOM     37  C   UNL A   1      40.164  33.213  34.870  1.00  0.00     0.074 A 
ATOM     38  C   UNL A   1      39.032  32.634  35.544  1.00  0.00     0.031 C 
ATOM     39  C   UNL A   1      37.694  31.169  29.197  1.00  0.00     0.029 A 
ATOM     40  C   UNL A   1      39.057  30.967  29.661  1.00  0.00     0.049 A 
ATOM     41  H   UNL A   1      40.023  32.028  31.180  1.00  0.00     0.167 HD
ATOM     42  C   UNL A   1      41.478  33.224  35.213  1.00  0.00     0.037 A 
ATOM     43  C   UNL A   1      39.999  30.081  29.258  1.00  0.00     0.037 A 
ATOM     44  C   UNL A   1      42.261  34.019  34.309  1.00  0.00     0.049 A 
ATOM     45  C   UNL A   1      41.294  30.504  29.850  1.00  0.00     0.074 A 
ATOM     46  C   UNL A   1      42.257  35.350  33.944  1.00  0.00     0.029 A 
ATOM     47  N   UNL A   1      43.003  33.368  33.355  1.00  0.00    -0.354 N 
ATOM     48  N   UNL A   1      41.943  31.583  29.510  1.00  0.00    -0.248 NA
ATOM     49  C   UNL A   1      41.669  29.934  31.137  1.00  0.00     0.031 C 
ATOM     50  C   UNL A   1      42.590  35.355  32.559  1.00  0.00     0.029 A 
ATOM     51  C   UNL A   1      42.810  34.031  32.171  1.00  0.00     0.049 A 
ATOM     52  H   UNL A   1      43.566  32.572  33.494  1.00  0.00     0.167 HD
ATOM     53  C   UNL A   1      42.495  32.055  30.692  1.00  0.00     0.074 A 
ATOM     54  C   UNL A   1      42.382  30.947  31.636  1.00  0.00     0.031 C 
ATOM     55  C   UNL A   1      42.736  33.386  30.880  1.00  0.00     0.037 A 
BRANCH  42  56
ATOM     56  C   UNL A   1      42.091  32.233  36.162  1.00  0.00     0.057 A 
ATOM     57  C   UNL A   1      42.802  32.693  37.281  1.00  0.00     0.134 A 
ATOM     58  C   UNL A   1      42.246  30.862  35.868  1.00  0.00     0.134 A 
ATOM     59  F   UNL A   1      42.760  33.986  37.639  1.00  0.00    -0.206 F 
ATOM     60  C   UNL A   1      43.645  31.860  38.024  1.00  0.00     0.040 A 
ATOM     61  C   UNL A   1      43.040  30.009  36.635  1.00  0.00     0.040 A 
ATOM     62  F   UNL A   1      41.724  30.301  34.769  1.00  0.00    -0.206 F 
ATOM     63  C   UNL A   1      43.768  30.513  37.701  1.00  0.00     0.006 A 
ENDBRANCH  42  56
BRANCH  43  64
ATOM     64  C   UNL A   1      39.791  28.735  28.678  1.00  0.00     0.057 A 
ATOM     65  C   UNL A   1      40.372  28.380  27.454  1.00  0.00     0.134 A 
ATOM     66  C   UNL A   1      39.238  27.681  29.428  1.00  0.00     0.134 A 
ATOM     67  F   UNL A   1      40.962  29.309  26.688  1.00  0.00    -0.206 F 
ATOM     68  C   UNL A   1      40.418  27.053  27.009  1.00  0.00     0.040 A 
ATOM     69  C   UNL A   1      39.269  26.353  28.991  1.00  0.00     0.040 A 
ATOM     70  F   UNL A   1      38.730  27.889  30.651  1.00  0.00    -0.206 F 
ATOM     71  C   UNL A   1      39.873  26.032  27.784  1.00  0.00     0.006 A 
ENDBRANCH  43  64
BRANCH  55  72
ATOM     72  C   UNL A   1      42.640  34.300  29.691  1.00  0.00     0.057 A 
ATOM     73  C   UNL A   1      43.673  34.476  28.760  1.00  0.00     0.134 A 
ATOM     74  C   UNL A   1      41.396  34.857  29.372  1.00  0.00     0.134 A 
ATOM     75  F   UNL A   1      44.869  33.898  28.932  1.00  0.00    -0.206 F 
ATOM     76  C   UNL A   1      43.482  35.194  27.575  1.00  0.00     0.040 A 
ATOM     77  C   UNL A   1      41.184  35.549  28.177  1.00  0.00     0.040 A 
ATOM     78  F   UNL A   1      40.345  34.679  30.189  1.00  0.00    -0.206 F 
ATOM     79  C   UNL A   1      42.230  35.722  27.276  1.00  0.00     0.006 A 
ENDBRANCH  55  72
ENDBRANCH  29  30
ENDBRANCH  22  24
ENDBRANCH  21  22
ENDBRANCH  20  21
ENDBRANCH   1  20
TORSDOF 14
ENDMDL
