MODEL 1
REMARK VINA RESULT:     -12.7      0.000      0.000
REMARK SMILES CC1=C([C@H](NC(=O)[C@@H]2C=C(c3ccccc3)NN2C)C(=O)OCCOC(=O)c2ccc(-c3c4nc(c(-c5c(F)cccc5F)c5ccc([nH]5)c(-c5c(F)cccc5F)c5nc(c(-c6c(F)cccc6F)c6ccc3[nH]6)C=C5)C=C4)cc2)[C@@H](C)N=N1
REMARK SMILES IDX 23 1 22 2 20 3 21 4 4 5 3 6 1 7 2 8 85 9 82 10 84 11 83 12
REMARK SMILES IDX 5 13 6 14 7 16 8 17 9 18 18 19 10 20 17 21 19 22 11 24 12 25
REMARK SMILES IDX 16 26 13 27 15 28 14 29 24 30 25 31 26 32 27 33 28 34 29 35
REMARK SMILES IDX 81 36 30 37 80 38 31 39 32 40 33 41 74 42 34 43 79 44 73 45
REMARK SMILES IDX 75 46 35 47 78 48 72 49 71 50 36 52 62 53 45 54 61 55 46 56
REMARK SMILES IDX 49 57 60 58 76 59 47 60 48 61 59 63 77 64 50 65 37 66 38 67
REMARK SMILES IDX 43 68 39 69 40 70 42 71 44 72 41 73 63 74 64 75 69 76 65 77
REMARK SMILES IDX 66 78 68 79 70 80 67 81 51 82 52 83 57 84 53 85 54 86 56 87
REMARK SMILES IDX 58 88 55 89
REMARK H PARENT 5 15 17 23 75 51 49 62
REMARK Flexibility Score: inf
ROOT
ATOM      1  C   UNL A   1      36.740  21.459  25.413  1.00  0.00     0.274 C 
ENDROOT
BRANCH   1   2
ATOM      2  O   UNL A   1      35.833  21.639  24.316  1.00  0.00    -0.460 OA
BRANCH   2   3
ATOM      3  C   UNL A   1      35.850  22.771  23.555  1.00  0.00     0.333 C 
ATOM      4  O   UNL A   1      36.721  23.040  22.736  1.00  0.00    -0.249 OA
BRANCH   3   5
ATOM      5  C   UNL A   1      34.542  23.595  23.768  1.00  0.00     0.223 C 
BRANCH   5   6
ATOM      6  C   UNL A   1      33.361  23.070  24.527  1.00  0.00     0.012 C 
ATOM      7  C   UNL A   1      32.134  21.752  22.705  1.00  0.00     0.069 C 
ATOM      8  C   UNL A   1      32.396  22.243  24.088  1.00  0.00     0.064 C 
ATOM      9  N   UNL A   1      31.532  21.859  25.080  1.00  0.00    -0.160 NA
ATOM     10  C   UNL A   1      32.969  23.366  25.942  1.00  0.00     0.156 C 
ATOM     11  N   UNL A   1      31.848  22.406  26.167  1.00  0.00    -0.181 NA
ATOM     12  C   UNL A   1      32.415  24.750  26.245  1.00  0.00     0.040 C 
ENDBRANCH   5   6
BRANCH   5  13
ATOM     13  N   UNL A   1      34.135  24.341  22.560  1.00  0.00    -0.338 N 
ATOM     14  C   UNL A   1      33.350  25.424  22.307  1.00  0.00     0.244 C 
ATOM     15  H   UNL A   1      34.525  23.962  21.739  1.00  0.00     0.164 HD
ATOM     16  O   UNL A   1      33.107  25.614  21.101  1.00  0.00    -0.273 OA
BRANCH  14  17
ATOM     17  C   UNL A   1      32.732  26.400  23.361  1.00  0.00     0.191 C 
ATOM     18  C   UNL A   1      31.288  26.759  23.262  1.00  0.00     0.031 C 
ATOM     19  N   UNL A   1      33.444  27.738  23.285  1.00  0.00    -0.210 NA
ATOM     20  C   UNL A   1      31.168  28.071  23.028  1.00  0.00     0.054 C 
ATOM     21  N   UNL A   1      32.394  28.671  23.084  1.00  0.00    -0.318 N 
ATOM     22  C   UNL A   1      34.077  28.037  24.572  1.00  0.00     0.132 C 
ATOM     23  H   UNL A   1      32.534  29.642  22.994  1.00  0.00     0.182 HD
BRANCH  20  24
ATOM     24  C   UNL A   1      29.953  28.772  22.599  1.00  0.00    -0.001 A 
ATOM     25  C   UNL A   1      30.007  29.938  21.836  1.00  0.00     0.010 A 
ATOM     26  C   UNL A   1      28.700  28.368  23.083  1.00  0.00     0.010 A 
ATOM     27  C   UNL A   1      28.849  30.695  21.617  1.00  0.00     0.001 A 
ATOM     28  C   UNL A   1      27.550  29.138  22.906  1.00  0.00     0.001 A 
ATOM     29  C   UNL A   1      27.628  30.310  22.172  1.00  0.00     0.000 A 
ENDBRANCH  20  24
ENDBRANCH  14  17
ENDBRANCH   5  13
ENDBRANCH   3   5
ENDBRANCH   2   3
ENDBRANCH   1   2
BRANCH   1  30
ATOM     30  C   UNL A   1      37.850  20.521  25.017  1.00  0.00     0.275 C 
BRANCH  30  31
ATOM     31  O   UNL A   1      39.038  20.978  25.640  1.00  0.00    -0.458 OA
BRANCH  31  32
ATOM     32  C   UNL A   1      40.059  20.096  25.717  1.00  0.00     0.338 C 
ATOM     33  O   UNL A   1      40.036  18.889  25.561  1.00  0.00    -0.246 OA
BRANCH  32  34
ATOM     34  C   UNL A   1      41.169  20.813  26.337  1.00  0.00     0.060 A 
ATOM     35  C   UNL A   1      41.171  20.739  27.730  1.00  0.00     0.016 A 
ATOM     36  C   UNL A   1      41.746  21.873  25.622  1.00  0.00     0.016 A 
ATOM     37  C   UNL A   1      41.487  21.879  28.416  1.00  0.00     0.010 A 
ATOM     38  C   UNL A   1      41.996  23.029  26.303  1.00  0.00     0.010 A 
ATOM     39  C   UNL A   1      41.798  23.028  27.682  1.00  0.00    -0.014 A 
BRANCH  39  40
ATOM     40  C   UNL A   1      42.097  24.218  28.428  1.00  0.00     0.031 A 
ATOM     41  C   UNL A   1      41.057  25.245  28.246  1.00  0.00     0.074 A 
ATOM     42  C   UNL A   1      43.127  24.311  29.279  1.00  0.00     0.049 A 
ATOM     43  N   UNL A   1      41.156  26.369  27.624  1.00  0.00    -0.248 NA
ATOM     44  C   UNL A   1      39.685  24.879  28.637  1.00  0.00     0.031 C 
ATOM     45  C   UNL A   1      43.992  23.238  29.774  1.00  0.00     0.029 A 
ATOM     46  N   UNL A   1      43.535  25.400  29.975  1.00  0.00    -0.354 N 
ATOM     47  C   UNL A   1      39.897  26.944  27.731  1.00  0.00     0.074 A 
ATOM     48  C   UNL A   1      38.995  25.906  28.150  1.00  0.00     0.031 C 
ATOM     49  C   UNL A   1      44.677  23.695  30.847  1.00  0.00     0.029 A 
ATOM     50  C   UNL A   1      44.382  25.108  31.027  1.00  0.00     0.049 A 
ATOM     51  H   UNL A   1      43.254  26.316  29.750  1.00  0.00     0.167 HD
ATOM     52  C   UNL A   1      39.747  28.291  27.769  1.00  0.00     0.037 A 
ATOM     53  C   UNL A   1      44.723  25.963  32.019  1.00  0.00     0.037 A 
ATOM     54  C   UNL A   1      40.913  28.964  27.258  1.00  0.00     0.049 A 
ATOM     55  C   UNL A   1      44.415  27.342  31.558  1.00  0.00     0.074 A 
ATOM     56  C   UNL A   1      41.567  28.999  26.044  1.00  0.00     0.029 A 
ATOM     57  N   UNL A   1      41.788  29.467  28.187  1.00  0.00    -0.354 N 
ATOM     58  N   UNL A   1      45.056  27.962  30.606  1.00  0.00    -0.248 NA
ATOM     59  C   UNL A   1      43.123  27.921  31.905  1.00  0.00     0.031 C 
ATOM     60  C   UNL A   1      42.947  29.171  26.359  1.00  0.00     0.029 A 
ATOM     61  C   UNL A   1      43.068  29.250  27.748  1.00  0.00     0.049 A 
ATOM     62  H   UNL A   1      41.539  29.913  29.028  1.00  0.00     0.167 HD
ATOM     63  C   UNL A   1      44.093  28.727  29.964  1.00  0.00     0.074 A 
ATOM     64  C   UNL A   1      42.972  28.780  30.893  1.00  0.00     0.031 C 
ATOM     65  C   UNL A   1      44.190  28.999  28.628  1.00  0.00     0.037 A 
BRANCH  52  66
ATOM     66  C   UNL A   1      38.737  28.973  28.654  1.00  0.00     0.057 A 
ATOM     67  C   UNL A   1      38.765  28.715  30.032  1.00  0.00     0.134 A 
ATOM     68  C   UNL A   1      37.579  29.633  28.187  1.00  0.00     0.134 A 
ATOM     69  F   UNL A   1      39.799  28.068  30.589  1.00  0.00    -0.206 F 
ATOM     70  C   UNL A   1      37.693  29.038  30.873  1.00  0.00     0.040 A 
ATOM     71  C   UNL A   1      36.532  30.013  29.027  1.00  0.00     0.040 A 
ATOM     72  F   UNL A   1      37.344  29.854  26.889  1.00  0.00    -0.206 F 
ATOM     73  C   UNL A   1      36.571  29.687  30.370  1.00  0.00     0.006 A 
ENDBRANCH  52  66
BRANCH  53  74
ATOM     74  C   UNL A   1      45.042  25.644  33.426  1.00  0.00     0.057 A 
ATOM     75  C   UNL A   1      44.026  25.421  34.363  1.00  0.00     0.134 A 
ATOM     76  C   UNL A   1      46.346  25.310  33.835  1.00  0.00     0.134 A 
ATOM     77  F   UNL A   1      42.745  25.666  34.049  1.00  0.00    -0.206 F 
ATOM     78  C   UNL A   1      44.288  24.886  35.630  1.00  0.00     0.040 A 
ATOM     79  C   UNL A   1      46.624  24.788  35.101  1.00  0.00     0.040 A 
ATOM     80  F   UNL A   1      47.384  25.398  32.991  1.00  0.00    -0.206 F 
ATOM     81  C   UNL A   1      45.590  24.562  36.000  1.00  0.00     0.006 A 
ENDBRANCH  53  74
BRANCH  65  82
ATOM     82  C   UNL A   1      45.527  28.776  27.979  1.00  0.00     0.057 A 
ATOM     83  C   UNL A   1      46.563  29.721  27.971  1.00  0.00     0.134 A 
ATOM     84  C   UNL A   1      45.814  27.516  27.444  1.00  0.00     0.134 A 
ATOM     85  F   UNL A   1      46.414  30.919  28.552  1.00  0.00    -0.206 F 
ATOM     86  C   UNL A   1      47.809  29.441  27.403  1.00  0.00     0.040 A 
ATOM     87  C   UNL A   1      47.067  27.210  26.908  1.00  0.00     0.040 A 
ATOM     88  F   UNL A   1      44.890  26.542  27.473  1.00  0.00    -0.206 F 
ATOM     89  C   UNL A   1      48.066  28.180  26.874  1.00  0.00     0.006 A 
ENDBRANCH  65  82
ENDBRANCH  39  40
ENDBRANCH  32  34
ENDBRANCH  31  32
ENDBRANCH  30  31
ENDBRANCH   1  30
TORSDOF 15
ENDMDL
MODEL 2
REMARK VINA RESULT:     -12.6      4.034      8.898
REMARK SMILES CC1=C([C@H](NC(=O)[C@@H]2C=C(c3ccccc3)NN2C)C(=O)OCCOC(=O)c2ccc(-c3c4nc(c(-c5c(F)cccc5F)c5ccc([nH]5)c(-c5c(F)cccc5F)c5nc(c(-c6c(F)cccc6F)c6ccc3[nH]6)C=C5)C=C4)cc2)[C@@H](C)N=N1
REMARK SMILES IDX 23 1 22 2 20 3 21 4 4 5 3 6 1 7 2 8 85 9 82 10 84 11 83 12
REMARK SMILES IDX 5 13 6 14 7 16 8 17 9 18 18 19 10 20 17 21 19 22 11 24 12 25
REMARK SMILES IDX 16 26 13 27 15 28 14 29 24 30 25 31 26 32 27 33 28 34 29 35
REMARK SMILES IDX 81 36 30 37 80 38 31 39 32 40 33 41 74 42 34 43 79 44 73 45
REMARK SMILES IDX 75 46 35 47 78 48 72 49 71 50 36 52 62 53 45 54 61 55 46 56
REMARK SMILES IDX 49 57 60 58 76 59 47 60 48 61 59 63 77 64 50 65 37 66 38 67
REMARK SMILES IDX 43 68 39 69 40 70 42 71 44 72 41 73 63 74 64 75 69 76 65 77
REMARK SMILES IDX 66 78 68 79 70 80 67 81 51 82 52 83 57 84 53 85 54 86 56 87
REMARK SMILES IDX 58 88 55 89
REMARK H PARENT 5 15 17 23 75 51 49 62
REMARK Flexibility Score: inf
ROOT
ATOM      1  C   UNL A   1      31.849  29.585  26.870  1.00  0.00     0.274 C 
ENDROOT
BRANCH   1   2
ATOM      2  O   UNL A   1      32.441  28.842  25.795  1.00  0.00    -0.460 OA
BRANCH   2   3
ATOM      3  C   UNL A   1      33.506  28.015  26.001  1.00  0.00     0.333 C 
ATOM      4  O   UNL A   1      34.432  28.259  26.765  1.00  0.00    -0.249 OA
BRANCH   3   5
ATOM      5  C   UNL A   1      33.305  26.665  25.245  1.00  0.00     0.223 C 
BRANCH   5   6
ATOM      6  C   UNL A   1      32.604  26.565  23.924  1.00  0.00     0.012 C 
ATOM      7  C   UNL A   1      34.071  28.066  22.457  1.00  0.00     0.069 C 
ATOM      8  C   UNL A   1      32.973  27.101  22.749  1.00  0.00     0.064 C 
ATOM      9  N   UNL A   1      32.170  26.709  21.709  1.00  0.00    -0.160 NA
ATOM     10  C   UNL A   1      31.316  25.865  23.616  1.00  0.00     0.156 C 
ATOM     11  N   UNL A   1      31.257  25.952  22.127  1.00  0.00    -0.181 NA
ATOM     12  C   UNL A   1      30.030  26.495  24.132  1.00  0.00     0.040 C 
ENDBRANCH   5   6
BRANCH   5  13
ATOM     13  N   UNL A   1      32.943  25.553  26.148  1.00  0.00    -0.338 N 
ATOM     14  C   UNL A   1      33.222  24.222  26.211  1.00  0.00     0.244 C 
ATOM     15  H   UNL A   1      32.356  25.847  26.882  1.00  0.00     0.164 HD
ATOM     16  O   UNL A   1      32.542  23.592  27.040  1.00  0.00    -0.273 OA
BRANCH  14  17
ATOM     17  C   UNL A   1      34.269  23.444  25.348  1.00  0.00     0.191 C 
ATOM     18  C   UNL A   1      33.809  22.310  24.496  1.00  0.00     0.031 C 
ATOM     19  N   UNL A   1      35.305  22.816  26.260  1.00  0.00    -0.210 NA
ATOM     20  C   UNL A   1      34.374  21.173  24.922  1.00  0.00     0.054 C 
ATOM     21  N   UNL A   1      35.280  21.441  25.909  1.00  0.00    -0.318 N 
ATOM     22  C   UNL A   1      36.634  23.342  25.939  1.00  0.00     0.132 C 
ATOM     23  H   UNL A   1      35.851  20.758  26.329  1.00  0.00     0.182 HD
BRANCH  20  24
ATOM     24  C   UNL A   1      33.985  19.811  24.542  1.00  0.00    -0.001 A 
ATOM     25  C   UNL A   1      34.867  18.736  24.652  1.00  0.00     0.010 A 
ATOM     26  C   UNL A   1      32.755  19.582  23.907  1.00  0.00     0.010 A 
ATOM     27  C   UNL A   1      34.542  17.493  24.092  1.00  0.00     0.001 A 
ATOM     28  C   UNL A   1      32.442  18.361  23.310  1.00  0.00     0.001 A 
ATOM     29  C   UNL A   1      33.343  17.313  23.400  1.00  0.00     0.000 A 
ENDBRANCH  20  24
ENDBRANCH  14  17
ENDBRANCH   5  13
ENDBRANCH   3   5
ENDBRANCH   2   3
ENDBRANCH   1   2
BRANCH   1  30
ATOM     30  C   UNL A   1      31.928  31.062  26.582  1.00  0.00     0.275 C 
BRANCH  30  31
ATOM     31  O   UNL A   1      32.864  31.623  27.485  1.00  0.00    -0.458 OA
BRANCH  31  32
ATOM     32  C   UNL A   1      32.713  32.935  27.776  1.00  0.00     0.338 C 
ATOM     33  O   UNL A   1      31.910  33.727  27.321  1.00  0.00    -0.246 OA
BRANCH  32  34
ATOM     34  C   UNL A   1      33.904  33.324  28.524  1.00  0.00     0.060 A 
ATOM     35  C   UNL A   1      34.923  33.837  27.720  1.00  0.00     0.016 A 
ATOM     36  C   UNL A   1      34.138  32.700  29.758  1.00  0.00     0.016 A 
ATOM     37  C   UNL A   1      36.202  33.453  28.013  1.00  0.00     0.010 A 
ATOM     38  C   UNL A   1      35.406  32.262  30.011  1.00  0.00     0.010 A 
ATOM     39  C   UNL A   1      36.403  32.592  29.097  1.00  0.00    -0.014 A 
BRANCH  39  40
ATOM     40  C   UNL A   1      37.753  32.182  29.364  1.00  0.00     0.031 A 
ATOM     41  C   UNL A   1      37.972  30.772  28.997  1.00  0.00     0.074 A 
ATOM     42  C   UNL A   1      38.710  33.027  29.769  1.00  0.00     0.049 A 
ATOM     43  N   UNL A   1      38.182  29.773  29.784  1.00  0.00    -0.248 NA
ATOM     44  C   UNL A   1      37.726  30.405  27.592  1.00  0.00     0.031 C 
ATOM     45  C   UNL A   1      38.664  34.489  29.821  1.00  0.00     0.029 A 
ATOM     46  N   UNL A   1      39.988  32.733  30.111  1.00  0.00    -0.354 N 
ATOM     47  C   UNL A   1      38.303  28.678  28.939  1.00  0.00     0.074 A 
ATOM     48  C   UNL A   1      37.794  29.078  27.657  1.00  0.00     0.031 C 
ATOM     49  C   UNL A   1      39.925  34.957  29.969  1.00  0.00     0.029 A 
ATOM     50  C   UNL A   1      40.829  33.829  30.135  1.00  0.00     0.049 A 
ATOM     51  H   UNL A   1      40.290  31.820  30.324  1.00  0.00     0.167 HD
ATOM     52  C   UNL A   1      39.093  27.627  29.272  1.00  0.00     0.037 A 
ATOM     53  C   UNL A   1      42.180  33.781  30.193  1.00  0.00     0.037 A 
ATOM     54  C   UNL A   1      39.378  27.608  30.683  1.00  0.00     0.049 A 
ATOM     55  C   UNL A   1      42.567  32.426  30.666  1.00  0.00     0.074 A 
ATOM     56  C   UNL A   1      38.622  27.493  31.831  1.00  0.00     0.029 A 
ATOM     57  N   UNL A   1      40.600  28.096  31.069  1.00  0.00    -0.354 N 
ATOM     58  N   UNL A   1      42.355  31.978  31.873  1.00  0.00    -0.248 NA
ATOM     59  C   UNL A   1      42.867  31.400  29.674  1.00  0.00     0.031 C 
ATOM     60  C   UNL A   1      39.297  28.275  32.812  1.00  0.00     0.029 A 
ATOM     61  C   UNL A   1      40.441  28.817  32.223  1.00  0.00     0.049 A 
ATOM     62  H   UNL A   1      41.452  27.950  30.597  1.00  0.00     0.167 HD
ATOM     63  C   UNL A   1      42.083  30.627  31.712  1.00  0.00     0.074 A 
ATOM     64  C   UNL A   1      42.560  30.304  30.374  1.00  0.00     0.031 C 
ATOM     65  C   UNL A   1      41.239  29.976  32.566  1.00  0.00     0.037 A 
BRANCH  52  66
ATOM     66  C   UNL A   1      39.935  26.893  28.262  1.00  0.00     0.057 A 
ATOM     67  C   UNL A   1      40.852  27.621  27.490  1.00  0.00     0.134 A 
ATOM     68  C   UNL A   1      39.688  25.574  27.819  1.00  0.00     0.134 A 
ATOM     69  F   UNL A   1      41.147  28.893  27.793  1.00  0.00    -0.206 F 
ATOM     70  C   UNL A   1      41.433  27.095  26.329  1.00  0.00     0.040 A 
ATOM     71  C   UNL A   1      40.308  25.021  26.699  1.00  0.00     0.040 A 
ATOM     72  F   UNL A   1      38.761  24.785  28.375  1.00  0.00    -0.206 F 
ATOM     73  C   UNL A   1      41.160  25.793  25.929  1.00  0.00     0.006 A 
ENDBRANCH  52  66
BRANCH  53  74
ATOM     74  C   UNL A   1      43.150  34.731  29.611  1.00  0.00     0.057 A 
ATOM     75  C   UNL A   1      43.748  35.723  30.397  1.00  0.00     0.134 A 
ATOM     76  C   UNL A   1      43.699  34.541  28.330  1.00  0.00     0.134 A 
ATOM     77  F   UNL A   1      43.323  35.948  31.649  1.00  0.00    -0.206 F 
ATOM     78  C   UNL A   1      44.837  36.476  29.942  1.00  0.00     0.040 A 
ATOM     79  C   UNL A   1      44.777  35.293  27.857  1.00  0.00     0.040 A 
ATOM     80  F   UNL A   1      43.265  33.560  27.525  1.00  0.00    -0.206 F 
ATOM     81  C   UNL A   1      45.359  36.257  28.669  1.00  0.00     0.006 A 
ENDBRANCH  53  74
BRANCH  65  82
ATOM     82  C   UNL A   1      40.928  30.653  33.871  1.00  0.00     0.057 A 
ATOM     83  C   UNL A   1      41.730  30.554  35.017  1.00  0.00     0.134 A 
ATOM     84  C   UNL A   1      39.840  31.529  33.933  1.00  0.00     0.134 A 
ATOM     85  F   UNL A   1      42.851  29.820  35.019  1.00  0.00    -0.206 F 
ATOM     86  C   UNL A   1      41.427  31.253  36.189  1.00  0.00     0.040 A 
ATOM     87  C   UNL A   1      39.547  32.261  35.085  1.00  0.00     0.040 A 
ATOM     88  F   UNL A   1      39.064  31.720  32.854  1.00  0.00    -0.206 F 
ATOM     89  C   UNL A   1      40.334  32.113  36.224  1.00  0.00     0.006 A 
ENDBRANCH  65  82
ENDBRANCH  39  40
ENDBRANCH  32  34
ENDBRANCH  31  32
ENDBRANCH  30  31
ENDBRANCH   1  30
TORSDOF 15
ENDMDL
MODEL 3
REMARK VINA RESULT:     -12.6      4.050      8.794
REMARK SMILES CC1=C([C@H](NC(=O)[C@@H]2C=C(c3ccccc3)NN2C)C(=O)OCCOC(=O)c2ccc(-c3c4nc(c(-c5c(F)cccc5F)c5ccc([nH]5)c(-c5c(F)cccc5F)c5nc(c(-c6c(F)cccc6F)c6ccc3[nH]6)C=C5)C=C4)cc2)[C@@H](C)N=N1
REMARK SMILES IDX 23 1 22 2 20 3 21 4 4 5 3 6 1 7 2 8 85 9 82 10 84 11 83 12
REMARK SMILES IDX 5 13 6 14 7 16 8 17 9 18 18 19 10 20 17 21 19 22 11 24 12 25
REMARK SMILES IDX 16 26 13 27 15 28 14 29 24 30 25 31 26 32 27 33 28 34 29 35
REMARK SMILES IDX 81 36 30 37 80 38 31 39 32 40 33 41 74 42 34 43 79 44 73 45
REMARK SMILES IDX 75 46 35 47 78 48 72 49 71 50 36 52 62 53 45 54 61 55 46 56
REMARK SMILES IDX 49 57 60 58 76 59 47 60 48 61 59 63 77 64 50 65 37 66 38 67
REMARK SMILES IDX 43 68 39 69 40 70 42 71 44 72 41 73 63 74 64 75 69 76 65 77
REMARK SMILES IDX 66 78 68 79 70 80 67 81 51 82 52 83 57 84 53 85 54 86 56 87
REMARK SMILES IDX 58 88 55 89
REMARK H PARENT 5 15 17 23 75 51 49 62
REMARK Flexibility Score: inf
ROOT
ATOM      1  C   UNL A   1      31.917  29.724  27.089  1.00  0.00     0.274 C 
ENDROOT
BRANCH   1   2
ATOM      2  O   UNL A   1      32.137  28.935  25.910  1.00  0.00    -0.460 OA
BRANCH   2   3
ATOM      3  C   UNL A   1      33.086  27.956  25.874  1.00  0.00     0.333 C 
ATOM      4  O   UNL A   1      34.162  28.015  26.457  1.00  0.00    -0.249 OA
BRANCH   3   5
ATOM      5  C   UNL A   1      32.551  26.703  25.113  1.00  0.00     0.223 C 
BRANCH   5   6
ATOM      6  C   UNL A   1      33.004  26.330  23.734  1.00  0.00     0.012 C 
ATOM      7  C   UNL A   1      32.894  28.591  22.537  1.00  0.00     0.069 C 
ATOM      8  C   UNL A   1      33.209  27.142  22.683  1.00  0.00     0.064 C 
ATOM      9  N   UNL A   1      33.746  26.490  21.603  1.00  0.00    -0.160 NA
ATOM     10  C   UNL A   1      33.308  24.963  23.202  1.00  0.00     0.156 C 
ATOM     11  N   UNL A   1      33.891  25.268  21.861  1.00  0.00    -0.181 NA
ATOM     12  C   UNL A   1      32.136  24.025  22.956  1.00  0.00     0.040 C 
ENDBRANCH   5   6
BRANCH   5  13
ATOM     13  N   UNL A   1      31.098  26.506  25.288  1.00  0.00    -0.338 N 
ATOM     14  C   UNL A   1      30.309  25.561  25.870  1.00  0.00     0.244 C 
ATOM     15  H   UNL A   1      30.572  27.234  24.885  1.00  0.00     0.164 HD
ATOM     16  O   UNL A   1      29.096  25.677  25.619  1.00  0.00    -0.273 OA
BRANCH  14  17
ATOM     17  C   UNL A   1      30.781  24.376  26.775  1.00  0.00     0.191 C 
ATOM     18  C   UNL A   1      32.236  24.061  26.859  1.00  0.00     0.031 C 
ATOM     19  N   UNL A   1      30.159  23.085  26.277  1.00  0.00    -0.210 NA
ATOM     20  C   UNL A   1      32.458  22.836  26.364  1.00  0.00     0.054 C 
ATOM     21  N   UNL A   1      31.272  22.230  26.064  1.00  0.00    -0.318 N 
ATOM     22  C   UNL A   1      29.328  22.496  27.330  1.00  0.00     0.132 C 
ATOM     23  H   UNL A   1      31.196  21.305  25.737  1.00  0.00     0.182 HD
BRANCH  20  24
ATOM     24  C   UNL A   1      33.761  22.261  26.014  1.00  0.00    -0.001 A 
ATOM     25  C   UNL A   1      34.935  23.012  26.065  1.00  0.00     0.010 A 
ATOM     26  C   UNL A   1      33.836  20.972  25.465  1.00  0.00     0.010 A 
ATOM     27  C   UNL A   1      36.126  22.502  25.532  1.00  0.00     0.001 A 
ATOM     28  C   UNL A   1      35.007  20.474  24.893  1.00  0.00     0.001 A 
ATOM     29  C   UNL A   1      36.157  21.246  24.924  1.00  0.00     0.000 A 
ENDBRANCH  20  24
ENDBRANCH  14  17
ENDBRANCH   5  13
ENDBRANCH   3   5
ENDBRANCH   2   3
ENDBRANCH   1   2
BRANCH   1  30
ATOM     30  C   UNL A   1      31.968  31.190  26.745  1.00  0.00     0.275 C 
BRANCH  30  31
ATOM     31  O   UNL A   1      33.011  31.771  27.507  1.00  0.00    -0.458 OA
BRANCH  31  32
ATOM     32  C   UNL A   1      32.836  33.054  27.894  1.00  0.00     0.338 C 
ATOM     33  O   UNL A   1      32.002  33.855  27.517  1.00  0.00    -0.246 OA
BRANCH  32  34
ATOM     34  C   UNL A   1      34.039  33.422  28.635  1.00  0.00     0.060 A 
ATOM     35  C   UNL A   1      35.051  33.945  27.830  1.00  0.00     0.016 A 
ATOM     36  C   UNL A   1      34.284  32.771  29.853  1.00  0.00     0.016 A 
ATOM     37  C   UNL A   1      36.332  33.548  28.099  1.00  0.00     0.010 A 
ATOM     38  C   UNL A   1      35.552  32.321  30.083  1.00  0.00     0.010 A 
ATOM     39  C   UNL A   1      36.540  32.665  29.163  1.00  0.00    -0.014 A 
BRANCH  39  40
ATOM     40  C   UNL A   1      37.891  32.242  29.406  1.00  0.00     0.031 A 
ATOM     41  C   UNL A   1      38.083  30.823  29.059  1.00  0.00     0.074 A 
ATOM     42  C   UNL A   1      38.868  33.081  29.772  1.00  0.00     0.049 A 
ATOM     43  N   UNL A   1      38.299  29.835  29.859  1.00  0.00    -0.248 NA
ATOM     44  C   UNL A   1      37.799  30.433  27.668  1.00  0.00     0.031 C 
ATOM     45  C   UNL A   1      38.841  34.544  29.799  1.00  0.00     0.029 A 
ATOM     46  N   UNL A   1      40.150  32.777  30.090  1.00  0.00    -0.354 N 
ATOM     47  C   UNL A   1      38.386  28.724  29.033  1.00  0.00     0.074 A 
ATOM     48  C   UNL A   1      37.852  29.107  27.755  1.00  0.00     0.031 C 
ATOM     49  C   UNL A   1      40.111  34.998  29.908  1.00  0.00     0.029 A 
ATOM     50  C   UNL A   1      41.005  33.862  30.074  1.00  0.00     0.049 A 
ATOM     51  H   UNL A   1      40.446  31.864  30.312  1.00  0.00     0.167 HD
ATOM     52  C   UNL A   1      39.171  27.669  29.365  1.00  0.00     0.037 A 
ATOM     53  C   UNL A   1      42.356  33.797  30.101  1.00  0.00     0.037 A 
ATOM     54  C   UNL A   1      39.489  27.671  30.769  1.00  0.00     0.049 A 
ATOM     55  C   UNL A   1      42.737  32.446  30.589  1.00  0.00     0.074 A 
ATOM     56  C   UNL A   1      38.759  27.587  31.937  1.00  0.00     0.029 A 
ATOM     57  N   UNL A   1      40.726  28.150  31.118  1.00  0.00    -0.354 N 
ATOM     58  N   UNL A   1      42.549  32.023  31.808  1.00  0.00    -0.248 NA
ATOM     59  C   UNL A   1      43.000  31.399  29.609  1.00  0.00     0.031 C 
ATOM     60  C   UNL A   1      39.467  28.378  32.887  1.00  0.00     0.029 A 
ATOM     61  C   UNL A   1      40.604  28.894  32.262  1.00  0.00     0.049 A 
ATOM     62  H   UNL A   1      41.564  27.985  30.628  1.00  0.00     0.167 HD
ATOM     63  C   UNL A   1      42.256  30.673  31.678  1.00  0.00     0.074 A 
ATOM     64  C   UNL A   1      42.697  30.319  30.336  1.00  0.00     0.031 C 
ATOM     65  C   UNL A   1      41.424  30.048  32.564  1.00  0.00     0.037 A 
BRANCH  52  66
ATOM     66  C   UNL A   1      39.979  26.906  28.349  1.00  0.00     0.057 A 
ATOM     67  C   UNL A   1      40.884  27.608  27.541  1.00  0.00     0.134 A 
ATOM     68  C   UNL A   1      39.706  25.582  27.939  1.00  0.00     0.134 A 
ATOM     69  F   UNL A   1      41.201  28.883  27.812  1.00  0.00    -0.206 F 
ATOM     70  C   UNL A   1      41.430  27.054  26.377  1.00  0.00     0.040 A 
ATOM     71  C   UNL A   1      40.292  25.000  26.815  1.00  0.00     0.040 A 
ATOM     72  F   UNL A   1      38.785  24.814  28.533  1.00  0.00    -0.206 F 
ATOM     73  C   UNL A   1      41.132  25.747  26.009  1.00  0.00     0.006 A 
ENDBRANCH  52  66
BRANCH  53  74
ATOM     74  C   UNL A   1      43.324  34.724  29.479  1.00  0.00     0.057 A 
ATOM     75  C   UNL A   1      43.661  34.614  28.125  1.00  0.00     0.134 A 
ATOM     76  C   UNL A   1      43.759  35.891  30.133  1.00  0.00     0.134 A 
ATOM     77  F   UNL A   1      43.252  33.558  27.405  1.00  0.00    -0.206 F 
ATOM     78  C   UNL A   1      44.380  35.611  27.454  1.00  0.00     0.040 A 
ATOM     79  C   UNL A   1      44.488  36.889  29.480  1.00  0.00     0.040 A 
ATOM     80  F   UNL A   1      43.419  36.146  31.404  1.00  0.00    -0.206 F 
ATOM     81  C   UNL A   1      44.791  36.756  28.131  1.00  0.00     0.006 A 
ENDBRANCH  53  74
BRANCH  65  82
ATOM     82  C   UNL A   1      41.153  30.753  33.864  1.00  0.00     0.057 A 
ATOM     83  C   UNL A   1      40.109  31.668  34.058  1.00  0.00     0.134 A 
ATOM     84  C   UNL A   1      41.907  30.404  34.989  1.00  0.00     0.134 A 
ATOM     85  F   UNL A   1      39.269  31.984  33.063  1.00  0.00    -0.206 F 
ATOM     86  C   UNL A   1      39.864  32.251  35.304  1.00  0.00     0.040 A 
ATOM     87  C   UNL A   1      41.650  30.951  36.248  1.00  0.00     0.040 A 
ATOM     88  F   UNL A   1      42.885  29.489  34.891  1.00  0.00    -0.206 F 
ATOM     89  C   UNL A   1      40.634  31.889  36.406  1.00  0.00     0.006 A 
ENDBRANCH  65  82
ENDBRANCH  39  40
ENDBRANCH  32  34
ENDBRANCH  31  32
ENDBRANCH  30  31
ENDBRANCH   1  30
TORSDOF 15
ENDMDL
