MODEL 1
REMARK VINA RESULT:     -12.0      0.000      0.000
REMARK SMILES COc1ccc(-c2cnc(N)c(C(=O)OCCOC(=O)c3ccc(-c4c5nc(c(-c6c(F)cccc6F)c6ccc([nH]6)c(-c6c(F)cccc6F)c6nc(c(-c7c(F)cccc7F)c7ccc4[nH]7)C=C6)C=C5)cc3)c2)c(C)c1
REMARK SMILES IDX 16 1 15 2 13 3 14 4 12 5 7 6 8 7 75 8 9 9 10 10 6 11 3 12
REMARK SMILES IDX 4 13 78 14 5 15 76 16 77 17 2 18 1 19 11 20 17 23 18 24
REMARK SMILES IDX 19 25 20 26 21 27 22 28 74 29 23 30 73 31 24 32 25 33 26 34
REMARK SMILES IDX 67 35 27 36 72 37 66 38 68 39 28 40 71 41 65 42 64 43 29 45
REMARK SMILES IDX 55 46 38 47 54 48 39 49 42 50 53 51 69 52 40 53 41 54 52 56
REMARK SMILES IDX 70 57 43 58 30 59 31 60 36 61 32 62 33 63 35 64 37 65 34 66
REMARK SMILES IDX 56 67 57 68 62 69 58 70 59 71 61 72 63 73 60 74 44 75 45 76
REMARK SMILES IDX 50 77 46 78 47 79 49 80 51 81 48 82
REMARK H PARENT 11 21 11 22 68 44 42 55
REMARK Flexibility Score: inf
ROOT
ATOM      1  C   UNL A   1      32.717  29.940  26.949  1.00  0.00     0.275 C 
ENDROOT
BRANCH   1   2
ATOM      2  O   UNL A   1      31.970  29.031  26.123  1.00  0.00    -0.458 OA
BRANCH   2   3
ATOM      3  C   UNL A   1      31.686  27.873  26.781  1.00  0.00     0.342 C 
ATOM      4  O   UNL A   1      31.273  27.808  27.934  1.00  0.00    -0.246 OA
BRANCH   3   5
ATOM      5  C   UNL A   1      31.989  26.656  26.001  1.00  0.00     0.102 A 
ATOM      6  C   UNL A   1      33.399  24.756  25.408  1.00  0.00     0.001 A 
ATOM      7  C   UNL A   1      32.519  24.583  24.336  1.00  0.00     0.122 A 
ATOM      8  C   UNL A   1      33.081  25.813  26.274  1.00  0.00     0.030 A 
ATOM      9  N   UNL A   1      31.452  25.368  24.053  1.00  0.00    -0.238 NA
ATOM     10  C   UNL A   1      31.217  26.414  24.863  1.00  0.00     0.138 A 
BRANCH   6  11
ATOM     11  C   UNL A   1      34.594  23.879  25.543  1.00  0.00    -0.014 A 
ATOM     12  C   UNL A   1      36.931  22.228  25.519  1.00  0.00     0.119 A 
ATOM     13  C   UNL A   1      36.918  23.419  24.810  1.00  0.00     0.047 A 
ATOM     14  C   UNL A   1      35.799  21.875  26.253  1.00  0.00     0.050 A 
ATOM     15  C   UNL A   1      35.771  24.228  24.833  1.00  0.00     0.013 A 
ATOM     16  C   UNL A   1      34.632  22.678  26.281  1.00  0.00    -0.040 A 
ATOM     17  C   UNL A   1      33.505  22.167  27.137  1.00  0.00     0.045 C 
BRANCH  12  18
ATOM     18  O   UNL A   1      37.937  21.305  25.530  1.00  0.00    -0.497 OA
ATOM     19  C   UNL A   1      37.689  20.071  24.868  1.00  0.00     0.278 C 
ENDBRANCH  12  18
ENDBRANCH   6  11
BRANCH  10  20
ATOM     20  N   UNL A   1      30.117  27.180  24.522  1.00  0.00    -0.383 N 
ATOM     21  H   UNL A   1      30.201  28.159  24.451  1.00  0.00     0.158 HD
ATOM     22  H   UNL A   1      29.250  26.746  24.348  1.00  0.00     0.158 HD
ENDBRANCH  10  20
ENDBRANCH   3   5
ENDBRANCH   2   3
ENDBRANCH   1   2
BRANCH   1  23
ATOM     23  C   UNL A   1      34.209  29.603  27.065  1.00  0.00     0.275 C 
BRANCH  23  24
ATOM     24  O   UNL A   1      34.980  30.182  28.156  1.00  0.00    -0.458 OA
BRANCH  24  25
ATOM     25  C   UNL A   1      36.210  30.745  28.134  1.00  0.00     0.338 C 
ATOM     26  O   UNL A   1      36.377  31.953  27.994  1.00  0.00    -0.246 OA
BRANCH  25  27
ATOM     27  C   UNL A   1      37.368  29.869  28.342  1.00  0.00     0.060 A 
ATOM     28  C   UNL A   1      37.430  29.094  29.511  1.00  0.00     0.016 A 
ATOM     29  C   UNL A   1      38.334  29.758  27.350  1.00  0.00     0.016 A 
ATOM     30  C   UNL A   1      38.396  28.105  29.637  1.00  0.00     0.010 A 
ATOM     31  C   UNL A   1      39.214  28.710  27.413  1.00  0.00     0.010 A 
ATOM     32  C   UNL A   1      39.272  27.920  28.573  1.00  0.00    -0.014 A 
BRANCH  32  33
ATOM     33  C   UNL A   1      40.516  27.186  28.700  1.00  0.00     0.031 A 
ATOM     34  C   UNL A   1      40.626  25.750  28.436  1.00  0.00     0.074 A 
ATOM     35  C   UNL A   1      41.552  28.013  28.958  1.00  0.00     0.049 A 
ATOM     36  N   UNL A   1      41.570  25.017  28.908  1.00  0.00    -0.248 NA
ATOM     37  C   UNL A   1      39.664  24.996  27.635  1.00  0.00     0.031 C 
ATOM     38  C   UNL A   1      42.983  27.816  28.879  1.00  0.00     0.029 A 
ATOM     39  N   UNL A   1      41.416  29.290  29.530  1.00  0.00    -0.354 N 
ATOM     40  C   UNL A   1      41.538  23.826  28.215  1.00  0.00     0.074 A 
ATOM     41  C   UNL A   1      40.261  23.800  27.547  1.00  0.00     0.031 C 
ATOM     42  C   UNL A   1      43.577  28.758  29.641  1.00  0.00     0.029 A 
ATOM     43  C   UNL A   1      42.523  29.470  30.361  1.00  0.00     0.049 A 
ATOM     44  H   UNL A   1      40.684  29.930  29.375  1.00  0.00     0.167 HD
ATOM     45  C   UNL A   1      42.682  23.092  28.120  1.00  0.00     0.037 A 
ATOM     46  C   UNL A   1      42.295  29.435  31.709  1.00  0.00     0.037 A 
ATOM     47  C   UNL A   1      43.764  23.743  28.851  1.00  0.00     0.049 A 
ATOM     48  C   UNL A   1      42.913  28.212  32.358  1.00  0.00     0.074 A 
ATOM     49  C   UNL A   1      44.755  24.637  28.481  1.00  0.00     0.029 A 
ATOM     50  N   UNL A   1      43.656  23.842  30.223  1.00  0.00    -0.354 N 
ATOM     51  N   UNL A   1      43.319  27.159  31.701  1.00  0.00    -0.248 NA
ATOM     52  C   UNL A   1      43.084  28.065  33.801  1.00  0.00     0.031 C 
ATOM     53  C   UNL A   1      45.207  25.307  29.657  1.00  0.00     0.029 A 
ATOM     54  C   UNL A   1      44.495  24.811  30.735  1.00  0.00     0.049 A 
ATOM     55  H   UNL A   1      43.053  23.289  30.771  1.00  0.00     0.167 HD
ATOM     56  C   UNL A   1      43.849  26.250  32.569  1.00  0.00     0.074 A 
ATOM     57  C   UNL A   1      43.631  26.838  33.880  1.00  0.00     0.031 C 
ATOM     58  C   UNL A   1      44.438  25.087  32.160  1.00  0.00     0.037 A 
BRANCH  45  59
ATOM     59  C   UNL A   1      42.878  21.970  27.140  1.00  0.00     0.057 A 
ATOM     60  C   UNL A   1      42.114  20.790  27.240  1.00  0.00     0.134 A 
ATOM     61  C   UNL A   1      43.804  21.987  26.085  1.00  0.00     0.134 A 
ATOM     62  F   UNL A   1      41.165  20.644  28.173  1.00  0.00    -0.206 F 
ATOM     63  C   UNL A   1      42.297  19.690  26.394  1.00  0.00     0.040 A 
ATOM     64  C   UNL A   1      44.021  20.879  25.249  1.00  0.00     0.040 A 
ATOM     65  F   UNL A   1      44.517  23.089  25.804  1.00  0.00    -0.206 F 
ATOM     66  C   UNL A   1      43.268  19.721  25.407  1.00  0.00     0.006 A 
ENDBRANCH  45  59
BRANCH  46  67
ATOM     67  C   UNL A   1      40.991  30.067  32.116  1.00  0.00     0.057 A 
ATOM     68  C   UNL A   1      39.941  29.241  32.580  1.00  0.00     0.134 A 
ATOM     69  C   UNL A   1      40.841  31.438  32.346  1.00  0.00     0.134 A 
ATOM     70  F   UNL A   1      39.995  27.911  32.396  1.00  0.00    -0.206 F 
ATOM     71  C   UNL A   1      38.870  29.736  33.333  1.00  0.00     0.040 A 
ATOM     72  C   UNL A   1      39.753  31.950  33.073  1.00  0.00     0.040 A 
ATOM     73  F   UNL A   1      41.779  32.307  31.949  1.00  0.00    -0.206 F 
ATOM     74  C   UNL A   1      38.785  31.095  33.601  1.00  0.00     0.006 A 
ENDBRANCH  46  67
BRANCH  58  75
ATOM     75  C   UNL A   1      45.035  24.097  33.110  1.00  0.00     0.057 A 
ATOM     76  C   UNL A   1      44.315  23.000  33.594  1.00  0.00     0.134 A 
ATOM     77  C   UNL A   1      46.321  24.279  33.657  1.00  0.00     0.134 A 
ATOM     78  F   UNL A   1      43.047  22.781  33.215  1.00  0.00    -0.206 F 
ATOM     79  C   UNL A   1      44.869  22.097  34.505  1.00  0.00     0.040 A 
ATOM     80  C   UNL A   1      46.859  23.423  34.615  1.00  0.00     0.040 A 
ATOM     81  F   UNL A   1      47.124  25.280  33.269  1.00  0.00    -0.206 F 
ATOM     82  C   UNL A   1      46.142  22.311  35.024  1.00  0.00     0.006 A 
ENDBRANCH  58  75
ENDBRANCH  32  33
ENDBRANCH  25  27
ENDBRANCH  24  25
ENDBRANCH  23  24
ENDBRANCH   1  23
TORSDOF 14
ENDMDL
MODEL 2
REMARK VINA RESULT:     -11.8      1.426      1.715
REMARK SMILES COc1ccc(-c2cnc(N)c(C(=O)OCCOC(=O)c3ccc(-c4c5nc(c(-c6c(F)cccc6F)c6ccc([nH]6)c(-c6c(F)cccc6F)c6nc(c(-c7c(F)cccc7F)c7ccc4[nH]7)C=C6)C=C5)cc3)c2)c(C)c1
REMARK SMILES IDX 16 1 15 2 13 3 14 4 12 5 7 6 8 7 75 8 9 9 10 10 6 11 3 12
REMARK SMILES IDX 4 13 78 14 5 15 76 16 77 17 2 18 1 19 11 20 17 23 18 24
REMARK SMILES IDX 19 25 20 26 21 27 22 28 74 29 23 30 73 31 24 32 25 33 26 34
REMARK SMILES IDX 67 35 27 36 72 37 66 38 68 39 28 40 71 41 65 42 64 43 29 45
REMARK SMILES IDX 55 46 38 47 54 48 39 49 42 50 53 51 69 52 40 53 41 54 52 56
REMARK SMILES IDX 70 57 43 58 30 59 31 60 36 61 32 62 33 63 35 64 37 65 34 66
REMARK SMILES IDX 56 67 57 68 62 69 58 70 59 71 61 72 63 73 60 74 44 75 45 76
REMARK SMILES IDX 50 77 46 78 47 79 49 80 51 81 48 82
REMARK H PARENT 11 21 11 22 68 44 42 55
REMARK Flexibility Score: inf
ROOT
ATOM      1  C   UNL A   1      33.972  28.458  26.616  1.00  0.00     0.275 C 
ENDROOT
BRANCH   1   2
ATOM      2  O   UNL A   1      33.832  28.462  25.186  1.00  0.00    -0.458 OA
BRANCH   2   3
ATOM      3  C   UNL A   1      32.695  27.824  24.791  1.00  0.00     0.342 C 
ATOM      4  O   UNL A   1      31.569  28.090  25.194  1.00  0.00    -0.246 OA
BRANCH   3   5
ATOM      5  C   UNL A   1      32.936  26.703  23.860  1.00  0.00     0.102 A 
ATOM      6  C   UNL A   1      33.340  24.350  23.360  1.00  0.00     0.001 A 
ATOM      7  C   UNL A   1      33.603  24.789  22.059  1.00  0.00     0.122 A 
ATOM      8  C   UNL A   1      32.961  25.356  24.262  1.00  0.00     0.030 A 
ATOM      9  N   UNL A   1      33.574  26.077  21.637  1.00  0.00    -0.238 NA
ATOM     10  C   UNL A   1      33.277  27.022  22.545  1.00  0.00     0.138 A 
BRANCH   6  11
ATOM     11  C   UNL A   1      33.508  22.914  23.712  1.00  0.00    -0.014 A 
ATOM     12  C   UNL A   1      33.559  20.160  24.489  1.00  0.00     0.119 A 
ATOM     13  C   UNL A   1      32.442  20.679  23.855  1.00  0.00     0.047 A 
ATOM     14  C   UNL A   1      34.650  20.999  24.712  1.00  0.00     0.050 A 
ATOM     15  C   UNL A   1      32.426  22.029  23.468  1.00  0.00     0.013 A 
ATOM     16  C   UNL A   1      34.648  22.365  24.334  1.00  0.00    -0.040 A 
ATOM     17  C   UNL A   1      35.911  23.129  24.627  1.00  0.00     0.045 C 
BRANCH  12  18
ATOM     18  O   UNL A   1      33.690  18.896  24.989  1.00  0.00    -0.497 OA
ATOM     19  C   UNL A   1      32.547  18.053  24.919  1.00  0.00     0.278 C 
ENDBRANCH  12  18
ENDBRANCH   6  11
BRANCH  10  20
ATOM     20  N   UNL A   1      33.266  28.315  22.055  1.00  0.00    -0.383 N 
ATOM     21  H   UNL A   1      34.043  28.660  21.556  1.00  0.00     0.158 HD
ATOM     22  H   UNL A   1      32.482  28.892  22.205  1.00  0.00     0.158 HD
ENDBRANCH  10  20
ENDBRANCH   3   5
ENDBRANCH   2   3
ENDBRANCH   1   2
BRANCH   1  23
ATOM     23  C   UNL A   1      34.071  29.854  27.243  1.00  0.00     0.275 C 
BRANCH  23  24
ATOM     24  O   UNL A   1      35.371  30.505  27.316  1.00  0.00    -0.458 OA
BRANCH  24  25
ATOM     25  C   UNL A   1      36.159  30.732  28.393  1.00  0.00     0.338 C 
ATOM     26  O   UNL A   1      35.894  31.590  29.230  1.00  0.00    -0.246 OA
BRANCH  25  27
ATOM     27  C   UNL A   1      37.335  29.875  28.575  1.00  0.00     0.060 A 
ATOM     28  C   UNL A   1      37.422  29.081  29.729  1.00  0.00     0.016 A 
ATOM     29  C   UNL A   1      38.293  29.800  27.572  1.00  0.00     0.016 A 
ATOM     30  C   UNL A   1      38.407  28.109  29.829  1.00  0.00     0.010 A 
ATOM     31  C   UNL A   1      39.194  28.769  27.609  1.00  0.00     0.010 A 
ATOM     32  C   UNL A   1      39.277  27.959  28.754  1.00  0.00    -0.014 A 
BRANCH  32  33
ATOM     33  C   UNL A   1      40.536  27.248  28.857  1.00  0.00     0.031 A 
ATOM     34  C   UNL A   1      40.675  25.823  28.551  1.00  0.00     0.074 A 
ATOM     35  C   UNL A   1      41.556  28.087  29.138  1.00  0.00     0.049 A 
ATOM     36  N   UNL A   1      41.635  25.095  28.999  1.00  0.00    -0.248 NA
ATOM     37  C   UNL A   1      39.726  25.073  27.729  1.00  0.00     0.031 C 
ATOM     38  C   UNL A   1      42.991  27.922  29.052  1.00  0.00     0.029 A 
ATOM     39  N   UNL A   1      41.395  29.343  29.748  1.00  0.00    -0.354 N 
ATOM     40  C   UNL A   1      41.625  23.925  28.272  1.00  0.00     0.074 A 
ATOM     41  C   UNL A   1      40.348  23.892  27.605  1.00  0.00     0.031 C 
ATOM     42  C   UNL A   1      43.567  28.852  29.840  1.00  0.00     0.029 A 
ATOM     43  C   UNL A   1      42.500  29.521  30.582  1.00  0.00     0.049 A 
ATOM     44  H   UNL A   1      40.650  29.973  29.614  1.00  0.00     0.167 HD
ATOM     45  C   UNL A   1      42.784  23.217  28.153  1.00  0.00     0.037 A 
ATOM     46  C   UNL A   1      42.276  29.442  31.930  1.00  0.00     0.037 A 
ATOM     47  C   UNL A   1      43.854  23.868  28.901  1.00  0.00     0.049 A 
ATOM     48  C   UNL A   1      42.920  28.212  32.541  1.00  0.00     0.074 A 
ATOM     49  C   UNL A   1      44.826  24.793  28.556  1.00  0.00     0.029 A 
ATOM     50  N   UNL A   1      43.747  23.925  30.275  1.00  0.00    -0.354 N 
ATOM     51  N   UNL A   1      43.346  27.188  31.852  1.00  0.00    -0.248 NA
ATOM     52  C   UNL A   1      43.097  28.026  33.978  1.00  0.00     0.031 C 
ATOM     53  C   UNL A   1      45.267  25.436  29.751  1.00  0.00     0.029 A 
ATOM     54  C   UNL A   1      44.567  24.894  30.815  1.00  0.00     0.049 A 
ATOM     55  H   UNL A   1      43.157  23.343  30.808  1.00  0.00     0.167 HD
ATOM     56  C   UNL A   1      43.896  26.264  32.692  1.00  0.00     0.074 A 
ATOM     57  C   UNL A   1      43.669  26.809  34.020  1.00  0.00     0.031 C 
ATOM     58  C   UNL A   1      44.508  25.127  32.247  1.00  0.00     0.037 A 
BRANCH  45  59
ATOM     59  C   UNL A   1      43.000  22.129  27.140  1.00  0.00     0.057 A 
ATOM     60  C   UNL A   1      42.262  20.930  27.207  1.00  0.00     0.134 A 
ATOM     61  C   UNL A   1      43.921  22.198  26.082  1.00  0.00     0.134 A 
ATOM     62  F   UNL A   1      41.321  20.736  28.139  1.00  0.00    -0.206 F 
ATOM     63  C   UNL A   1      42.466  19.859  26.329  1.00  0.00     0.040 A 
ATOM     64  C   UNL A   1      44.159  21.119  25.213  1.00  0.00     0.040 A 
ATOM     65  F   UNL A   1      44.609  23.322  25.832  1.00  0.00    -0.206 F 
ATOM     66  C   UNL A   1      43.432  19.941  25.340  1.00  0.00     0.006 A 
ENDBRANCH  45  59
BRANCH  46  67
ATOM     67  C   UNL A   1      40.961  30.035  32.357  1.00  0.00     0.057 A 
ATOM     68  C   UNL A   1      39.930  29.174  32.801  1.00  0.00     0.134 A 
ATOM     69  C   UNL A   1      40.782  31.396  32.624  1.00  0.00     0.134 A 
ATOM     70  F   UNL A   1      40.011  27.851  32.582  1.00  0.00    -0.206 F 
ATOM     71  C   UNL A   1      38.851  29.626  33.571  1.00  0.00     0.040 A 
ATOM     72  C   UNL A   1      39.686  31.864  33.368  1.00  0.00     0.040 A 
ATOM     73  F   UNL A   1      41.701  32.295  32.248  1.00  0.00    -0.206 F 
ATOM     74  C   UNL A   1      38.738  30.976  33.876  1.00  0.00     0.006 A 
ENDBRANCH  46  67
BRANCH  58  75
ATOM     75  C   UNL A   1      45.127  24.121  33.166  1.00  0.00     0.057 A 
ATOM     76  C   UNL A   1      44.418  23.018  33.652  1.00  0.00     0.134 A 
ATOM     77  C   UNL A   1      46.427  24.293  33.683  1.00  0.00     0.134 A 
ATOM     78  F   UNL A   1      43.140  22.807  33.302  1.00  0.00    -0.206 F 
ATOM     79  C   UNL A   1      44.993  22.100  34.534  1.00  0.00     0.040 A 
ATOM     80  C   UNL A   1      46.987  23.421  34.614  1.00  0.00     0.040 A 
ATOM     81  F   UNL A   1      47.221  25.299  33.291  1.00  0.00    -0.206 F 
ATOM     82  C   UNL A   1      46.279  22.304  35.024  1.00  0.00     0.006 A 
ENDBRANCH  58  75
ENDBRANCH  32  33
ENDBRANCH  25  27
ENDBRANCH  24  25
ENDBRANCH  23  24
ENDBRANCH   1  23
TORSDOF 14
ENDMDL
MODEL 3
REMARK VINA RESULT:     -11.7      3.554      9.413
REMARK SMILES COc1ccc(-c2cnc(N)c(C(=O)OCCOC(=O)c3ccc(-c4c5nc(c(-c6c(F)cccc6F)c6ccc([nH]6)c(-c6c(F)cccc6F)c6nc(c(-c7c(F)cccc7F)c7ccc4[nH]7)C=C6)C=C5)cc3)c2)c(C)c1
REMARK SMILES IDX 16 1 15 2 13 3 14 4 12 5 7 6 8 7 75 8 9 9 10 10 6 11 3 12
REMARK SMILES IDX 4 13 78 14 5 15 76 16 77 17 2 18 1 19 11 20 17 23 18 24
REMARK SMILES IDX 19 25 20 26 21 27 22 28 74 29 23 30 73 31 24 32 25 33 26 34
REMARK SMILES IDX 67 35 27 36 72 37 66 38 68 39 28 40 71 41 65 42 64 43 29 45
REMARK SMILES IDX 55 46 38 47 54 48 39 49 42 50 53 51 69 52 40 53 41 54 52 56
REMARK SMILES IDX 70 57 43 58 30 59 31 60 36 61 32 62 33 63 35 64 37 65 34 66
REMARK SMILES IDX 56 67 57 68 62 69 58 70 59 71 61 72 63 73 60 74 44 75 45 76
REMARK SMILES IDX 50 77 46 78 47 79 49 80 51 81 48 82
REMARK H PARENT 11 21 11 22 68 44 42 55
REMARK Flexibility Score: inf
ROOT
ATOM      1  C   UNL A   1      37.281  23.274  24.885  1.00  0.00     0.275 C 
ENDROOT
BRANCH   1   2
ATOM      2  O   UNL A   1      36.008  22.610  24.815  1.00  0.00    -0.458 OA
BRANCH   2   3
ATOM      3  C   UNL A   1      35.157  23.247  23.963  1.00  0.00     0.342 C 
ATOM      4  O   UNL A   1      35.297  23.301  22.746  1.00  0.00    -0.246 OA
BRANCH   3   5
ATOM      5  C   UNL A   1      34.050  23.949  24.643  1.00  0.00     0.102 A 
ATOM      6  C   UNL A   1      32.986  25.945  25.556  1.00  0.00     0.001 A 
ATOM      7  C   UNL A   1      32.057  25.060  26.108  1.00  0.00     0.122 A 
ATOM      8  C   UNL A   1      33.986  25.348  24.773  1.00  0.00     0.030 A 
ATOM      9  N   UNL A   1      32.084  23.709  25.991  1.00  0.00    -0.238 NA
ATOM     10  C   UNL A   1      33.095  23.166  25.293  1.00  0.00     0.138 A 
BRANCH   6  11
ATOM     11  C   UNL A   1      32.895  27.402  25.849  1.00  0.00    -0.014 A 
ATOM     12  C   UNL A   1      32.787  30.136  26.687  1.00  0.00     0.119 A 
ATOM     13  C   UNL A   1      33.812  29.316  27.132  1.00  0.00     0.047 A 
ATOM     14  C   UNL A   1      31.839  29.605  25.813  1.00  0.00     0.050 A 
ATOM     15  C   UNL A   1      33.864  27.978  26.711  1.00  0.00     0.013 A 
ATOM     16  C   UNL A   1      31.874  28.255  25.384  1.00  0.00    -0.040 A 
ATOM     17  C   UNL A   1      30.790  27.843  24.425  1.00  0.00     0.045 C 
BRANCH  12  18
ATOM     18  O   UNL A   1      32.562  31.427  27.068  1.00  0.00    -0.497 OA
ATOM     19  C   UNL A   1      31.368  32.040  26.599  1.00  0.00     0.278 C 
ENDBRANCH  12  18
ENDBRANCH   6  11
BRANCH  10  20
ATOM     20  N   UNL A   1      33.069  21.785  25.211  1.00  0.00    -0.383 N 
ATOM     21  H   UNL A   1      33.584  21.324  24.509  1.00  0.00     0.158 HD
ATOM     22  H   UNL A   1      32.537  21.264  25.855  1.00  0.00     0.158 HD
ENDBRANCH  10  20
ENDBRANCH   3   5
ENDBRANCH   2   3
ENDBRANCH   1   2
BRANCH   1  23
ATOM     23  C   UNL A   1      37.667  23.749  26.291  1.00  0.00     0.275 C 
BRANCH  23  24
ATOM     24  O   UNL A   1      38.949  23.341  26.846  1.00  0.00    -0.458 OA
BRANCH  24  25
ATOM     25  C   UNL A   1      40.111  24.032  26.922  1.00  0.00     0.338 C 
ATOM     26  O   UNL A   1      41.174  23.577  26.511  1.00  0.00    -0.246 OA
BRANCH  25  27
ATOM     27  C   UNL A   1      40.064  25.393  27.469  1.00  0.00     0.060 A 
ATOM     28  C   UNL A   1      40.463  26.465  26.654  1.00  0.00     0.016 A 
ATOM     29  C   UNL A   1      39.549  25.606  28.741  1.00  0.00     0.016 A 
ATOM     30  C   UNL A   1      40.231  27.770  27.062  1.00  0.00     0.010 A 
ATOM     31  C   UNL A   1      39.210  26.884  29.101  1.00  0.00     0.010 A 
ATOM     32  C   UNL A   1      39.592  27.960  28.283  1.00  0.00    -0.014 A 
BRANCH  32  33
ATOM     33  C   UNL A   1      39.598  29.230  28.982  1.00  0.00     0.031 A 
ATOM     34  C   UNL A   1      38.585  30.265  28.765  1.00  0.00     0.074 A 
ATOM     35  C   UNL A   1      40.562  29.269  29.926  1.00  0.00     0.049 A 
ATOM     36  N   UNL A   1      38.772  31.506  29.046  1.00  0.00    -0.248 NA
ATOM     37  C   UNL A   1      37.269  30.004  28.185  1.00  0.00     0.031 C 
ATOM     38  C   UNL A   1      40.777  30.160  31.046  1.00  0.00     0.029 A 
ATOM     39  N   UNL A   1      41.710  28.458  29.912  1.00  0.00    -0.354 N 
ATOM     40  C   UNL A   1      37.537  32.115  29.015  1.00  0.00     0.074 A 
ATOM     41  C   UNL A   1      36.664  31.189  28.338  1.00  0.00     0.031 C 
ATOM     42  C   UNL A   1      42.072  30.067  31.411  1.00  0.00     0.029 A 
ATOM     43  C   UNL A   1      42.751  29.239  30.416  1.00  0.00     0.049 A 
ATOM     44  H   UNL A   1      41.768  27.523  29.607  1.00  0.00     0.167 HD
ATOM     45  C   UNL A   1      37.346  33.247  29.749  1.00  0.00     0.037 A 
ATOM     46  C   UNL A   1      43.697  29.658  29.521  1.00  0.00     0.037 A 
ATOM     47  C   UNL A   1      38.580  33.623  30.430  1.00  0.00     0.049 A 
ATOM     48  C   UNL A   1      43.644  31.158  29.299  1.00  0.00     0.074 A 
ATOM     49  C   UNL A   1      39.093  33.347  31.687  1.00  0.00     0.029 A 
ATOM     50  N   UNL A   1      39.655  34.016  29.660  1.00  0.00    -0.354 N 
ATOM     51  N   UNL A   1      42.636  31.914  29.641  1.00  0.00    -0.248 NA
ATOM     52  C   UNL A   1      44.704  31.913  28.638  1.00  0.00     0.031 C 
ATOM     53  C   UNL A   1      40.505  33.539  31.640  1.00  0.00     0.029 A 
ATOM     54  C   UNL A   1      40.843  33.939  30.359  1.00  0.00     0.049 A 
ATOM     55  H   UNL A   1      39.584  34.315  28.724  1.00  0.00     0.167 HD
ATOM     56  C   UNL A   1      42.909  33.214  29.331  1.00  0.00     0.074 A 
ATOM     57  C   UNL A   1      44.194  33.157  28.655  1.00  0.00     0.031 C 
ATOM     58  C   UNL A   1      42.076  34.247  29.656  1.00  0.00     0.037 A 
BRANCH  45  59
ATOM     59  C   UNL A   1      35.994  33.818  30.071  1.00  0.00     0.057 A 
ATOM     60  C   UNL A   1      35.174  34.337  29.049  1.00  0.00     0.134 A 
ATOM     61  C   UNL A   1      35.448  33.893  31.363  1.00  0.00     0.134 A 
ATOM     62  F   UNL A   1      35.545  34.300  27.764  1.00  0.00    -0.206 F 
ATOM     63  C   UNL A   1      33.934  34.937  29.297  1.00  0.00     0.040 A 
ATOM     64  C   UNL A   1      34.220  34.521  31.631  1.00  0.00     0.040 A 
ATOM     65  F   UNL A   1      36.071  33.337  32.413  1.00  0.00    -0.206 F 
ATOM     66  C   UNL A   1      33.460  35.051  30.594  1.00  0.00     0.006 A 
ENDBRANCH  45  59
BRANCH  46  67
ATOM     67  C   UNL A   1      44.022  28.636  28.466  1.00  0.00     0.057 A 
ATOM     68  C   UNL A   1      43.592  28.859  27.137  1.00  0.00     0.134 A 
ATOM     69  C   UNL A   1      44.972  27.625  28.643  1.00  0.00     0.134 A 
ATOM     70  F   UNL A   1      42.676  29.805  26.872  1.00  0.00    -0.206 F 
ATOM     71  C   UNL A   1      44.161  28.200  26.041  1.00  0.00     0.040 A 
ATOM     72  C   UNL A   1      45.526  26.934  27.552  1.00  0.00     0.040 A 
ATOM     73  F   UNL A   1      45.447  27.336  29.861  1.00  0.00    -0.206 F 
ATOM     74  C   UNL A   1      45.150  27.247  26.246  1.00  0.00     0.006 A 
ENDBRANCH  46  67
BRANCH  58  75
ATOM     75  C   UNL A   1      42.383  35.676  29.331  1.00  0.00     0.057 A 
ATOM     76  C   UNL A   1      41.895  36.300  28.179  1.00  0.00     0.134 A 
ATOM     77  C   UNL A   1      43.274  36.437  30.114  1.00  0.00     0.134 A 
ATOM     78  F   UNL A   1      41.115  35.640  27.310  1.00  0.00    -0.206 F 
ATOM     79  C   UNL A   1      42.212  37.625  27.867  1.00  0.00     0.040 A 
ATOM     80  C   UNL A   1      43.649  37.735  29.778  1.00  0.00     0.040 A 
ATOM     81  F   UNL A   1      43.802  35.965  31.253  1.00  0.00    -0.206 F 
ATOM     82  C   UNL A   1      43.097  38.344  28.664  1.00  0.00     0.006 A 
ENDBRANCH  58  75
ENDBRANCH  32  33
ENDBRANCH  25  27
ENDBRANCH  24  25
ENDBRANCH  23  24
ENDBRANCH   1  23
TORSDOF 14
ENDMDL
