MODEL 1
REMARK VINA RESULT:     -10.6      0.000      0.000
REMARK SMILES CCC[C@H](C)C[N@H+]1[C@@H]2CC[C@H]1C[C@H](CC(=O)OCCOC(=O)c1ccc(-c3c4nc(c(-c5c(F)cccc5F)c5ccc([nH]5)c(-c5c(F)cccc5F)c5nc(c(-c6c(F)cccc6F)c6ccc3[nH]6)C=C5)C=C4)cc1)C2
REMARK SMILES IDX 17 1 15 2 16 3 14 4 13 5 7 6 8 7 11 8 9 10 77 11 10 12 12 13
REMARK SMILES IDX 6 14 4 15 5 16 3 17 2 18 1 19 18 20 19 21 20 22 21 23 22 24
REMARK SMILES IDX 23 25 24 26 76 27 25 28 75 29 26 30 27 31 28 32 69 33 29 34
REMARK SMILES IDX 74 35 68 36 70 37 30 38 73 39 67 40 66 41 31 43 57 44 40 45
REMARK SMILES IDX 56 46 41 47 44 48 55 49 71 50 42 51 43 52 54 54 72 55 45 56
REMARK SMILES IDX 32 57 33 58 38 59 34 60 35 61 37 62 39 63 36 64 58 65 59 66
REMARK SMILES IDX 64 67 60 68 61 69 63 70 65 71 62 72 46 73 47 74 52 75 48 76
REMARK SMILES IDX 49 77 51 78 53 79 50 80
REMARK H PARENT 7 9 70 42 44 53
REMARK Flexibility Score: inf
ROOT
ATOM      1  O   UNL A   1      35.491  23.695  24.259  1.00  0.00    -0.462 OA
ENDROOT
BRANCH   1   2
ATOM      2  C   UNL A   1      34.366  24.103  23.633  1.00  0.00     0.306 C 
ATOM      3  O   UNL A   1      34.248  24.249  22.421  1.00  0.00    -0.252 OA
BRANCH   2   4
ATOM      4  C   UNL A   1      33.194  24.293  24.569  1.00  0.00     0.126 C 
BRANCH   4   5
ATOM      5  C   UNL A   1      33.130  25.542  25.459  1.00  0.00     0.012 C 
ATOM      6  N   UNL A   1      31.545  27.979  24.951  1.00  0.00    -0.330 N 
ATOM      7  C   UNL A   1      31.134  27.113  26.051  1.00  0.00     0.184 C 
ATOM      8  C   UNL A   1      32.994  28.106  25.137  1.00  0.00     0.184 C 
ATOM      9  H   UNL A   1      30.986  28.826  25.042  1.00  0.00     0.348 HD
ATOM     10  C   UNL A   1      31.813  27.827  27.227  1.00  0.00     0.071 C 
ATOM     11  C   UNL A   1      31.664  25.679  25.948  1.00  0.00     0.069 C 
ATOM     12  C   UNL A   1      33.107  28.381  26.640  1.00  0.00     0.071 C 
ATOM     13  C   UNL A   1      33.691  26.795  24.752  1.00  0.00     0.069 C 
BRANCH   6  14
ATOM     14  C   UNL A   1      31.116  27.801  23.559  1.00  0.00     0.265 C 
BRANCH  14  15
ATOM     15  C   UNL A   1      29.754  28.324  23.046  1.00  0.00     0.041 C 
ATOM     16  C   UNL A   1      28.590  27.429  23.502  1.00  0.00     0.013 C 
BRANCH  15  17
ATOM     17  C   UNL A   1      29.475  29.780  23.503  1.00  0.00     0.009 C 
BRANCH  17  18
ATOM     18  C   UNL A   1      28.681  30.688  22.554  1.00  0.00    -0.003 C 
ATOM     19  C   UNL A   1      27.652  31.576  23.233  1.00  0.00     0.004 C 
ENDBRANCH  17  18
ENDBRANCH  15  17
ENDBRANCH  14  15
ENDBRANCH   6  14
ENDBRANCH   4   5
ENDBRANCH   2   4
ENDBRANCH   1   2
BRANCH   1  20
ATOM     20  C   UNL A   1      36.185  22.578  23.675  1.00  0.00     0.274 C 
BRANCH  20  21
ATOM     21  C   UNL A   1      36.101  21.395  24.633  1.00  0.00     0.275 C 
BRANCH  21  22
ATOM     22  O   UNL A   1      36.831  21.704  25.835  1.00  0.00    -0.458 OA
BRANCH  22  23
ATOM     23  C   UNL A   1      38.158  21.446  25.798  1.00  0.00     0.338 C 
ATOM     24  O   UNL A   1      38.717  20.454  25.361  1.00  0.00    -0.246 OA
BRANCH  23  25
ATOM     25  C   UNL A   1      38.892  22.591  26.356  1.00  0.00     0.060 A 
ATOM     26  C   UNL A   1      38.419  23.884  26.139  1.00  0.00     0.016 A 
ATOM     27  C   UNL A   1      40.110  22.387  26.998  1.00  0.00     0.016 A 
ATOM     28  C   UNL A   1      39.202  24.982  26.483  1.00  0.00     0.010 A 
ATOM     29  C   UNL A   1      40.839  23.491  27.449  1.00  0.00     0.010 A 
ATOM     30  C   UNL A   1      40.405  24.801  27.176  1.00  0.00    -0.014 A 
BRANCH  30  31
ATOM     31  C   UNL A   1      41.203  25.972  27.625  1.00  0.00     0.031 A 
ATOM     32  C   UNL A   1      40.580  27.021  28.505  1.00  0.00     0.074 A 
ATOM     33  C   UNL A   1      42.485  26.109  27.230  1.00  0.00     0.049 A 
ATOM     34  N   UNL A   1      41.023  28.213  28.812  1.00  0.00    -0.248 NA
ATOM     35  C   UNL A   1      39.278  26.689  29.106  1.00  0.00     0.031 C 
ATOM     36  C   UNL A   1      43.232  25.150  26.414  1.00  0.00     0.029 A 
ATOM     37  N   UNL A   1      43.388  27.117  27.461  1.00  0.00    -0.354 N 
ATOM     38  C   UNL A   1      40.030  28.796  29.589  1.00  0.00     0.074 A 
ATOM     39  C   UNL A   1      38.964  27.826  29.712  1.00  0.00     0.031 C 
ATOM     40  C   UNL A   1      44.484  25.596  26.240  1.00  0.00     0.029 A 
ATOM     41  C   UNL A   1      44.601  26.916  26.848  1.00  0.00     0.049 A 
ATOM     42  H   UNL A   1      43.186  27.909  28.011  1.00  0.00     0.167 HD
ATOM     43  C   UNL A   1      40.011  30.034  30.140  1.00  0.00     0.037 A 
ATOM     44  C   UNL A   1      45.674  27.721  26.740  1.00  0.00     0.037 A 
ATOM     45  C   UNL A   1      41.098  30.975  30.059  1.00  0.00     0.049 A 
ATOM     46  C   UNL A   1      45.619  29.096  27.336  1.00  0.00     0.074 A 
ATOM     47  C   UNL A   1      41.182  32.248  30.598  1.00  0.00     0.029 A 
ATOM     48  N   UNL A   1      42.299  30.736  29.408  1.00  0.00    -0.354 N 
ATOM     49  N   UNL A   1      44.649  29.664  28.009  1.00  0.00    -0.248 NA
ATOM     50  C   UNL A   1      46.795  29.952  27.131  1.00  0.00     0.031 C 
ATOM     51  C   UNL A   1      42.425  32.789  30.250  1.00  0.00     0.029 A 
ATOM     52  C   UNL A   1      43.127  31.841  29.523  1.00  0.00     0.049 A 
ATOM     53  H   UNL A   1      42.529  29.904  28.935  1.00  0.00     0.167 HD
ATOM     54  C   UNL A   1      45.095  30.943  28.310  1.00  0.00     0.074 A 
ATOM     55  C   UNL A   1      46.433  31.058  27.765  1.00  0.00     0.031 C 
ATOM     56  C   UNL A   1      44.451  31.936  28.969  1.00  0.00     0.037 A 
BRANCH  43  57
ATOM     57  C   UNL A   1      38.760  30.453  30.853  1.00  0.00     0.057 A 
ATOM     58  C   UNL A   1      38.567  30.224  32.220  1.00  0.00     0.134 A 
ATOM     59  C   UNL A   1      37.744  31.126  30.159  1.00  0.00     0.134 A 
ATOM     60  F   UNL A   1      39.495  29.571  32.936  1.00  0.00    -0.206 F 
ATOM     61  C   UNL A   1      37.399  30.629  32.870  1.00  0.00     0.040 A 
ATOM     62  C   UNL A   1      36.581  31.555  30.802  1.00  0.00     0.040 A 
ATOM     63  F   UNL A   1      37.867  31.381  28.848  1.00  0.00    -0.206 F 
ATOM     64  C   UNL A   1      36.405  31.301  32.161  1.00  0.00     0.006 A 
ENDBRANCH  43  57
BRANCH  44  65
ATOM     65  C   UNL A   1      46.869  27.260  25.991  1.00  0.00     0.057 A 
ATOM     66  C   UNL A   1      47.907  26.581  26.637  1.00  0.00     0.134 A 
ATOM     67  C   UNL A   1      46.993  27.470  24.613  1.00  0.00     0.134 A 
ATOM     68  F   UNL A   1      47.856  26.370  27.961  1.00  0.00    -0.206 F 
ATOM     69  C   UNL A   1      49.029  26.129  25.940  1.00  0.00     0.040 A 
ATOM     70  C   UNL A   1      48.096  27.003  23.898  1.00  0.00     0.040 A 
ATOM     71  F   UNL A   1      46.028  28.112  23.936  1.00  0.00    -0.206 F 
ATOM     72  C   UNL A   1      49.120  26.332  24.563  1.00  0.00     0.006 A 
ENDBRANCH  44  65
BRANCH  56  73
ATOM     73  C   UNL A   1      45.198  33.222  29.145  1.00  0.00     0.057 A 
ATOM     74  C   UNL A   1      46.043  33.434  30.241  1.00  0.00     0.134 A 
ATOM     75  C   UNL A   1      45.084  34.250  28.202  1.00  0.00     0.134 A 
ATOM     76  F   UNL A   1      46.178  32.492  31.186  1.00  0.00    -0.206 F 
ATOM     77  C   UNL A   1      46.738  34.632  30.401  1.00  0.00     0.040 A 
ATOM     78  C   UNL A   1      45.789  35.446  28.341  1.00  0.00     0.040 A 
ATOM     79  F   UNL A   1      44.291  34.104  27.129  1.00  0.00    -0.206 F 
ATOM     80  C   UNL A   1      46.614  35.641  29.447  1.00  0.00     0.006 A 
ENDBRANCH  56  73
ENDBRANCH  30  31
ENDBRANCH  23  25
ENDBRANCH  22  23
ENDBRANCH  21  22
ENDBRANCH  20  21
ENDBRANCH   1  20
TORSDOF 16
ENDMDL
MODEL 2
REMARK VINA RESULT:     -10.5      4.701      9.281
REMARK SMILES CCC[C@H](C)C[N@H+]1[C@@H]2CC[C@H]1C[C@H](CC(=O)OCCOC(=O)c1ccc(-c3c4nc(c(-c5c(F)cccc5F)c5ccc([nH]5)c(-c5c(F)cccc5F)c5nc(c(-c6c(F)cccc6F)c6ccc3[nH]6)C=C5)C=C4)cc1)C2
REMARK SMILES IDX 17 1 15 2 16 3 14 4 13 5 7 6 8 7 11 8 9 10 77 11 10 12 12 13
REMARK SMILES IDX 6 14 4 15 5 16 3 17 2 18 1 19 18 20 19 21 20 22 21 23 22 24
REMARK SMILES IDX 23 25 24 26 76 27 25 28 75 29 26 30 27 31 28 32 69 33 29 34
REMARK SMILES IDX 74 35 68 36 70 37 30 38 73 39 67 40 66 41 31 43 57 44 40 45
REMARK SMILES IDX 56 46 41 47 44 48 55 49 71 50 42 51 43 52 54 54 72 55 45 56
REMARK SMILES IDX 32 57 33 58 38 59 34 60 35 61 37 62 39 63 36 64 58 65 59 66
REMARK SMILES IDX 64 67 60 68 61 69 63 70 65 71 62 72 46 73 47 74 52 75 48 76
REMARK SMILES IDX 49 77 51 78 53 79 50 80
REMARK H PARENT 7 9 70 42 44 53
REMARK Flexibility Score: inf
ROOT
ATOM      1  O   UNL A   1      33.286  30.943  27.084  1.00  0.00    -0.462 OA
ENDROOT
BRANCH   1   2
ATOM      2  C   UNL A   1      33.557  29.620  27.060  1.00  0.00     0.306 C 
ATOM      3  O   UNL A   1      34.632  29.116  27.368  1.00  0.00    -0.252 OA
BRANCH   2   4
ATOM      4  C   UNL A   1      32.364  28.770  26.689  1.00  0.00     0.126 C 
BRANCH   4   5
ATOM      5  C   UNL A   1      32.445  27.842  25.468  1.00  0.00     0.012 C 
ATOM      6  N   UNL A   1      30.972  28.149  22.930  1.00  0.00    -0.330 N 
ATOM      7  C   UNL A   1      32.413  28.375  22.916  1.00  0.00     0.184 C 
ATOM      8  C   UNL A   1      30.828  26.899  23.682  1.00  0.00     0.184 C 
ATOM      9  H   UNL A   1      30.684  28.142  21.952  1.00  0.00     0.348 HD
ATOM     10  C   UNL A   1      32.900  26.999  22.441  1.00  0.00     0.071 C 
ATOM     11  C   UNL A   1      33.010  28.681  24.293  1.00  0.00     0.069 C 
ATOM     12  C   UNL A   1      31.910  26.014  23.055  1.00  0.00     0.071 C 
ATOM     13  C   UNL A   1      31.099  27.146  25.171  1.00  0.00     0.069 C 
BRANCH   6  14
ATOM     14  C   UNL A   1      29.980  29.181  23.253  1.00  0.00     0.265 C 
BRANCH  14  15
ATOM     15  C   UNL A   1      28.824  29.540  22.291  1.00  0.00     0.041 C 
ATOM     16  C   UNL A   1      27.468  29.569  23.015  1.00  0.00     0.013 C 
BRANCH  15  17
ATOM     17  C   UNL A   1      29.047  30.906  21.591  1.00  0.00     0.009 C 
BRANCH  17  18
ATOM     18  C   UNL A   1      28.141  32.075  21.998  1.00  0.00    -0.003 C 
ATOM     19  C   UNL A   1      28.808  33.127  22.867  1.00  0.00     0.004 C 
ENDBRANCH  17  18
ENDBRANCH  15  17
ENDBRANCH  14  15
ENDBRANCH   6  14
ENDBRANCH   4   5
ENDBRANCH   2   4
ENDBRANCH   1   2
BRANCH   1  20
ATOM     20  C   UNL A   1      31.940  31.331  26.755  1.00  0.00     0.274 C 
BRANCH  20  21
ATOM     21  C   UNL A   1      31.741  32.790  27.153  1.00  0.00     0.275 C 
BRANCH  21  22
ATOM     22  O   UNL A   1      33.027  33.427  27.280  1.00  0.00    -0.458 OA
BRANCH  22  23
ATOM     23  C   UNL A   1      33.166  34.257  28.339  1.00  0.00     0.338 C 
ATOM     24  O   UNL A   1      32.451  35.191  28.659  1.00  0.00    -0.246 OA
BRANCH  23  25
ATOM     25  C   UNL A   1      34.342  33.852  29.122  1.00  0.00     0.060 A 
ATOM     26  C   UNL A   1      35.582  34.429  28.853  1.00  0.00     0.016 A 
ATOM     27  C   UNL A   1      34.235  32.816  30.047  1.00  0.00     0.016 A 
ATOM     28  C   UNL A   1      36.735  33.916  29.440  1.00  0.00     0.010 A 
ATOM     29  C   UNL A   1      35.379  32.383  30.724  1.00  0.00     0.010 A 
ATOM     30  C   UNL A   1      36.644  32.911  30.411  1.00  0.00    -0.014 A 
BRANCH  30  31
ATOM     31  C   UNL A   1      37.863  32.420  31.107  1.00  0.00     0.031 A 
ATOM     32  C   UNL A   1      38.665  31.290  30.524  1.00  0.00     0.074 A 
ATOM     33  C   UNL A   1      38.245  32.976  32.274  1.00  0.00     0.049 A 
ATOM     34  N   UNL A   1      39.609  30.574  31.078  1.00  0.00    -0.248 NA
ATOM     35  C   UNL A   1      38.352  30.904  29.138  1.00  0.00     0.031 C 
ATOM     36  C   UNL A   1      37.589  34.107  32.935  1.00  0.00     0.029 A 
ATOM     37  N   UNL A   1      39.280  32.658  33.119  1.00  0.00    -0.354 N 
ATOM     38  C   UNL A   1      39.960  29.616  30.135  1.00  0.00     0.074 A 
ATOM     39  C   UNL A   1      39.132  29.845  28.970  1.00  0.00     0.031 C 
ATOM     40  C   UNL A   1      38.253  34.409  34.059  1.00  0.00     0.029 A 
ATOM     41  C   UNL A   1      39.322  33.436  34.251  1.00  0.00     0.049 A 
ATOM     42  H   UNL A   1      39.930  31.942  32.932  1.00  0.00     0.167 HD
ATOM     43  C   UNL A   1      40.884  28.630  30.239  1.00  0.00     0.037 A 
ATOM     44  C   UNL A   1      40.096  33.349  35.348  1.00  0.00     0.037 A 
ATOM     45  C   UNL A   1      41.742  28.440  31.380  1.00  0.00     0.049 A 
ATOM     46  C   UNL A   1      41.094  32.233  35.452  1.00  0.00     0.074 A 
ATOM     47  C   UNL A   1      42.721  27.481  31.575  1.00  0.00     0.029 A 
ATOM     48  N   UNL A   1      41.733  29.238  32.513  1.00  0.00    -0.354 N 
ATOM     49  N   UNL A   1      41.369  31.291  34.584  1.00  0.00    -0.248 NA
ATOM     50  C   UNL A   1      41.866  32.151  36.698  1.00  0.00     0.031 C 
ATOM     51  C   UNL A   1      43.287  27.684  32.839  1.00  0.00     0.029 A 
ATOM     52  C   UNL A   1      42.682  28.789  33.417  1.00  0.00     0.049 A 
ATOM     53  H   UNL A   1      41.139  30.012  32.655  1.00  0.00     0.167 HD
ATOM     54  C   UNL A   1      42.346  30.504  35.176  1.00  0.00     0.074 A 
ATOM     55  C   UNL A   1      42.631  31.094  36.469  1.00  0.00     0.031 C 
ATOM     56  C   UNL A   1      42.945  29.387  34.698  1.00  0.00     0.037 A 
BRANCH  43  57
ATOM     57  C   UNL A   1      40.990  27.659  29.101  1.00  0.00     0.057 A 
ATOM     58  C   UNL A   1      42.004  27.745  28.140  1.00  0.00     0.134 A 
ATOM     59  C   UNL A   1      40.076  26.604  28.985  1.00  0.00     0.134 A 
ATOM     60  F   UNL A   1      42.901  28.742  28.186  1.00  0.00    -0.206 F 
ATOM     61  C   UNL A   1      42.094  26.827  27.090  1.00  0.00     0.040 A 
ATOM     62  C   UNL A   1      40.168  25.668  27.953  1.00  0.00     0.040 A 
ATOM     63  F   UNL A   1      39.082  26.462  29.875  1.00  0.00    -0.206 F 
ATOM     64  C   UNL A   1      41.176  25.782  26.999  1.00  0.00     0.006 A 
ENDBRANCH  43  57
BRANCH  44  65
ATOM     65  C   UNL A   1      39.918  34.319  36.456  1.00  0.00     0.057 A 
ATOM     66  C   UNL A   1      39.117  34.013  37.560  1.00  0.00     0.134 A 
ATOM     67  C   UNL A   1      40.558  35.564  36.445  1.00  0.00     0.134 A 
ATOM     68  F   UNL A   1      38.460  32.844  37.615  1.00  0.00    -0.206 F 
ATOM     69  C   UNL A   1      38.955  34.912  38.616  1.00  0.00     0.040 A 
ATOM     70  C   UNL A   1      40.425  36.463  37.504  1.00  0.00     0.040 A 
ATOM     71  F   UNL A   1      41.342  35.915  35.415  1.00  0.00    -0.206 F 
ATOM     72  C   UNL A   1      39.618  36.138  38.593  1.00  0.00     0.006 A 
ENDBRANCH  44  65
BRANCH  56  73
ATOM     73  C   UNL A   1      43.976  28.747  35.576  1.00  0.00     0.057 A 
ATOM     74  C   UNL A   1      43.634  27.763  36.510  1.00  0.00     0.134 A 
ATOM     75  C   UNL A   1      45.326  29.105  35.471  1.00  0.00     0.134 A 
ATOM     76  F   UNL A   1      42.355  27.392  36.667  1.00  0.00    -0.206 F 
ATOM     77  C   UNL A   1      44.597  27.168  37.324  1.00  0.00     0.040 A 
ATOM     78  C   UNL A   1      46.301  28.503  36.266  1.00  0.00     0.040 A 
ATOM     79  F   UNL A   1      45.716  30.041  34.591  1.00  0.00    -0.206 F 
ATOM     80  C   UNL A   1      45.936  27.535  37.200  1.00  0.00     0.006 A 
ENDBRANCH  56  73
ENDBRANCH  30  31
ENDBRANCH  23  25
ENDBRANCH  22  23
ENDBRANCH  21  22
ENDBRANCH  20  21
ENDBRANCH   1  20
TORSDOF 16
ENDMDL
MODEL 3
REMARK VINA RESULT:     -10.5      2.959      6.709
REMARK SMILES CCC[C@H](C)C[N@H+]1[C@@H]2CC[C@H]1C[C@H](CC(=O)OCCOC(=O)c1ccc(-c3c4nc(c(-c5c(F)cccc5F)c5ccc([nH]5)c(-c5c(F)cccc5F)c5nc(c(-c6c(F)cccc6F)c6ccc3[nH]6)C=C5)C=C4)cc1)C2
REMARK SMILES IDX 17 1 15 2 16 3 14 4 13 5 7 6 8 7 11 8 9 10 77 11 10 12 12 13
REMARK SMILES IDX 6 14 4 15 5 16 3 17 2 18 1 19 18 20 19 21 20 22 21 23 22 24
REMARK SMILES IDX 23 25 24 26 76 27 25 28 75 29 26 30 27 31 28 32 69 33 29 34
REMARK SMILES IDX 74 35 68 36 70 37 30 38 73 39 67 40 66 41 31 43 57 44 40 45
REMARK SMILES IDX 56 46 41 47 44 48 55 49 71 50 42 51 43 52 54 54 72 55 45 56
REMARK SMILES IDX 32 57 33 58 38 59 34 60 35 61 37 62 39 63 36 64 58 65 59 66
REMARK SMILES IDX 64 67 60 68 61 69 63 70 65 71 62 72 46 73 47 74 52 75 48 76
REMARK SMILES IDX 49 77 51 78 53 79 50 80
REMARK H PARENT 7 9 70 42 44 53
REMARK Flexibility Score: inf
ROOT
ATOM      1  O   UNL A   1      31.768  29.177  26.100  1.00  0.00    -0.462 OA
ENDROOT
BRANCH   1   2
ATOM      2  C   UNL A   1      31.831  28.041  26.828  1.00  0.00     0.306 C 
ATOM      3  O   UNL A   1      31.107  27.775  27.782  1.00  0.00    -0.252 OA
BRANCH   2   4
ATOM      4  C   UNL A   1      32.844  27.049  26.306  1.00  0.00     0.126 C 
BRANCH   4   5
ATOM      5  C   UNL A   1      32.452  26.090  25.173  1.00  0.00     0.012 C 
ATOM      6  N   UNL A   1      30.383  26.552  23.120  1.00  0.00    -0.330 N 
ATOM      7  C   UNL A   1      31.779  26.560  22.697  1.00  0.00     0.184 C 
ATOM      8  C   UNL A   1      30.286  25.355  23.963  1.00  0.00     0.184 C 
ATOM      9  H   UNL A   1      29.834  26.564  22.261  1.00  0.00     0.348 HD
ATOM     10  C   UNL A   1      31.921  25.117  22.197  1.00  0.00     0.071 C 
ATOM     11  C   UNL A   1      32.774  26.808  23.836  1.00  0.00     0.069 C 
ATOM     12  C   UNL A   1      31.018  24.304  23.121  1.00  0.00     0.071 C 
ATOM     13  C   UNL A   1      30.995  25.595  25.301  1.00  0.00     0.069 C 
BRANCH   6  14
ATOM     14  C   UNL A   1      29.672  27.727  23.636  1.00  0.00     0.265 C 
BRANCH  14  15
ATOM     15  C   UNL A   1      28.928  28.712  22.704  1.00  0.00     0.041 C 
ATOM     16  C   UNL A   1      27.456  28.885  23.114  1.00  0.00     0.013 C 
BRANCH  15  17
ATOM     17  C   UNL A   1      29.604  30.107  22.666  1.00  0.00     0.009 C 
BRANCH  17  18
ATOM     18  C   UNL A   1      29.016  31.212  23.553  1.00  0.00    -0.003 C 
ATOM     19  C   UNL A   1      28.513  32.433  22.802  1.00  0.00     0.004 C 
ENDBRANCH  17  18
ENDBRANCH  15  17
ENDBRANCH  14  15
ENDBRANCH   6  14
ENDBRANCH   4   5
ENDBRANCH   2   4
ENDBRANCH   1   2
BRANCH   1  20
ATOM     20  C   UNL A   1      32.991  29.923  25.964  1.00  0.00     0.274 C 
BRANCH  20  21
ATOM     21  C   UNL A   1      33.412  30.426  27.340  1.00  0.00     0.275 C 
BRANCH  21  22
ATOM     22  O   UNL A   1      34.615  29.745  27.747  1.00  0.00    -0.458 OA
BRANCH  22  23
ATOM     23  C   UNL A   1      35.424  30.435  28.583  1.00  0.00     0.338 C 
ATOM     24  O   UNL A   1      35.132  31.372  29.305  1.00  0.00    -0.246 OA
BRANCH  23  25
ATOM     25  C   UNL A   1      36.776  29.860  28.534  1.00  0.00     0.060 A 
ATOM     26  C   UNL A   1      37.335  29.313  29.687  1.00  0.00     0.016 A 
ATOM     27  C   UNL A   1      37.532  29.968  27.369  1.00  0.00     0.016 A 
ATOM     28  C   UNL A   1      38.679  28.951  29.710  1.00  0.00     0.010 A 
ATOM     29  C   UNL A   1      38.847  29.493  27.361  1.00  0.00     0.010 A 
ATOM     30  C   UNL A   1      39.442  29.001  28.537  1.00  0.00    -0.014 A 
BRANCH  30  31
ATOM     31  C   UNL A   1      40.853  28.532  28.533  1.00  0.00     0.031 A 
ATOM     32  C   UNL A   1      41.974  29.499  28.802  1.00  0.00     0.074 A 
ATOM     33  C   UNL A   1      41.136  27.240  28.270  1.00  0.00     0.049 A 
ATOM     34  N   UNL A   1      43.260  29.344  28.621  1.00  0.00    -0.248 NA
ATOM     35  C   UNL A   1      41.594  30.818  29.331  1.00  0.00     0.031 C 
ATOM     36  C   UNL A   1      40.149  26.184  28.035  1.00  0.00     0.029 A 
ATOM     37  N   UNL A   1      42.342  26.596  28.152  1.00  0.00    -0.354 N 
ATOM     38  C   UNL A   1      43.837  30.564  28.953  1.00  0.00     0.074 A 
ATOM     39  C   UNL A   1      42.762  31.446  29.354  1.00  0.00     0.031 C 
ATOM     40  C   UNL A   1      40.785  25.021  27.834  1.00  0.00     0.029 A 
ATOM     41  C   UNL A   1      42.223  25.265  27.830  1.00  0.00     0.049 A 
ATOM     42  H   UNL A   1      43.209  27.043  28.284  1.00  0.00     0.167 HD
ATOM     43  C   UNL A   1      45.146  30.913  28.917  1.00  0.00     0.037 A 
ATOM     44  C   UNL A   1      43.158  24.351  27.515  1.00  0.00     0.037 A 
ATOM     45  C   UNL A   1      46.216  30.015  28.569  1.00  0.00     0.049 A 
ATOM     46  C   UNL A   1      44.598  24.768  27.455  1.00  0.00     0.074 A 
ATOM     47  C   UNL A   1      47.576  30.269  28.519  1.00  0.00     0.029 A 
ATOM     48  N   UNL A   1      46.045  28.682  28.228  1.00  0.00    -0.354 N 
ATOM     49  N   UNL A   1      45.125  25.942  27.704  1.00  0.00    -0.248 NA
ATOM     50  C   UNL A   1      45.566  23.744  27.043  1.00  0.00     0.031 C 
ATOM     51  C   UNL A   1      48.227  29.095  28.122  1.00  0.00     0.029 A 
ATOM     52  C   UNL A   1      47.274  28.102  27.956  1.00  0.00     0.049 A 
ATOM     53  H   UNL A   1      45.178  28.216  28.185  1.00  0.00     0.167 HD
ATOM     54  C   UNL A   1      46.487  25.798  27.480  1.00  0.00     0.074 A 
ATOM     55  C   UNL A   1      46.706  24.418  27.098  1.00  0.00     0.031 C 
ATOM     56  C   UNL A   1      47.467  26.729  27.572  1.00  0.00     0.037 A 
BRANCH  43  57
ATOM     57  C   UNL A   1      45.488  32.339  29.231  1.00  0.00     0.057 A 
ATOM     58  C   UNL A   1      45.815  32.760  30.525  1.00  0.00     0.134 A 
ATOM     59  C   UNL A   1      45.520  33.299  28.211  1.00  0.00     0.134 A 
ATOM     60  F   UNL A   1      45.788  31.893  31.549  1.00  0.00    -0.206 F 
ATOM     61  C   UNL A   1      46.141  34.091  30.799  1.00  0.00     0.040 A 
ATOM     62  C   UNL A   1      45.864  34.627  28.468  1.00  0.00     0.040 A 
ATOM     63  F   UNL A   1      45.221  32.961  26.948  1.00  0.00    -0.206 F 
ATOM     64  C   UNL A   1      46.171  35.027  29.767  1.00  0.00     0.006 A 
ENDBRANCH  43  57
BRANCH  44  65
ATOM     65  C   UNL A   1      42.751  22.964  27.179  1.00  0.00     0.057 A 
ATOM     66  C   UNL A   1      42.712  22.525  25.852  1.00  0.00     0.134 A 
ATOM     67  C   UNL A   1      42.410  22.042  28.176  1.00  0.00     0.134 A 
ATOM     68  F   UNL A   1      43.007  23.370  24.852  1.00  0.00    -0.206 F 
ATOM     69  C   UNL A   1      42.347  21.218  25.526  1.00  0.00     0.040 A 
ATOM     70  C   UNL A   1      42.066  20.726  27.867  1.00  0.00     0.040 A 
ATOM     71  F   UNL A   1      42.431  22.403  29.468  1.00  0.00    -0.206 F 
ATOM     72  C   UNL A   1      42.031  20.312  26.538  1.00  0.00     0.006 A 
ENDBRANCH  44  65
BRANCH  56  73
ATOM     73  C   UNL A   1      48.861  26.273  27.269  1.00  0.00     0.057 A 
ATOM     74  C   UNL A   1      49.397  26.365  25.978  1.00  0.00     0.134 A 
ATOM     75  C   UNL A   1      49.680  25.756  28.279  1.00  0.00     0.134 A 
ATOM     76  F   UNL A   1      48.653  26.836  24.967  1.00  0.00    -0.206 F 
ATOM     77  C   UNL A   1      50.696  25.941  25.700  1.00  0.00     0.040 A 
ATOM     78  C   UNL A   1      50.988  25.347  28.016  1.00  0.00     0.040 A 
ATOM     79  F   UNL A   1      49.224  25.646  29.536  1.00  0.00    -0.206 F 
ATOM     80  C   UNL A   1      51.496  25.434  26.722  1.00  0.00     0.006 A 
ENDBRANCH  56  73
ENDBRANCH  30  31
ENDBRANCH  23  25
ENDBRANCH  22  23
ENDBRANCH  21  22
ENDBRANCH  20  21
ENDBRANCH   1  20
TORSDOF 16
ENDMDL
