MODEL 1
REMARK VINA RESULT:     -10.8      0.000      0.000
REMARK SMILES O=C(N[C@@H](CS)C(=O)N[C@@H](CO)C(=O)OCCOC(=O)c1ccc(-c2c3nc(c(-c4c(F)cccc4F)c4ccc([nH]4)c(-c4c(F)cccc4F)c4nc(c(-c5c(F)cccc5F)c5ccc2[nH]5)C=C4)C=C3)cc1)c1ccc(F)cc1
REMARK SMILES IDX 16 1 15 2 13 3 14 4 10 5 9 6 7 7 8 8 4 10 3 11 1 12 2 13
REMARK SMILES IDX 75 15 76 16 81 17 77 18 80 19 78 20 79 21 5 22 6 23 11 25
REMARK SMILES IDX 12 26 17 28 18 29 19 30 20 31 21 32 22 33 74 34 23 35 73 36
REMARK SMILES IDX 24 37 25 38 26 39 67 40 27 41 72 42 66 43 68 44 28 45 71 46
REMARK SMILES IDX 65 47 64 48 29 50 55 51 38 52 54 53 39 54 42 55 53 56 69 57
REMARK SMILES IDX 40 58 41 59 52 61 70 62 43 63 30 64 31 65 36 66 32 67 33 68
REMARK SMILES IDX 35 69 37 70 34 71 56 72 57 73 62 74 58 75 59 76 61 77 63 78
REMARK SMILES IDX 60 79 44 80 45 81 50 82 46 83 47 84 49 85 51 86 48 87
REMARK H PARENT 9 9 3 14 6 24 12 27 68 49 42 60
REMARK Flexibility Score: inf
ROOT
ATOM      1  C   UNL A   1      32.469  28.967  24.733  1.00  0.00     0.274 C 
ENDROOT
BRANCH   1   2
ATOM      2  O   UNL A   1      31.585  27.910  24.303  1.00  0.00    -0.460 OA
BRANCH   2   3
ATOM      3  C   UNL A   1      31.356  26.900  25.194  1.00  0.00     0.331 C 
ATOM      4  O   UNL A   1      31.936  26.762  26.265  1.00  0.00    -0.250 OA
BRANCH   3   5
ATOM      5  C   UNL A   1      30.351  25.872  24.645  1.00  0.00     0.218 C 
BRANCH   5   6
ATOM      6  N   UNL A   1      29.797  25.014  25.702  1.00  0.00    -0.339 N 
ATOM      7  C   UNL A   1      30.266  23.946  26.384  1.00  0.00     0.244 C 
ATOM      8  O   UNL A   1      29.590  23.596  27.360  1.00  0.00    -0.273 OA
ATOM      9  H   UNL A   1      28.887  25.276  25.972  1.00  0.00     0.164 HD
BRANCH   7  10
ATOM     10  C   UNL A   1      31.607  23.231  26.111  1.00  0.00     0.181 C 
BRANCH  10  11
ATOM     11  N   UNL A   1      32.420  22.890  27.284  1.00  0.00    -0.339 N 
ATOM     12  O   UNL A   1      34.203  22.004  28.332  1.00  0.00    -0.269 OA
ATOM     13  C   UNL A   1      33.747  22.524  27.321  1.00  0.00     0.251 C 
ATOM     14  H   UNL A   1      31.959  22.927  28.153  1.00  0.00     0.164 HD
BRANCH  13  15
ATOM     15  C   UNL A   1      34.609  22.687  26.125  1.00  0.00     0.040 A 
ATOM     16  C   UNL A   1      35.147  21.570  25.473  1.00  0.00     0.017 A 
ATOM     17  C   UNL A   1      34.847  23.975  25.623  1.00  0.00     0.017 A 
ATOM     18  C   UNL A   1      35.974  21.745  24.363  1.00  0.00     0.040 A 
ATOM     19  C   UNL A   1      35.666  24.144  24.503  1.00  0.00     0.040 A 
ATOM     20  C   UNL A   1      36.230  23.028  23.891  1.00  0.00     0.123 A 
ATOM     21  F   UNL A   1      37.022  23.190  22.824  1.00  0.00    -0.207 F 
ENDBRANCH  13  15
ENDBRANCH  10  11
BRANCH  10  22
ATOM     22  C   UNL A   1      31.428  22.081  25.103  1.00  0.00     0.101 C 
BRANCH  22  23
ATOM     23  S   UNL A   1      31.987  22.443  23.411  1.00  0.00    -0.177 SA
ATOM     24  H   UNL A   1      33.205  23.046  23.456  1.00  0.00     0.102 HD
ENDBRANCH  22  23
ENDBRANCH  10  22
ENDBRANCH   7  10
ENDBRANCH   5   6
BRANCH   5  25
ATOM     25  C   UNL A   1      29.229  26.666  23.960  1.00  0.00     0.193 C 
BRANCH  25  26
ATOM     26  O   UNL A   1      28.029  25.894  23.869  1.00  0.00    -0.394 OA
ATOM     27  H   UNL A   1      27.815  25.525  24.740  1.00  0.00     0.210 HD
ENDBRANCH  25  26
ENDBRANCH   5  25
ENDBRANCH   3   5
ENDBRANCH   2   3
ENDBRANCH   1   2
BRANCH   1  28
ATOM     28  C   UNL A   1      31.677  30.070  25.429  1.00  0.00     0.275 C 
BRANCH  28  29
ATOM     29  O   UNL A   1      32.155  30.198  26.778  1.00  0.00    -0.458 OA
BRANCH  29  30
ATOM     30  C   UNL A   1      32.765  31.360  27.094  1.00  0.00     0.338 C 
ATOM     31  O   UNL A   1      32.281  32.484  27.059  1.00  0.00    -0.246 OA
BRANCH  30  32
ATOM     32  C   UNL A   1      34.146  31.094  27.545  1.00  0.00     0.060 A 
ATOM     33  C   UNL A   1      34.567  29.790  27.786  1.00  0.00     0.016 A 
ATOM     34  C   UNL A   1      34.989  32.162  27.858  1.00  0.00     0.016 A 
ATOM     35  C   UNL A   1      35.784  29.568  28.436  1.00  0.00     0.010 A 
ATOM     36  C   UNL A   1      36.251  31.922  28.421  1.00  0.00     0.010 A 
ATOM     37  C   UNL A   1      36.654  30.620  28.767  1.00  0.00    -0.014 A 
BRANCH  37  38
ATOM     38  C   UNL A   1      37.935  30.377  29.512  1.00  0.00     0.031 A 
ATOM     39  C   UNL A   1      39.049  29.559  28.893  1.00  0.00     0.074 A 
ATOM     40  C   UNL A   1      38.149  30.895  30.741  1.00  0.00     0.049 A 
ATOM     41  N   UNL A   1      40.065  28.967  29.474  1.00  0.00    -0.248 NA
ATOM     42  C   UNL A   1      39.012  29.373  27.433  1.00  0.00     0.031 C 
ATOM     43  C   UNL A   1      37.241  31.781  31.469  1.00  0.00     0.029 A 
ATOM     44  N   UNL A   1      39.217  30.753  31.599  1.00  0.00    -0.354 N 
ATOM     45  C   UNL A   1      40.733  28.273  28.470  1.00  0.00     0.074 A 
ATOM     46  C   UNL A   1      40.023  28.535  27.236  1.00  0.00     0.031 C 
ATOM     47  C   UNL A   1      37.812  32.158  32.619  1.00  0.00     0.029 A 
ATOM     48  C   UNL A   1      39.051  31.412  32.794  1.00  0.00     0.049 A 
ATOM     49  H   UNL A   1      40.021  30.230  31.379  1.00  0.00     0.167 HD
ATOM     50  C   UNL A   1      41.832  27.484  28.572  1.00  0.00     0.037 A 
ATOM     51  C   UNL A   1      39.747  31.364  33.945  1.00  0.00     0.037 A 
ATOM     52  C   UNL A   1      42.595  27.299  29.783  1.00  0.00     0.049 A 
ATOM     53  C   UNL A   1      40.906  30.424  34.069  1.00  0.00     0.074 A 
ATOM     54  C   UNL A   1      43.727  26.525  29.981  1.00  0.00     0.029 A 
ATOM     55  N   UNL A   1      42.323  27.920  30.991  1.00  0.00    -0.354 N 
ATOM     56  N   UNL A   1      41.437  29.646  33.159  1.00  0.00    -0.248 NA
ATOM     57  C   UNL A   1      41.530  30.316  35.396  1.00  0.00     0.031 C 
ATOM     58  C   UNL A   1      44.123  26.656  31.316  1.00  0.00     0.029 A 
ATOM     59  C   UNL A   1      43.259  27.539  31.940  1.00  0.00     0.049 A 
ATOM     60  H   UNL A   1      41.576  28.540  31.152  1.00  0.00     0.167 HD
ATOM     61  C   UNL A   1      42.449  28.949  33.803  1.00  0.00     0.074 A 
ATOM     62  C   UNL A   1      42.477  29.416  35.173  1.00  0.00     0.031 C 
ATOM     63  C   UNL A   1      43.273  27.999  33.303  1.00  0.00     0.037 A 
BRANCH  50  64
ATOM     64  C   UNL A   1      42.277  26.720  27.357  1.00  0.00     0.057 A 
ATOM     65  C   UNL A   1      43.253  27.206  26.480  1.00  0.00     0.134 A 
ATOM     66  C   UNL A   1      41.785  25.427  27.124  1.00  0.00     0.134 A 
ATOM     67  F   UNL A   1      43.760  28.437  26.642  1.00  0.00    -0.206 F 
ATOM     68  C   UNL A   1      43.721  26.436  25.412  1.00  0.00     0.040 A 
ATOM     69  C   UNL A   1      42.259  24.640  26.074  1.00  0.00     0.040 A 
ATOM     70  F   UNL A   1      40.856  24.897  27.933  1.00  0.00    -0.206 F 
ATOM     71  C   UNL A   1      43.232  25.145  25.213  1.00  0.00     0.006 A 
ENDBRANCH  50  64
BRANCH  51  72
ATOM     72  C   UNL A   1      39.276  32.147  35.116  1.00  0.00     0.057 A 
ATOM     73  C   UNL A   1      39.670  33.474  35.307  1.00  0.00     0.134 A 
ATOM     74  C   UNL A   1      38.394  31.591  36.054  1.00  0.00     0.134 A 
ATOM     75  F   UNL A   1      40.539  34.050  34.464  1.00  0.00    -0.206 F 
ATOM     76  C   UNL A   1      39.191  34.227  36.382  1.00  0.00     0.040 A 
ATOM     77  C   UNL A   1      37.882  32.341  37.111  1.00  0.00     0.040 A 
ATOM     78  F   UNL A   1      37.984  30.320  35.928  1.00  0.00    -0.206 F 
ATOM     79  C   UNL A   1      38.283  33.664  37.278  1.00  0.00     0.006 A 
ENDBRANCH  51  72
BRANCH  63  80
ATOM     80  C   UNL A   1      44.283  27.415  34.241  1.00  0.00     0.057 A 
ATOM     81  C   UNL A   1      45.530  28.019  34.443  1.00  0.00     0.134 A 
ATOM     82  C   UNL A   1      44.004  26.243  34.956  1.00  0.00     0.134 A 
ATOM     83  F   UNL A   1      45.861  29.133  33.774  1.00  0.00    -0.206 F 
ATOM     84  C   UNL A   1      46.474  27.466  35.309  1.00  0.00     0.040 A 
ATOM     85  C   UNL A   1      44.933  25.691  35.838  1.00  0.00     0.040 A 
ATOM     86  F   UNL A   1      42.825  25.620  34.808  1.00  0.00    -0.206 F 
ATOM     87  C   UNL A   1      46.175  26.300  36.012  1.00  0.00     0.006 A 
ENDBRANCH  63  80
ENDBRANCH  37  38
ENDBRANCH  30  32
ENDBRANCH  29  30
ENDBRANCH  28  29
ENDBRANCH   1  28
TORSDOF 19
ENDMDL
MODEL 2
REMARK VINA RESULT:     -10.7      3.975      8.729
REMARK SMILES O=C(N[C@@H](CS)C(=O)N[C@@H](CO)C(=O)OCCOC(=O)c1ccc(-c2c3nc(c(-c4c(F)cccc4F)c4ccc([nH]4)c(-c4c(F)cccc4F)c4nc(c(-c5c(F)cccc5F)c5ccc2[nH]5)C=C4)C=C3)cc1)c1ccc(F)cc1
REMARK SMILES IDX 16 1 15 2 13 3 14 4 10 5 9 6 7 7 8 8 4 10 3 11 1 12 2 13
REMARK SMILES IDX 75 15 76 16 81 17 77 18 80 19 78 20 79 21 5 22 6 23 11 25
REMARK SMILES IDX 12 26 17 28 18 29 19 30 20 31 21 32 22 33 74 34 23 35 73 36
REMARK SMILES IDX 24 37 25 38 26 39 67 40 27 41 72 42 66 43 68 44 28 45 71 46
REMARK SMILES IDX 65 47 64 48 29 50 55 51 38 52 54 53 39 54 42 55 53 56 69 57
REMARK SMILES IDX 40 58 41 59 52 61 70 62 43 63 30 64 31 65 36 66 32 67 33 68
REMARK SMILES IDX 35 69 37 70 34 71 56 72 57 73 62 74 58 75 59 76 61 77 63 78
REMARK SMILES IDX 60 79 44 80 45 81 50 82 46 83 47 84 49 85 51 86 48 87
REMARK H PARENT 9 9 3 14 6 24 12 27 68 49 42 60
REMARK Flexibility Score: inf
ROOT
ATOM      1  C   UNL A   1      35.132  21.764  25.300  1.00  0.00     0.274 C 
ENDROOT
BRANCH   1   2
ATOM      2  O   UNL A   1      34.330  21.956  24.116  1.00  0.00    -0.460 OA
BRANCH   2   3
ATOM      3  C   UNL A   1      34.611  23.056  23.355  1.00  0.00     0.331 C 
ATOM      4  O   UNL A   1      35.694  23.290  22.831  1.00  0.00    -0.250 OA
BRANCH   3   5
ATOM      5  C   UNL A   1      33.430  24.041  23.318  1.00  0.00     0.218 C 
BRANCH   5   6
ATOM      6  N   UNL A   1      33.665  25.159  22.394  1.00  0.00    -0.339 N 
ATOM      7  C   UNL A   1      33.294  26.459  22.380  1.00  0.00     0.244 C 
ATOM      8  O   UNL A   1      33.852  27.166  21.532  1.00  0.00    -0.273 OA
ATOM      9  H   UNL A   1      34.213  24.906  21.616  1.00  0.00     0.164 HD
BRANCH   7  10
ATOM     10  C   UNL A   1      32.341  27.125  23.396  1.00  0.00     0.181 C 
BRANCH  10  11
ATOM     11  N   UNL A   1      32.943  27.601  24.646  1.00  0.00    -0.339 N 
ATOM     12  O   UNL A   1      33.067  27.836  26.881  1.00  0.00    -0.269 OA
ATOM     13  C   UNL A   1      32.702  27.157  25.928  1.00  0.00     0.251 C 
ATOM     14  H   UNL A   1      33.601  28.328  24.559  1.00  0.00     0.164 HD
BRANCH  13  15
ATOM     15  C   UNL A   1      31.942  25.906  26.165  1.00  0.00     0.040 A 
ATOM     16  C   UNL A   1      32.602  24.724  26.520  1.00  0.00     0.017 A 
ATOM     17  C   UNL A   1      30.542  25.928  26.072  1.00  0.00     0.017 A 
ATOM     18  C   UNL A   1      31.871  23.552  26.717  1.00  0.00     0.040 A 
ATOM     19  C   UNL A   1      29.814  24.753  26.282  1.00  0.00     0.040 A 
ATOM     20  C   UNL A   1      30.486  23.575  26.592  1.00  0.00     0.123 A 
ATOM     21  F   UNL A   1      29.790  22.448  26.784  1.00  0.00    -0.207 F 
ENDBRANCH  13  15
ENDBRANCH  10  11
BRANCH  10  22
ATOM     22  C   UNL A   1      31.416  28.144  22.704  1.00  0.00     0.101 C 
BRANCH  22  23
ATOM     23  S   UNL A   1      30.565  29.298  23.822  1.00  0.00    -0.177 SA
ATOM     24  H   UNL A   1      31.151  29.255  25.049  1.00  0.00     0.102 HD
ENDBRANCH  22  23
ENDBRANCH  10  22
ENDBRANCH   7  10
ENDBRANCH   5   6
BRANCH   5  25
ATOM     25  C   UNL A   1      32.193  23.241  22.884  1.00  0.00     0.193 C 
BRANCH  25  26
ATOM     26  O   UNL A   1      32.482  22.416  21.752  1.00  0.00    -0.394 OA
ATOM     27  H   UNL A   1      33.434  22.443  21.567  1.00  0.00     0.210 HD
ENDBRANCH  25  26
ENDBRANCH   5  25
ENDBRANCH   3   5
ENDBRANCH   2   3
ENDBRANCH   1   2
BRANCH   1  28
ATOM     28  C   UNL A   1      36.192  20.695  25.055  1.00  0.00     0.275 C 
BRANCH  28  29
ATOM     29  O   UNL A   1      37.448  21.343  24.793  1.00  0.00    -0.458 OA
BRANCH  29  30
ATOM     30  C   UNL A   1      38.498  20.948  25.545  1.00  0.00     0.338 C 
ATOM     31  O   UNL A   1      38.954  19.816  25.643  1.00  0.00    -0.246 OA
BRANCH  30  32
ATOM     32  C   UNL A   1      39.082  22.112  26.240  1.00  0.00     0.060 A 
ATOM     33  C   UNL A   1      38.574  23.389  26.020  1.00  0.00     0.016 A 
ATOM     34  C   UNL A   1      40.232  21.950  27.014  1.00  0.00     0.016 A 
ATOM     35  C   UNL A   1      39.279  24.500  26.489  1.00  0.00     0.010 A 
ATOM     36  C   UNL A   1      40.877  23.068  27.563  1.00  0.00     0.010 A 
ATOM     37  C   UNL A   1      40.440  24.372  27.269  1.00  0.00    -0.014 A 
BRANCH  37  38
ATOM     38  C   UNL A   1      41.219  25.572  27.724  1.00  0.00     0.031 A 
ATOM     39  C   UNL A   1      40.586  26.612  28.625  1.00  0.00     0.074 A 
ATOM     40  C   UNL A   1      42.510  25.754  27.371  1.00  0.00     0.049 A 
ATOM     41  N   UNL A   1      40.959  27.849  28.854  1.00  0.00    -0.248 NA
ATOM     42  C   UNL A   1      39.372  26.216  29.357  1.00  0.00     0.031 C 
ATOM     43  C   UNL A   1      43.324  24.825  26.586  1.00  0.00     0.029 A 
ATOM     44  N   UNL A   1      43.374  26.793  27.637  1.00  0.00    -0.354 N 
ATOM     45  C   UNL A   1      39.984  28.399  29.680  1.00  0.00     0.074 A 
ATOM     46  C   UNL A   1      39.014  27.356  29.935  1.00  0.00     0.031 C 
ATOM     47  C   UNL A   1      44.574  25.295  26.496  1.00  0.00     0.029 A 
ATOM     48  C   UNL A   1      44.615  26.634  27.068  1.00  0.00     0.049 A 
ATOM     49  H   UNL A   1      43.127  27.575  28.183  1.00  0.00     0.167 HD
ATOM     50  C   UNL A   1      39.904  29.661  30.172  1.00  0.00     0.037 A 
ATOM     51  C   UNL A   1      45.647  27.486  26.922  1.00  0.00     0.037 A 
ATOM     52  C   UNL A   1      40.918  30.672  29.996  1.00  0.00     0.049 A 
ATOM     53  C   UNL A   1      45.510  28.901  27.395  1.00  0.00     0.074 A 
ATOM     54  C   UNL A   1      40.929  31.976  30.465  1.00  0.00     0.029 A 
ATOM     55  N   UNL A   1      42.116  30.482  29.326  1.00  0.00    -0.354 N 
ATOM     56  N   UNL A   1      44.516  29.462  28.037  1.00  0.00    -0.248 NA
ATOM     57  C   UNL A   1      46.617  29.814  27.076  1.00  0.00     0.031 C 
ATOM     58  C   UNL A   1      42.120  32.583  30.054  1.00  0.00     0.029 A 
ATOM     59  C   UNL A   1      42.867  31.647  29.360  1.00  0.00     0.049 A 
ATOM     60  H   UNL A   1      42.393  29.644  28.891  1.00  0.00     0.167 HD
ATOM     61  C   UNL A   1      44.872  30.794  28.190  1.00  0.00     0.074 A 
ATOM     62  C   UNL A   1      46.184  30.952  27.600  1.00  0.00     0.031 C 
ATOM     63  C   UNL A   1      44.165  31.799  28.761  1.00  0.00     0.037 A 
BRANCH  50  64
ATOM     64  C   UNL A   1      38.666  30.055  30.927  1.00  0.00     0.057 A 
ATOM     65  C   UNL A   1      38.556  29.917  32.315  1.00  0.00     0.134 A 
ATOM     66  C   UNL A   1      37.604  30.677  30.254  1.00  0.00     0.134 A 
ATOM     67  F   UNL A   1      39.532  29.323  33.018  1.00  0.00    -0.206 F 
ATOM     68  C   UNL A   1      37.434  30.379  33.006  1.00  0.00     0.040 A 
ATOM     69  C   UNL A   1      36.488  31.163  30.935  1.00  0.00     0.040 A 
ATOM     70  F   UNL A   1      37.651  30.851  28.924  1.00  0.00    -0.206 F 
ATOM     71  C   UNL A   1      36.400  31.015  32.318  1.00  0.00     0.006 A 
ENDBRANCH  50  64
BRANCH  51  72
ATOM     72  C   UNL A   1      46.856  27.047  26.180  1.00  0.00     0.057 A 
ATOM     73  C   UNL A   1      47.919  26.415  26.832  1.00  0.00     0.134 A 
ATOM     74  C   UNL A   1      46.960  27.224  24.793  1.00  0.00     0.134 A 
ATOM     75  F   UNL A   1      47.893  26.250  28.162  1.00  0.00    -0.206 F 
ATOM     76  C   UNL A   1      49.036  25.960  26.129  1.00  0.00     0.040 A 
ATOM     77  C   UNL A   1      48.054  26.744  24.073  1.00  0.00     0.040 A 
ATOM     78  F   UNL A   1      45.976  27.829  24.111  1.00  0.00    -0.206 F 
ATOM     79  C   UNL A   1      49.098  26.112  24.744  1.00  0.00     0.006 A 
ENDBRANCH  51  72
BRANCH  63  80
ATOM     80  C   UNL A   1      44.808  33.151  28.785  1.00  0.00     0.057 A 
ATOM     81  C   UNL A   1      45.649  33.542  29.834  1.00  0.00     0.134 A 
ATOM     82  C   UNL A   1      44.592  34.066  27.748  1.00  0.00     0.134 A 
ATOM     83  F   UNL A   1      45.880  32.715  30.865  1.00  0.00    -0.206 F 
ATOM     84  C   UNL A   1      46.237  34.808  29.861  1.00  0.00     0.040 A 
ATOM     85  C   UNL A   1      45.189  35.327  27.755  1.00  0.00     0.040 A 
ATOM     86  F   UNL A   1      43.799  33.748  26.713  1.00  0.00    -0.206 F 
ATOM     87  C   UNL A   1      46.009  35.703  28.817  1.00  0.00     0.006 A 
ENDBRANCH  63  80
ENDBRANCH  37  38
ENDBRANCH  30  32
ENDBRANCH  29  30
ENDBRANCH  28  29
ENDBRANCH   1  28
TORSDOF 19
ENDMDL
MODEL 3
REMARK VINA RESULT:     -10.7      1.315      2.149
REMARK SMILES O=C(N[C@@H](CS)C(=O)N[C@@H](CO)C(=O)OCCOC(=O)c1ccc(-c2c3nc(c(-c4c(F)cccc4F)c4ccc([nH]4)c(-c4c(F)cccc4F)c4nc(c(-c5c(F)cccc5F)c5ccc2[nH]5)C=C4)C=C3)cc1)c1ccc(F)cc1
REMARK SMILES IDX 16 1 15 2 13 3 14 4 10 5 9 6 7 7 8 8 4 10 3 11 1 12 2 13
REMARK SMILES IDX 75 15 76 16 81 17 77 18 80 19 78 20 79 21 5 22 6 23 11 25
REMARK SMILES IDX 12 26 17 28 18 29 19 30 20 31 21 32 22 33 74 34 23 35 73 36
REMARK SMILES IDX 24 37 25 38 26 39 67 40 27 41 72 42 66 43 68 44 28 45 71 46
REMARK SMILES IDX 65 47 64 48 29 50 55 51 38 52 54 53 39 54 42 55 53 56 69 57
REMARK SMILES IDX 40 58 41 59 52 61 70 62 43 63 30 64 31 65 36 66 32 67 33 68
REMARK SMILES IDX 35 69 37 70 34 71 56 72 57 73 62 74 58 75 59 76 61 77 63 78
REMARK SMILES IDX 60 79 44 80 45 81 50 82 46 83 47 84 49 85 51 86 48 87
REMARK H PARENT 9 9 3 14 6 24 12 27 68 49 42 60
REMARK Flexibility Score: inf
ROOT
ATOM      1  C   UNL A   1      31.429  27.460  26.590  1.00  0.00     0.274 C 
ENDROOT
BRANCH   1   2
ATOM      2  O   UNL A   1      30.621  26.723  25.648  1.00  0.00    -0.460 OA
BRANCH   2   3
ATOM      3  C   UNL A   1      30.230  25.469  26.024  1.00  0.00     0.331 C 
ATOM      4  O   UNL A   1      29.178  25.201  26.592  1.00  0.00    -0.250 OA
BRANCH   3   5
ATOM      5  C   UNL A   1      31.326  24.424  25.749  1.00  0.00     0.218 C 
BRANCH   5   6
ATOM      6  N   UNL A   1      31.616  23.597  26.929  1.00  0.00    -0.339 N 
ATOM      7  C   UNL A   1      32.590  22.713  27.238  1.00  0.00     0.244 C 
ATOM      8  O   UNL A   1      32.628  22.350  28.421  1.00  0.00    -0.273 OA
ATOM      9  H   UNL A   1      30.956  23.712  27.651  1.00  0.00     0.164 HD
BRANCH   7  10
ATOM     10  C   UNL A   1      33.698  22.234  26.276  1.00  0.00     0.181 C 
BRANCH  10  11
ATOM     11  N   UNL A   1      35.022  22.843  26.444  1.00  0.00    -0.339 N 
ATOM     12  O   UNL A   1      36.823  24.011  25.767  1.00  0.00    -0.269 OA
ATOM     13  C   UNL A   1      35.618  23.811  25.666  1.00  0.00     0.251 C 
ATOM     14  H   UNL A   1      35.552  22.518  27.208  1.00  0.00     0.164 HD
BRANCH  13  15
ATOM     15  C   UNL A   1      34.830  24.561  24.659  1.00  0.00     0.040 A 
ATOM     16  C   UNL A   1      34.457  23.960  23.450  1.00  0.00     0.017 A 
ATOM     17  C   UNL A   1      34.420  25.871  24.947  1.00  0.00     0.017 A 
ATOM     18  C   UNL A   1      33.735  24.690  22.505  1.00  0.00     0.040 A 
ATOM     19  C   UNL A   1      33.686  26.593  24.002  1.00  0.00     0.040 A 
ATOM     20  C   UNL A   1      33.359  25.999  22.787  1.00  0.00     0.123 A 
ATOM     21  F   UNL A   1      32.664  26.694  21.877  1.00  0.00    -0.207 F 
ENDBRANCH  13  15
ENDBRANCH  10  11
BRANCH  10  22
ATOM     22  C   UNL A   1      33.712  20.698  26.164  1.00  0.00     0.101 C 
BRANCH  22  23
ATOM     23  S   UNL A   1      32.640  20.007  24.870  1.00  0.00    -0.177 SA
ATOM     24  H   UNL A   1      32.403  18.694  25.130  1.00  0.00     0.102 HD
ENDBRANCH  22  23
ENDBRANCH  10  22
ENDBRANCH   7  10
ENDBRANCH   5   6
BRANCH   5  25
ATOM     25  C   UNL A   1      30.827  23.547  24.592  1.00  0.00     0.193 C 
BRANCH  25  26
ATOM     26  O   UNL A   1      30.087  24.317  23.641  1.00  0.00    -0.394 OA
ATOM     27  H   UNL A   1      29.302  24.693  24.070  1.00  0.00     0.210 HD
ENDBRANCH  25  26
ENDBRANCH   5  25
ENDBRANCH   3   5
ENDBRANCH   2   3
ENDBRANCH   1   2
BRANCH   1  28
ATOM     28  C   UNL A   1      31.595  28.905  26.130  1.00  0.00     0.275 C 
BRANCH  28  29
ATOM     29  O   UNL A   1      31.924  29.716  27.269  1.00  0.00    -0.458 OA
BRANCH  29  30
ATOM     30  C   UNL A   1      32.589  30.864  27.020  1.00  0.00     0.338 C 
ATOM     31  O   UNL A   1      32.137  31.889  26.524  1.00  0.00    -0.246 OA
BRANCH  30  32
ATOM     32  C   UNL A   1      33.988  30.742  27.474  1.00  0.00     0.060 A 
ATOM     33  C   UNL A   1      34.584  29.488  27.584  1.00  0.00     0.016 A 
ATOM     34  C   UNL A   1      34.672  31.873  27.921  1.00  0.00     0.016 A 
ATOM     35  C   UNL A   1      35.813  29.365  28.236  1.00  0.00     0.010 A 
ATOM     36  C   UNL A   1      35.950  31.747  28.486  1.00  0.00     0.010 A 
ATOM     37  C   UNL A   1      36.525  30.483  28.701  1.00  0.00    -0.014 A 
BRANCH  37  38
ATOM     38  C   UNL A   1      37.820  30.336  29.447  1.00  0.00     0.031 A 
ATOM     39  C   UNL A   1      38.984  29.579  28.841  1.00  0.00     0.074 A 
ATOM     40  C   UNL A   1      38.003  30.891  30.665  1.00  0.00     0.049 A 
ATOM     41  N   UNL A   1      40.036  29.064  29.431  1.00  0.00    -0.248 NA
ATOM     42  C   UNL A   1      38.957  29.362  27.386  1.00  0.00     0.031 C 
ATOM     43  C   UNL A   1      37.040  31.732  31.378  1.00  0.00     0.029 A 
ATOM     44  N   UNL A   1      39.079  30.834  31.523  1.00  0.00    -0.354 N 
ATOM     45  C   UNL A   1      40.746  28.395  28.439  1.00  0.00     0.074 A 
ATOM     46  C   UNL A   1      40.019  28.587  27.203  1.00  0.00     0.031 C 
ATOM     47  C   UNL A   1      37.588  32.166  32.519  1.00  0.00     0.029 A 
ATOM     48  C   UNL A   1      38.872  31.505  32.705  1.00  0.00     0.049 A 
ATOM     49  H   UNL A   1      39.914  30.359  31.311  1.00  0.00     0.167 HD
ATOM     50  C   UNL A   1      41.893  27.680  28.555  1.00  0.00     0.037 A 
ATOM     51  C   UNL A   1      39.571  31.523  33.856  1.00  0.00     0.037 A 
ATOM     52  C   UNL A   1      42.667  27.568  29.766  1.00  0.00     0.049 A 
ATOM     53  C   UNL A   1      40.788  30.662  33.995  1.00  0.00     0.074 A 
ATOM     54  C   UNL A   1      43.847  26.872  29.977  1.00  0.00     0.029 A 
ATOM     55  N   UNL A   1      42.358  28.194  30.963  1.00  0.00    -0.354 N 
ATOM     56  N   UNL A   1      41.366  29.902  33.099  1.00  0.00    -0.248 NA
ATOM     57  C   UNL A   1      41.419  30.620  35.322  1.00  0.00     0.031 C 
ATOM     58  C   UNL A   1      44.236  27.054  31.308  1.00  0.00     0.029 A 
ATOM     59  C   UNL A   1      43.318  27.892  31.917  1.00  0.00     0.049 A 
ATOM     60  H   UNL A   1      41.574  28.768  31.114  1.00  0.00     0.167 HD
ATOM     61  C   UNL A   1      42.422  29.284  33.754  1.00  0.00     0.074 A 
ATOM     62  C   UNL A   1      42.422  29.778  35.114  1.00  0.00     0.031 C 
ATOM     63  C   UNL A   1      43.304  28.378  33.270  1.00  0.00     0.037 A 
BRANCH  50  64
ATOM     64  C   UNL A   1      42.385  26.922  27.353  1.00  0.00     0.057 A 
ATOM     65  C   UNL A   1      43.247  27.489  26.409  1.00  0.00     0.134 A 
ATOM     66  C   UNL A   1      42.062  25.565  27.201  1.00  0.00     0.134 A 
ATOM     67  F   UNL A   1      43.590  28.783  26.492  1.00  0.00    -0.206 F 
ATOM     68  C   UNL A   1      43.768  26.736  25.354  1.00  0.00     0.040 A 
ATOM     69  C   UNL A   1      42.592  24.797  26.164  1.00  0.00     0.040 A 
ATOM     70  F   UNL A   1      41.248  24.957  28.078  1.00  0.00    -0.206 F 
ATOM     71  C   UNL A   1      43.450  25.383  25.235  1.00  0.00     0.006 A 
ENDBRANCH  50  64
BRANCH  51  72
ATOM     72  C   UNL A   1      39.053  32.298  35.012  1.00  0.00     0.057 A 
ATOM     73  C   UNL A   1      38.277  31.693  36.004  1.00  0.00     0.134 A 
ATOM     74  C   UNL A   1      39.352  33.660  35.165  1.00  0.00     0.134 A 
ATOM     75  F   UNL A   1      37.928  30.403  35.895  1.00  0.00    -0.206 F 
ATOM     76  C   UNL A   1      37.828  32.410  37.115  1.00  0.00     0.040 A 
ATOM     77  C   UNL A   1      38.940  34.379  36.285  1.00  0.00     0.040 A 
ATOM     78  F   UNL A   1      40.088  34.300  34.243  1.00  0.00    -0.206 F 
ATOM     79  C   UNL A   1      38.172  33.753  37.264  1.00  0.00     0.006 A 
ENDBRANCH  51  72
BRANCH  63  80
ATOM     80  C   UNL A   1      44.351  27.878  34.218  1.00  0.00     0.057 A 
ATOM     81  C   UNL A   1      44.166  26.705  34.959  1.00  0.00     0.134 A 
ATOM     82  C   UNL A   1      45.556  28.571  34.385  1.00  0.00     0.134 A 
ATOM     83  F   UNL A   1      43.025  26.008  34.854  1.00  0.00    -0.206 F 
ATOM     84  C   UNL A   1      45.138  26.247  35.850  1.00  0.00     0.040 A 
ATOM     85  C   UNL A   1      46.542  28.114  35.259  1.00  0.00     0.040 A 
ATOM     86  F   UNL A   1      45.793  29.700  33.700  1.00  0.00    -0.206 F 
ATOM     87  C   UNL A   1      46.331  26.952  35.999  1.00  0.00     0.006 A 
ENDBRANCH  63  80
ENDBRANCH  37  38
ENDBRANCH  30  32
ENDBRANCH  29  30
ENDBRANCH  28  29
ENDBRANCH   1  28
TORSDOF 19
ENDMDL
