MODEL 1
REMARK VINA RESULT:      -9.3      0.000      0.000
REMARK SMILES O=C(OCCOC(=O)c1cc(-c2ccc(C(F)(F)F)cc2)cc([N+](=O)[O-])c1)c1ccc(-c2c3nc(c(-c4c(F)cccc4F)c4ccc([nH]4)c(-c4c(F)cccc4F)c4nc(c(-c5c(F)cccc5F)c5ccc2[nH]5)C=C4)C=C3)cc1
REMARK SMILES IDX 4 1 3 2 2 3 1 4 28 5 29 6 81 7 30 8 80 9 31 10 32 11 33 12
REMARK SMILES IDX 74 13 34 14 79 15 73 16 75 17 35 18 78 19 72 20 71 21 36 23
REMARK SMILES IDX 62 24 45 25 61 26 46 27 49 28 60 29 76 30 47 31 48 32 59 34
REMARK SMILES IDX 77 35 50 36 37 37 38 38 43 39 39 40 40 41 42 42 44 43 41 44
REMARK SMILES IDX 63 45 64 46 69 47 65 48 66 49 68 50 70 51 67 52 51 53 52 54
REMARK SMILES IDX 57 55 53 56 54 57 56 58 58 59 55 60 5 61 6 62 7 63 8 64 9 65
REMARK SMILES IDX 10 66 27 67 11 68 23 69 22 70 12 71 13 72 21 73 14 74 20 75
REMARK SMILES IDX 15 76 16 77 17 78 18 79 19 80 24 81 25 82 26 83
REMARK H PARENT 75 22 49 33
REMARK Flexibility Score: inf
ROOT
ATOM      1  C   UNL A   1      44.822  22.521  24.167  1.00  0.00     0.275 C 
ENDROOT
BRANCH   1   2
ATOM      2  O   UNL A   1      43.470  22.996  24.276  1.00  0.00    -0.458 OA
BRANCH   2   3
ATOM      3  C   UNL A   1      42.627  22.998  25.333  1.00  0.00     0.338 C 
ATOM      4  O   UNL A   1      41.923  22.007  25.525  1.00  0.00    -0.246 OA
BRANCH   3   5
ATOM      5  C   UNL A   1      42.387  24.190  26.212  1.00  0.00     0.060 A 
ATOM      6  C   UNL A   1      42.547  25.531  25.860  1.00  0.00     0.016 A 
ATOM      7  C   UNL A   1      41.916  23.912  27.509  1.00  0.00     0.016 A 
ATOM      8  C   UNL A   1      42.174  26.559  26.726  1.00  0.00     0.010 A 
ATOM      9  C   UNL A   1      41.518  24.932  28.376  1.00  0.00     0.010 A 
ATOM     10  C   UNL A   1      41.650  26.268  27.983  1.00  0.00    -0.014 A 
BRANCH  10  11
ATOM     11  C   UNL A   1      41.427  27.365  28.945  1.00  0.00     0.031 A 
ATOM     12  C   UNL A   1      42.335  27.449  30.131  1.00  0.00     0.074 A 
ATOM     13  C   UNL A   1      40.491  28.306  28.733  1.00  0.00     0.049 A 
ATOM     14  N   UNL A   1      42.342  28.320  31.102  1.00  0.00    -0.248 NA
ATOM     15  C   UNL A   1      43.407  26.441  30.209  1.00  0.00     0.031 C 
ATOM     16  C   UNL A   1      39.658  28.417  27.539  1.00  0.00     0.029 A 
ATOM     17  N   UNL A   1      40.072  29.343  29.524  1.00  0.00    -0.354 N 
ATOM     18  C   UNL A   1      43.444  27.994  31.878  1.00  0.00     0.074 A 
ATOM     19  C   UNL A   1      44.028  26.797  31.320  1.00  0.00     0.031 C 
ATOM     20  C   UNL A   1      38.758  29.400  27.719  1.00  0.00     0.029 A 
ATOM     21  C   UNL A   1      38.958  29.984  29.036  1.00  0.00     0.049 A 
ATOM     22  H   UNL A   1      40.523  29.603  30.359  1.00  0.00     0.167 HD
ATOM     23  C   UNL A   1      43.948  28.668  32.935  1.00  0.00     0.037 A 
ATOM     24  C   UNL A   1      38.175  30.919  29.603  1.00  0.00     0.037 A 
ATOM     25  C   UNL A   1      43.334  29.841  33.493  1.00  0.00     0.049 A 
ATOM     26  C   UNL A   1      38.621  31.521  30.899  1.00  0.00     0.074 A 
ATOM     27  C   UNL A   1      43.748  30.606  34.566  1.00  0.00     0.029 A 
ATOM     28  N   UNL A   1      42.152  30.404  33.028  1.00  0.00    -0.354 N 
ATOM     29  N   UNL A   1      39.683  31.232  31.613  1.00  0.00    -0.248 NA
ATOM     30  C   UNL A   1      37.805  32.615  31.439  1.00  0.00     0.031 C 
ATOM     31  C   UNL A   1      42.778  31.590  34.793  1.00  0.00     0.029 A 
ATOM     32  C   UNL A   1      41.795  31.480  33.821  1.00  0.00     0.049 A 
ATOM     33  H   UNL A   1      41.642  30.084  32.248  1.00  0.00     0.167 HD
ATOM     34  C   UNL A   1      39.700  32.147  32.653  1.00  0.00     0.074 A 
ATOM     35  C   UNL A   1      38.528  32.987  32.486  1.00  0.00     0.031 C 
ATOM     36  C   UNL A   1      40.620  32.296  33.638  1.00  0.00     0.037 A 
BRANCH  23  37
ATOM     37  C   UNL A   1      45.193  28.108  33.554  1.00  0.00     0.057 A 
ATOM     38  C   UNL A   1      46.472  28.519  33.150  1.00  0.00     0.134 A 
ATOM     39  C   UNL A   1      45.113  27.100  34.521  1.00  0.00     0.134 A 
ATOM     40  F   UNL A   1      46.618  29.460  32.204  1.00  0.00    -0.206 F 
ATOM     41  C   UNL A   1      47.626  27.917  33.656  1.00  0.00     0.040 A 
ATOM     42  C   UNL A   1      46.260  26.512  35.055  1.00  0.00     0.040 A 
ATOM     43  F   UNL A   1      43.922  26.656  34.945  1.00  0.00    -0.206 F 
ATOM     44  C   UNL A   1      47.520  26.910  34.614  1.00  0.00     0.006 A 
ENDBRANCH  23  37
BRANCH  24  45
ATOM     45  C   UNL A   1      36.903  31.324  28.956  1.00  0.00     0.057 A 
ATOM     46  C   UNL A   1      36.735  32.577  28.362  1.00  0.00     0.134 A 
ATOM     47  C   UNL A   1      35.812  30.446  28.929  1.00  0.00     0.134 A 
ATOM     48  F   UNL A   1      37.732  33.473  28.383  1.00  0.00    -0.206 F 
ATOM     49  C   UNL A   1      35.526  32.947  27.766  1.00  0.00     0.040 A 
ATOM     50  C   UNL A   1      34.606  30.790  28.316  1.00  0.00     0.040 A 
ATOM     51  F   UNL A   1      35.902  29.246  29.520  1.00  0.00    -0.206 F 
ATOM     52  C   UNL A   1      34.460  32.048  27.735  1.00  0.00     0.006 A 
ENDBRANCH  24  45
BRANCH  36  53
ATOM     53  C   UNL A   1      40.419  33.441  34.584  1.00  0.00     0.057 A 
ATOM     54  C   UNL A   1      39.715  33.298  35.785  1.00  0.00     0.134 A 
ATOM     55  C   UNL A   1      40.979  34.694  34.303  1.00  0.00     0.134 A 
ATOM     56  F   UNL A   1      39.140  32.127  36.102  1.00  0.00    -0.206 F 
ATOM     57  C   UNL A   1      39.559  34.368  36.666  1.00  0.00     0.040 A 
ATOM     58  C   UNL A   1      40.858  35.761  35.190  1.00  0.00     0.040 A 
ATOM     59  F   UNL A   1      41.670  34.893  33.169  1.00  0.00    -0.206 F 
ATOM     60  C   UNL A   1      40.139  35.601  36.373  1.00  0.00     0.006 A 
ENDBRANCH  36  53
ENDBRANCH  10  11
ENDBRANCH   3   5
ENDBRANCH   2   3
ENDBRANCH   1   2
BRANCH   1  61
ATOM     61  C   UNL A   1      45.426  21.991  25.475  1.00  0.00     0.275 C 
BRANCH  61  62
ATOM     62  O   UNL A   1      46.402  22.865  26.069  1.00  0.00    -0.458 OA
BRANCH  62  63
ATOM     63  C   UNL A   1      45.914  23.735  26.989  1.00  0.00     0.338 C 
ATOM     64  O   UNL A   1      45.392  23.454  28.058  1.00  0.00    -0.246 OA
BRANCH  63  65
ATOM     65  C   UNL A   1      46.210  25.122  26.578  1.00  0.00     0.067 A 
ATOM     66  C   UNL A   1      45.636  26.174  27.313  1.00  0.00     0.025 A 
ATOM     67  C   UNL A   1      46.964  25.388  25.435  1.00  0.00     0.101 A 
ATOM     68  C   UNL A   1      45.869  27.512  26.954  1.00  0.00    -0.011 A 
ATOM     69  C   UNL A   1      47.162  26.722  25.056  1.00  0.00     0.270 A 
ATOM     70  C   UNL A   1      46.678  27.775  25.839  1.00  0.00     0.094 A 
BRANCH  68  71
ATOM     71  C   UNL A   1      45.141  28.616  27.590  1.00  0.00    -0.018 A 
ATOM     72  C   UNL A   1      44.021  29.236  27.024  1.00  0.00     0.009 A 
ATOM     73  C   UNL A   1      45.606  29.086  28.828  1.00  0.00     0.009 A 
ATOM     74  C   UNL A   1      43.405  30.317  27.670  1.00  0.00     0.014 A 
ATOM     75  C   UNL A   1      44.999  30.161  29.472  1.00  0.00     0.014 A 
ATOM     76  C   UNL A   1      43.899  30.800  28.892  1.00  0.00     0.056 A 
BRANCH  76  77
ATOM     77  C   UNL A   1      43.275  32.001  29.557  1.00  0.00     0.416 C 
ATOM     78  F   UNL A   1      41.915  31.935  29.574  1.00  0.00    -0.166 F 
ATOM     79  F   UNL A   1      43.662  32.145  30.854  1.00  0.00    -0.166 F 
ATOM     80  F   UNL A   1      43.582  33.179  28.943  1.00  0.00    -0.166 F 
ENDBRANCH  76  77
ENDBRANCH  68  71
BRANCH  69  81
ATOM     81  N   UNL A   1      47.771  27.033  23.757  1.00  0.00     0.062 N 
ATOM     82  O   UNL A   1      47.707  28.201  23.353  1.00  0.00    -0.258 OA
ATOM     83  O   UNL A   1      48.275  26.095  23.124  1.00  0.00    -0.258 OA
ENDBRANCH  69  81
ENDBRANCH  63  65
ENDBRANCH  62  63
ENDBRANCH  61  62
ENDBRANCH   1  61
TORSDOF 14
ENDMDL
MODEL 2
REMARK VINA RESULT:      -9.3      4.341      7.901
REMARK SMILES O=C(OCCOC(=O)c1cc(-c2ccc(C(F)(F)F)cc2)cc([N+](=O)[O-])c1)c1ccc(-c2c3nc(c(-c4c(F)cccc4F)c4ccc([nH]4)c(-c4c(F)cccc4F)c4nc(c(-c5c(F)cccc5F)c5ccc2[nH]5)C=C4)C=C3)cc1
REMARK SMILES IDX 4 1 3 2 2 3 1 4 28 5 29 6 81 7 30 8 80 9 31 10 32 11 33 12
REMARK SMILES IDX 74 13 34 14 79 15 73 16 75 17 35 18 78 19 72 20 71 21 36 23
REMARK SMILES IDX 62 24 45 25 61 26 46 27 49 28 60 29 76 30 47 31 48 32 59 34
REMARK SMILES IDX 77 35 50 36 37 37 38 38 43 39 39 40 40 41 42 42 44 43 41 44
REMARK SMILES IDX 63 45 64 46 69 47 65 48 66 49 68 50 70 51 67 52 51 53 52 54
REMARK SMILES IDX 57 55 53 56 54 57 56 58 58 59 55 60 5 61 6 62 7 63 8 64 9 65
REMARK SMILES IDX 10 66 27 67 11 68 23 69 22 70 12 71 13 72 21 73 14 74 20 75
REMARK SMILES IDX 15 76 16 77 17 78 18 79 19 80 24 81 25 82 26 83
REMARK H PARENT 75 22 49 33
REMARK Flexibility Score: inf
ROOT
ATOM      1  C   UNL A   1      36.949  23.442  25.309  1.00  0.00     0.275 C 
ENDROOT
BRANCH   1   2
ATOM      2  O   UNL A   1      38.053  22.586  25.648  1.00  0.00    -0.458 OA
BRANCH   2   3
ATOM      3  C   UNL A   1      39.139  22.824  26.417  1.00  0.00     0.338 C 
ATOM      4  O   UNL A   1      39.730  21.865  26.913  1.00  0.00    -0.246 OA
BRANCH   3   5
ATOM      5  C   UNL A   1      39.593  24.195  26.826  1.00  0.00     0.060 A 
ATOM      6  C   UNL A   1      40.191  25.154  26.007  1.00  0.00     0.016 A 
ATOM      7  C   UNL A   1      39.350  24.547  28.167  1.00  0.00     0.016 A 
ATOM      8  C   UNL A   1      40.458  26.441  26.471  1.00  0.00     0.010 A 
ATOM      9  C   UNL A   1      39.594  25.840  28.637  1.00  0.00     0.010 A 
ATOM     10  C   UNL A   1      40.154  26.796  27.783  1.00  0.00    -0.014 A 
BRANCH  10  11
ATOM     11  C   UNL A   1      40.605  28.102  28.302  1.00  0.00     0.031 A 
ATOM     12  C   UNL A   1      42.078  28.346  28.396  1.00  0.00     0.074 A 
ATOM     13  C   UNL A   1      39.730  29.074  28.611  1.00  0.00     0.049 A 
ATOM     14  N   UNL A   1      42.711  29.409  28.810  1.00  0.00    -0.248 NA
ATOM     15  C   UNL A   1      42.953  27.262  27.917  1.00  0.00     0.031 C 
ATOM     16  C   UNL A   1      38.285  29.008  28.412  1.00  0.00     0.029 A 
ATOM     17  N   UNL A   1      39.928  30.307  29.176  1.00  0.00    -0.354 N 
ATOM     18  C   UNL A   1      44.054  29.140  28.597  1.00  0.00     0.074 A 
ATOM     19  C   UNL A   1      44.153  27.786  28.103  1.00  0.00     0.031 C 
ATOM     20  C   UNL A   1      37.716  30.106  28.939  1.00  0.00     0.029 A 
ATOM     21  C   UNL A   1      38.757  30.947  29.508  1.00  0.00     0.049 A 
ATOM     22  H   UNL A   1      40.818  30.696  29.329  1.00  0.00     0.167 HD
ATOM     23  C   UNL A   1      45.107  29.973  28.756  1.00  0.00     0.037 A 
ATOM     24  C   UNL A   1      38.552  32.074  30.214  1.00  0.00     0.037 A 
ATOM     25  C   UNL A   1      44.990  31.307  29.276  1.00  0.00     0.049 A 
ATOM     26  C   UNL A   1      39.745  32.899  30.586  1.00  0.00     0.074 A 
ATOM     27  C   UNL A   1      45.985  32.242  29.488  1.00  0.00     0.029 A 
ATOM     28  N   UNL A   1      43.797  31.885  29.691  1.00  0.00    -0.354 N 
ATOM     29  N   UNL A   1      41.013  32.656  30.354  1.00  0.00    -0.248 NA
ATOM     30  C   UNL A   1      39.484  34.176  31.260  1.00  0.00     0.031 C 
ATOM     31  C   UNL A   1      45.402  33.360  30.096  1.00  0.00     0.029 A 
ATOM     32  C   UNL A   1      44.035  33.149  30.201  1.00  0.00     0.049 A 
ATOM     33  H   UNL A   1      42.912  31.458  29.630  1.00  0.00     0.167 HD
ATOM     34  C   UNL A   1      41.699  33.776  30.794  1.00  0.00     0.074 A 
ATOM     35  C   UNL A   1      40.705  34.689  31.328  1.00  0.00     0.031 C 
ATOM     36  C   UNL A   1      43.029  34.035  30.733  1.00  0.00     0.037 A 
BRANCH  23  37
ATOM     37  C   UNL A   1      46.455  29.424  28.394  1.00  0.00     0.057 A 
ATOM     38  C   UNL A   1      46.976  29.533  27.097  1.00  0.00     0.134 A 
ATOM     39  C   UNL A   1      47.212  28.725  29.339  1.00  0.00     0.134 A 
ATOM     40  F   UNL A   1      46.284  30.165  26.135  1.00  0.00    -0.206 F 
ATOM     41  C   UNL A   1      48.184  28.928  26.742  1.00  0.00     0.040 A 
ATOM     42  C   UNL A   1      48.435  28.142  29.005  1.00  0.00     0.040 A 
ATOM     43  F   UNL A   1      46.768  28.579  30.595  1.00  0.00    -0.206 F 
ATOM     44  C   UNL A   1      48.917  28.231  27.700  1.00  0.00     0.006 A 
ENDBRANCH  23  37
BRANCH  24  45
ATOM     45  C   UNL A   1      37.180  32.469  30.613  1.00  0.00     0.057 A 
ATOM     46  C   UNL A   1      36.540  31.918  31.726  1.00  0.00     0.134 A 
ATOM     47  C   UNL A   1      36.471  33.418  29.865  1.00  0.00     0.134 A 
ATOM     48  F   UNL A   1      37.154  30.981  32.463  1.00  0.00    -0.206 F 
ATOM     49  C   UNL A   1      35.241  32.294  32.082  1.00  0.00     0.040 A 
ATOM     50  C   UNL A   1      35.184  33.822  30.222  1.00  0.00     0.040 A 
ATOM     51  F   UNL A   1      37.019  33.949  28.763  1.00  0.00    -0.206 F 
ATOM     52  C   UNL A   1      34.563  33.255  31.333  1.00  0.00     0.006 A 
ENDBRANCH  24  45
BRANCH  36  53
ATOM     53  C   UNL A   1      43.478  35.382  31.214  1.00  0.00     0.057 A 
ATOM     54  C   UNL A   1      43.780  35.628  32.558  1.00  0.00     0.134 A 
ATOM     55  C   UNL A   1      43.651  36.433  30.305  1.00  0.00     0.134 A 
ATOM     56  F   UNL A   1      43.618  34.666  33.480  1.00  0.00    -0.206 F 
ATOM     57  C   UNL A   1      44.221  36.881  32.985  1.00  0.00     0.040 A 
ATOM     58  C   UNL A   1      44.123  37.679  30.713  1.00  0.00     0.040 A 
ATOM     59  F   UNL A   1      43.383  36.259  29.001  1.00  0.00    -0.206 F 
ATOM     60  C   UNL A   1      44.402  37.907  32.059  1.00  0.00     0.006 A 
ENDBRANCH  36  53
ENDBRANCH  10  11
ENDBRANCH   3   5
ENDBRANCH   2   3
ENDBRANCH   1   2
BRANCH   1  61
ATOM     61  C   UNL A   1      36.371  23.220  23.905  1.00  0.00     0.275 C 
BRANCH  61  62
ATOM     62  O   UNL A   1      35.018  22.729  23.895  1.00  0.00    -0.458 OA
BRANCH  62  63
ATOM     63  C   UNL A   1      34.122  23.516  23.248  1.00  0.00     0.338 C 
ATOM     64  O   UNL A   1      34.017  23.664  22.039  1.00  0.00    -0.246 OA
BRANCH  63  65
ATOM     65  C   UNL A   1      33.176  24.105  24.217  1.00  0.00     0.067 A 
ATOM     66  C   UNL A   1      33.399  25.422  24.654  1.00  0.00     0.025 A 
ATOM     67  C   UNL A   1      32.137  23.347  24.758  1.00  0.00     0.101 A 
ATOM     68  C   UNL A   1      32.541  26.025  25.589  1.00  0.00    -0.011 A 
ATOM     69  C   UNL A   1      31.306  23.937  25.720  1.00  0.00     0.270 A 
ATOM     70  C   UNL A   1      31.463  25.279  26.085  1.00  0.00     0.094 A 
BRANCH  68  71
ATOM     71  C   UNL A   1      32.854  27.325  26.192  1.00  0.00    -0.018 A 
ATOM     72  C   UNL A   1      31.892  28.170  26.759  1.00  0.00     0.009 A 
ATOM     73  C   UNL A   1      34.192  27.751  26.185  1.00  0.00     0.009 A 
ATOM     74  C   UNL A   1      32.261  29.419  27.276  1.00  0.00     0.014 A 
ATOM     75  C   UNL A   1      34.562  28.992  26.696  1.00  0.00     0.014 A 
ATOM     76  C   UNL A   1      33.597  29.848  27.234  1.00  0.00     0.056 A 
BRANCH  76  77
ATOM     77  C   UNL A   1      33.984  31.218  27.734  1.00  0.00     0.416 C 
ATOM     78  F   UNL A   1      35.162  31.648  27.205  1.00  0.00    -0.166 F 
ATOM     79  F   UNL A   1      33.062  32.171  27.426  1.00  0.00    -0.166 F 
ATOM     80  F   UNL A   1      34.141  31.275  29.087  1.00  0.00    -0.166 F 
ENDBRANCH  76  77
ENDBRANCH  68  71
BRANCH  69  81
ATOM     81  N   UNL A   1      30.339  23.116  26.457  1.00  0.00     0.062 N 
ATOM     82  O   UNL A   1      29.697  23.655  27.367  1.00  0.00    -0.258 OA
ATOM     83  O   UNL A   1      30.257  21.918  26.150  1.00  0.00    -0.258 OA
ENDBRANCH  69  81
ENDBRANCH  63  65
ENDBRANCH  62  63
ENDBRANCH  61  62
ENDBRANCH   1  61
TORSDOF 14
ENDMDL
MODEL 3
REMARK VINA RESULT:      -9.2      5.952     11.363
REMARK SMILES O=C(OCCOC(=O)c1cc(-c2ccc(C(F)(F)F)cc2)cc([N+](=O)[O-])c1)c1ccc(-c2c3nc(c(-c4c(F)cccc4F)c4ccc([nH]4)c(-c4c(F)cccc4F)c4nc(c(-c5c(F)cccc5F)c5ccc2[nH]5)C=C4)C=C3)cc1
REMARK SMILES IDX 4 1 3 2 2 3 1 4 28 5 29 6 81 7 30 8 80 9 31 10 32 11 33 12
REMARK SMILES IDX 74 13 34 14 79 15 73 16 75 17 35 18 78 19 72 20 71 21 36 23
REMARK SMILES IDX 62 24 45 25 61 26 46 27 49 28 60 29 76 30 47 31 48 32 59 34
REMARK SMILES IDX 77 35 50 36 37 37 38 38 43 39 39 40 40 41 42 42 44 43 41 44
REMARK SMILES IDX 63 45 64 46 69 47 65 48 66 49 68 50 70 51 67 52 51 53 52 54
REMARK SMILES IDX 57 55 53 56 54 57 56 58 58 59 55 60 5 61 6 62 7 63 8 64 9 65
REMARK SMILES IDX 10 66 27 67 11 68 23 69 22 70 12 71 13 72 21 73 14 74 20 75
REMARK SMILES IDX 15 76 16 77 17 78 18 79 19 80 24 81 25 82 26 83
REMARK H PARENT 75 22 49 33
REMARK Flexibility Score: inf
ROOT
ATOM      1  C   UNL A   1      32.143  33.439  26.970  1.00  0.00     0.275 C 
ENDROOT
BRANCH   1   2
ATOM      2  O   UNL A   1      32.479  34.216  28.131  1.00  0.00    -0.458 OA
BRANCH   2   3
ATOM      3  C   UNL A   1      33.679  34.660  28.568  1.00  0.00     0.338 C 
ATOM      4  O   UNL A   1      33.979  35.837  28.369  1.00  0.00    -0.246 OA
BRANCH   3   5
ATOM      5  C   UNL A   1      34.736  33.774  29.159  1.00  0.00     0.060 A 
ATOM      6  C   UNL A   1      34.529  32.610  29.902  1.00  0.00     0.016 A 
ATOM      7  C   UNL A   1      36.067  34.148  28.898  1.00  0.00     0.016 A 
ATOM      8  C   UNL A   1      35.594  31.800  30.295  1.00  0.00     0.010 A 
ATOM      9  C   UNL A   1      37.140  33.333  29.268  1.00  0.00     0.010 A 
ATOM     10  C   UNL A   1      36.903  32.150  29.975  1.00  0.00    -0.014 A 
BRANCH  10  11
ATOM     11  C   UNL A   1      38.020  31.375  30.549  1.00  0.00     0.031 A 
ATOM     12  C   UNL A   1      38.444  31.694  31.948  1.00  0.00     0.074 A 
ATOM     13  C   UNL A   1      38.594  30.364  29.874  1.00  0.00     0.049 A 
ATOM     14  N   UNL A   1      39.388  31.150  32.666  1.00  0.00    -0.248 NA
ATOM     15  C   UNL A   1      37.672  32.736  32.646  1.00  0.00     0.031 C 
ATOM     16  C   UNL A   1      38.162  29.861  28.574  1.00  0.00     0.029 A 
ATOM     17  N   UNL A   1      39.678  29.585  30.184  1.00  0.00    -0.354 N 
ATOM     18  C   UNL A   1      39.290  31.748  33.912  1.00  0.00     0.074 A 
ATOM     19  C   UNL A   1      38.260  32.758  33.829  1.00  0.00     0.031 C 
ATOM     20  C   UNL A   1      39.031  28.928  28.150  1.00  0.00     0.029 A 
ATOM     21  C   UNL A   1      40.075  28.770  29.151  1.00  0.00     0.049 A 
ATOM     22  H   UNL A   1      40.128  29.608  31.059  1.00  0.00     0.167 HD
ATOM     23  C   UNL A   1      39.972  31.445  35.039  1.00  0.00     0.037 A 
ATOM     24  C   UNL A   1      41.172  28.002  29.021  1.00  0.00     0.037 A 
ATOM     25  C   UNL A   1      41.014  30.457  35.093  1.00  0.00     0.049 A 
ATOM     26  C   UNL A   1      42.059  27.834  30.216  1.00  0.00     0.074 A 
ATOM     27  C   UNL A   1      41.779  30.066  36.175  1.00  0.00     0.029 A 
ATOM     28  N   UNL A   1      41.452  29.719  34.000  1.00  0.00    -0.354 N 
ATOM     29  N   UNL A   1      41.945  28.378  31.404  1.00  0.00    -0.248 NA
ATOM     30  C   UNL A   1      43.187  26.906  30.078  1.00  0.00     0.031 C 
ATOM     31  C   UNL A   1      42.727  29.142  35.720  1.00  0.00     0.029 A 
ATOM     32  C   UNL A   1      42.509  28.907  34.370  1.00  0.00     0.049 A 
ATOM     33  H   UNL A   1      41.066  29.767  33.095  1.00  0.00     0.167 HD
ATOM     34  C   UNL A   1      42.946  27.813  32.176  1.00  0.00     0.074 A 
ATOM     35  C   UNL A   1      43.671  26.899  31.313  1.00  0.00     0.031 C 
ATOM     36  C   UNL A   1      43.218  28.011  33.490  1.00  0.00     0.037 A 
BRANCH  23  37
ATOM     37  C   UNL A   1      39.618  32.229  36.267  1.00  0.00     0.057 A 
ATOM     38  C   UNL A   1      38.530  31.882  37.081  1.00  0.00     0.134 A 
ATOM     39  C   UNL A   1      40.337  33.381  36.604  1.00  0.00     0.134 A 
ATOM     40  F   UNL A   1      37.780  30.806  36.794  1.00  0.00    -0.206 F 
ATOM     41  C   UNL A   1      38.144  32.678  38.162  1.00  0.00     0.040 A 
ATOM     42  C   UNL A   1      39.979  34.167  37.699  1.00  0.00     0.040 A 
ATOM     43  F   UNL A   1      41.384  33.772  35.863  1.00  0.00    -0.206 F 
ATOM     44  C   UNL A   1      38.872  33.825  38.473  1.00  0.00     0.006 A 
ENDBRANCH  23  37
BRANCH  24  45
ATOM     45  C   UNL A   1      41.485  27.357  27.724  1.00  0.00     0.057 A 
ATOM     46  C   UNL A   1      42.174  28.022  26.707  1.00  0.00     0.134 A 
ATOM     47  C   UNL A   1      41.083  26.038  27.475  1.00  0.00     0.134 A 
ATOM     48  F   UNL A   1      42.557  29.296  26.873  1.00  0.00    -0.206 F 
ATOM     49  C   UNL A   1      42.452  27.401  25.486  1.00  0.00     0.040 A 
ATOM     50  C   UNL A   1      41.375  25.396  26.270  1.00  0.00     0.040 A 
ATOM     51  F   UNL A   1      40.382  25.364  28.398  1.00  0.00    -0.206 F 
ATOM     52  C   UNL A   1      42.059  26.081  25.269  1.00  0.00     0.006 A 
ENDBRANCH  24  45
BRANCH  36  53
ATOM     53  C   UNL A   1      44.320  27.186  34.084  1.00  0.00     0.057 A 
ATOM     54  C   UNL A   1      45.638  27.651  34.159  1.00  0.00     0.134 A 
ATOM     55  C   UNL A   1      44.042  25.926  34.627  1.00  0.00     0.134 A 
ATOM     56  F   UNL A   1      45.970  28.844  33.641  1.00  0.00    -0.206 F 
ATOM     57  C   UNL A   1      46.647  26.881  34.738  1.00  0.00     0.040 A 
ATOM     58  C   UNL A   1      45.034  25.161  35.237  1.00  0.00     0.040 A 
ATOM     59  F   UNL A   1      42.797  25.426  34.590  1.00  0.00    -0.206 F 
ATOM     60  C   UNL A   1      46.343  25.636  35.288  1.00  0.00     0.006 A 
ENDBRANCH  36  53
ENDBRANCH  10  11
ENDBRANCH   3   5
ENDBRANCH   2   3
ENDBRANCH   1   2
BRANCH   1  61
ATOM     61  C   UNL A   1      32.097  31.923  27.201  1.00  0.00     0.275 C 
BRANCH  61  62
ATOM     62  O   UNL A   1      31.554  31.175  26.098  1.00  0.00    -0.458 OA
BRANCH  62  63
ATOM     63  C   UNL A   1      32.215  30.030  25.795  1.00  0.00     0.338 C 
ATOM     64  O   UNL A   1      33.318  29.692  26.200  1.00  0.00    -0.246 OA
BRANCH  63  65
ATOM     65  C   UNL A   1      31.354  29.151  24.977  1.00  0.00     0.067 A 
ATOM     66  C   UNL A   1      31.573  27.764  25.030  1.00  0.00     0.025 A 
ATOM     67  C   UNL A   1      30.407  29.685  24.103  1.00  0.00     0.101 A 
ATOM     68  C   UNL A   1      30.797  26.884  24.258  1.00  0.00    -0.011 A 
ATOM     69  C   UNL A   1      29.661  28.808  23.305  1.00  0.00     0.270 A 
ATOM     70  C   UNL A   1      29.805  27.421  23.426  1.00  0.00     0.094 A 
BRANCH  68  71
ATOM     71  C   UNL A   1      31.123  25.457  24.158  1.00  0.00    -0.018 A 
ATOM     72  C   UNL A   1      30.826  24.520  25.155  1.00  0.00     0.009 A 
ATOM     73  C   UNL A   1      31.785  25.011  23.003  1.00  0.00     0.009 A 
ATOM     74  C   UNL A   1      31.210  23.180  25.008  1.00  0.00     0.014 A 
ATOM     75  C   UNL A   1      32.170  23.681  22.854  1.00  0.00     0.014 A 
ATOM     76  C   UNL A   1      31.901  22.753  23.864  1.00  0.00     0.056 A 
BRANCH  76  77
ATOM     77  C   UNL A   1      32.369  21.324  23.733  1.00  0.00     0.416 C 
ATOM     78  F   UNL A   1      31.794  20.505  24.656  1.00  0.00    -0.166 F 
ATOM     79  F   UNL A   1      32.080  20.785  22.517  1.00  0.00    -0.166 F 
ATOM     80  F   UNL A   1      33.715  21.180  23.895  1.00  0.00    -0.166 F 
ENDBRANCH  76  77
ENDBRANCH  68  71
BRANCH  69  81
ATOM     81  N   UNL A   1      28.807  29.336  22.235  1.00  0.00     0.062 N 
ATOM     82  O   UNL A   1      27.581  29.260  22.382  1.00  0.00    -0.258 OA
ATOM     83  O   UNL A   1      29.370  29.789  21.227  1.00  0.00    -0.258 OA
ENDBRANCH  69  81
ENDBRANCH  63  65
ENDBRANCH  62  63
ENDBRANCH  61  62
ENDBRANCH   1  61
TORSDOF 14
ENDMDL
