MODEL 1
REMARK VINA RESULT:     -12.8      0.000      0.000
REMARK SMILES CC(=O)Nc1cccc(-c2ccc(F)c(C(=O)OCCOC(=O)c3ccc(-c4c5nc(c(-c6c(F)cccc6F)c6ccc([nH]6)c(-c6c(F)cccc6F)c6nc(c(-c7c(F)cccc7F)c7ccc4[nH]7)C=C6)C=C5)cc3)c2)c1
REMARK SMILES IDX 19 1 18 2 16 3 17 4 15 5 10 6 11 7 78 8 12 9 13 10 14 11
REMARK SMILES IDX 9 12 5 13 6 14 79 15 7 16 8 17 4 18 1 19 2 20 3 21 20 23
REMARK SMILES IDX 21 24 22 25 23 26 24 27 25 28 77 29 26 30 76 31 27 32 28 33
REMARK SMILES IDX 29 34 70 35 30 36 75 37 69 38 71 39 31 40 74 41 68 42 67 43
REMARK SMILES IDX 32 45 58 46 41 47 57 48 42 49 45 50 56 51 72 52 43 53 44 54
REMARK SMILES IDX 55 56 73 57 46 58 33 59 34 60 39 61 35 62 36 63 38 64 40 65
REMARK SMILES IDX 37 66 59 67 60 68 65 69 61 70 62 71 64 72 66 73 63 74 47 75
REMARK SMILES IDX 48 76 53 77 49 78 50 79 52 80 54 81 51 82
REMARK H PARENT 4 22 71 44 45 55
REMARK Flexibility Score: inf
ROOT
ATOM      1  C   UNL A   1      42.058  20.505  26.221  1.00  0.00     0.275 C 
ENDROOT
BRANCH   1   2
ATOM      2  O   UNL A   1      40.784  21.177  26.148  1.00  0.00    -0.458 OA
BRANCH   2   3
ATOM      3  C   UNL A   1      39.714  20.441  25.750  1.00  0.00     0.341 C 
ATOM      4  O   UNL A   1      39.695  19.231  25.595  1.00  0.00    -0.246 OA
BRANCH   3   5
ATOM      5  C   UNL A   1      38.529  21.321  25.610  1.00  0.00     0.096 A 
ATOM      6  C   UNL A   1      36.216  21.673  24.920  1.00  0.00    -0.017 A 
ATOM      7  C   UNL A   1      36.312  23.018  25.304  1.00  0.00     0.012 A 
ATOM      8  C   UNL A   1      37.355  20.851  25.017  1.00  0.00     0.027 A 
ATOM      9  C   UNL A   1      37.480  23.493  25.896  1.00  0.00     0.041 A 
ATOM     10  C   UNL A   1      38.552  22.628  26.100  1.00  0.00     0.137 A 
ATOM     11  F   UNL A   1      39.603  23.103  26.783  1.00  0.00    -0.206 F 
BRANCH   6  12
ATOM     12  C   UNL A   1      34.916  21.067  24.624  1.00  0.00    -0.016 A 
ATOM     13  C   UNL A   1      33.515  19.071  24.801  1.00  0.00     0.041 A 
ATOM     14  C   UNL A   1      32.493  19.746  24.136  1.00  0.00     0.026 A 
ATOM     15  C   UNL A   1      34.723  19.727  25.005  1.00  0.00     0.034 A 
ATOM     16  C   UNL A   1      32.656  21.088  23.769  1.00  0.00     0.003 A 
ATOM     17  C   UNL A   1      33.860  21.752  24.023  1.00  0.00     0.009 A 
BRANCH  13  18
ATOM     18  N   UNL A   1      33.313  17.736  25.185  1.00  0.00    -0.326 N 
ATOM     19  C   UNL A   1      34.101  16.578  23.118  1.00  0.00     0.114 C 
ATOM     20  C   UNL A   1      33.385  16.584  24.448  1.00  0.00     0.221 C 
ATOM     21  O   UNL A   1      32.924  15.541  24.917  1.00  0.00    -0.275 OA
ATOM     22  H   UNL A   1      33.085  17.607  26.133  1.00  0.00     0.169 HD
ENDBRANCH  13  18
ENDBRANCH   6  12
ENDBRANCH   3   5
ENDBRANCH   2   3
ENDBRANCH   1   2
BRANCH   1  23
ATOM     23  C   UNL A   1      43.176  21.402  25.686  1.00  0.00     0.275 C 
BRANCH  23  24
ATOM     24  O   UNL A   1      42.632  22.601  25.104  1.00  0.00    -0.458 OA
BRANCH  24  25
ATOM     25  C   UNL A   1      43.391  23.708  25.262  1.00  0.00     0.338 C 
ATOM     26  O   UNL A   1      44.404  24.013  24.654  1.00  0.00    -0.246 OA
BRANCH  25  27
ATOM     27  C   UNL A   1      42.738  24.625  26.203  1.00  0.00     0.060 A 
ATOM     28  C   UNL A   1      42.987  25.981  26.038  1.00  0.00     0.016 A 
ATOM     29  C   UNL A   1      42.039  24.177  27.319  1.00  0.00     0.016 A 
ATOM     30  C   UNL A   1      42.635  26.899  27.017  1.00  0.00     0.010 A 
ATOM     31  C   UNL A   1      41.602  25.113  28.267  1.00  0.00     0.010 A 
ATOM     32  C   UNL A   1      41.927  26.481  28.145  1.00  0.00    -0.014 A 
BRANCH  32  33
ATOM     33  C   UNL A   1      41.585  27.456  29.218  1.00  0.00     0.031 A 
ATOM     34  C   UNL A   1      42.379  27.463  30.498  1.00  0.00     0.074 A 
ATOM     35  C   UNL A   1      40.590  28.350  29.049  1.00  0.00     0.049 A 
ATOM     36  N   UNL A   1      42.126  28.071  31.629  1.00  0.00    -0.248 NA
ATOM     37  C   UNL A   1      43.618  26.668  30.510  1.00  0.00     0.031 C 
ATOM     38  C   UNL A   1      39.790  28.515  27.833  1.00  0.00     0.029 A 
ATOM     39  N   UNL A   1      40.076  29.290  29.910  1.00  0.00    -0.354 N 
ATOM     40  C   UNL A   1      43.143  27.694  32.498  1.00  0.00     0.074 A 
ATOM     41  C   UNL A   1      44.009  26.793  31.770  1.00  0.00     0.031 C 
ATOM     42  C   UNL A   1      38.896  29.498  28.022  1.00  0.00     0.029 A 
ATOM     43  C   UNL A   1      38.996  29.970  29.398  1.00  0.00     0.049 A 
ATOM     44  H   UNL A   1      40.445  29.460  30.807  1.00  0.00     0.167 HD
ATOM     45  C   UNL A   1      43.335  28.068  33.786  1.00  0.00     0.037 A 
ATOM     46  C   UNL A   1      38.143  30.831  29.985  1.00  0.00     0.037 A 
ATOM     47  C   UNL A   1      42.491  28.998  34.491  1.00  0.00     0.049 A 
ATOM     48  C   UNL A   1      38.331  31.172  31.438  1.00  0.00     0.074 A 
ATOM     49  C   UNL A   1      42.595  29.437  35.799  1.00  0.00     0.029 A 
ATOM     50  N   UNL A   1      41.393  29.643  33.940  1.00  0.00    -0.354 N 
ATOM     51  N   UNL A   1      39.261  30.767  32.268  1.00  0.00    -0.248 NA
ATOM     52  C   UNL A   1      37.344  32.079  32.040  1.00  0.00     0.031 C 
ATOM     53  C   UNL A   1      41.536  30.313  36.054  1.00  0.00     0.029 A 
ATOM     54  C   UNL A   1      40.807  30.466  34.886  1.00  0.00     0.049 A 
ATOM     55  H   UNL A   1      41.078  29.531  33.014  1.00  0.00     0.167 HD
ATOM     56  C   UNL A   1      38.992  31.397  33.477  1.00  0.00     0.074 A 
ATOM     57  C   UNL A   1      37.819  32.219  33.269  1.00  0.00     0.031 C 
ATOM     58  C   UNL A   1      39.657  31.303  34.654  1.00  0.00     0.037 A 
BRANCH  45  59
ATOM     59  C   UNL A   1      44.484  27.453  34.531  1.00  0.00     0.057 A 
ATOM     60  C   UNL A   1      44.370  26.226  35.197  1.00  0.00     0.134 A 
ATOM     61  C   UNL A   1      45.739  28.076  34.539  1.00  0.00     0.134 A 
ATOM     62  F   UNL A   1      43.195  25.581  35.241  1.00  0.00    -0.206 F 
ATOM     63  C   UNL A   1      45.458  25.651  35.858  1.00  0.00     0.040 A 
ATOM     64  C   UNL A   1      46.841  27.498  35.171  1.00  0.00     0.040 A 
ATOM     65  F   UNL A   1      45.921  29.250  33.915  1.00  0.00    -0.206 F 
ATOM     66  C   UNL A   1      46.701  26.282  35.838  1.00  0.00     0.006 A 
ENDBRANCH  45  59
BRANCH  46  67
ATOM     67  C   UNL A   1      36.993  31.387  29.222  1.00  0.00     0.057 A 
ATOM     68  C   UNL A   1      35.875  30.603  28.915  1.00  0.00     0.134 A 
ATOM     69  C   UNL A   1      37.002  32.705  28.746  1.00  0.00     0.134 A 
ATOM     70  F   UNL A   1      35.814  29.326  29.320  1.00  0.00    -0.206 F 
ATOM     71  C   UNL A   1      34.822  31.099  28.142  1.00  0.00     0.040 A 
ATOM     72  C   UNL A   1      35.942  33.224  28.002  1.00  0.00     0.040 A 
ATOM     73  F   UNL A   1      38.042  33.513  29.003  1.00  0.00    -0.206 F 
ATOM     74  C   UNL A   1      34.853  32.415  27.687  1.00  0.00     0.006 A 
ENDBRANCH  46  67
BRANCH  58  75
ATOM     75  C   UNL A   1      39.179  32.162  35.787  1.00  0.00     0.057 A 
ATOM     76  C   UNL A   1      38.283  31.691  36.755  1.00  0.00     0.134 A 
ATOM     77  C   UNL A   1      39.662  33.469  35.933  1.00  0.00     0.134 A 
ATOM     78  F   UNL A   1      37.773  30.454  36.665  1.00  0.00    -0.206 F 
ATOM     79  C   UNL A   1      37.867  32.498  37.815  1.00  0.00     0.040 A 
ATOM     80  C   UNL A   1      39.277  34.275  37.006  1.00  0.00     0.040 A 
ATOM     81  F   UNL A   1      40.529  33.978  35.046  1.00  0.00    -0.206 F 
ATOM     82  C   UNL A   1      38.371  33.791  37.947  1.00  0.00     0.006 A 
ENDBRANCH  58  75
ENDBRANCH  32  33
ENDBRANCH  25  27
ENDBRANCH  24  25
ENDBRANCH  23  24
ENDBRANCH   1  23
TORSDOF 13
ENDMDL
MODEL 2
REMARK VINA RESULT:     -12.7      2.001      2.425
REMARK SMILES CC(=O)Nc1cccc(-c2ccc(F)c(C(=O)OCCOC(=O)c3ccc(-c4c5nc(c(-c6c(F)cccc6F)c6ccc([nH]6)c(-c6c(F)cccc6F)c6nc(c(-c7c(F)cccc7F)c7ccc4[nH]7)C=C6)C=C5)cc3)c2)c1
REMARK SMILES IDX 19 1 18 2 16 3 17 4 15 5 10 6 11 7 78 8 12 9 13 10 14 11
REMARK SMILES IDX 9 12 5 13 6 14 79 15 7 16 8 17 4 18 1 19 2 20 3 21 20 23
REMARK SMILES IDX 21 24 22 25 23 26 24 27 25 28 77 29 26 30 76 31 27 32 28 33
REMARK SMILES IDX 29 34 70 35 30 36 75 37 69 38 71 39 31 40 74 41 68 42 67 43
REMARK SMILES IDX 32 45 58 46 41 47 57 48 42 49 45 50 56 51 72 52 43 53 44 54
REMARK SMILES IDX 55 56 73 57 46 58 33 59 34 60 39 61 35 62 36 63 38 64 40 65
REMARK SMILES IDX 37 66 59 67 60 68 65 69 61 70 62 71 64 72 66 73 63 74 47 75
REMARK SMILES IDX 48 76 53 77 49 78 50 79 52 80 54 81 51 82
REMARK H PARENT 4 22 71 44 45 55
REMARK Flexibility Score: inf
ROOT
ATOM      1  C   UNL A   1      43.118  21.221  26.100  1.00  0.00     0.275 C 
ENDROOT
BRANCH   1   2
ATOM      2  O   UNL A   1      41.760  20.881  25.753  1.00  0.00    -0.458 OA
BRANCH   2   3
ATOM      3  C   UNL A   1      40.853  20.836  26.764  1.00  0.00     0.341 C 
ATOM      4  O   UNL A   1      40.756  19.954  27.601  1.00  0.00    -0.246 OA
BRANCH   3   5
ATOM      5  C   UNL A   1      40.039  22.076  26.758  1.00  0.00     0.096 A 
ATOM      6  C   UNL A   1      38.170  23.382  25.893  1.00  0.00    -0.017 A 
ATOM      7  C   UNL A   1      38.543  24.451  26.720  1.00  0.00     0.012 A 
ATOM      8  C   UNL A   1      38.969  22.223  25.873  1.00  0.00     0.027 A 
ATOM      9  C   UNL A   1      39.609  24.311  27.604  1.00  0.00     0.041 A 
ATOM     10  C   UNL A   1      40.307  23.107  27.660  1.00  0.00     0.137 A 
ATOM     11  F   UNL A   1      41.243  22.982  28.610  1.00  0.00    -0.206 F 
BRANCH   6  12
ATOM     12  C   UNL A   1      36.870  23.371  25.221  1.00  0.00    -0.016 A 
ATOM     13  C   UNL A   1      34.483  23.872  25.400  1.00  0.00     0.041 A 
ATOM     14  C   UNL A   1      34.303  23.415  24.096  1.00  0.00     0.026 A 
ATOM     15  C   UNL A   1      35.755  23.812  25.956  1.00  0.00     0.034 A 
ATOM     16  C   UNL A   1      35.402  22.994  23.338  1.00  0.00     0.003 A 
ATOM     17  C   UNL A   1      36.686  22.984  23.894  1.00  0.00     0.009 A 
BRANCH  13  18
ATOM     18  N   UNL A   1      33.368  24.317  26.127  1.00  0.00    -0.326 N 
ATOM     19  C   UNL A   1      32.842  22.240  27.410  1.00  0.00     0.114 C 
ATOM     20  C   UNL A   1      32.484  23.617  26.906  1.00  0.00     0.221 C 
ATOM     21  O   UNL A   1      31.429  24.156  27.249  1.00  0.00    -0.275 OA
ATOM     22  H   UNL A   1      33.193  25.283  26.069  1.00  0.00     0.169 HD
ENDBRANCH  13  18
ENDBRANCH   6  12
ENDBRANCH   3   5
ENDBRANCH   2   3
ENDBRANCH   1   2
BRANCH   1  23
ATOM     23  C   UNL A   1      43.796  21.979  24.956  1.00  0.00     0.275 C 
BRANCH  23  24
ATOM     24  O   UNL A   1      43.171  23.261  24.755  1.00  0.00    -0.458 OA
BRANCH  24  25
ATOM     25  C   UNL A   1      43.921  24.325  25.117  1.00  0.00     0.338 C 
ATOM     26  O   UNL A   1      44.915  24.762  24.562  1.00  0.00    -0.246 OA
BRANCH  25  27
ATOM     27  C   UNL A   1      43.279  25.023  26.237  1.00  0.00     0.060 A 
ATOM     28  C   UNL A   1      42.507  26.135  25.927  1.00  0.00     0.016 A 
ATOM     29  C   UNL A   1      43.552  24.714  27.564  1.00  0.00     0.016 A 
ATOM     30  C   UNL A   1      42.076  27.007  26.917  1.00  0.00     0.010 A 
ATOM     31  C   UNL A   1      43.042  25.543  28.574  1.00  0.00     0.010 A 
ATOM     32  C   UNL A   1      42.329  26.720  28.259  1.00  0.00    -0.014 A 
BRANCH  32  33
ATOM     33  C   UNL A   1      41.907  27.676  29.321  1.00  0.00     0.031 A 
ATOM     34  C   UNL A   1      42.670  27.732  30.619  1.00  0.00     0.074 A 
ATOM     35  C   UNL A   1      40.864  28.509  29.127  1.00  0.00     0.049 A 
ATOM     36  N   UNL A   1      42.357  28.327  31.742  1.00  0.00    -0.248 NA
ATOM     37  C   UNL A   1      43.954  27.012  30.661  1.00  0.00     0.031 C 
ATOM     38  C   UNL A   1      40.083  28.623  27.893  1.00  0.00     0.029 A 
ATOM     39  N   UNL A   1      40.276  29.419  29.974  1.00  0.00    -0.354 N 
ATOM     40  C   UNL A   1      43.374  28.013  32.634  1.00  0.00     0.074 A 
ATOM     41  C   UNL A   1      44.308  27.164  31.928  1.00  0.00     0.031 C 
ATOM     42  C   UNL A   1      39.129  29.552  28.059  1.00  0.00     0.029 A 
ATOM     43  C   UNL A   1      39.170  30.032  29.435  1.00  0.00     0.049 A 
ATOM     44  H   UNL A   1      40.615  29.612  30.878  1.00  0.00     0.167 HD
ATOM     45  C   UNL A   1      43.515  28.401  33.924  1.00  0.00     0.037 A 
ATOM     46  C   UNL A   1      38.254  30.842  30.000  1.00  0.00     0.037 A 
ATOM     47  C   UNL A   1      42.602  29.280  34.607  1.00  0.00     0.049 A 
ATOM     48  C   UNL A   1      38.389  31.196  31.456  1.00  0.00     0.074 A 
ATOM     49  C   UNL A   1      42.651  29.728  35.916  1.00  0.00     0.029 A 
ATOM     50  N   UNL A   1      41.480  29.858  34.030  1.00  0.00    -0.354 N 
ATOM     51  N   UNL A   1      39.323  30.850  32.308  1.00  0.00    -0.248 NA
ATOM     52  C   UNL A   1      37.337  32.045  32.032  1.00  0.00     0.031 C 
ATOM     53  C   UNL A   1      41.536  30.540  36.144  1.00  0.00     0.029 A 
ATOM     54  C   UNL A   1      40.825  30.647  34.960  1.00  0.00     0.049 A 
ATOM     55  H   UNL A   1      41.193  29.726  33.097  1.00  0.00     0.167 HD
ATOM     56  C   UNL A   1      38.991  31.466  33.508  1.00  0.00     0.074 A 
ATOM     57  C   UNL A   1      37.776  32.216  33.271  1.00  0.00     0.031 C 
ATOM     58  C   UNL A   1      39.633  31.413  34.699  1.00  0.00     0.037 A 
BRANCH  45  59
ATOM     59  C   UNL A   1      44.682  27.856  34.697  1.00  0.00     0.057 A 
ATOM     60  C   UNL A   1      44.616  26.642  35.391  1.00  0.00     0.134 A 
ATOM     61  C   UNL A   1      45.907  28.537  34.704  1.00  0.00     0.134 A 
ATOM     62  F   UNL A   1      43.470  25.946  35.438  1.00  0.00    -0.206 F 
ATOM     63  C   UNL A   1      45.721  26.133  36.078  1.00  0.00     0.040 A 
ATOM     64  C   UNL A   1      47.027  28.024  35.362  1.00  0.00     0.040 A 
ATOM     65  F   UNL A   1      46.043  29.703  34.053  1.00  0.00    -0.206 F 
ATOM     66  C   UNL A   1      46.933  26.820  36.056  1.00  0.00     0.006 A 
ENDBRANCH  45  59
BRANCH  46  67
ATOM     67  C   UNL A   1      37.090  31.327  29.210  1.00  0.00     0.057 A 
ATOM     68  C   UNL A   1      37.059  32.621  28.678  1.00  0.00     0.134 A 
ATOM     69  C   UNL A   1      35.962  30.521  29.004  1.00  0.00     0.134 A 
ATOM     70  F   UNL A   1      38.096  33.452  28.861  1.00  0.00    -0.206 F 
ATOM     71  C   UNL A   1      35.941  33.105  27.994  1.00  0.00     0.040 A 
ATOM     72  C   UNL A   1      34.853  30.979  28.293  1.00  0.00     0.040 A 
ATOM     73  F   UNL A   1      35.924  29.270  29.486  1.00  0.00    -0.206 F 
ATOM     74  C   UNL A   1      34.836  32.281  27.797  1.00  0.00     0.006 A 
ENDBRANCH  46  67
BRANCH  58  75
ATOM     75  C   UNL A   1      39.081  32.245  35.819  1.00  0.00     0.057 A 
ATOM     76  C   UNL A   1      38.213  31.718  36.784  1.00  0.00     0.134 A 
ATOM     77  C   UNL A   1      39.461  33.586  35.955  1.00  0.00     0.134 A 
ATOM     78  F   UNL A   1      37.799  30.444  36.703  1.00  0.00    -0.206 F 
ATOM     79  C   UNL A   1      37.727  32.501  37.831  1.00  0.00     0.040 A 
ATOM     80  C   UNL A   1      39.005  34.372  37.015  1.00  0.00     0.040 A 
ATOM     81  F   UNL A   1      40.296  34.151  35.070  1.00  0.00    -0.206 F 
ATOM     82  C   UNL A   1      38.130  33.830  37.954  1.00  0.00     0.006 A 
ENDBRANCH  58  75
ENDBRANCH  32  33
ENDBRANCH  25  27
ENDBRANCH  24  25
ENDBRANCH  23  24
ENDBRANCH   1  23
TORSDOF 13
ENDMDL
MODEL 3
REMARK VINA RESULT:     -12.7      4.716      9.495
REMARK SMILES CC(=O)Nc1cccc(-c2ccc(F)c(C(=O)OCCOC(=O)c3ccc(-c4c5nc(c(-c6c(F)cccc6F)c6ccc([nH]6)c(-c6c(F)cccc6F)c6nc(c(-c7c(F)cccc7F)c7ccc4[nH]7)C=C6)C=C5)cc3)c2)c1
REMARK SMILES IDX 19 1 18 2 16 3 17 4 15 5 10 6 11 7 78 8 12 9 13 10 14 11
REMARK SMILES IDX 9 12 5 13 6 14 79 15 7 16 8 17 4 18 1 19 2 20 3 21 20 23
REMARK SMILES IDX 21 24 22 25 23 26 24 27 25 28 77 29 26 30 76 31 27 32 28 33
REMARK SMILES IDX 29 34 70 35 30 36 75 37 69 38 71 39 31 40 74 41 68 42 67 43
REMARK SMILES IDX 32 45 58 46 41 47 57 48 42 49 45 50 56 51 72 52 43 53 44 54
REMARK SMILES IDX 55 56 73 57 46 58 33 59 34 60 39 61 35 62 36 63 38 64 40 65
REMARK SMILES IDX 37 66 59 67 60 68 65 69 61 70 62 71 64 72 66 73 63 74 47 75
REMARK SMILES IDX 48 76 53 77 49 78 50 79 52 80 54 81 51 82
REMARK H PARENT 4 22 71 44 45 55
REMARK Flexibility Score: inf
ROOT
ATOM      1  C   UNL A   1      33.037  34.398  28.557  1.00  0.00     0.275 C 
ENDROOT
BRANCH   1   2
ATOM      2  O   UNL A   1      34.300  34.139  27.909  1.00  0.00    -0.458 OA
BRANCH   2   3
ATOM      3  C   UNL A   1      35.254  33.505  28.639  1.00  0.00     0.341 C 
ATOM      4  O   UNL A   1      35.874  33.981  29.575  1.00  0.00    -0.246 OA
BRANCH   3   5
ATOM      5  C   UNL A   1      35.376  32.099  28.184  1.00  0.00     0.096 A 
ATOM      6  C   UNL A   1      34.365  30.044  27.344  1.00  0.00    -0.017 A 
ATOM      7  C   UNL A   1      35.620  29.420  27.376  1.00  0.00     0.012 A 
ATOM      8  C   UNL A   1      34.247  31.366  27.815  1.00  0.00     0.027 A 
ATOM      9  C   UNL A   1      36.751  30.145  27.744  1.00  0.00     0.041 A 
ATOM     10  C   UNL A   1      36.629  31.490  28.083  1.00  0.00     0.137 A 
ATOM     11  F   UNL A   1      37.761  32.172  28.310  1.00  0.00    -0.206 F 
BRANCH   6  12
ATOM     12  C   UNL A   1      33.238  29.427  26.643  1.00  0.00    -0.016 A 
ATOM     13  C   UNL A   1      31.709  27.522  26.533  1.00  0.00     0.041 A 
ATOM     14  C   UNL A   1      31.094  28.096  25.422  1.00  0.00     0.026 A 
ATOM     15  C   UNL A   1      32.792  28.176  27.107  1.00  0.00     0.034 A 
ATOM     16  C   UNL A   1      31.507  29.352  24.959  1.00  0.00     0.003 A 
ATOM     17  C   UNL A   1      32.567  30.023  25.575  1.00  0.00     0.009 A 
BRANCH  13  18
ATOM     18  N   UNL A   1      31.255  26.277  26.995  1.00  0.00    -0.326 N 
ATOM     19  C   UNL A   1      33.027  24.799  26.040  1.00  0.00     0.114 C 
ATOM     20  C   UNL A   1      31.679  25.011  26.685  1.00  0.00     0.221 C 
ATOM     21  O   UNL A   1      30.980  24.048  27.007  1.00  0.00    -0.275 OA
ATOM     22  H   UNL A   1      30.517  26.319  27.644  1.00  0.00     0.169 HD
ENDBRANCH  13  18
ENDBRANCH   6  12
ENDBRANCH   3   5
ENDBRANCH   2   3
ENDBRANCH   1   2
BRANCH   1  23
ATOM     23  C   UNL A   1      33.172  35.538  29.569  1.00  0.00     0.275 C 
BRANCH  23  24
ATOM     24  O   UNL A   1      32.335  35.300  30.717  1.00  0.00    -0.458 OA
BRANCH  24  25
ATOM     25  C   UNL A   1      32.721  35.933  31.846  1.00  0.00     0.338 C 
ATOM     26  O   UNL A   1      32.233  36.933  32.347  1.00  0.00    -0.246 OA
BRANCH  25  27
ATOM     27  C   UNL A   1      33.764  35.151  32.520  1.00  0.00     0.060 A 
ATOM     28  C   UNL A   1      35.039  35.702  32.558  1.00  0.00     0.016 A 
ATOM     29  C   UNL A   1      33.557  33.847  32.953  1.00  0.00     0.016 A 
ATOM     30  C   UNL A   1      36.137  34.941  32.934  1.00  0.00     0.010 A 
ATOM     31  C   UNL A   1      34.651  33.104  33.420  1.00  0.00     0.010 A 
ATOM     32  C   UNL A   1      35.959  33.631  33.381  1.00  0.00    -0.014 A 
BRANCH  32  33
ATOM     33  C   UNL A   1      37.140  32.797  33.743  1.00  0.00     0.031 A 
ATOM     34  C   UNL A   1      37.855  33.046  35.045  1.00  0.00     0.074 A 
ATOM     35  C   UNL A   1      37.562  31.806  32.933  1.00  0.00     0.049 A 
ATOM     36  N   UNL A   1      39.010  32.591  35.459  1.00  0.00    -0.248 NA
ATOM     37  C   UNL A   1      37.185  33.938  36.007  1.00  0.00     0.031 C 
ATOM     38  C   UNL A   1      36.921  31.397  31.681  1.00  0.00     0.029 A 
ATOM     39  N   UNL A   1      38.642  30.962  33.039  1.00  0.00    -0.354 N 
ATOM     40  C   UNL A   1      39.227  33.176  36.700  1.00  0.00     0.074 A 
ATOM     41  C   UNL A   1      38.092  34.031  36.968  1.00  0.00     0.031 C 
ATOM     42  C   UNL A   1      37.610  30.380  31.143  1.00  0.00     0.029 A 
ATOM     43  C   UNL A   1      38.791  30.125  31.958  1.00  0.00     0.049 A 
ATOM     44  H   UNL A   1      39.250  30.957  33.813  1.00  0.00     0.167 HD
ATOM     45  C   UNL A   1      40.278  33.013  37.539  1.00  0.00     0.037 A 
ATOM     46  C   UNL A   1      39.794  29.289  31.628  1.00  0.00     0.037 A 
ATOM     47  C   UNL A   1      41.385  32.127  37.284  1.00  0.00     0.049 A 
ATOM     48  C   UNL A   1      40.988  29.182  32.538  1.00  0.00     0.074 A 
ATOM     49  C   UNL A   1      42.503  31.895  38.066  1.00  0.00     0.029 A 
ATOM     50  N   UNL A   1      41.506  31.317  36.164  1.00  0.00    -0.354 N 
ATOM     51  N   UNL A   1      41.211  29.782  33.682  1.00  0.00    -0.248 NA
ATOM     52  C   UNL A   1      42.074  28.291  32.107  1.00  0.00     0.031 C 
ATOM     53  C   UNL A   1      43.321  30.978  37.400  1.00  0.00     0.029 A 
ATOM     54  C   UNL A   1      42.685  30.594  36.231  1.00  0.00     0.049 A 
ATOM     55  H   UNL A   1      40.851  31.265  35.431  1.00  0.00     0.167 HD
ATOM     56  C   UNL A   1      42.443  29.315  34.122  1.00  0.00     0.074 A 
ATOM     57  C   UNL A   1      42.914  28.374  33.128  1.00  0.00     0.031 C 
ATOM     58  C   UNL A   1      43.125  29.637  35.248  1.00  0.00     0.037 A 
BRANCH  45  59
ATOM     59  C   UNL A   1      40.302  33.827  38.801  1.00  0.00     0.057 A 
ATOM     60  C   UNL A   1      40.962  35.059  38.882  1.00  0.00     0.134 A 
ATOM     61  C   UNL A   1      39.608  33.391  39.939  1.00  0.00     0.134 A 
ATOM     62  F   UNL A   1      41.657  35.529  37.835  1.00  0.00    -0.206 F 
ATOM     63  C   UNL A   1      40.947  35.820  40.053  1.00  0.00     0.040 A 
ATOM     64  C   UNL A   1      39.561  34.156  41.105  1.00  0.00     0.040 A 
ATOM     65  F   UNL A   1      38.947  32.223  39.928  1.00  0.00    -0.206 F 
ATOM     66  C   UNL A   1      40.237  35.373  41.166  1.00  0.00     0.006 A 
ENDBRANCH  45  59
BRANCH  46  67
ATOM     67  C   UNL A   1      39.751  28.531  30.349  1.00  0.00     0.057 A 
ATOM     68  C   UNL A   1      39.157  27.267  30.270  1.00  0.00     0.134 A 
ATOM     69  C   UNL A   1      40.340  29.036  29.182  1.00  0.00     0.134 A 
ATOM     70  F   UNL A   1      38.597  26.715  31.357  1.00  0.00    -0.206 F 
ATOM     71  C   UNL A   1      39.173  26.521  29.089  1.00  0.00     0.040 A 
ATOM     72  C   UNL A   1      40.333  28.318  27.986  1.00  0.00     0.040 A 
ATOM     73  F   UNL A   1      40.928  30.242  29.185  1.00  0.00    -0.206 F 
ATOM     74  C   UNL A   1      39.759  27.049  27.941  1.00  0.00     0.006 A 
ENDBRANCH  46  67
BRANCH  58  75
ATOM     75  C   UNL A   1      44.414  28.916  35.505  1.00  0.00     0.057 A 
ATOM     76  C   UNL A   1      44.466  27.710  36.215  1.00  0.00     0.134 A 
ATOM     77  C   UNL A   1      45.618  29.417  34.992  1.00  0.00     0.134 A 
ATOM     78  F   UNL A   1      43.352  27.183  36.744  1.00  0.00    -0.206 F 
ATOM     79  C   UNL A   1      45.673  27.040  36.425  1.00  0.00     0.040 A 
ATOM     80  C   UNL A   1      46.826  28.741  35.170  1.00  0.00     0.040 A 
ATOM     81  F   UNL A   1      45.637  30.563  34.295  1.00  0.00    -0.206 F 
ATOM     82  C   UNL A   1      46.856  27.552  35.894  1.00  0.00     0.006 A 
ENDBRANCH  58  75
ENDBRANCH  32  33
ENDBRANCH  25  27
ENDBRANCH  24  25
ENDBRANCH  23  24
ENDBRANCH   1  23
TORSDOF 13
ENDMDL
