MODEL 1
REMARK VINA RESULT:     -11.6      0.000      0.000
REMARK SMILES C[C@@](NC(=O)[C@H]1COc2ccccc21)(C(=O)OCCOC(=O)c1ccc(-c2c3nc(c(-c4c(F)cccc4F)c4ccc([nH]4)c(-c4c(F)cccc4F)c4nc(c(-c5c(F)cccc5F)c5ccc2[nH]5)C=C4)C=C3)cc1)C(F)(F)F
REMARK SMILES IDX 18 1 17 2 15 3 16 4 2 5 1 6 3 7 4 8 5 10 6 11 7 12 14 13
REMARK SMILES IDX 8 14 9 15 13 16 10 17 12 18 11 19 77 20 78 21 79 22 80 23
REMARK SMILES IDX 19 24 20 25 21 26 22 27 23 28 24 29 76 30 25 31 75 32 26 33
REMARK SMILES IDX 27 34 28 35 69 36 29 37 74 38 68 39 70 40 30 41 73 42 67 43
REMARK SMILES IDX 66 44 31 46 57 47 40 48 56 49 41 50 44 51 55 52 71 53 42 54
REMARK SMILES IDX 43 55 54 57 72 58 45 59 32 60 33 61 38 62 34 63 35 64 37 65
REMARK SMILES IDX 39 66 36 67 58 68 59 69 64 70 60 71 61 72 63 73 65 74 62 75
REMARK SMILES IDX 46 76 47 77 52 78 48 79 49 80 51 81 53 82 50 83
REMARK H PARENT 3 9 70 45 44 56
REMARK Flexibility Score: inf
ROOT
ATOM      1  C   UNL A   1      31.463  29.861  25.151  1.00  0.00     0.274 C 
ENDROOT
BRANCH   1   2
ATOM      2  O   UNL A   1      31.474  28.535  25.718  1.00  0.00    -0.460 OA
BRANCH   2   3
ATOM      3  C   UNL A   1      31.334  27.510  24.828  1.00  0.00     0.341 C 
ATOM      4  O   UNL A   1      30.264  27.228  24.310  1.00  0.00    -0.249 OA
BRANCH   3   5
ATOM      5  C   UNL A   1      32.541  26.590  24.729  1.00  0.00     0.231 C 
ATOM      6  C   UNL A   1      33.546  26.838  25.867  1.00  0.00     0.058 C 
BRANCH   5   7
ATOM      7  N   UNL A   1      32.018  25.163  24.824  1.00  0.00    -0.332 N 
ATOM      8  C   UNL A   1      32.093  24.449  26.009  1.00  0.00     0.232 C 
ATOM      9  H   UNL A   1      31.619  24.740  24.029  1.00  0.00     0.164 HD
ATOM     10  O   UNL A   1      31.270  24.740  26.878  1.00  0.00    -0.274 OA
BRANCH   8  11
ATOM     11  C   UNL A   1      32.908  23.141  26.029  1.00  0.00     0.150 C 
ATOM     12  C   UNL A   1      32.430  22.037  25.090  1.00  0.00     0.248 C 
ATOM     13  C   UNL A   1      34.262  23.272  25.412  1.00  0.00     0.010 A 
ATOM     14  O   UNL A   1      32.990  22.273  23.777  1.00  0.00    -0.492 OA
ATOM     15  C   UNL A   1      34.202  22.831  24.093  1.00  0.00     0.123 A 
ATOM     16  C   UNL A   1      35.459  23.696  25.952  1.00  0.00     0.008 A 
ATOM     17  C   UNL A   1      35.285  22.880  23.242  1.00  0.00     0.047 A 
ATOM     18  C   UNL A   1      36.589  23.692  25.127  1.00  0.00     0.001 A 
ATOM     19  C   UNL A   1      36.498  23.310  23.776  1.00  0.00     0.004 A 
ENDBRANCH   8  11
ENDBRANCH   5   7
BRANCH   5  20
ATOM     20  C   UNL A   1      33.233  26.971  23.400  1.00  0.00     0.422 C 
ATOM     21  F   UNL A   1      34.039  28.050  23.573  1.00  0.00    -0.168 F 
ATOM     22  F   UNL A   1      34.036  25.963  22.972  1.00  0.00    -0.168 F 
ATOM     23  F   UNL A   1      32.386  27.269  22.398  1.00  0.00    -0.168 F 
ENDBRANCH   5  20
ENDBRANCH   3   5
ENDBRANCH   2   3
ENDBRANCH   1   2
BRANCH   1  24
ATOM     24  C   UNL A   1      31.419  31.065  26.104  1.00  0.00     0.275 C 
BRANCH  24  25
ATOM     25  O   UNL A   1      32.260  30.944  27.260  1.00  0.00    -0.458 OA
BRANCH  25  26
ATOM     26  C   UNL A   1      33.096  31.990  27.446  1.00  0.00     0.338 C 
ATOM     27  O   UNL A   1      32.784  33.170  27.512  1.00  0.00    -0.246 OA
BRANCH  26  28
ATOM     28  C   UNL A   1      34.489  31.561  27.652  1.00  0.00     0.060 A 
ATOM     29  C   UNL A   1      34.723  30.206  27.880  1.00  0.00     0.016 A 
ATOM     30  C   UNL A   1      35.490  32.496  27.920  1.00  0.00     0.016 A 
ATOM     31  C   UNL A   1      35.914  29.776  28.446  1.00  0.00     0.010 A 
ATOM     32  C   UNL A   1      36.703  32.062  28.471  1.00  0.00     0.010 A 
ATOM     33  C   UNL A   1      36.898  30.705  28.793  1.00  0.00    -0.014 A 
BRANCH  33  34
ATOM     34  C   UNL A   1      38.014  30.257  29.667  1.00  0.00     0.031 A 
ATOM     35  C   UNL A   1      39.099  29.389  29.087  1.00  0.00     0.074 A 
ATOM     36  C   UNL A   1      38.137  30.725  30.923  1.00  0.00     0.049 A 
ATOM     37  N   UNL A   1      40.110  28.811  29.685  1.00  0.00    -0.248 NA
ATOM     38  C   UNL A   1      39.040  29.139  27.637  1.00  0.00     0.031 C 
ATOM     39  C   UNL A   1      37.217  31.658  31.574  1.00  0.00     0.029 A 
ATOM     40  N   UNL A   1      39.108  30.498  31.867  1.00  0.00    -0.354 N 
ATOM     41  C   UNL A   1      40.775  28.095  28.697  1.00  0.00     0.074 A 
ATOM     42  C   UNL A   1      40.054  28.305  27.461  1.00  0.00     0.031 C 
ATOM     43  C   UNL A   1      37.680  31.944  32.801  1.00  0.00     0.029 A 
ATOM     44  C   UNL A   1      38.892  31.167  33.047  1.00  0.00     0.049 A 
ATOM     45  H   UNL A   1      39.883  29.912  31.713  1.00  0.00     0.167 HD
ATOM     46  C   UNL A   1      41.889  27.333  28.809  1.00  0.00     0.037 A 
ATOM     47  C   UNL A   1      39.577  31.133  34.206  1.00  0.00     0.037 A 
ATOM     48  C   UNL A   1      42.638  27.167  30.027  1.00  0.00     0.049 A 
ATOM     49  C   UNL A   1      40.791  30.254  34.317  1.00  0.00     0.074 A 
ATOM     50  C   UNL A   1      43.752  26.381  30.258  1.00  0.00     0.029 A 
ATOM     51  N   UNL A   1      42.361  27.827  31.215  1.00  0.00    -0.354 N 
ATOM     52  N   UNL A   1      41.347  29.491  33.406  1.00  0.00    -0.248 NA
ATOM     53  C   UNL A   1      41.463  30.216  35.624  1.00  0.00     0.031 C 
ATOM     54  C   UNL A   1      44.139  26.551  31.593  1.00  0.00     0.029 A 
ATOM     55  C   UNL A   1      43.285  27.468  32.181  1.00  0.00     0.049 A 
ATOM     56  H   UNL A   1      41.616  28.457  31.350  1.00  0.00     0.167 HD
ATOM     57  C   UNL A   1      42.433  28.888  34.026  1.00  0.00     0.074 A 
ATOM     58  C   UNL A   1      42.476  29.396  35.382  1.00  0.00     0.031 C 
ATOM     59  C   UNL A   1      43.309  27.985  33.524  1.00  0.00     0.037 A 
BRANCH  46  60
ATOM     60  C   UNL A   1      42.343  26.591  27.588  1.00  0.00     0.057 A 
ATOM     61  C   UNL A   1      43.227  27.155  26.660  1.00  0.00     0.134 A 
ATOM     62  C   UNL A   1      41.899  25.285  27.348  1.00  0.00     0.134 A 
ATOM     63  F   UNL A   1      43.673  28.410  26.821  1.00  0.00    -0.206 F 
ATOM     64  C   UNL A   1      43.639  26.451  25.526  1.00  0.00     0.040 A 
ATOM     65  C   UNL A   1      42.322  24.563  26.231  1.00  0.00     0.040 A 
ATOM     66  F   UNL A   1      41.052  24.687  28.199  1.00  0.00    -0.206 F 
ATOM     67  C   UNL A   1      43.192  25.149  25.314  1.00  0.00     0.006 A 
ENDBRANCH  46  60
BRANCH  47  68
ATOM     68  C   UNL A   1      39.099  31.916  35.371  1.00  0.00     0.057 A 
ATOM     69  C   UNL A   1      38.259  31.350  36.338  1.00  0.00     0.134 A 
ATOM     70  C   UNL A   1      39.457  33.260  35.537  1.00  0.00     0.134 A 
ATOM     71  F   UNL A   1      37.855  30.078  36.220  1.00  0.00    -0.206 F 
ATOM     72  C   UNL A   1      37.785  32.095  37.420  1.00  0.00     0.040 A 
ATOM     73  C   UNL A   1      39.014  34.008  36.627  1.00  0.00     0.040 A 
ATOM     74  F   UNL A   1      40.256  33.862  34.642  1.00  0.00    -0.206 F 
ATOM     75  C   UNL A   1      38.169  33.427  37.570  1.00  0.00     0.006 A 
ENDBRANCH  47  68
BRANCH  59  76
ATOM     76  C   UNL A   1      44.391  27.506  34.444  1.00  0.00     0.057 A 
ATOM     77  C   UNL A   1      44.232  26.358  35.230  1.00  0.00     0.134 A 
ATOM     78  C   UNL A   1      45.610  28.191  34.533  1.00  0.00     0.134 A 
ATOM     79  F   UNL A   1      43.083  25.667  35.197  1.00  0.00    -0.206 F 
ATOM     80  C   UNL A   1      45.238  25.922  36.092  1.00  0.00     0.040 A 
ATOM     81  C   UNL A   1      46.631  27.752  35.377  1.00  0.00     0.040 A 
ATOM     82  F   UNL A   1      45.827  29.294  33.800  1.00  0.00    -0.206 F 
ATOM     83  C   UNL A   1      46.443  26.618  36.164  1.00  0.00     0.006 A 
ENDBRANCH  59  76
ENDBRANCH  33  34
ENDBRANCH  26  28
ENDBRANCH  25  26
ENDBRANCH  24  25
ENDBRANCH   1  24
TORSDOF 14
ENDMDL
MODEL 2
REMARK VINA RESULT:     -11.5      3.791      8.817
REMARK SMILES C[C@@](NC(=O)[C@H]1COc2ccccc21)(C(=O)OCCOC(=O)c1ccc(-c2c3nc(c(-c4c(F)cccc4F)c4ccc([nH]4)c(-c4c(F)cccc4F)c4nc(c(-c5c(F)cccc5F)c5ccc2[nH]5)C=C4)C=C3)cc1)C(F)(F)F
REMARK SMILES IDX 18 1 17 2 15 3 16 4 2 5 1 6 3 7 4 8 5 10 6 11 7 12 14 13
REMARK SMILES IDX 8 14 9 15 13 16 10 17 12 18 11 19 77 20 78 21 79 22 80 23
REMARK SMILES IDX 19 24 20 25 21 26 22 27 23 28 24 29 76 30 25 31 75 32 26 33
REMARK SMILES IDX 27 34 28 35 69 36 29 37 74 38 68 39 70 40 30 41 73 42 67 43
REMARK SMILES IDX 66 44 31 46 57 47 40 48 56 49 41 50 44 51 55 52 71 53 42 54
REMARK SMILES IDX 43 55 54 57 72 58 45 59 32 60 33 61 38 62 34 63 35 64 37 65
REMARK SMILES IDX 39 66 36 67 58 68 59 69 64 70 60 71 61 72 63 73 65 74 62 75
REMARK SMILES IDX 46 76 47 77 52 78 48 79 49 80 51 81 53 82 50 83
REMARK H PARENT 3 9 70 45 44 56
REMARK Flexibility Score: inf
ROOT
ATOM      1  C   UNL A   1      35.602  20.902  25.169  1.00  0.00     0.274 C 
ENDROOT
BRANCH   1   2
ATOM      2  O   UNL A   1      35.227  21.955  24.256  1.00  0.00    -0.460 OA
BRANCH   2   3
ATOM      3  C   UNL A   1      33.941  22.397  24.360  1.00  0.00     0.341 C 
ATOM      4  O   UNL A   1      33.004  21.839  23.808  1.00  0.00    -0.249 OA
BRANCH   3   5
ATOM      5  C   UNL A   1      33.795  23.772  24.994  1.00  0.00     0.231 C 
ATOM      6  C   UNL A   1      35.153  24.482  25.142  1.00  0.00     0.058 C 
BRANCH   5   7
ATOM      7  N   UNL A   1      32.899  24.590  24.074  1.00  0.00    -0.332 N 
ATOM      8  C   UNL A   1      33.423  25.572  23.249  1.00  0.00     0.232 C 
ATOM      9  H   UNL A   1      31.929  24.419  24.066  1.00  0.00     0.164 HD
ATOM     10  O   UNL A   1      34.001  25.183  22.233  1.00  0.00    -0.274 OA
BRANCH   8  11
ATOM     11  C   UNL A   1      32.945  27.025  23.439  1.00  0.00     0.150 C 
ATOM     12  C   UNL A   1      31.473  27.292  23.144  1.00  0.00     0.248 C 
ATOM     13  C   UNL A   1      32.880  27.449  24.869  1.00  0.00     0.010 A 
ATOM     14  O   UNL A   1      30.699  26.967  24.323  1.00  0.00    -0.492 OA
ATOM     15  C   UNL A   1      31.572  27.305  25.324  1.00  0.00     0.123 A 
ATOM     16  C   UNL A   1      33.856  27.959  25.702  1.00  0.00     0.008 A 
ATOM     17  C   UNL A   1      31.204  27.565  26.627  1.00  0.00     0.047 A 
ATOM     18  C   UNL A   1      33.493  28.294  27.011  1.00  0.00     0.001 A 
ATOM     19  C   UNL A   1      32.183  28.077  27.477  1.00  0.00     0.004 A 
ENDBRANCH   8  11
ENDBRANCH   5   7
BRANCH   5  20
ATOM     20  C   UNL A   1      33.247  23.508  26.415  1.00  0.00     0.422 C 
ATOM     21  F   UNL A   1      32.751  24.649  26.956  1.00  0.00    -0.168 F 
ATOM     22  F   UNL A   1      32.214  22.627  26.374  1.00  0.00    -0.168 F 
ATOM     23  F   UNL A   1      34.157  23.025  27.280  1.00  0.00    -0.168 F 
ENDBRANCH   5  20
ENDBRANCH   3   5
ENDBRANCH   2   3
ENDBRANCH   1   2
BRANCH   1  24
ATOM     24  C   UNL A   1      36.984  20.252  25.009  1.00  0.00     0.275 C 
BRANCH  24  25
ATOM     25  O   UNL A   1      38.073  21.180  24.905  1.00  0.00    -0.458 OA
BRANCH  25  26
ATOM     26  C   UNL A   1      39.083  20.946  25.773  1.00  0.00     0.338 C 
ATOM     27  O   UNL A   1      39.734  19.916  25.873  1.00  0.00    -0.246 OA
BRANCH  26  28
ATOM     28  C   UNL A   1      39.405  22.129  26.588  1.00  0.00     0.060 A 
ATOM     29  C   UNL A   1      38.852  23.349  26.203  1.00  0.00     0.016 A 
ATOM     30  C   UNL A   1      40.454  22.097  27.506  1.00  0.00     0.016 A 
ATOM     31  C   UNL A   1      39.384  24.546  26.662  1.00  0.00     0.010 A 
ATOM     32  C   UNL A   1      40.979  23.304  27.989  1.00  0.00     0.010 A 
ATOM     33  C   UNL A   1      40.484  24.537  27.522  1.00  0.00    -0.014 A 
BRANCH  33  34
ATOM     34  C   UNL A   1      41.215  25.812  27.745  1.00  0.00     0.031 A 
ATOM     35  C   UNL A   1      40.578  26.887  28.586  1.00  0.00     0.074 A 
ATOM     36  C   UNL A   1      42.484  25.963  27.324  1.00  0.00     0.049 A 
ATOM     37  N   UNL A   1      40.991  28.104  28.834  1.00  0.00    -0.248 NA
ATOM     38  C   UNL A   1      39.302  26.544  29.238  1.00  0.00     0.031 C 
ATOM     39  C   UNL A   1      43.260  24.961  26.594  1.00  0.00     0.029 A 
ATOM     40  N   UNL A   1      43.354  27.015  27.476  1.00  0.00    -0.354 N 
ATOM     41  C   UNL A   1      40.009  28.683  29.627  1.00  0.00     0.074 A 
ATOM     42  C   UNL A   1      38.974  27.690  29.818  1.00  0.00     0.031 C 
ATOM     43  C   UNL A   1      44.499  25.434  26.384  1.00  0.00     0.029 A 
ATOM     44  C   UNL A   1      44.584  26.796  26.907  1.00  0.00     0.049 A 
ATOM     45  H   UNL A   1      43.118  27.845  27.948  1.00  0.00     0.167 HD
ATOM     46  C   UNL A   1      39.972  29.931  30.152  1.00  0.00     0.037 A 
ATOM     47  C   UNL A   1      45.649  27.611  26.791  1.00  0.00     0.037 A 
ATOM     48  C   UNL A   1      41.025  30.902  30.008  1.00  0.00     0.049 A 
ATOM     49  C   UNL A   1      45.573  29.003  27.352  1.00  0.00     0.074 A 
ATOM     50  C   UNL A   1      41.066  32.208  30.461  1.00  0.00     0.029 A 
ATOM     51  N   UNL A   1      42.239  30.656  29.384  1.00  0.00    -0.354 N 
ATOM     52  N   UNL A   1      44.592  29.580  28.004  1.00  0.00    -0.248 NA
ATOM     53  C   UNL A   1      46.747  29.865  27.146  1.00  0.00     0.031 C 
ATOM     54  C   UNL A   1      42.300  32.760  30.094  1.00  0.00     0.029 A 
ATOM     55  C   UNL A   1      43.037  31.785  29.442  1.00  0.00     0.049 A 
ATOM     56  H   UNL A   1      42.494  29.804  28.961  1.00  0.00     0.167 HD
ATOM     57  C   UNL A   1      45.030  30.867  28.289  1.00  0.00     0.074 A 
ATOM     58  C   UNL A   1      46.376  30.977  27.765  1.00  0.00     0.031 C 
ATOM     59  C   UNL A   1      44.373  31.874  28.915  1.00  0.00     0.037 A 
BRANCH  46  60
ATOM     60  C   UNL A   1      38.735  30.328  30.901  1.00  0.00     0.057 A 
ATOM     61  C   UNL A   1      38.596  30.110  32.277  1.00  0.00     0.134 A 
ATOM     62  C   UNL A   1      37.675  30.956  30.234  1.00  0.00     0.134 A 
ATOM     63  F   UNL A   1      39.566  29.495  32.970  1.00  0.00    -0.206 F 
ATOM     64  C   UNL A   1      37.436  30.485  32.960  1.00  0.00     0.040 A 
ATOM     65  C   UNL A   1      36.522  31.356  30.909  1.00  0.00     0.040 A 
ATOM     66  F   UNL A   1      37.747  31.195  28.916  1.00  0.00    -0.206 F 
ATOM     67  C   UNL A   1      36.398  31.116  32.277  1.00  0.00     0.006 A 
ENDBRANCH  46  60
BRANCH  47  68
ATOM     68  C   UNL A   1      46.860  27.150  26.068  1.00  0.00     0.057 A 
ATOM     69  C   UNL A   1      47.016  27.362  24.693  1.00  0.00     0.134 A 
ATOM     70  C   UNL A   1      47.885  26.467  26.735  1.00  0.00     0.134 A 
ATOM     71  F   UNL A   1      46.056  27.983  23.993  1.00  0.00    -0.206 F 
ATOM     72  C   UNL A   1      48.142  26.904  24.007  1.00  0.00     0.040 A 
ATOM     73  C   UNL A   1      49.027  26.028  26.068  1.00  0.00     0.040 A 
ATOM     74  F   UNL A   1      47.793  26.228  28.052  1.00  0.00    -0.206 F 
ATOM     75  C   UNL A   1      49.155  26.240  24.697  1.00  0.00     0.006 A 
ENDBRANCH  47  68
BRANCH  59  76
ATOM     76  C   UNL A   1      45.111  33.167  29.077  1.00  0.00     0.057 A 
ATOM     77  C   UNL A   1      45.016  34.191  28.127  1.00  0.00     0.134 A 
ATOM     78  C   UNL A   1      45.913  33.397  30.203  1.00  0.00     0.134 A 
ATOM     79  F   UNL A   1      44.274  34.025  27.022  1.00  0.00    -0.206 F 
ATOM     80  C   UNL A   1      45.713  35.390  28.277  1.00  0.00     0.040 A 
ATOM     81  C   UNL A   1      46.598  34.601  30.374  1.00  0.00     0.040 A 
ATOM     82  F   UNL A   1      46.040  32.459  31.153  1.00  0.00    -0.206 F 
ATOM     83  C   UNL A   1      46.504  35.599  29.406  1.00  0.00     0.006 A 
ENDBRANCH  59  76
ENDBRANCH  33  34
ENDBRANCH  26  28
ENDBRANCH  25  26
ENDBRANCH  24  25
ENDBRANCH   1  24
TORSDOF 14
ENDMDL
MODEL 3
REMARK VINA RESULT:     -11.5      3.817      8.787
REMARK SMILES C[C@@](NC(=O)[C@H]1COc2ccccc21)(C(=O)OCCOC(=O)c1ccc(-c2c3nc(c(-c4c(F)cccc4F)c4ccc([nH]4)c(-c4c(F)cccc4F)c4nc(c(-c5c(F)cccc5F)c5ccc2[nH]5)C=C4)C=C3)cc1)C(F)(F)F
REMARK SMILES IDX 18 1 17 2 15 3 16 4 2 5 1 6 3 7 4 8 5 10 6 11 7 12 14 13
REMARK SMILES IDX 8 14 9 15 13 16 10 17 12 18 11 19 77 20 78 21 79 22 80 23
REMARK SMILES IDX 19 24 20 25 21 26 22 27 23 28 24 29 76 30 25 31 75 32 26 33
REMARK SMILES IDX 27 34 28 35 69 36 29 37 74 38 68 39 70 40 30 41 73 42 67 43
REMARK SMILES IDX 66 44 31 46 57 47 40 48 56 49 41 50 44 51 55 52 71 53 42 54
REMARK SMILES IDX 43 55 54 57 72 58 45 59 32 60 33 61 38 62 34 63 35 64 37 65
REMARK SMILES IDX 39 66 36 67 58 68 59 69 64 70 60 71 61 72 63 73 65 74 62 75
REMARK SMILES IDX 46 76 47 77 52 78 48 79 49 80 51 81 53 82 50 83
REMARK H PARENT 3 9 70 45 44 56
REMARK Flexibility Score: inf
ROOT
ATOM      1  C   UNL A   1      35.567  21.053  25.404  1.00  0.00     0.274 C 
ENDROOT
BRANCH   1   2
ATOM      2  O   UNL A   1      35.069  22.132  24.586  1.00  0.00    -0.460 OA
BRANCH   2   3
ATOM      3  C   UNL A   1      33.711  22.249  24.526  1.00  0.00     0.341 C 
ATOM      4  O   UNL A   1      33.014  21.513  23.844  1.00  0.00    -0.249 OA
BRANCH   3   5
ATOM      5  C   UNL A   1      33.158  23.517  25.159  1.00  0.00     0.231 C 
ATOM      6  C   UNL A   1      34.266  24.360  25.815  1.00  0.00     0.058 C 
BRANCH   5   7
ATOM      7  N   UNL A   1      32.509  24.323  24.042  1.00  0.00    -0.332 N 
ATOM      8  C   UNL A   1      33.177  25.372  23.433  1.00  0.00     0.232 C 
ATOM      9  H   UNL A   1      31.597  24.093  23.748  1.00  0.00     0.164 HD
ATOM     10  O   UNL A   1      34.049  25.068  22.618  1.00  0.00    -0.274 OA
BRANCH   8  11
ATOM     11  C   UNL A   1      32.562  26.783  23.517  1.00  0.00     0.150 C 
ATOM     12  C   UNL A   1      31.038  26.851  23.534  1.00  0.00     0.248 C 
ATOM     13  C   UNL A   1      32.745  27.436  24.848  1.00  0.00     0.010 A 
ATOM     14  O   UNL A   1      30.582  26.658  24.894  1.00  0.00    -0.492 OA
ATOM     15  C   UNL A   1      31.595  27.245  25.607  1.00  0.00     0.123 A 
ATOM     16  C   UNL A   1      33.800  28.171  25.351  1.00  0.00     0.008 A 
ATOM     17  C   UNL A   1      31.481  27.685  26.908  1.00  0.00     0.047 A 
ATOM     18  C   UNL A   1      33.681  28.687  26.646  1.00  0.00     0.001 A 
ATOM     19  C   UNL A   1      32.540  28.426  27.428  1.00  0.00     0.004 A 
ENDBRANCH   8  11
ENDBRANCH   5   7
BRANCH   5  20
ATOM     20  C   UNL A   1      32.213  23.030  26.282  1.00  0.00     0.422 C 
ATOM     21  F   UNL A   1      32.815  22.072  27.032  1.00  0.00    -0.168 F 
ATOM     22  F   UNL A   1      31.917  24.047  27.132  1.00  0.00    -0.168 F 
ATOM     23  F   UNL A   1      31.050  22.515  25.845  1.00  0.00    -0.168 F 
ENDBRANCH   5  20
ENDBRANCH   3   5
ENDBRANCH   2   3
ENDBRANCH   1   2
BRANCH   1  24
ATOM     24  C   UNL A   1      36.891  20.383  25.006  1.00  0.00     0.275 C 
BRANCH  24  25
ATOM     25  O   UNL A   1      38.003  21.282  24.885  1.00  0.00    -0.458 OA
BRANCH  25  26
ATOM     26  C   UNL A   1      39.011  21.030  25.751  1.00  0.00     0.338 C 
ATOM     27  O   UNL A   1      39.649  19.992  25.845  1.00  0.00    -0.246 OA
BRANCH  26  28
ATOM     28  C   UNL A   1      39.350  22.206  26.570  1.00  0.00     0.060 A 
ATOM     29  C   UNL A   1      38.804  23.433  26.198  1.00  0.00     0.016 A 
ATOM     30  C   UNL A   1      40.409  22.160  27.478  1.00  0.00     0.016 A 
ATOM     31  C   UNL A   1      39.349  24.622  26.660  1.00  0.00     0.010 A 
ATOM     32  C   UNL A   1      40.947  23.360  27.964  1.00  0.00     0.010 A 
ATOM     33  C   UNL A   1      40.458  24.599  27.509  1.00  0.00    -0.014 A 
BRANCH  33  34
ATOM     34  C   UNL A   1      41.200  25.867  27.734  1.00  0.00     0.031 A 
ATOM     35  C   UNL A   1      40.577  26.943  28.583  1.00  0.00     0.074 A 
ATOM     36  C   UNL A   1      42.468  26.009  27.305  1.00  0.00     0.049 A 
ATOM     37  N   UNL A   1      41.002  28.156  28.834  1.00  0.00    -0.248 NA
ATOM     38  C   UNL A   1      39.302  26.609  29.241  1.00  0.00     0.031 C 
ATOM     39  C   UNL A   1      43.231  25.004  26.567  1.00  0.00     0.029 A 
ATOM     40  N   UNL A   1      43.348  27.053  27.457  1.00  0.00    -0.354 N 
ATOM     41  C   UNL A   1      40.030  28.740  29.635  1.00  0.00     0.074 A 
ATOM     42  C   UNL A   1      38.988  27.755  29.828  1.00  0.00     0.031 C 
ATOM     43  C   UNL A   1      44.473  25.467  26.351  1.00  0.00     0.029 A 
ATOM     44  C   UNL A   1      44.572  26.826  26.879  1.00  0.00     0.049 A 
ATOM     45  H   UNL A   1      43.122  27.884  27.933  1.00  0.00     0.167 HD
ATOM     46  C   UNL A   1      40.007  29.986  30.166  1.00  0.00     0.037 A 
ATOM     47  C   UNL A   1      45.644  27.633  26.761  1.00  0.00     0.037 A 
ATOM     48  C   UNL A   1      41.067  30.948  30.019  1.00  0.00     0.049 A 
ATOM     49  C   UNL A   1      45.583  29.023  27.328  1.00  0.00     0.074 A 
ATOM     50  C   UNL A   1      41.122  32.252  30.478  1.00  0.00     0.029 A 
ATOM     51  N   UNL A   1      42.275  30.695  29.387  1.00  0.00    -0.354 N 
ATOM     52  N   UNL A   1      44.611  29.606  27.989  1.00  0.00    -0.248 NA
ATOM     53  C   UNL A   1      46.762  29.875  27.119  1.00  0.00     0.031 C 
ATOM     54  C   UNL A   1      42.358  32.795  30.106  1.00  0.00     0.029 A 
ATOM     55  C   UNL A   1      43.083  31.817  29.445  1.00  0.00     0.049 A 
ATOM     56  H   UNL A   1      42.521  29.843  28.959  1.00  0.00     0.167 HD
ATOM     57  C   UNL A   1      45.061  30.888  28.276  1.00  0.00     0.074 A 
ATOM     58  C   UNL A   1      46.405  30.988  27.744  1.00  0.00     0.031 C 
ATOM     59  C   UNL A   1      44.417  31.897  28.911  1.00  0.00     0.037 A 
BRANCH  46  60
ATOM     60  C   UNL A   1      38.778  30.390  30.924  1.00  0.00     0.057 A 
ATOM     61  C   UNL A   1      37.689  31.011  30.301  1.00  0.00     0.134 A 
ATOM     62  C   UNL A   1      38.679  30.136  32.298  1.00  0.00     0.134 A 
ATOM     63  F   UNL A   1      37.729  31.300  28.991  1.00  0.00    -0.206 F 
ATOM     64  C   UNL A   1      36.552  31.382  31.022  1.00  0.00     0.040 A 
ATOM     65  C   UNL A   1      37.539  30.481  33.025  1.00  0.00     0.040 A 
ATOM     66  F   UNL A   1      39.688  29.543  32.955  1.00  0.00    -0.206 F 
ATOM     67  C   UNL A   1      36.472  31.111  32.386  1.00  0.00     0.006 A 
ENDBRANCH  46  60
BRANCH  47  68
ATOM     68  C   UNL A   1      46.846  27.165  26.029  1.00  0.00     0.057 A 
ATOM     69  C   UNL A   1      46.991  27.373  24.652  1.00  0.00     0.134 A 
ATOM     70  C   UNL A   1      47.874  26.480  26.689  1.00  0.00     0.134 A 
ATOM     71  F   UNL A   1      46.028  27.995  23.958  1.00  0.00    -0.206 F 
ATOM     72  C   UNL A   1      48.109  26.908  23.957  1.00  0.00     0.040 A 
ATOM     73  C   UNL A   1      49.009  26.033  26.013  1.00  0.00     0.040 A 
ATOM     74  F   UNL A   1      47.793  26.244  28.007  1.00  0.00    -0.206 F 
ATOM     75  C   UNL A   1      49.126  26.241  24.640  1.00  0.00     0.006 A 
ENDBRANCH  47  68
BRANCH  59  76
ATOM     76  C   UNL A   1      45.167  33.183  29.074  1.00  0.00     0.057 A 
ATOM     77  C   UNL A   1      45.994  33.415  30.181  1.00  0.00     0.134 A 
ATOM     78  C   UNL A   1      45.073  34.194  28.109  1.00  0.00     0.134 A 
ATOM     79  F   UNL A   1      46.114  32.489  31.144  1.00  0.00    -0.206 F 
ATOM     80  C   UNL A   1      46.682  34.618  30.334  1.00  0.00     0.040 A 
ATOM     81  C   UNL A   1      45.774  35.394  28.243  1.00  0.00     0.040 A 
ATOM     82  F   UNL A   1      44.303  34.031  27.023  1.00  0.00    -0.206 F 
ATOM     83  C   UNL A   1      46.576  35.610  29.361  1.00  0.00     0.006 A 
ENDBRANCH  59  76
ENDBRANCH  33  34
ENDBRANCH  26  28
ENDBRANCH  25  26
ENDBRANCH  24  25
ENDBRANCH   1  24
TORSDOF 14
ENDMDL
