MODEL 1
REMARK VINA RESULT:     -12.0      0.000      0.000
REMARK SMILES Cc1nnc(SCC(=O)Nc2cccc(C(=O)OCCOC(=O)c3ccc(-c4c5nc(c(-c6c(F)cccc6F)c6ccc([nH]6)c(-c6c(F)cccc6F)c6nc(c(-c7c(F)cccc7F)c7ccc4[nH]7)C=C6)C=C5)cc3)c2)n1-c1ccccc1
REMARK SMILES IDX 18 1 16 2 17 3 15 4 11 5 12 6 78 7 13 8 14 9 10 10 8 11 9 12
REMARK SMILES IDX 7 14 6 15 5 16 1 17 2 18 3 19 79 20 4 21 80 22 81 23 85 24
REMARK SMILES IDX 82 25 84 26 83 27 19 28 20 29 21 30 22 31 23 32 24 33 25 34
REMARK SMILES IDX 77 35 26 36 76 37 27 38 28 39 29 40 70 41 30 42 75 43 69 44
REMARK SMILES IDX 71 45 31 46 74 47 68 48 67 49 32 51 58 52 41 53 57 54 42 55
REMARK SMILES IDX 45 56 56 57 72 58 43 59 44 60 55 62 73 63 46 64 33 65 34 66
REMARK SMILES IDX 39 67 35 68 36 69 38 70 40 71 37 72 59 73 60 74 65 75 61 76
REMARK SMILES IDX 62 77 64 78 66 79 63 80 47 81 48 82 53 83 49 84 50 85 52 86
REMARK SMILES IDX 54 87 51 88
REMARK H PARENT 10 13 71 50 45 61
REMARK Flexibility Score: inf
ROOT
ATOM      1  O   UNL A   1      42.016  19.460  25.550  1.00  0.00    -0.458 OA
ENDROOT
BRANCH   1   2
ATOM      2  C   UNL A   1      41.356  19.834  26.672  1.00  0.00     0.338 C 
ATOM      3  O   UNL A   1      41.639  19.527  27.821  1.00  0.00    -0.246 OA
BRANCH   2   4
ATOM      4  C   UNL A   1      40.245  20.748  26.309  1.00  0.00     0.062 A 
ATOM      5  C   UNL A   1      38.075  21.079  25.335  1.00  0.00     0.042 A 
ATOM      6  C   UNL A   1      38.089  22.422  25.711  1.00  0.00     0.026 A 
ATOM      7  C   UNL A   1      39.188  20.289  25.528  1.00  0.00     0.041 A 
ATOM      8  C   UNL A   1      39.184  22.924  26.413  1.00  0.00     0.003 A 
ATOM      9  C   UNL A   1      40.246  22.077  26.745  1.00  0.00     0.016 A 
BRANCH   5  10
ATOM     10  N   UNL A   1      36.879  20.526  24.884  1.00  0.00    -0.325 N 
ATOM     11  C   UNL A   1      35.657  21.032  25.218  1.00  0.00     0.234 C 
ATOM     12  O   UNL A   1      34.859  21.082  24.267  1.00  0.00    -0.274 OA
ATOM     13  H   UNL A   1      36.917  19.735  24.297  1.00  0.00     0.169 HD
BRANCH  11  14
ATOM     14  C   UNL A   1      35.307  21.727  26.524  1.00  0.00     0.178 C 
BRANCH  14  15
ATOM     15  S   UNL A   1      34.895  23.472  26.617  1.00  0.00    -0.076 SA
BRANCH  15  16
ATOM     16  C   UNL A   1      33.195  23.748  26.457  1.00  0.00     0.196 A 
ATOM     17  C   UNL A   1      30.287  25.893  26.105  1.00  0.00     0.090 C 
ATOM     18  C   UNL A   1      31.302  24.860  26.409  1.00  0.00     0.135 A 
ATOM     19  N   UNL A   1      31.112  23.761  27.112  1.00  0.00    -0.134 NA
ATOM     20  N   UNL A   1      32.603  24.888  25.956  1.00  0.00    -0.274 N 
ATOM     21  N   UNL A   1      32.302  23.071  27.151  1.00  0.00    -0.123 NA
BRANCH  20  22
ATOM     22  C   UNL A   1      33.191  25.858  25.138  1.00  0.00     0.049 A 
ATOM     23  C   UNL A   1      33.644  27.028  25.738  1.00  0.00     0.027 A 
ATOM     24  C   UNL A   1      33.149  25.718  23.752  1.00  0.00     0.027 A 
ATOM     25  C   UNL A   1      33.936  28.131  24.942  1.00  0.00     0.002 A 
ATOM     26  C   UNL A   1      33.478  26.820  22.963  1.00  0.00     0.002 A 
ATOM     27  C   UNL A   1      33.833  28.034  23.558  1.00  0.00     0.000 A 
ENDBRANCH  20  22
ENDBRANCH  15  16
ENDBRANCH  14  15
ENDBRANCH  11  14
ENDBRANCH   5  10
ENDBRANCH   2   4
ENDBRANCH   1   2
BRANCH   1  28
ATOM     28  C   UNL A   1      43.256  18.764  25.709  1.00  0.00     0.275 C 
BRANCH  28  29
ATOM     29  C   UNL A   1      44.190  19.074  24.546  1.00  0.00     0.275 C 
BRANCH  29  30
ATOM     30  O   UNL A   1      44.160  20.460  24.202  1.00  0.00    -0.458 OA
BRANCH  30  31
ATOM     31  C   UNL A   1      45.175  21.199  24.706  1.00  0.00     0.338 C 
ATOM     32  O   UNL A   1      46.370  20.964  24.655  1.00  0.00    -0.246 OA
BRANCH  31  33
ATOM     33  C   UNL A   1      44.624  22.274  25.530  1.00  0.00     0.060 A 
ATOM     34  C   UNL A   1      43.619  23.076  24.982  1.00  0.00     0.016 A 
ATOM     35  C   UNL A   1      45.280  22.622  26.718  1.00  0.00     0.016 A 
ATOM     36  C   UNL A   1      43.361  24.300  25.566  1.00  0.00     0.010 A 
ATOM     37  C   UNL A   1      45.035  23.849  27.289  1.00  0.00     0.010 A 
ATOM     38  C   UNL A   1      44.117  24.699  26.678  1.00  0.00    -0.014 A 
BRANCH  38  39
ATOM     39  C   UNL A   1      43.778  25.952  27.327  1.00  0.00     0.031 A 
ATOM     40  C   UNL A   1      44.750  27.027  27.000  1.00  0.00     0.074 A 
ATOM     41  C   UNL A   1      42.634  26.151  28.011  1.00  0.00     0.049 A 
ATOM     42  N   UNL A   1      45.527  27.659  27.814  1.00  0.00    -0.248 NA
ATOM     43  C   UNL A   1      45.019  27.306  25.577  1.00  0.00     0.031 C 
ATOM     44  C   UNL A   1      41.493  25.241  28.143  1.00  0.00     0.029 A 
ATOM     45  N   UNL A   1      42.201  27.268  28.659  1.00  0.00    -0.354 N 
ATOM     46  C   UNL A   1      46.226  28.572  27.031  1.00  0.00     0.074 A 
ATOM     47  C   UNL A   1      46.020  28.181  25.664  1.00  0.00     0.031 C 
ATOM     48  C   UNL A   1      40.428  25.924  28.624  1.00  0.00     0.029 A 
ATOM     49  C   UNL A   1      40.840  27.280  28.950  1.00  0.00     0.049 A 
ATOM     50  H   UNL A   1      42.803  28.007  28.903  1.00  0.00     0.167 HD
ATOM     51  C   UNL A   1      46.671  29.738  27.571  1.00  0.00     0.037 A 
ATOM     52  C   UNL A   1      40.111  28.349  29.366  1.00  0.00     0.037 A 
ATOM     53  C   UNL A   1      46.787  29.621  29.006  1.00  0.00     0.049 A 
ATOM     54  C   UNL A   1      41.069  29.364  29.873  1.00  0.00     0.074 A 
ATOM     55  C   UNL A   1      47.480  28.782  29.859  1.00  0.00     0.029 A 
ATOM     56  N   UNL A   1      45.817  30.213  29.774  1.00  0.00    -0.354 N 
ATOM     57  N   UNL A   1      41.748  29.237  30.976  1.00  0.00    -0.248 NA
ATOM     58  C   UNL A   1      41.599  30.324  28.916  1.00  0.00     0.031 C 
ATOM     59  C   UNL A   1      46.594  28.555  30.954  1.00  0.00     0.029 A 
ATOM     60  C   UNL A   1      45.450  29.322  30.746  1.00  0.00     0.049 A 
ATOM     61  H   UNL A   1      45.450  31.118  29.649  1.00  0.00     0.167 HD
ATOM     62  C   UNL A   1      43.004  29.732  30.667  1.00  0.00     0.074 A 
ATOM     63  C   UNL A   1      42.829  30.468  29.416  1.00  0.00     0.031 C 
ATOM     64  C   UNL A   1      44.117  29.250  31.292  1.00  0.00     0.037 A 
BRANCH  51  65
ATOM     65  C   UNL A   1      46.540  31.077  26.875  1.00  0.00     0.057 A 
ATOM     66  C   UNL A   1      47.655  31.935  26.858  1.00  0.00     0.134 A 
ATOM     67  C   UNL A   1      45.318  31.689  26.520  1.00  0.00     0.134 A 
ATOM     68  F   UNL A   1      48.879  31.482  27.166  1.00  0.00    -0.206 F 
ATOM     69  C   UNL A   1      47.542  33.312  26.632  1.00  0.00     0.040 A 
ATOM     70  C   UNL A   1      45.203  33.053  26.243  1.00  0.00     0.040 A 
ATOM     71  F   UNL A   1      44.151  31.037  26.506  1.00  0.00    -0.206 F 
ATOM     72  C   UNL A   1      46.309  33.879  26.341  1.00  0.00     0.006 A 
ENDBRANCH  51  65
BRANCH  52  73
ATOM     73  C   UNL A   1      38.693  28.711  29.111  1.00  0.00     0.057 A 
ATOM     74  C   UNL A   1      37.762  28.746  30.164  1.00  0.00     0.134 A 
ATOM     75  C   UNL A   1      38.284  29.322  27.914  1.00  0.00     0.134 A 
ATOM     76  F   UNL A   1      38.062  28.216  31.359  1.00  0.00    -0.206 F 
ATOM     77  C   UNL A   1      36.526  29.396  30.052  1.00  0.00     0.040 A 
ATOM     78  C   UNL A   1      37.047  29.967  27.786  1.00  0.00     0.040 A 
ATOM     79  F   UNL A   1      39.105  29.400  26.858  1.00  0.00    -0.206 F 
ATOM     80  C   UNL A   1      36.171  30.025  28.864  1.00  0.00     0.006 A 
ENDBRANCH  52  73
BRANCH  64  81
ATOM     81  C   UNL A   1      43.929  28.395  32.514  1.00  0.00     0.057 A 
ATOM     82  C   UNL A   1      43.754  27.003  32.495  1.00  0.00     0.134 A 
ATOM     83  C   UNL A   1      44.076  28.998  33.769  1.00  0.00     0.134 A 
ATOM     84  F   UNL A   1      43.698  26.323  31.342  1.00  0.00    -0.206 F 
ATOM     85  C   UNL A   1      43.687  26.255  33.675  1.00  0.00     0.040 A 
ATOM     86  C   UNL A   1      44.049  28.259  34.951  1.00  0.00     0.040 A 
ATOM     87  F   UNL A   1      44.296  30.319  33.861  1.00  0.00    -0.206 F 
ATOM     88  C   UNL A   1      43.844  26.883  34.908  1.00  0.00     0.006 A 
ENDBRANCH  64  81
ENDBRANCH  38  39
ENDBRANCH  31  33
ENDBRANCH  30  31
ENDBRANCH  29  30
ENDBRANCH  28  29
ENDBRANCH   1  28
TORSDOF 16
ENDMDL
MODEL 2
REMARK VINA RESULT:     -11.9      3.786      8.290
REMARK SMILES Cc1nnc(SCC(=O)Nc2cccc(C(=O)OCCOC(=O)c3ccc(-c4c5nc(c(-c6c(F)cccc6F)c6ccc([nH]6)c(-c6c(F)cccc6F)c6nc(c(-c7c(F)cccc7F)c7ccc4[nH]7)C=C6)C=C5)cc3)c2)n1-c1ccccc1
REMARK SMILES IDX 18 1 16 2 17 3 15 4 11 5 12 6 78 7 13 8 14 9 10 10 8 11 9 12
REMARK SMILES IDX 7 14 6 15 5 16 1 17 2 18 3 19 79 20 4 21 80 22 81 23 85 24
REMARK SMILES IDX 82 25 84 26 83 27 19 28 20 29 21 30 22 31 23 32 24 33 25 34
REMARK SMILES IDX 77 35 26 36 76 37 27 38 28 39 29 40 70 41 30 42 75 43 69 44
REMARK SMILES IDX 71 45 31 46 74 47 68 48 67 49 32 51 58 52 41 53 57 54 42 55
REMARK SMILES IDX 45 56 56 57 72 58 43 59 44 60 55 62 73 63 46 64 33 65 34 66
REMARK SMILES IDX 39 67 35 68 36 69 38 70 40 71 37 72 59 73 60 74 65 75 61 76
REMARK SMILES IDX 62 77 64 78 66 79 63 80 47 81 48 82 53 83 49 84 50 85 52 86
REMARK SMILES IDX 54 87 51 88
REMARK H PARENT 10 13 71 50 45 61
REMARK Flexibility Score: inf
ROOT
ATOM      1  O   UNL A   1      33.554  28.608  27.200  1.00  0.00    -0.458 OA
ENDROOT
BRANCH   1   2
ATOM      2  C   UNL A   1      32.496  29.253  26.655  1.00  0.00     0.338 C 
ATOM      3  O   UNL A   1      32.263  30.452  26.715  1.00  0.00    -0.246 OA
BRANCH   2   4
ATOM      4  C   UNL A   1      31.663  28.285  25.899  1.00  0.00     0.062 A 
ATOM      5  C   UNL A   1      30.484  26.195  25.817  1.00  0.00     0.042 A 
ATOM      6  C   UNL A   1      30.005  26.493  24.542  1.00  0.00     0.026 A 
ATOM      7  C   UNL A   1      31.394  27.028  26.432  1.00  0.00     0.041 A 
ATOM      8  C   UNL A   1      30.343  27.709  23.951  1.00  0.00     0.003 A 
ATOM      9  C   UNL A   1      31.142  28.623  24.646  1.00  0.00     0.016 A 
BRANCH   5  10
ATOM     10  N   UNL A   1      29.929  25.117  26.502  1.00  0.00    -0.325 N 
ATOM     11  C   UNL A   1      30.397  23.842  26.379  1.00  0.00     0.234 C 
ATOM     12  O   UNL A   1      30.475  23.230  27.457  1.00  0.00    -0.274 OA
ATOM     13  H   UNL A   1      29.166  25.283  27.103  1.00  0.00     0.169 HD
BRANCH  11  14
ATOM     14  C   UNL A   1      31.028  23.240  25.132  1.00  0.00     0.178 C 
BRANCH  14  15
ATOM     15  S   UNL A   1      31.889  21.666  25.141  1.00  0.00    -0.076 SA
BRANCH  15  16
ATOM     16  C   UNL A   1      33.605  21.863  25.053  1.00  0.00     0.196 A 
ATOM     17  C   UNL A   1      36.654  22.951  23.409  1.00  0.00     0.090 C 
ATOM     18  C   UNL A   1      35.569  22.291  24.169  1.00  0.00     0.135 A 
ATOM     19  N   UNL A   1      35.678  21.197  24.896  1.00  0.00    -0.134 NA
ATOM     20  N   UNL A   1      34.277  22.762  24.252  1.00  0.00    -0.274 N 
ATOM     21  N   UNL A   1      34.444  20.925  25.440  1.00  0.00    -0.123 NA
BRANCH  20  22
ATOM     22  C   UNL A   1      33.763  23.923  23.665  1.00  0.00     0.049 A 
ATOM     23  C   UNL A   1      33.210  23.820  22.393  1.00  0.00     0.027 A 
ATOM     24  C   UNL A   1      33.973  25.160  24.271  1.00  0.00     0.027 A 
ATOM     25  C   UNL A   1      32.984  24.977  21.655  1.00  0.00     0.002 A 
ATOM     26  C   UNL A   1      33.708  26.314  23.534  1.00  0.00     0.002 A 
ATOM     27  C   UNL A   1      33.252  26.222  22.216  1.00  0.00     0.000 A 
ENDBRANCH  20  22
ENDBRANCH  15  16
ENDBRANCH  14  15
ENDBRANCH  11  14
ENDBRANCH   5  10
ENDBRANCH   2   4
ENDBRANCH   1   2
BRANCH   1  28
ATOM     28  C   UNL A   1      34.860  29.127  26.931  1.00  0.00     0.275 C 
BRANCH  28  29
ATOM     29  C   UNL A   1      35.143  30.335  27.814  1.00  0.00     0.275 C 
BRANCH  29  30
ATOM     30  O   UNL A   1      36.514  30.732  27.739  1.00  0.00    -0.458 OA
BRANCH  30  31
ATOM     31  C   UNL A   1      37.062  31.122  28.913  1.00  0.00     0.338 C 
ATOM     32  O   UNL A   1      36.820  32.129  29.555  1.00  0.00    -0.246 OA
BRANCH  31  33
ATOM     33  C   UNL A   1      38.179  30.235  29.239  1.00  0.00     0.060 A 
ATOM     34  C   UNL A   1      39.478  30.708  29.033  1.00  0.00     0.016 A 
ATOM     35  C   UNL A   1      37.918  28.883  29.498  1.00  0.00     0.016 A 
ATOM     36  C   UNL A   1      40.509  29.791  28.961  1.00  0.00     0.010 A 
ATOM     37  C   UNL A   1      38.942  27.970  29.411  1.00  0.00     0.010 A 
ATOM     38  C   UNL A   1      40.218  28.425  29.090  1.00  0.00    -0.014 A 
BRANCH  38  39
ATOM     39  C   UNL A   1      41.323  27.484  29.094  1.00  0.00     0.031 A 
ATOM     40  C   UNL A   1      42.132  27.584  30.336  1.00  0.00     0.074 A 
ATOM     41  C   UNL A   1      41.491  26.530  28.157  1.00  0.00     0.049 A 
ATOM     42  N   UNL A   1      43.373  27.918  30.440  1.00  0.00    -0.248 NA
ATOM     43  C   UNL A   1      41.430  27.473  31.628  1.00  0.00     0.031 C 
ATOM     44  C   UNL A   1      40.590  26.176  27.057  1.00  0.00     0.029 A 
ATOM     45  N   UNL A   1      42.476  25.595  28.048  1.00  0.00    -0.354 N 
ATOM     46  C   UNL A   1      43.667  27.845  31.799  1.00  0.00     0.074 A 
ATOM     47  C   UNL A   1      42.409  27.761  32.486  1.00  0.00     0.031 C 
ATOM     48  C   UNL A   1      40.953  24.976  26.549  1.00  0.00     0.029 A 
ATOM     49  C   UNL A   1      42.178  24.535  27.195  1.00  0.00     0.049 A 
ATOM     50  H   UNL A   1      43.329  25.662  28.534  1.00  0.00     0.167 HD
ATOM     51  C   UNL A   1      44.933  27.569  32.211  1.00  0.00     0.037 A 
ATOM     52  C   UNL A   1      42.863  23.366  27.089  1.00  0.00     0.037 A 
ATOM     53  C   UNL A   1      45.886  27.890  31.176  1.00  0.00     0.049 A 
ATOM     54  C   UNL A   1      44.201  23.583  27.694  1.00  0.00     0.074 A 
ATOM     55  C   UNL A   1      46.203  29.036  30.469  1.00  0.00     0.029 A 
ATOM     56  N   UNL A   1      46.425  26.852  30.460  1.00  0.00    -0.354 N 
ATOM     57  N   UNL A   1      45.130  24.323  27.160  1.00  0.00    -0.248 NA
ATOM     58  C   UNL A   1      44.343  23.329  29.120  1.00  0.00     0.031 C 
ATOM     59  C   UNL A   1      46.483  28.588  29.144  1.00  0.00     0.029 A 
ATOM     60  C   UNL A   1      46.397  27.197  29.135  1.00  0.00     0.049 A 
ATOM     61  H   UNL A   1      46.770  26.008  30.832  1.00  0.00     0.167 HD
ATOM     62  C   UNL A   1      45.694  24.995  28.232  1.00  0.00     0.074 A 
ATOM     63  C   UNL A   1      45.232  24.280  29.420  1.00  0.00     0.031 C 
ATOM     64  C   UNL A   1      46.233  26.238  28.070  1.00  0.00     0.037 A 
BRANCH  51  65
ATOM     65  C   UNL A   1      45.246  26.591  33.325  1.00  0.00     0.057 A 
ATOM     66  C   UNL A   1      46.155  26.984  34.326  1.00  0.00     0.134 A 
ATOM     67  C   UNL A   1      44.966  25.208  33.291  1.00  0.00     0.134 A 
ATOM     68  F   UNL A   1      46.501  28.271  34.476  1.00  0.00    -0.206 F 
ATOM     69  C   UNL A   1      46.825  26.062  35.137  1.00  0.00     0.040 A 
ATOM     70  C   UNL A   1      45.594  24.284  34.131  1.00  0.00     0.040 A 
ATOM     71  F   UNL A   1      44.149  24.649  32.393  1.00  0.00    -0.206 F 
ATOM     72  C   UNL A   1      46.559  24.704  35.030  1.00  0.00     0.006 A 
ENDBRANCH  51  65
BRANCH  52  73
ATOM     73  C   UNL A   1      42.389  21.993  26.778  1.00  0.00     0.057 A 
ATOM     74  C   UNL A   1      43.074  21.192  25.847  1.00  0.00     0.134 A 
ATOM     75  C   UNL A   1      41.461  21.324  27.592  1.00  0.00     0.134 A 
ATOM     76  F   UNL A   1      44.003  21.725  25.040  1.00  0.00    -0.206 F 
ATOM     77  C   UNL A   1      42.888  19.805  25.769  1.00  0.00     0.040 A 
ATOM     78  C   UNL A   1      41.258  19.940  27.517  1.00  0.00     0.040 A 
ATOM     79  F   UNL A   1      40.787  21.970  28.553  1.00  0.00    -0.206 F 
ATOM     80  C   UNL A   1      41.988  19.171  26.618  1.00  0.00     0.006 A 
ENDBRANCH  52  73
BRANCH  64  81
ATOM     81  C   UNL A   1      46.466  26.733  26.670  1.00  0.00     0.057 A 
ATOM     82  C   UNL A   1      45.505  27.388  25.884  1.00  0.00     0.134 A 
ATOM     83  C   UNL A   1      47.766  26.665  26.155  1.00  0.00     0.134 A 
ATOM     84  F   UNL A   1      44.258  27.587  26.331  1.00  0.00    -0.206 F 
ATOM     85  C   UNL A   1      45.819  27.914  24.627  1.00  0.00     0.040 A 
ATOM     86  C   UNL A   1      48.100  27.218  24.919  1.00  0.00     0.040 A 
ATOM     87  F   UNL A   1      48.747  26.096  26.873  1.00  0.00    -0.206 F 
ATOM     88  C   UNL A   1      47.123  27.837  24.145  1.00  0.00     0.006 A 
ENDBRANCH  64  81
ENDBRANCH  38  39
ENDBRANCH  31  33
ENDBRANCH  30  31
ENDBRANCH  29  30
ENDBRANCH  28  29
ENDBRANCH   1  28
TORSDOF 16
ENDMDL
MODEL 3
REMARK VINA RESULT:     -11.9      1.307      1.893
REMARK SMILES Cc1nnc(SCC(=O)Nc2cccc(C(=O)OCCOC(=O)c3ccc(-c4c5nc(c(-c6c(F)cccc6F)c6ccc([nH]6)c(-c6c(F)cccc6F)c6nc(c(-c7c(F)cccc7F)c7ccc4[nH]7)C=C6)C=C5)cc3)c2)n1-c1ccccc1
REMARK SMILES IDX 18 1 16 2 17 3 15 4 11 5 12 6 78 7 13 8 14 9 10 10 8 11 9 12
REMARK SMILES IDX 7 14 6 15 5 16 1 17 2 18 3 19 79 20 4 21 80 22 81 23 85 24
REMARK SMILES IDX 82 25 84 26 83 27 19 28 20 29 21 30 22 31 23 32 24 33 25 34
REMARK SMILES IDX 77 35 26 36 76 37 27 38 28 39 29 40 70 41 30 42 75 43 69 44
REMARK SMILES IDX 71 45 31 46 74 47 68 48 67 49 32 51 58 52 41 53 57 54 42 55
REMARK SMILES IDX 45 56 56 57 72 58 43 59 44 60 55 62 73 63 46 64 33 65 34 66
REMARK SMILES IDX 39 67 35 68 36 69 38 70 40 71 37 72 59 73 60 74 65 75 61 76
REMARK SMILES IDX 62 77 64 78 66 79 63 80 47 81 48 82 53 83 49 84 50 85 52 86
REMARK SMILES IDX 54 87 51 88
REMARK H PARENT 10 13 71 50 45 61
REMARK Flexibility Score: inf
ROOT
ATOM      1  O   UNL A   1      40.976  20.729  26.433  1.00  0.00    -0.458 OA
ENDROOT
BRANCH   1   2
ATOM      2  C   UNL A   1      39.828  20.278  25.874  1.00  0.00     0.338 C 
ATOM      3  O   UNL A   1      39.609  19.144  25.472  1.00  0.00    -0.246 OA
BRANCH   2   4
ATOM      4  C   UNL A   1      38.819  21.366  25.871  1.00  0.00     0.062 A 
ATOM      5  C   UNL A   1      36.542  22.073  25.586  1.00  0.00     0.042 A 
ATOM      6  C   UNL A   1      36.877  23.372  25.966  1.00  0.00     0.026 A 
ATOM      7  C   UNL A   1      37.523  21.117  25.428  1.00  0.00     0.041 A 
ATOM      8  C   UNL A   1      38.193  23.662  26.322  1.00  0.00     0.003 A 
ATOM      9  C   UNL A   1      39.157  22.650  26.311  1.00  0.00     0.016 A 
BRANCH   5  10
ATOM     10  N   UNL A   1      35.195  21.730  25.497  1.00  0.00    -0.325 N 
ATOM     11  C   UNL A   1      34.369  22.223  24.530  1.00  0.00     0.234 C 
ATOM     12  O   UNL A   1      33.612  21.370  24.037  1.00  0.00    -0.274 OA
ATOM     13  H   UNL A   1      34.822  21.105  26.162  1.00  0.00     0.169 HD
BRANCH  11  14
ATOM     14  C   UNL A   1      34.476  23.593  23.878  1.00  0.00     0.178 C 
BRANCH  14  15
ATOM     15  S   UNL A   1      33.929  25.099  24.687  1.00  0.00    -0.076 SA
BRANCH  15  16
ATOM     16  C   UNL A   1      33.049  26.130  23.611  1.00  0.00     0.196 A 
ATOM     17  C   UNL A   1      30.523  28.632  22.876  1.00  0.00     0.090 C 
ATOM     18  C   UNL A   1      31.477  27.502  22.927  1.00  0.00     0.135 A 
ATOM     19  N   UNL A   1      31.664  26.594  21.990  1.00  0.00    -0.134 NA
ATOM     20  N   UNL A   1      32.346  27.261  23.969  1.00  0.00    -0.274 N 
ATOM     21  N   UNL A   1      32.641  25.729  22.425  1.00  0.00    -0.123 NA
BRANCH  20  22
ATOM     22  C   UNL A   1      32.499  28.021  25.133  1.00  0.00     0.049 A 
ATOM     23  C   UNL A   1      31.698  27.706  26.226  1.00  0.00     0.027 A 
ATOM     24  C   UNL A   1      33.296  29.164  25.118  1.00  0.00     0.027 A 
ATOM     25  C   UNL A   1      31.587  28.617  27.271  1.00  0.00     0.002 A 
ATOM     26  C   UNL A   1      33.204  30.052  26.190  1.00  0.00     0.002 A 
ATOM     27  C   UNL A   1      32.322  29.798  27.244  1.00  0.00     0.000 A 
ENDBRANCH  20  22
ENDBRANCH  15  16
ENDBRANCH  14  15
ENDBRANCH  11  14
ENDBRANCH   5  10
ENDBRANCH   2   4
ENDBRANCH   1   2
BRANCH   1  28
ATOM     28  C   UNL A   1      41.928  19.756  26.873  1.00  0.00     0.275 C 
BRANCH  28  29
ATOM     29  C   UNL A   1      42.827  19.334  25.719  1.00  0.00     0.275 C 
BRANCH  29  30
ATOM     30  O   UNL A   1      44.099  19.983  25.778  1.00  0.00    -0.458 OA
BRANCH  30  31
ATOM     31  C   UNL A   1      44.365  20.818  24.748  1.00  0.00     0.338 C 
ATOM     32  O   UNL A   1      44.741  20.528  23.626  1.00  0.00    -0.246 OA
BRANCH  31  33
ATOM     33  C   UNL A   1      44.327  22.200  25.229  1.00  0.00     0.060 A 
ATOM     34  C   UNL A   1      45.105  22.532  26.341  1.00  0.00     0.016 A 
ATOM     35  C   UNL A   1      43.342  23.063  24.732  1.00  0.00     0.016 A 
ATOM     36  C   UNL A   1      44.803  23.688  27.034  1.00  0.00     0.010 A 
ATOM     37  C   UNL A   1      43.031  24.205  25.432  1.00  0.00     0.010 A 
ATOM     38  C   UNL A   1      43.727  24.480  26.606  1.00  0.00    -0.014 A 
BRANCH  38  39
ATOM     39  C   UNL A   1      43.475  25.731  27.297  1.00  0.00     0.031 A 
ATOM     40  C   UNL A   1      44.496  26.760  26.970  1.00  0.00     0.074 A 
ATOM     41  C   UNL A   1      42.362  25.973  28.017  1.00  0.00     0.049 A 
ATOM     42  N   UNL A   1      45.328  27.326  27.777  1.00  0.00    -0.248 NA
ATOM     43  C   UNL A   1      44.742  27.062  25.548  1.00  0.00     0.031 C 
ATOM     44  C   UNL A   1      41.177  25.123  28.159  1.00  0.00     0.029 A 
ATOM     45  N   UNL A   1      42.010  27.094  28.706  1.00  0.00    -0.354 N 
ATOM     46  C   UNL A   1      46.055  28.221  26.998  1.00  0.00     0.074 A 
ATOM     47  C   UNL A   1      45.792  27.879  25.628  1.00  0.00     0.031 C 
ATOM     48  C   UNL A   1      40.165  25.850  28.686  1.00  0.00     0.029 A 
ATOM     49  C   UNL A   1      40.659  27.172  29.035  1.00  0.00     0.049 A 
ATOM     50  H   UNL A   1      42.658  27.793  28.952  1.00  0.00     0.167 HD
ATOM     51  C   UNL A   1      46.579  29.345  27.556  1.00  0.00     0.037 A 
ATOM     52  C   UNL A   1      40.003  28.268  29.499  1.00  0.00     0.037 A 
ATOM     53  C   UNL A   1      46.726  29.183  28.983  1.00  0.00     0.049 A 
ATOM     54  C   UNL A   1      41.028  29.215  30.005  1.00  0.00     0.074 A 
ATOM     55  C   UNL A   1      47.394  28.285  29.795  1.00  0.00     0.029 A 
ATOM     56  N   UNL A   1      45.811  29.806  29.793  1.00  0.00    -0.354 N 
ATOM     57  N   UNL A   1      41.728  29.021  31.085  1.00  0.00    -0.248 NA
ATOM     58  C   UNL A   1      41.585  30.170  29.059  1.00  0.00     0.031 C 
ATOM     59  C   UNL A   1      46.527  28.076  30.908  1.00  0.00     0.029 A 
ATOM     60  C   UNL A   1      45.422  28.910  30.752  1.00  0.00     0.049 A 
ATOM     61  H   UNL A   1      45.491  30.733  29.702  1.00  0.00     0.167 HD
ATOM     62  C   UNL A   1      43.001  29.455  30.753  1.00  0.00     0.074 A 
ATOM     63  C   UNL A   1      42.834  30.233  29.526  1.00  0.00     0.031 C 
ATOM     64  C   UNL A   1      44.102  28.896  31.334  1.00  0.00     0.037 A 
BRANCH  51  65
ATOM     65  C   UNL A   1      46.502  30.708  26.899  1.00  0.00     0.057 A 
ATOM     66  C   UNL A   1      47.661  31.506  26.876  1.00  0.00     0.134 A 
ATOM     67  C   UNL A   1      45.307  31.393  26.590  1.00  0.00     0.134 A 
ATOM     68  F   UNL A   1      48.866  30.980  27.141  1.00  0.00    -0.206 F 
ATOM     69  C   UNL A   1      47.617  32.893  26.689  1.00  0.00     0.040 A 
ATOM     70  C   UNL A   1      45.259  32.769  26.352  1.00  0.00     0.040 A 
ATOM     71  F   UNL A   1      44.107  30.804  26.589  1.00  0.00    -0.206 F 
ATOM     72  C   UNL A   1      46.410  33.531  26.443  1.00  0.00     0.006 A 
ENDBRANCH  51  65
BRANCH  52  73
ATOM     73  C   UNL A   1      38.600  28.713  29.294  1.00  0.00     0.057 A 
ATOM     74  C   UNL A   1      37.711  28.804  30.379  1.00  0.00     0.134 A 
ATOM     75  C   UNL A   1      38.186  29.347  28.111  1.00  0.00     0.134 A 
ATOM     76  F   UNL A   1      38.021  28.257  31.564  1.00  0.00    -0.206 F 
ATOM     77  C   UNL A   1      36.512  29.526  30.309  1.00  0.00     0.040 A 
ATOM     78  C   UNL A   1      36.986  30.064  28.026  1.00  0.00     0.040 A 
ATOM     79  F   UNL A   1      38.972  29.376  27.026  1.00  0.00    -0.206 F 
ATOM     80  C   UNL A   1      36.153  30.175  29.133  1.00  0.00     0.006 A 
ENDBRANCH  52  73
BRANCH  64  81
ATOM     81  C   UNL A   1      43.900  28.020  32.538  1.00  0.00     0.057 A 
ATOM     82  C   UNL A   1      43.786  26.622  32.498  1.00  0.00     0.134 A 
ATOM     83  C   UNL A   1      43.968  28.614  33.804  1.00  0.00     0.134 A 
ATOM     84  F   UNL A   1      43.809  25.953  31.337  1.00  0.00    -0.206 F 
ATOM     85  C   UNL A   1      43.703  25.858  33.667  1.00  0.00     0.040 A 
ATOM     86  C   UNL A   1      43.923  27.860  34.976  1.00  0.00     0.040 A 
ATOM     87  F   UNL A   1      44.126  29.942  33.919  1.00  0.00    -0.206 F 
ATOM     88  C   UNL A   1      43.780  26.477  34.911  1.00  0.00     0.006 A 
ENDBRANCH  64  81
ENDBRANCH  38  39
ENDBRANCH  31  33
ENDBRANCH  30  31
ENDBRANCH  29  30
ENDBRANCH  28  29
ENDBRANCH   1  28
TORSDOF 16
ENDMDL
