MODEL 1
REMARK VINA RESULT:      -8.9      0.000      0.000
REMARK SMILES CCOc1c(F)cccc1C(=O)OCCOC(=O)c1ccc(-c2c3nc(c(-c4c(F)cccc4F)c4ccc([nH]4)c(-c4c(F)cccc4F)c4nc(c(-c5c(F)cccc5F)c5ccc2[nH]5)C=C4)C=C3)cc1
REMARK SMILES IDX 14 1 13 2 11 3 12 4 10 5 4 6 5 7 6 8 7 9 9 10 8 11 3 12 2 13
REMARK SMILES IDX 1 14 15 15 16 16 17 17 18 18 19 19 20 20 72 21 21 22 71 23
REMARK SMILES IDX 22 24 23 25 24 26 65 27 25 28 70 29 64 30 66 31 26 32 69 33
REMARK SMILES IDX 63 34 62 35 27 37 53 38 36 39 52 40 37 41 40 42 51 43 67 44
REMARK SMILES IDX 38 45 39 46 50 48 68 49 41 50 28 51 29 52 34 53 30 54 31 55
REMARK SMILES IDX 33 56 35 57 32 58 54 59 55 60 60 61 56 62 57 63 59 64 61 65
REMARK SMILES IDX 58 66 42 67 43 68 48 69 44 70 45 71 47 72 49 73 46 74
REMARK H PARENT 66 36 40 47
REMARK Flexibility Score: inf
ROOT
ATOM      1  C   UNL A   1      46.571  23.678  24.418  1.00  0.00     0.275 C 
ENDROOT
BRANCH   1   2
ATOM      2  O   UNL A   1      46.417  25.114  24.380  1.00  0.00    -0.458 OA
BRANCH   2   3
ATOM      3  C   UNL A   1      47.325  25.817  25.096  1.00  0.00     0.342 C 
ATOM      4  O   UNL A   1      48.541  25.775  24.971  1.00  0.00    -0.246 OA
BRANCH   3   5
ATOM      5  C   UNL A   1      46.678  26.771  26.022  1.00  0.00     0.105 A 
ATOM      6  C   UNL A   1      46.740  26.638  27.409  1.00  0.00     0.169 A 
ATOM      7  C   UNL A   1      46.285  27.694  28.207  1.00  0.00     0.165 A 
ATOM      8  F   UNL A   1      46.443  27.653  29.537  1.00  0.00    -0.203 F 
ATOM      9  C   UNL A   1      45.691  28.825  27.654  1.00  0.00     0.043 A 
ATOM     10  C   UNL A   1      46.097  27.925  25.465  1.00  0.00     0.020 A 
ATOM     11  C   UNL A   1      45.580  28.935  26.274  1.00  0.00     0.004 A 
BRANCH   6  12
ATOM     12  O   UNL A   1      47.349  25.564  28.000  1.00  0.00    -0.490 OA
BRANCH  12  13
ATOM     13  C   UNL A   1      46.434  24.830  28.830  1.00  0.00     0.226 C 
ATOM     14  C   UNL A   1      45.503  23.958  28.003  1.00  0.00     0.049 C 
ENDBRANCH  12  13
ENDBRANCH   6  12
ENDBRANCH   3   5
ENDBRANCH   2   3
ENDBRANCH   1   2
BRANCH   1  15
ATOM     15  C   UNL A   1      45.218  22.971  24.423  1.00  0.00     0.275 C 
BRANCH  15  16
ATOM     16  O   UNL A   1      44.163  23.933  24.590  1.00  0.00    -0.458 OA
BRANCH  16  17
ATOM     17  C   UNL A   1      43.025  23.466  25.149  1.00  0.00     0.338 C 
ATOM     18  O   UNL A   1      42.517  22.368  25.002  1.00  0.00    -0.246 OA
BRANCH  17  19
ATOM     19  C   UNL A   1      42.445  24.490  26.035  1.00  0.00     0.060 A 
ATOM     20  C   UNL A   1      42.927  25.794  25.978  1.00  0.00     0.016 A 
ATOM     21  C   UNL A   1      41.539  24.123  27.027  1.00  0.00     0.016 A 
ATOM     22  C   UNL A   1      42.615  26.697  26.992  1.00  0.00     0.010 A 
ATOM     23  C   UNL A   1      41.128  25.070  27.972  1.00  0.00     0.010 A 
ATOM     24  C   UNL A   1      41.700  26.355  27.999  1.00  0.00    -0.014 A 
BRANCH  24  25
ATOM     25  C   UNL A   1      41.377  27.315  29.096  1.00  0.00     0.031 A 
ATOM     26  C   UNL A   1      42.224  27.362  30.344  1.00  0.00     0.074 A 
ATOM     27  C   UNL A   1      40.345  28.175  28.979  1.00  0.00     0.049 A 
ATOM     28  N   UNL A   1      42.002  27.988  31.474  1.00  0.00    -0.248 NA
ATOM     29  C   UNL A   1      43.479  26.594  30.326  1.00  0.00     0.031 C 
ATOM     30  C   UNL A   1      39.467  28.293  27.814  1.00  0.00     0.029 A 
ATOM     31  N   UNL A   1      39.871  29.130  29.846  1.00  0.00    -0.354 N 
ATOM     32  C   UNL A   1      43.050  27.638  32.317  1.00  0.00     0.074 A 
ATOM     33  C   UNL A   1      43.909  26.743  31.570  1.00  0.00     0.031 C 
ATOM     34  C   UNL A   1      38.612  29.308  28.008  1.00  0.00     0.029 A 
ATOM     35  C   UNL A   1      38.807  29.843  29.350  1.00  0.00     0.049 A 
ATOM     36  H   UNL A   1      40.258  29.288  30.737  1.00  0.00     0.167 HD
ATOM     37  C   UNL A   1      43.275  28.024  33.596  1.00  0.00     0.037 A 
ATOM     38  C   UNL A   1      38.042  30.796  29.917  1.00  0.00     0.037 A 
ATOM     39  C   UNL A   1      42.457  28.963  34.319  1.00  0.00     0.049 A 
ATOM     40  C   UNL A   1      38.285  31.187  31.343  1.00  0.00     0.074 A 
ATOM     41  C   UNL A   1      42.606  29.415  35.619  1.00  0.00     0.029 A 
ATOM     42  N   UNL A   1      41.350  29.614  33.796  1.00  0.00    -0.354 N 
ATOM     43  N   UNL A   1      39.217  30.768  32.163  1.00  0.00    -0.248 NA
ATOM     44  C   UNL A   1      37.349  32.153  31.935  1.00  0.00     0.031 C 
ATOM     45  C   UNL A   1      41.574  30.319  35.890  1.00  0.00     0.029 A 
ATOM     46  C   UNL A   1      40.804  30.458  34.747  1.00  0.00     0.049 A 
ATOM     47  H   UNL A   1      41.004  29.493  32.882  1.00  0.00     0.167 HD
ATOM     48  C   UNL A   1      38.979  31.414  33.369  1.00  0.00     0.074 A 
ATOM     49  C   UNL A   1      37.828  32.270  33.167  1.00  0.00     0.031 C 
ATOM     50  C   UNL A   1      39.652  31.298  34.538  1.00  0.00     0.037 A 
BRANCH  37  51
ATOM     51  C   UNL A   1      44.441  27.408  34.312  1.00  0.00     0.057 A 
ATOM     52  C   UNL A   1      44.286  26.204  35.013  1.00  0.00     0.134 A 
ATOM     53  C   UNL A   1      45.704  28.012  34.340  1.00  0.00     0.134 A 
ATOM     54  F   UNL A   1      43.101  25.577  35.034  1.00  0.00    -0.206 F 
ATOM     55  C   UNL A   1      45.342  25.627  35.719  1.00  0.00     0.040 A 
ATOM     56  C   UNL A   1      46.776  27.432  35.023  1.00  0.00     0.040 A 
ATOM     57  F   UNL A   1      45.924  29.158  33.677  1.00  0.00    -0.206 F 
ATOM     58  C   UNL A   1      46.594  26.238  35.721  1.00  0.00     0.006 A 
ENDBRANCH  37  51
BRANCH  38  59
ATOM     59  C   UNL A   1      36.955  31.419  29.122  1.00  0.00     0.057 A 
ATOM     60  C   UNL A   1      37.052  32.735  28.654  1.00  0.00     0.134 A 
ATOM     61  C   UNL A   1      35.764  30.729  28.874  1.00  0.00     0.134 A 
ATOM     62  F   UNL A   1      38.168  33.447  28.865  1.00  0.00    -0.206 F 
ATOM     63  C   UNL A   1      35.988  33.357  28.002  1.00  0.00     0.040 A 
ATOM     64  C   UNL A   1      34.700  31.331  28.202  1.00  0.00     0.040 A 
ATOM     65  F   UNL A   1      35.623  29.458  29.279  1.00  0.00    -0.206 F 
ATOM     66  C   UNL A   1      34.806  32.655  27.776  1.00  0.00     0.006 A 
ENDBRANCH  38  59
BRANCH  50  67
ATOM     67  C   UNL A   1      39.168  32.119  35.695  1.00  0.00     0.057 A 
ATOM     68  C   UNL A   1      38.226  31.602  36.594  1.00  0.00     0.134 A 
ATOM     69  C   UNL A   1      39.590  33.439  35.882  1.00  0.00     0.134 A 
ATOM     70  F   UNL A   1      37.778  30.345  36.463  1.00  0.00    -0.206 F 
ATOM     71  C   UNL A   1      37.714  32.377  37.635  1.00  0.00     0.040 A 
ATOM     72  C   UNL A   1      39.099  34.218  36.931  1.00  0.00     0.040 A 
ATOM     73  F   UNL A   1      40.499  33.985  35.061  1.00  0.00    -0.206 F 
ATOM     74  C   UNL A   1      38.151  33.689  37.807  1.00  0.00     0.006 A 
ENDBRANCH  50  67
ENDBRANCH  24  25
ENDBRANCH  17  19
ENDBRANCH  16  17
ENDBRANCH  15  16
ENDBRANCH   1  15
TORSDOF 13
ENDMDL
MODEL 2
REMARK VINA RESULT:      -8.8      4.635      9.847
REMARK SMILES CCOc1c(F)cccc1C(=O)OCCOC(=O)c1ccc(-c2c3nc(c(-c4c(F)cccc4F)c4ccc([nH]4)c(-c4c(F)cccc4F)c4nc(c(-c5c(F)cccc5F)c5ccc2[nH]5)C=C4)C=C3)cc1
REMARK SMILES IDX 14 1 13 2 11 3 12 4 10 5 4 6 5 7 6 8 7 9 9 10 8 11 3 12 2 13
REMARK SMILES IDX 1 14 15 15 16 16 17 17 18 18 19 19 20 20 72 21 21 22 71 23
REMARK SMILES IDX 22 24 23 25 24 26 65 27 25 28 70 29 64 30 66 31 26 32 69 33
REMARK SMILES IDX 63 34 62 35 27 37 53 38 36 39 52 40 37 41 40 42 51 43 67 44
REMARK SMILES IDX 38 45 39 46 50 48 68 49 41 50 28 51 29 52 34 53 30 54 31 55
REMARK SMILES IDX 33 56 35 57 32 58 54 59 55 60 60 61 56 62 57 63 59 64 61 65
REMARK SMILES IDX 58 66 42 67 43 68 48 69 44 70 45 71 47 72 49 73 46 74
REMARK H PARENT 66 36 40 47
REMARK Flexibility Score: inf
ROOT
ATOM      1  C   UNL A   1      31.566  29.055  24.994  1.00  0.00     0.275 C 
ENDROOT
BRANCH   1   2
ATOM      2  O   UNL A   1      32.490  28.262  25.772  1.00  0.00    -0.458 OA
BRANCH   2   3
ATOM      3  C   UNL A   1      31.977  27.134  26.317  1.00  0.00     0.342 C 
ATOM      4  O   UNL A   1      31.037  27.067  27.097  1.00  0.00    -0.246 OA
BRANCH   3   5
ATOM      5  C   UNL A   1      32.619  25.918  25.776  1.00  0.00     0.105 A 
ATOM      6  C   UNL A   1      31.897  24.887  25.173  1.00  0.00     0.169 A 
ATOM      7  C   UNL A   1      32.598  23.879  24.502  1.00  0.00     0.165 A 
ATOM      8  F   UNL A   1      31.937  22.943  23.807  1.00  0.00    -0.203 F 
ATOM      9  C   UNL A   1      33.990  23.831  24.503  1.00  0.00     0.043 A 
ATOM     10  C   UNL A   1      34.024  25.879  25.757  1.00  0.00     0.020 A 
ATOM     11  C   UNL A   1      34.709  24.827  25.149  1.00  0.00     0.004 A 
BRANCH   6  12
ATOM     12  O   UNL A   1      30.529  24.910  25.111  1.00  0.00    -0.490 OA
BRANCH  12  13
ATOM     13  C   UNL A   1      30.067  25.310  23.811  1.00  0.00     0.226 C 
ATOM     14  C   UNL A   1      29.248  26.589  23.878  1.00  0.00     0.049 C 
ENDBRANCH  12  13
ENDBRANCH   6  12
ENDBRANCH   3   5
ENDBRANCH   2   3
ENDBRANCH   1   2
BRANCH   1  15
ATOM     15  C   UNL A   1      31.426  30.466  25.560  1.00  0.00     0.275 C 
BRANCH  15  16
ATOM     16  O   UNL A   1      31.997  30.524  26.878  1.00  0.00    -0.458 OA
BRANCH  16  17
ATOM     17  C   UNL A   1      32.659  31.663  27.181  1.00  0.00     0.338 C 
ATOM     18  O   UNL A   1      32.241  32.806  27.121  1.00  0.00    -0.246 OA
BRANCH  17  19
ATOM     19  C   UNL A   1      34.019  31.343  27.646  1.00  0.00     0.060 A 
ATOM     20  C   UNL A   1      34.396  30.012  27.789  1.00  0.00     0.016 A 
ATOM     21  C   UNL A   1      34.861  32.359  28.092  1.00  0.00     0.016 A 
ATOM     22  C   UNL A   1      35.550  29.686  28.499  1.00  0.00     0.010 A 
ATOM     23  C   UNL A   1      36.081  32.031  28.693  1.00  0.00     0.010 A 
ATOM     24  C   UNL A   1      36.419  30.689  28.952  1.00  0.00    -0.014 A 
BRANCH  24  25
ATOM     25  C   UNL A   1      37.647  30.344  29.729  1.00  0.00     0.031 A 
ATOM     26  C   UNL A   1      38.756  29.547  29.090  1.00  0.00     0.074 A 
ATOM     27  C   UNL A   1      37.797  30.763  31.002  1.00  0.00     0.049 A 
ATOM     28  N   UNL A   1      39.807  28.995  29.646  1.00  0.00    -0.248 NA
ATOM     29  C   UNL A   1      38.667  29.329  27.638  1.00  0.00     0.031 C 
ATOM     30  C   UNL A   1      36.842  31.589  31.743  1.00  0.00     0.029 A 
ATOM     31  N   UNL A   1      38.824  30.569  31.894  1.00  0.00    -0.354 N 
ATOM     32  C   UNL A   1      40.465  28.314  28.627  1.00  0.00     0.074 A 
ATOM     33  C   UNL A   1      39.694  28.520  27.420  1.00  0.00     0.031 C 
ATOM     34  C   UNL A   1      37.358  31.888  32.944  1.00  0.00     0.029 A 
ATOM     35  C   UNL A   1      38.629  31.191  33.102  1.00  0.00     0.049 A 
ATOM     36  H   UNL A   1      39.625  30.034  31.686  1.00  0.00     0.167 HD
ATOM     37  C   UNL A   1      41.603  27.584  28.694  1.00  0.00     0.037 A 
ATOM     38  C   UNL A   1      39.364  31.178  34.232  1.00  0.00     0.037 A 
ATOM     39  C   UNL A   1      42.405  27.430  29.880  1.00  0.00     0.049 A 
ATOM     40  C   UNL A   1      40.603  30.337  34.296  1.00  0.00     0.074 A 
ATOM     41  C   UNL A   1      43.576  26.708  30.044  1.00  0.00     0.029 A 
ATOM     42  N   UNL A   1      42.133  28.029  31.100  1.00  0.00    -0.354 N 
ATOM     43  N   UNL A   1      41.156  29.613  33.356  1.00  0.00    -0.248 NA
ATOM     44  C   UNL A   1      41.299  30.282  35.590  1.00  0.00     0.031 C 
ATOM     45  C   UNL A   1      43.996  26.850  31.370  1.00  0.00     0.029 A 
ATOM     46  C   UNL A   1      43.109  27.690  32.022  1.00  0.00     0.049 A 
ATOM     47  H   UNL A   1      41.360  28.611  31.284  1.00  0.00     0.167 HD
ATOM     48  C   UNL A   1      42.261  29.011  33.941  1.00  0.00     0.074 A 
ATOM     49  C   UNL A   1      42.314  29.473  35.312  1.00  0.00     0.031 C 
ATOM     50  C   UNL A   1      43.146  28.147  33.388  1.00  0.00     0.037 A 
BRANCH  37  51
ATOM     51  C   UNL A   1      42.040  26.865  27.450  1.00  0.00     0.057 A 
ATOM     52  C   UNL A   1      41.680  25.526  27.244  1.00  0.00     0.134 A 
ATOM     53  C   UNL A   1      42.838  27.476  26.476  1.00  0.00     0.134 A 
ATOM     54  F   UNL A   1      40.923  24.878  28.141  1.00  0.00    -0.206 F 
ATOM     55  C   UNL A   1      42.103  24.821  26.116  1.00  0.00     0.040 A 
ATOM     56  C   UNL A   1      43.247  26.788  25.331  1.00  0.00     0.040 A 
ATOM     57  F   UNL A   1      43.206  28.760  26.606  1.00  0.00    -0.206 F 
ATOM     58  C   UNL A   1      42.885  25.454  25.152  1.00  0.00     0.006 A 
ENDBRANCH  37  51
BRANCH  38  59
ATOM     59  C   UNL A   1      38.912  31.976  35.398  1.00  0.00     0.057 A 
ATOM     60  C   UNL A   1      38.154  31.405  36.428  1.00  0.00     0.134 A 
ATOM     61  C   UNL A   1      39.174  33.348  35.470  1.00  0.00     0.134 A 
ATOM     62  F   UNL A   1      37.869  30.095  36.410  1.00  0.00    -0.206 F 
ATOM     63  C   UNL A   1      37.638  32.177  37.467  1.00  0.00     0.040 A 
ATOM     64  C   UNL A   1      38.683  34.128  36.518  1.00  0.00     0.040 A 
ATOM     65  F   UNL A   1      39.914  33.945  34.525  1.00  0.00    -0.206 F 
ATOM     66  C   UNL A   1      37.901  33.545  37.513  1.00  0.00     0.006 A 
ENDBRANCH  38  59
BRANCH  50  67
ATOM     67  C   UNL A   1      44.253  27.644  34.263  1.00  0.00     0.057 A 
ATOM     68  C   UNL A   1      44.099  26.467  35.007  1.00  0.00     0.134 A 
ATOM     69  C   UNL A   1      45.448  28.357  34.413  1.00  0.00     0.134 A 
ATOM     70  F   UNL A   1      42.974  25.743  34.911  1.00  0.00    -0.206 F 
ATOM     71  C   UNL A   1      45.094  26.022  35.878  1.00  0.00     0.040 A 
ATOM     72  C   UNL A   1      46.458  27.911  35.267  1.00  0.00     0.040 A 
ATOM     73  F   UNL A   1      45.659  29.484  33.718  1.00  0.00    -0.206 F 
ATOM     74  C   UNL A   1      46.278  26.744  36.009  1.00  0.00     0.006 A 
ENDBRANCH  50  67
ENDBRANCH  24  25
ENDBRANCH  17  19
ENDBRANCH  16  17
ENDBRANCH  15  16
ENDBRANCH   1  15
TORSDOF 13
ENDMDL
MODEL 3
REMARK VINA RESULT:      -8.7      4.591      9.736
REMARK SMILES CCOc1c(F)cccc1C(=O)OCCOC(=O)c1ccc(-c2c3nc(c(-c4c(F)cccc4F)c4ccc([nH]4)c(-c4c(F)cccc4F)c4nc(c(-c5c(F)cccc5F)c5ccc2[nH]5)C=C4)C=C3)cc1
REMARK SMILES IDX 14 1 13 2 11 3 12 4 10 5 4 6 5 7 6 8 7 9 9 10 8 11 3 12 2 13
REMARK SMILES IDX 1 14 15 15 16 16 17 17 18 18 19 19 20 20 72 21 21 22 71 23
REMARK SMILES IDX 22 24 23 25 24 26 65 27 25 28 70 29 64 30 66 31 26 32 69 33
REMARK SMILES IDX 63 34 62 35 27 37 53 38 36 39 52 40 37 41 40 42 51 43 67 44
REMARK SMILES IDX 38 45 39 46 50 48 68 49 41 50 28 51 29 52 34 53 30 54 31 55
REMARK SMILES IDX 33 56 35 57 32 58 54 59 55 60 60 61 56 62 57 63 59 64 61 65
REMARK SMILES IDX 58 66 42 67 43 68 48 69 44 70 45 71 47 72 49 73 46 74
REMARK H PARENT 66 36 40 47
REMARK Flexibility Score: inf
ROOT
ATOM      1  C   UNL A   1      31.461  29.102  24.931  1.00  0.00     0.275 C 
ENDROOT
BRANCH   1   2
ATOM      2  O   UNL A   1      32.569  28.321  25.432  1.00  0.00    -0.458 OA
BRANCH   2   3
ATOM      3  C   UNL A   1      32.248  27.106  25.933  1.00  0.00     0.342 C 
ATOM      4  O   UNL A   1      31.455  26.878  26.836  1.00  0.00    -0.246 OA
BRANCH   3   5
ATOM      5  C   UNL A   1      32.895  26.010  25.182  1.00  0.00     0.105 A 
ATOM      6  C   UNL A   1      32.511  25.650  23.889  1.00  0.00     0.169 A 
ATOM      7  C   UNL A   1      33.312  24.751  23.176  1.00  0.00     0.165 A 
ATOM      8  F   UNL A   1      33.043  24.479  21.891  1.00  0.00    -0.203 F 
ATOM      9  C   UNL A   1      34.422  24.141  23.755  1.00  0.00     0.043 A 
ATOM     10  C   UNL A   1      34.029  25.409  25.756  1.00  0.00     0.020 A 
ATOM     11  C   UNL A   1      34.774  24.458  25.060  1.00  0.00     0.004 A 
BRANCH   6  12
ATOM     12  O   UNL A   1      31.452  26.250  23.263  1.00  0.00    -0.490 OA
BRANCH  12  13
ATOM     13  C   UNL A   1      30.252  25.470  23.393  1.00  0.00     0.226 C 
ATOM     14  C   UNL A   1      29.173  26.226  24.150  1.00  0.00     0.049 C 
ENDBRANCH  12  13
ENDBRANCH   6  12
ENDBRANCH   3   5
ENDBRANCH   2   3
ENDBRANCH   1   2
BRANCH   1  15
ATOM     15  C   UNL A   1      31.398  30.474  25.598  1.00  0.00     0.275 C 
BRANCH  15  16
ATOM     16  O   UNL A   1      32.132  30.452  26.835  1.00  0.00    -0.458 OA
BRANCH  16  17
ATOM     17  C   UNL A   1      32.725  31.614  27.186  1.00  0.00     0.338 C 
ATOM     18  O   UNL A   1      32.253  32.737  27.138  1.00  0.00    -0.246 OA
BRANCH  17  19
ATOM     19  C   UNL A   1      34.083  31.350  27.691  1.00  0.00     0.060 A 
ATOM     20  C   UNL A   1      34.564  30.045  27.705  1.00  0.00     0.016 A 
ATOM     21  C   UNL A   1      34.813  32.371  28.296  1.00  0.00     0.016 A 
ATOM     22  C   UNL A   1      35.705  29.731  28.440  1.00  0.00     0.010 A 
ATOM     23  C   UNL A   1      36.026  32.072  28.926  1.00  0.00     0.010 A 
ATOM     24  C   UNL A   1      36.463  30.740  29.052  1.00  0.00    -0.014 A 
BRANCH  24  25
ATOM     25  C   UNL A   1      37.676  30.404  29.856  1.00  0.00     0.031 A 
ATOM     26  C   UNL A   1      38.789  29.583  29.254  1.00  0.00     0.074 A 
ATOM     27  C   UNL A   1      37.812  30.853  31.120  1.00  0.00     0.049 A 
ATOM     28  N   UNL A   1      39.827  29.037  29.838  1.00  0.00    -0.248 NA
ATOM     29  C   UNL A   1      38.719  29.330  27.806  1.00  0.00     0.031 C 
ATOM     30  C   UNL A   1      36.852  31.704  31.826  1.00  0.00     0.029 A 
ATOM     31  N   UNL A   1      38.824  30.673  32.032  1.00  0.00    -0.354 N 
ATOM     32  C   UNL A   1      40.494  28.326  28.846  1.00  0.00     0.074 A 
ATOM     33  C   UNL A   1      39.743  28.509  27.623  1.00  0.00     0.031 C 
ATOM     34  C   UNL A   1      37.352  32.029  33.028  1.00  0.00     0.029 A 
ATOM     35  C   UNL A   1      38.616  31.326  33.222  1.00  0.00     0.049 A 
ATOM     36  H   UNL A   1      39.623  30.127  31.849  1.00  0.00     0.167 HD
ATOM     37  C   UNL A   1      41.625  27.589  28.947  1.00  0.00     0.037 A 
ATOM     38  C   UNL A   1      39.333  31.334  34.362  1.00  0.00     0.037 A 
ATOM     39  C   UNL A   1      42.408  27.458  30.149  1.00  0.00     0.049 A 
ATOM     40  C   UNL A   1      40.564  30.486  34.466  1.00  0.00     0.074 A 
ATOM     41  C   UNL A   1      43.570  26.731  30.348  1.00  0.00     0.029 A 
ATOM     42  N   UNL A   1      42.123  28.089  31.350  1.00  0.00    -0.354 N 
ATOM     43  N   UNL A   1      41.125  29.735  33.551  1.00  0.00    -0.248 NA
ATOM     44  C   UNL A   1      41.241  30.457  35.770  1.00  0.00     0.031 C 
ATOM     45  C   UNL A   1      43.972  26.902  31.676  1.00  0.00     0.029 A 
ATOM     46  C   UNL A   1      43.082  27.764  32.295  1.00  0.00     0.049 A 
ATOM     47  H   UNL A   1      41.352  28.681  31.508  1.00  0.00     0.167 HD
ATOM     48  C   UNL A   1      42.217  29.139  34.167  1.00  0.00     0.074 A 
ATOM     49  C   UNL A   1      42.253  29.634  35.528  1.00  0.00     0.031 C 
ATOM     50  C   UNL A   1      43.103  28.255  33.649  1.00  0.00     0.037 A 
BRANCH  37  51
ATOM     51  C   UNL A   1      42.074  26.837  27.729  1.00  0.00     0.057 A 
ATOM     52  C   UNL A   1      42.878  27.464  26.766  1.00  0.00     0.134 A 
ATOM     53  C   UNL A   1      41.691  25.512  27.485  1.00  0.00     0.134 A 
ATOM     54  F   UNL A   1      43.274  28.734  26.933  1.00  0.00    -0.206 F 
ATOM     55  C   UNL A   1      43.280  26.802  25.605  1.00  0.00     0.040 A 
ATOM     56  C   UNL A   1      42.107  24.831  26.339  1.00  0.00     0.040 A 
ATOM     57  F   UNL A   1      40.934  24.850  28.373  1.00  0.00    -0.206 F 
ATOM     58  C   UNL A   1      42.899  25.479  25.391  1.00  0.00     0.006 A 
ENDBRANCH  37  51
BRANCH  38  59
ATOM     59  C   UNL A   1      38.871  32.164  35.502  1.00  0.00     0.057 A 
ATOM     60  C   UNL A   1      39.193  33.524  35.595  1.00  0.00     0.134 A 
ATOM     61  C   UNL A   1      38.154  31.594  36.558  1.00  0.00     0.134 A 
ATOM     62  F   UNL A   1      39.883  34.125  34.615  1.00  0.00    -0.206 F 
ATOM     63  C   UNL A   1      38.853  34.278  36.717  1.00  0.00     0.040 A 
ATOM     64  C   UNL A   1      37.786  32.343  37.676  1.00  0.00     0.040 A 
ATOM     65  F   UNL A   1      37.797  30.302  36.512  1.00  0.00    -0.206 F 
ATOM     66  C   UNL A   1      38.149  33.687  37.764  1.00  0.00     0.006 A 
ENDBRANCH  38  59
BRANCH  50  67
ATOM     67  C   UNL A   1      44.193  27.764  34.553  1.00  0.00     0.057 A 
ATOM     68  C   UNL A   1      44.018  26.607  35.323  1.00  0.00     0.134 A 
ATOM     69  C   UNL A   1      45.391  28.471  34.703  1.00  0.00     0.134 A 
ATOM     70  F   UNL A   1      42.889  25.891  35.228  1.00  0.00    -0.206 F 
ATOM     71  C   UNL A   1      44.996  26.176  36.219  1.00  0.00     0.040 A 
ATOM     72  C   UNL A   1      46.385  28.039  35.583  1.00  0.00     0.040 A 
ATOM     73  F   UNL A   1      45.622  29.579  33.984  1.00  0.00    -0.206 F 
ATOM     74  C   UNL A   1      46.185  26.892  36.351  1.00  0.00     0.006 A 
ENDBRANCH  50  67
ENDBRANCH  24  25
ENDBRANCH  17  19
ENDBRANCH  16  17
ENDBRANCH  15  16
ENDBRANCH   1  15
TORSDOF 13
ENDMDL
