MODEL 1
REMARK VINA RESULT:     -12.3      0.000      0.000
REMARK SMILES O=C(CC1(C(=O)OCCOC(=O)c2ccc(-c3c4nc(c(-c5c(F)cccc5F)c5ccc([nH]5)c(-c5c(F)cccc5F)c5nc(c(-c6c(F)cccc6F)c6ccc3[nH]6)C=C5)C=C4)cc2)CCCCC1)Nc1ccc(N2CCOC2=O)cc1
REMARK SMILES IDX 8 1 7 2 5 3 6 4 4 5 67 6 71 7 68 8 70 9 69 10 3 11 2 12 1 13
REMARK SMILES IDX 72 14 73 16 74 17 84 18 75 19 83 20 76 21 77 22 78 23 81 24
REMARK SMILES IDX 79 25 80 26 82 27 9 28 10 29 11 30 12 31 13 32 14 33 66 34
REMARK SMILES IDX 15 35 65 36 16 37 17 38 18 39 59 40 19 41 64 42 58 43 60 44
REMARK SMILES IDX 20 45 63 46 57 47 56 48 21 50 47 51 30 52 46 53 31 54 34 55
REMARK SMILES IDX 45 56 61 57 32 58 33 59 44 61 62 62 35 63 22 64 23 65 28 66
REMARK SMILES IDX 24 67 25 68 27 69 29 70 26 71 48 72 49 73 54 74 50 75 51 76
REMARK SMILES IDX 53 77 55 78 52 79 36 80 37 81 42 82 38 83 39 84 41 85 43 86
REMARK SMILES IDX 40 87
REMARK H PARENT 72 15 60 49 34 60
REMARK Flexibility Score: inf
ROOT
ATOM      1  C   UNL A   1      33.823  28.508  23.741  1.00  0.00     0.274 C 
ENDROOT
BRANCH   1   2
ATOM      2  O   UNL A   1      33.667  27.343  24.573  1.00  0.00    -0.462 OA
BRANCH   2   3
ATOM      3  C   UNL A   1      33.022  26.253  24.063  1.00  0.00     0.312 C 
ATOM      4  O   UNL A   1      33.268  25.732  22.981  1.00  0.00    -0.252 OA
BRANCH   3   5
ATOM      5  C   UNL A   1      32.104  25.609  25.128  1.00  0.00     0.077 C 
ATOM      6  C   UNL A   1      31.188  24.491  24.574  1.00  0.00     0.019 C 
ATOM      7  C   UNL A   1      31.118  26.679  25.711  1.00  0.00     0.019 C 
ATOM      8  C   UNL A   1      30.224  24.971  23.486  1.00  0.00     0.001 C 
ATOM      9  C   UNL A   1      30.154  27.240  24.638  1.00  0.00     0.001 C 
ATOM     10  C   UNL A   1      29.365  26.157  23.916  1.00  0.00     0.000 C 
BRANCH   5  11
ATOM     11  C   UNL A   1      33.130  24.954  26.171  1.00  0.00     0.119 C 
BRANCH  11  12
ATOM     12  C   UNL A   1      33.298  23.457  25.926  1.00  0.00     0.225 C 
ATOM     13  O   UNL A   1      32.918  22.746  26.842  1.00  0.00    -0.275 OA
ATOM     14  N   UNL A   1      33.740  22.926  24.733  1.00  0.00    -0.326 N 
ATOM     15  H   UNL A   1      34.033  23.537  24.018  1.00  0.00     0.169 HD
BRANCH  14  16
ATOM     16  C   UNL A   1      33.787  21.501  24.495  1.00  0.00     0.041 A 
ATOM     17  C   UNL A   1      34.865  20.678  24.825  1.00  0.00     0.028 A 
ATOM     18  C   UNL A   1      32.668  20.853  23.990  1.00  0.00     0.028 A 
ATOM     19  C   UNL A   1      34.768  19.266  24.876  1.00  0.00     0.028 A 
ATOM     20  C   UNL A   1      32.557  19.440  24.035  1.00  0.00     0.028 A 
ATOM     21  C   UNL A   1      33.576  18.623  24.550  1.00  0.00     0.047 A 
BRANCH  21  22
ATOM     22  N   UNL A   1      33.378  17.233  24.821  1.00  0.00    -0.274 N 
ATOM     23  C   UNL A   1      32.775  16.720  26.020  1.00  0.00     0.171 C 
ATOM     24  C   UNL A   1      33.697  16.177  23.987  1.00  0.00     0.414 C 
ATOM     25  C   UNL A   1      32.537  15.259  25.711  1.00  0.00     0.257 C 
ATOM     26  O   UNL A   1      33.298  14.990  24.537  1.00  0.00    -0.447 OA
ATOM     27  O   UNL A   1      34.277  16.213  22.901  1.00  0.00    -0.224 OA
ENDBRANCH  21  22
ENDBRANCH  14  16
ENDBRANCH  11  12
ENDBRANCH   5  11
ENDBRANCH   3   5
ENDBRANCH   2   3
ENDBRANCH   1   2
BRANCH   1  28
ATOM     28  C   UNL A   1      32.856  29.655  24.220  1.00  0.00     0.275 C 
BRANCH  28  29
ATOM     29  O   UNL A   1      32.453  29.589  25.629  1.00  0.00    -0.458 OA
BRANCH  29  30
ATOM     30  C   UNL A   1      32.528  30.676  26.454  1.00  0.00     0.338 C 
ATOM     31  O   UNL A   1      31.685  31.553  26.551  1.00  0.00    -0.246 OA
BRANCH  30  32
ATOM     32  C   UNL A   1      33.789  30.653  27.294  1.00  0.00     0.060 A 
ATOM     33  C   UNL A   1      34.348  31.841  27.802  1.00  0.00     0.016 A 
ATOM     34  C   UNL A   1      34.431  29.462  27.611  1.00  0.00     0.016 A 
ATOM     35  C   UNL A   1      35.417  31.831  28.731  1.00  0.00     0.010 A 
ATOM     36  C   UNL A   1      35.511  29.448  28.524  1.00  0.00     0.010 A 
ATOM     37  C   UNL A   1      36.007  30.628  29.128  1.00  0.00    -0.014 A 
BRANCH  37  38
ATOM     38  C   UNL A   1      37.288  30.574  29.927  1.00  0.00     0.031 A 
ATOM     39  C   UNL A   1      38.455  29.890  29.260  1.00  0.00     0.074 A 
ATOM     40  C   UNL A   1      37.469  31.064  31.176  1.00  0.00     0.049 A 
ATOM     41  N   UNL A   1      39.585  29.452  29.753  1.00  0.00    -0.248 NA
ATOM     42  C   UNL A   1      38.285  29.628  27.823  1.00  0.00     0.031 C 
ATOM     43  C   UNL A   1      36.499  31.828  31.952  1.00  0.00     0.029 A 
ATOM     44  N   UNL A   1      38.556  30.974  32.027  1.00  0.00    -0.354 N 
ATOM     45  C   UNL A   1      40.214  28.796  28.701  1.00  0.00     0.074 A 
ATOM     46  C   UNL A   1      39.311  28.837  27.574  1.00  0.00     0.031 C 
ATOM     47  C   UNL A   1      37.011  32.107  33.168  1.00  0.00     0.029 A 
ATOM     48  C   UNL A   1      38.358  31.546  33.269  1.00  0.00     0.049 A 
ATOM     49  H   UNL A   1      39.402  30.539  31.770  1.00  0.00     0.167 HD
ATOM     50  C   UNL A   1      41.450  28.243  28.650  1.00  0.00     0.037 A 
ATOM     51  C   UNL A   1      39.168  31.613  34.352  1.00  0.00     0.037 A 
ATOM     52  C   UNL A   1      42.396  28.292  29.727  1.00  0.00     0.049 A 
ATOM     53  C   UNL A   1      40.552  30.996  34.280  1.00  0.00     0.074 A 
ATOM     54  C   UNL A   1      43.686  27.797  29.772  1.00  0.00     0.029 A 
ATOM     55  N   UNL A   1      42.157  28.910  30.946  1.00  0.00    -0.354 N 
ATOM     56  N   UNL A   1      41.129  30.365  33.285  1.00  0.00    -0.248 NA
ATOM     57  C   UNL A   1      41.405  31.115  35.477  1.00  0.00     0.031 C 
ATOM     58  C   UNL A   1      44.227  28.111  31.023  1.00  0.00     0.029 A 
ATOM     59  C   UNL A   1      43.284  28.829  31.743  1.00  0.00     0.049 A 
ATOM     60  H   UNL A   1      41.311  29.343  31.205  1.00  0.00     0.167 HD
ATOM     61  C   UNL A   1      42.413  30.054  33.717  1.00  0.00     0.074 A 
ATOM     62  C   UNL A   1      42.542  30.573  35.061  1.00  0.00     0.031 C 
ATOM     63  C   UNL A   1      43.403  29.396  33.062  1.00  0.00     0.037 A 
BRANCH  50  64
ATOM     64  C   UNL A   1      41.817  27.550  27.369  1.00  0.00     0.057 A 
ATOM     65  C   UNL A   1      41.677  26.163  27.210  1.00  0.00     0.134 A 
ATOM     66  C   UNL A   1      42.413  28.261  26.321  1.00  0.00     0.134 A 
ATOM     67  F   UNL A   1      41.133  25.419  28.187  1.00  0.00    -0.206 F 
ATOM     68  C   UNL A   1      42.192  25.500  26.096  1.00  0.00     0.040 A 
ATOM     69  C   UNL A   1      42.895  27.613  25.181  1.00  0.00     0.040 A 
ATOM     70  F   UNL A   1      42.565  29.591  26.397  1.00  0.00    -0.206 F 
ATOM     71  C   UNL A   1      42.806  26.226  25.079  1.00  0.00     0.006 A 
ENDBRANCH  50  64
BRANCH  51  72
ATOM     72  C   UNL A   1      38.742  32.304  35.609  1.00  0.00     0.057 A 
ATOM     73  C   UNL A   1      39.031  33.661  35.827  1.00  0.00     0.134 A 
ATOM     74  C   UNL A   1      38.123  31.616  36.660  1.00  0.00     0.134 A 
ATOM     75  F   UNL A   1      39.655  34.377  34.880  1.00  0.00    -0.206 F 
ATOM     76  C   UNL A   1      38.748  34.295  37.042  1.00  0.00     0.040 A 
ATOM     77  C   UNL A   1      37.812  32.243  37.872  1.00  0.00     0.040 A 
ATOM     78  F   UNL A   1      37.822  30.316  36.533  1.00  0.00    -0.206 F 
ATOM     79  C   UNL A   1      38.134  33.585  38.070  1.00  0.00     0.006 A 
ENDBRANCH  51  72
BRANCH  63  80
ATOM     80  C   UNL A   1      44.729  29.254  33.750  1.00  0.00     0.057 A 
ATOM     81  C   UNL A   1      45.751  30.198  33.595  1.00  0.00     0.134 A 
ATOM     82  C   UNL A   1      44.946  28.206  34.655  1.00  0.00     0.134 A 
ATOM     83  F   UNL A   1      45.610  31.219  32.736  1.00  0.00    -0.206 F 
ATOM     84  C   UNL A   1      46.946  30.101  34.312  1.00  0.00     0.040 A 
ATOM     85  C   UNL A   1      46.125  28.113  35.395  1.00  0.00     0.040 A 
ATOM     86  F   UNL A   1      44.003  27.273  34.856  1.00  0.00    -0.206 F 
ATOM     87  C   UNL A   1      47.129  29.063  35.224  1.00  0.00     0.006 A 
ENDBRANCH  63  80
ENDBRANCH  37  38
ENDBRANCH  30  32
ENDBRANCH  29  30
ENDBRANCH  28  29
ENDBRANCH   1  28
TORSDOF 15
ENDMDL
MODEL 2
REMARK VINA RESULT:     -12.1      2.105      6.692
REMARK SMILES O=C(CC1(C(=O)OCCOC(=O)c2ccc(-c3c4nc(c(-c5c(F)cccc5F)c5ccc([nH]5)c(-c5c(F)cccc5F)c5nc(c(-c6c(F)cccc6F)c6ccc3[nH]6)C=C5)C=C4)cc2)CCCCC1)Nc1ccc(N2CCOC2=O)cc1
REMARK SMILES IDX 8 1 7 2 5 3 6 4 4 5 67 6 71 7 68 8 70 9 69 10 3 11 2 12 1 13
REMARK SMILES IDX 72 14 73 16 74 17 84 18 75 19 83 20 76 21 77 22 78 23 81 24
REMARK SMILES IDX 79 25 80 26 82 27 9 28 10 29 11 30 12 31 13 32 14 33 66 34
REMARK SMILES IDX 15 35 65 36 16 37 17 38 18 39 59 40 19 41 64 42 58 43 60 44
REMARK SMILES IDX 20 45 63 46 57 47 56 48 21 50 47 51 30 52 46 53 31 54 34 55
REMARK SMILES IDX 45 56 61 57 32 58 33 59 44 61 62 62 35 63 22 64 23 65 28 66
REMARK SMILES IDX 24 67 25 68 27 69 29 70 26 71 48 72 49 73 54 74 50 75 51 76
REMARK SMILES IDX 53 77 55 78 52 79 36 80 37 81 42 82 38 83 39 84 41 85 43 86
REMARK SMILES IDX 40 87
REMARK H PARENT 72 15 60 49 34 60
REMARK Flexibility Score: inf
ROOT
ATOM      1  C   UNL A   1      32.180  28.912  27.249  1.00  0.00     0.274 C 
ENDROOT
BRANCH   1   2
ATOM      2  O   UNL A   1      32.548  28.161  26.076  1.00  0.00    -0.462 OA
BRANCH   2   3
ATOM      3  C   UNL A   1      32.072  26.889  25.934  1.00  0.00     0.312 C 
ATOM      4  O   UNL A   1      31.512  26.245  26.813  1.00  0.00    -0.252 OA
BRANCH   3   5
ATOM      5  C   UNL A   1      32.110  26.450  24.451  1.00  0.00     0.077 C 
ATOM      6  C   UNL A   1      31.925  27.614  23.447  1.00  0.00     0.019 C 
ATOM      7  C   UNL A   1      30.926  25.469  24.146  1.00  0.00     0.019 C 
ATOM      8  C   UNL A   1      30.586  28.340  23.591  1.00  0.00     0.001 C 
ATOM      9  C   UNL A   1      29.543  26.139  24.329  1.00  0.00     0.001 C 
ATOM     10  C   UNL A   1      29.378  27.410  23.509  1.00  0.00     0.000 C 
BRANCH   5  11
ATOM     11  C   UNL A   1      33.586  25.852  24.268  1.00  0.00     0.119 C 
BRANCH  11  12
ATOM     12  C   UNL A   1      33.551  24.361  23.943  1.00  0.00     0.225 C 
ATOM     13  O   UNL A   1      33.763  24.092  22.773  1.00  0.00    -0.275 OA
ATOM     14  N   UNL A   1      33.400  23.378  24.898  1.00  0.00    -0.326 N 
ATOM     15  H   UNL A   1      33.234  23.642  25.832  1.00  0.00     0.169 HD
BRANCH  14  16
ATOM     16  C   UNL A   1      33.478  21.972  24.573  1.00  0.00     0.041 A 
ATOM     17  C   UNL A   1      34.629  21.192  24.703  1.00  0.00     0.028 A 
ATOM     18  C   UNL A   1      32.331  21.292  24.188  1.00  0.00     0.028 A 
ATOM     19  C   UNL A   1      34.605  19.776  24.682  1.00  0.00     0.028 A 
ATOM     20  C   UNL A   1      32.292  19.875  24.164  1.00  0.00     0.028 A 
ATOM     21  C   UNL A   1      33.410  19.088  24.485  1.00  0.00     0.047 A 
BRANCH  21  22
ATOM     22  N   UNL A   1      33.315  17.678  24.698  1.00  0.00    -0.274 N 
ATOM     23  C   UNL A   1      32.735  17.072  25.865  1.00  0.00     0.171 C 
ATOM     24  C   UNL A   1      33.727  16.683  23.830  1.00  0.00     0.414 C 
ATOM     25  C   UNL A   1      32.614  15.610  25.495  1.00  0.00     0.257 C 
ATOM     26  O   UNL A   1      33.412  15.448  24.325  1.00  0.00    -0.447 OA
ATOM     27  O   UNL A   1      34.320  16.807  22.758  1.00  0.00    -0.224 OA
ENDBRANCH  21  22
ENDBRANCH  14  16
ENDBRANCH  11  12
ENDBRANCH   5  11
ENDBRANCH   3   5
ENDBRANCH   2   3
ENDBRANCH   1   2
BRANCH   1  28
ATOM     28  C   UNL A   1      32.320  30.456  26.975  1.00  0.00     0.275 C 
BRANCH  28  29
ATOM     29  O   UNL A   1      33.694  30.943  26.809  1.00  0.00    -0.458 OA
BRANCH  29  30
ATOM     30  C   UNL A   1      34.330  31.661  27.784  1.00  0.00     0.338 C 
ATOM     31  O   UNL A   1      33.932  32.709  28.266  1.00  0.00    -0.246 OA
BRANCH  30  32
ATOM     32  C   UNL A   1      35.598  30.973  28.246  1.00  0.00     0.060 A 
ATOM     33  C   UNL A   1      36.851  31.603  28.131  1.00  0.00     0.016 A 
ATOM     34  C   UNL A   1      35.573  29.707  28.817  1.00  0.00     0.016 A 
ATOM     35  C   UNL A   1      38.022  31.059  28.714  1.00  0.00     0.010 A 
ATOM     36  C   UNL A   1      36.743  29.150  29.385  1.00  0.00     0.010 A 
ATOM     37  C   UNL A   1      37.985  29.828  29.374  1.00  0.00    -0.014 A 
BRANCH  37  38
ATOM     38  C   UNL A   1      39.235  29.098  29.806  1.00  0.00     0.031 A 
ATOM     39  C   UNL A   1      39.899  29.610  31.060  1.00  0.00     0.074 A 
ATOM     40  C   UNL A   1      39.811  28.054  29.165  1.00  0.00     0.049 A 
ATOM     41  N   UNL A   1      41.092  29.388  31.547  1.00  0.00    -0.248 NA
ATOM     42  C   UNL A   1      39.091  30.550  31.853  1.00  0.00     0.031 C 
ATOM     43  C   UNL A   1      39.283  27.364  27.993  1.00  0.00     0.029 A 
ATOM     44  N   UNL A   1      41.000  27.391  29.415  1.00  0.00    -0.354 N 
ATOM     45  C   UNL A   1      41.199  30.225  32.653  1.00  0.00     0.074 A 
ATOM     46  C   UNL A   1      39.981  30.999  32.718  1.00  0.00     0.031 C 
ATOM     47  C   UNL A   1      40.148  26.405  27.604  1.00  0.00     0.029 A 
ATOM     48  C   UNL A   1      41.304  26.401  28.500  1.00  0.00     0.049 A 
ATOM     49  H   UNL A   1      41.581  27.606  30.180  1.00  0.00     0.167 HD
ATOM     50  C   UNL A   1      42.195  30.319  33.566  1.00  0.00     0.037 A 
ATOM     51  C   UNL A   1      42.382  25.587  28.404  1.00  0.00     0.037 A 
ATOM     52  C   UNL A   1      43.358  29.480  33.574  1.00  0.00     0.049 A 
ATOM     53  C   UNL A   1      43.487  25.697  29.437  1.00  0.00     0.074 A 
ATOM     54  C   UNL A   1      44.410  29.464  34.470  1.00  0.00     0.029 A 
ATOM     55  N   UNL A   1      43.600  28.475  32.648  1.00  0.00    -0.354 N 
ATOM     56  N   UNL A   1      43.583  26.503  30.468  1.00  0.00    -0.248 NA
ATOM     57  C   UNL A   1      44.629  24.773  29.302  1.00  0.00     0.031 C 
ATOM     58  C   UNL A   1      45.294  28.452  34.083  1.00  0.00     0.029 A 
ATOM     59  C   UNL A   1      44.775  27.818  32.965  1.00  0.00     0.049 A 
ATOM     60  H   UNL A   1      43.021  28.262  31.881  1.00  0.00     0.167 HD
ATOM     61  C   UNL A   1      44.760  26.156  31.122  1.00  0.00     0.074 A 
ATOM     62  C   UNL A   1      45.345  25.060  30.381  1.00  0.00     0.031 C 
ATOM     63  C   UNL A   1      45.312  26.697  32.237  1.00  0.00     0.037 A 
BRANCH  50  64
ATOM     64  C   UNL A   1      42.032  31.375  34.622  1.00  0.00     0.057 A 
ATOM     65  C   UNL A   1      42.608  32.648  34.493  1.00  0.00     0.134 A 
ATOM     66  C   UNL A   1      41.383  31.082  35.827  1.00  0.00     0.134 A 
ATOM     67  F   UNL A   1      43.264  32.985  33.371  1.00  0.00    -0.206 F 
ATOM     68  C   UNL A   1      42.616  33.557  35.550  1.00  0.00     0.040 A 
ATOM     69  C   UNL A   1      41.348  32.001  36.879  1.00  0.00     0.040 A 
ATOM     70  F   UNL A   1      40.796  29.891  36.016  1.00  0.00    -0.206 F 
ATOM     71  C   UNL A   1      41.987  33.232  36.750  1.00  0.00     0.006 A 
ENDBRANCH  50  64
BRANCH  51  72
ATOM     72  C   UNL A   1      42.497  24.562  27.320  1.00  0.00     0.057 A 
ATOM     73  C   UNL A   1      42.113  23.229  27.534  1.00  0.00     0.134 A 
ATOM     74  C   UNL A   1      43.074  24.858  26.079  1.00  0.00     0.134 A 
ATOM     75  F   UNL A   1      41.584  22.862  28.712  1.00  0.00    -0.206 F 
ATOM     76  C   UNL A   1      42.322  22.232  26.575  1.00  0.00     0.040 A 
ATOM     77  C   UNL A   1      43.268  23.876  25.100  1.00  0.00     0.040 A 
ATOM     78  F   UNL A   1      43.476  26.106  25.799  1.00  0.00    -0.206 F 
ATOM     79  C   UNL A   1      42.900  22.555  25.351  1.00  0.00     0.006 A 
ENDBRANCH  51  72
BRANCH  63  80
ATOM     80  C   UNL A   1      46.572  26.077  32.770  1.00  0.00     0.057 A 
ATOM     81  C   UNL A   1      46.551  25.033  33.700  1.00  0.00     0.134 A 
ATOM     82  C   UNL A   1      47.820  26.472  32.266  1.00  0.00     0.134 A 
ATOM     83  F   UNL A   1      45.390  24.616  34.228  1.00  0.00    -0.206 F 
ATOM     84  C   UNL A   1      47.727  24.406  34.117  1.00  0.00     0.040 A 
ATOM     85  C   UNL A   1      48.998  25.836  32.656  1.00  0.00     0.040 A 
ATOM     86  F   UNL A   1      47.908  27.462  31.364  1.00  0.00    -0.206 F 
ATOM     87  C   UNL A   1      48.953  24.800  33.585  1.00  0.00     0.006 A 
ENDBRANCH  63  80
ENDBRANCH  37  38
ENDBRANCH  30  32
ENDBRANCH  29  30
ENDBRANCH  28  29
ENDBRANCH   1  28
TORSDOF 15
ENDMDL
MODEL 3
REMARK VINA RESULT:     -12.1      3.376      6.886
REMARK SMILES O=C(CC1(C(=O)OCCOC(=O)c2ccc(-c3c4nc(c(-c5c(F)cccc5F)c5ccc([nH]5)c(-c5c(F)cccc5F)c5nc(c(-c6c(F)cccc6F)c6ccc3[nH]6)C=C5)C=C4)cc2)CCCCC1)Nc1ccc(N2CCOC2=O)cc1
REMARK SMILES IDX 8 1 7 2 5 3 6 4 4 5 67 6 71 7 68 8 70 9 69 10 3 11 2 12 1 13
REMARK SMILES IDX 72 14 73 16 74 17 84 18 75 19 83 20 76 21 77 22 78 23 81 24
REMARK SMILES IDX 79 25 80 26 82 27 9 28 10 29 11 30 12 31 13 32 14 33 66 34
REMARK SMILES IDX 15 35 65 36 16 37 17 38 18 39 59 40 19 41 64 42 58 43 60 44
REMARK SMILES IDX 20 45 63 46 57 47 56 48 21 50 47 51 30 52 46 53 31 54 34 55
REMARK SMILES IDX 45 56 61 57 32 58 33 59 44 61 62 62 35 63 22 64 23 65 28 66
REMARK SMILES IDX 24 67 25 68 27 69 29 70 26 71 48 72 49 73 54 74 50 75 51 76
REMARK SMILES IDX 53 77 55 78 52 79 36 80 37 81 42 82 38 83 39 84 41 85 43 86
REMARK SMILES IDX 40 87
REMARK H PARENT 72 15 60 49 34 60
REMARK Flexibility Score: inf
ROOT
ATOM      1  C   UNL A   1      32.277  29.816  25.506  1.00  0.00     0.274 C 
ENDROOT
BRANCH   1   2
ATOM      2  O   UNL A   1      32.878  28.514  25.374  1.00  0.00    -0.462 OA
BRANCH   2   3
ATOM      3  C   UNL A   1      32.105  27.409  25.586  1.00  0.00     0.312 C 
ATOM      4  O   UNL A   1      31.424  27.208  26.585  1.00  0.00    -0.252 OA
BRANCH   3   5
ATOM      5  C   UNL A   1      32.005  26.552  24.302  1.00  0.00     0.077 C 
ATOM      6  C   UNL A   1      31.609  27.358  23.040  1.00  0.00     0.019 C 
ATOM      7  C   UNL A   1      30.878  25.474  24.456  1.00  0.00     0.019 C 
ATOM      8  C   UNL A   1      30.240  28.034  23.149  1.00  0.00     0.001 C 
ATOM      9  C   UNL A   1      29.475  26.106  24.625  1.00  0.00     0.001 C 
ATOM     10  C   UNL A   1      29.112  27.069  23.504  1.00  0.00     0.000 C 
BRANCH   5  11
ATOM     11  C   UNL A   1      33.493  25.993  24.099  1.00  0.00     0.119 C 
BRANCH  11  12
ATOM     12  C   UNL A   1      33.494  24.494  23.811  1.00  0.00     0.225 C 
ATOM     13  O   UNL A   1      33.584  24.205  22.629  1.00  0.00    -0.275 OA
ATOM     14  N   UNL A   1      33.502  23.529  24.795  1.00  0.00    -0.326 N 
ATOM     15  H   UNL A   1      33.431  23.808  25.737  1.00  0.00     0.169 HD
BRANCH  14  16
ATOM     16  C   UNL A   1      33.611  22.120  24.491  1.00  0.00     0.041 A 
ATOM     17  C   UNL A   1      34.712  21.323  24.813  1.00  0.00     0.028 A 
ATOM     18  C   UNL A   1      32.533  21.456  23.922  1.00  0.00     0.028 A 
ATOM     19  C   UNL A   1      34.669  19.908  24.792  1.00  0.00     0.028 A 
ATOM     20  C   UNL A   1      32.477  20.039  23.896  1.00  0.00     0.028 A 
ATOM     21  C   UNL A   1      33.513  19.237  24.401  1.00  0.00     0.047 A 
BRANCH  21  22
ATOM     22  N   UNL A   1      33.362  17.829  24.598  1.00  0.00    -0.274 N 
ATOM     23  C   UNL A   1      32.902  17.228  25.819  1.00  0.00     0.171 C 
ATOM     24  C   UNL A   1      33.599  16.836  23.666  1.00  0.00     0.414 C 
ATOM     25  C   UNL A   1      32.647  15.786  25.441  1.00  0.00     0.257 C 
ATOM     26  O   UNL A   1      33.277  15.609  24.175  1.00  0.00    -0.447 OA
ATOM     27  O   UNL A   1      34.055  16.954  22.528  1.00  0.00    -0.224 OA
ENDBRANCH  21  22
ENDBRANCH  14  16
ENDBRANCH  11  12
ENDBRANCH   5  11
ENDBRANCH   3   5
ENDBRANCH   2   3
ENDBRANCH   1   2
BRANCH   1  28
ATOM     28  C   UNL A   1      32.594  30.423  26.924  1.00  0.00     0.275 C 
BRANCH  28  29
ATOM     29  O   UNL A   1      33.856  29.983  27.528  1.00  0.00    -0.458 OA
BRANCH  29  30
ATOM     30  C   UNL A   1      34.670  30.843  28.211  1.00  0.00     0.338 C 
ATOM     31  O   UNL A   1      34.332  31.918  28.679  1.00  0.00    -0.246 OA
BRANCH  30  32
ATOM     32  C   UNL A   1      36.068  30.281  28.368  1.00  0.00     0.060 A 
ATOM     33  C   UNL A   1      36.483  29.688  29.576  1.00  0.00     0.016 A 
ATOM     34  C   UNL A   1      36.987  30.312  27.327  1.00  0.00     0.016 A 
ATOM     35  C   UNL A   1      37.717  29.001  29.690  1.00  0.00     0.010 A 
ATOM     36  C   UNL A   1      38.228  29.643  27.442  1.00  0.00     0.010 A 
ATOM     37  C   UNL A   1      38.606  28.947  28.614  1.00  0.00    -0.014 A 
BRANCH  37  38
ATOM     38  C   UNL A   1      40.020  28.434  28.753  1.00  0.00     0.031 A 
ATOM     39  C   UNL A   1      41.030  29.416  29.291  1.00  0.00     0.074 A 
ATOM     40  C   UNL A   1      40.454  27.194  28.424  1.00  0.00     0.049 A 
ATOM     41  N   UNL A   1      42.338  29.385  29.288  1.00  0.00    -0.248 NA
ATOM     42  C   UNL A   1      40.459  30.636  29.881  1.00  0.00     0.031 C 
ATOM     43  C   UNL A   1      39.626  26.082  27.972  1.00  0.00     0.029 A 
ATOM     44  N   UNL A   1      41.732  26.663  28.412  1.00  0.00    -0.354 N 
ATOM     45  C   UNL A   1      42.735  30.616  29.800  1.00  0.00     0.074 A 
ATOM     46  C   UNL A   1      41.535  31.384  30.036  1.00  0.00     0.031 C 
ATOM     47  C   UNL A   1      40.408  25.019  27.693  1.00  0.00     0.029 A 
ATOM     48  C   UNL A   1      41.806  25.363  27.950  1.00  0.00     0.049 A 
ATOM     49  H   UNL A   1      42.524  27.169  28.708  1.00  0.00     0.167 HD
ATOM     50  C   UNL A   1      43.979  31.062  30.097  1.00  0.00     0.037 A 
ATOM     51  C   UNL A   1      42.872  24.550  27.764  1.00  0.00     0.037 A 
ATOM     52  C   UNL A   1      45.167  30.268  29.970  1.00  0.00     0.049 A 
ATOM     53  C   UNL A   1      44.260  25.058  28.105  1.00  0.00     0.074 A 
ATOM     54  C   UNL A   1      46.473  30.607  30.274  1.00  0.00     0.029 A 
ATOM     55  N   UNL A   1      45.181  28.952  29.530  1.00  0.00    -0.354 N 
ATOM     56  N   UNL A   1      44.622  26.229  28.574  1.00  0.00    -0.248 NA
ATOM     57  C   UNL A   1      45.386  24.128  27.907  1.00  0.00     0.031 C 
ATOM     58  C   UNL A   1      47.280  29.495  30.012  1.00  0.00     0.029 A 
ATOM     59  C   UNL A   1      46.472  28.456  29.576  1.00  0.00     0.049 A 
ATOM     60  H   UNL A   1      44.391  28.447  29.231  1.00  0.00     0.167 HD
ATOM     61  C   UNL A   1      45.998  26.160  28.765  1.00  0.00     0.074 A 
ATOM     62  C   UNL A   1      46.410  24.829  28.373  1.00  0.00     0.031 C 
ATOM     63  C   UNL A   1      46.849  27.111  29.224  1.00  0.00     0.037 A 
BRANCH  50  64
ATOM     64  C   UNL A   1      44.080  32.478  30.588  1.00  0.00     0.057 A 
ATOM     65  C   UNL A   1      44.298  33.553  29.713  1.00  0.00     0.134 A 
ATOM     66  C   UNL A   1      44.062  32.757  31.960  1.00  0.00     0.134 A 
ATOM     67  F   UNL A   1      44.348  33.350  28.387  1.00  0.00    -0.206 F 
ATOM     68  C   UNL A   1      44.578  34.835  30.187  1.00  0.00     0.040 A 
ATOM     69  C   UNL A   1      44.299  34.046  32.445  1.00  0.00     0.040 A 
ATOM     70  F   UNL A   1      43.843  31.782  32.854  1.00  0.00    -0.206 F 
ATOM     71  C   UNL A   1      44.583  35.082  31.558  1.00  0.00     0.006 A 
ENDBRANCH  50  64
BRANCH  51  72
ATOM     72  C   UNL A   1      42.713  23.152  27.255  1.00  0.00     0.057 A 
ATOM     73  C   UNL A   1      42.865  22.852  25.892  1.00  0.00     0.134 A 
ATOM     74  C   UNL A   1      42.319  22.100  28.090  1.00  0.00     0.134 A 
ATOM     75  F   UNL A   1      43.206  23.816  25.024  1.00  0.00    -0.206 F 
ATOM     76  C   UNL A   1      42.605  21.576  25.379  1.00  0.00     0.040 A 
ATOM     77  C   UNL A   1      42.079  20.812  27.595  1.00  0.00     0.040 A 
ATOM     78  F   UNL A   1      42.144  22.306  29.404  1.00  0.00    -0.206 F 
ATOM     79  C   UNL A   1      42.212  20.549  26.233  1.00  0.00     0.006 A 
ENDBRANCH  51  72
BRANCH  63  80
ATOM     80  C   UNL A   1      48.294  26.740  29.395  1.00  0.00     0.057 A 
ATOM     81  C   UNL A   1      49.256  27.035  28.423  1.00  0.00     0.134 A 
ATOM     82  C   UNL A   1      48.738  26.167  30.595  1.00  0.00     0.134 A 
ATOM     83  F   UNL A   1      48.895  27.574  27.249  1.00  0.00    -0.206 F 
ATOM     84  C   UNL A   1      50.610  26.765  28.634  1.00  0.00     0.040 A 
ATOM     85  C   UNL A   1      50.091  25.917  30.827  1.00  0.00     0.040 A 
ATOM     86  F   UNL A   1      47.867  25.869  31.571  1.00  0.00    -0.206 F 
ATOM     87  C   UNL A   1      51.031  26.216  29.844  1.00  0.00     0.006 A 
ENDBRANCH  63  80
ENDBRANCH  37  38
ENDBRANCH  30  32
ENDBRANCH  29  30
ENDBRANCH  28  29
ENDBRANCH   1  28
TORSDOF 15
ENDMDL
