MODEL 1
REMARK VINA RESULT:     -10.3      0.000      0.000
REMARK SMILES CC(C)Cc1ccc([C@@H](C)C(=O)OCCOC(=O)c2ccc(-c3c4nc(c(-c5c(F)cccc5F)c5ccc([nH]5)c(-c5c(F)cccc5F)c5nc(c(-c6c(F)cccc6F)c6ccc3[nH]6)C=C5)C=C4)cc2)cc1
REMARK SMILES IDX 14 1 13 2 11 3 12 4 9 5 10 6 8 7 5 8 6 9 74 10 7 11 73 12
REMARK SMILES IDX 4 13 2 14 1 15 3 16 15 17 16 18 17 19 18 20 19 21 20 22
REMARK SMILES IDX 72 23 21 24 71 25 22 26 23 27 24 28 65 29 25 30 70 31 64 32
REMARK SMILES IDX 66 33 26 34 69 35 63 36 62 37 27 39 53 40 36 41 52 42 37 43
REMARK SMILES IDX 40 44 51 45 67 46 38 47 39 48 50 50 68 51 41 52 28 53 29 54
REMARK SMILES IDX 34 55 30 56 31 57 33 58 35 59 32 60 54 61 55 62 60 63 56 64
REMARK SMILES IDX 57 65 59 66 61 67 58 68 42 69 43 70 48 71 44 72 45 73 47 74
REMARK SMILES IDX 49 75 46 76
REMARK H PARENT 66 38 40 49
REMARK Flexibility Score: inf
ROOT
ATOM      1  C   UNL A   1      44.094  22.034  25.413  1.00  0.00     0.274 C 
ENDROOT
BRANCH   1   2
ATOM      2  O   UNL A   1      43.005  21.129  25.147  1.00  0.00    -0.462 OA
BRANCH   2   3
ATOM      3  C   UNL A   1      42.222  20.794  26.206  1.00  0.00     0.313 C 
ATOM      4  O   UNL A   1      41.946  19.641  26.529  1.00  0.00    -0.252 OA
BRANCH   3   5
ATOM      5  C   UNL A   1      41.656  21.998  26.947  1.00  0.00     0.126 C 
ATOM      6  C   UNL A   1      41.901  21.839  28.446  1.00  0.00     0.025 C 
BRANCH   5   7
ATOM      7  C   UNL A   1      40.220  22.357  26.596  1.00  0.00    -0.034 A 
ATOM      8  C   UNL A   1      37.563  23.113  25.928  1.00  0.00    -0.048 A 
ATOM      9  C   UNL A   1      38.008  21.795  25.750  1.00  0.00     0.004 A 
ATOM     10  C   UNL A   1      38.474  24.050  26.422  1.00  0.00     0.004 A 
ATOM     11  C   UNL A   1      39.319  21.423  26.072  1.00  0.00     0.005 A 
ATOM     12  C   UNL A   1      39.772  23.674  26.772  1.00  0.00     0.005 A 
BRANCH   8  13
ATOM     13  C   UNL A   1      36.161  23.502  25.513  1.00  0.00     0.038 C 
BRANCH  13  14
ATOM     14  C   UNL A   1      35.617  22.829  24.229  1.00  0.00    -0.013 C 
ATOM     15  C   UNL A   1      34.302  23.447  23.742  1.00  0.00     0.008 C 
ATOM     16  C   UNL A   1      36.656  22.951  23.107  1.00  0.00     0.008 C 
ENDBRANCH  13  14
ENDBRANCH   8  13
ENDBRANCH   5   7
ENDBRANCH   3   5
ENDBRANCH   2   3
ENDBRANCH   1   2
BRANCH   1  17
ATOM     17  C   UNL A   1      44.251  23.040  24.274  1.00  0.00     0.275 C 
BRANCH  17  18
ATOM     18  O   UNL A   1      43.624  24.286  24.626  1.00  0.00    -0.458 OA
BRANCH  18  19
ATOM     19  C   UNL A   1      44.443  25.244  25.108  1.00  0.00     0.338 C 
ATOM     20  O   UNL A   1      45.546  25.571  24.702  1.00  0.00    -0.246 OA
BRANCH  19  21
ATOM     21  C   UNL A   1      43.782  25.899  26.242  1.00  0.00     0.060 A 
ATOM     22  C   UNL A   1      43.999  27.259  26.466  1.00  0.00     0.016 A 
ATOM     23  C   UNL A   1      43.004  25.148  27.123  1.00  0.00     0.016 A 
ATOM     24  C   UNL A   1      43.459  27.876  27.590  1.00  0.00     0.010 A 
ATOM     25  C   UNL A   1      42.429  25.776  28.231  1.00  0.00     0.010 A 
ATOM     26  C   UNL A   1      42.661  27.140  28.478  1.00  0.00    -0.014 A 
BRANCH  26  27
ATOM     27  C   UNL A   1      42.059  27.798  29.661  1.00  0.00     0.031 A 
ATOM     28  C   UNL A   1      40.807  28.614  29.520  1.00  0.00     0.074 A 
ATOM     29  C   UNL A   1      42.659  27.682  30.861  1.00  0.00     0.049 A 
ATOM     30  N   UNL A   1      40.202  29.359  30.409  1.00  0.00    -0.248 NA
ATOM     31  C   UNL A   1      40.150  28.593  28.203  1.00  0.00     0.031 C 
ATOM     32  C   UNL A   1      43.870  26.904  31.128  1.00  0.00     0.029 A 
ATOM     33  N   UNL A   1      42.340  28.234  32.077  1.00  0.00    -0.354 N 
ATOM     34  C   UNL A   1      39.112  29.918  29.757  1.00  0.00     0.074 A 
ATOM     35  C   UNL A   1      39.139  29.431  28.393  1.00  0.00     0.031 C 
ATOM     36  C   UNL A   1      44.198  27.037  32.423  1.00  0.00     0.029 A 
ATOM     37  C   UNL A   1      43.250  27.945  33.063  1.00  0.00     0.049 A 
ATOM     38  H   UNL A   1      41.537  28.782  32.226  1.00  0.00     0.167 HD
ATOM     39  C   UNL A   1      38.175  30.761  30.253  1.00  0.00     0.037 A 
ATOM     40  C   UNL A   1      43.336  28.392  34.329  1.00  0.00     0.037 A 
ATOM     41  C   UNL A   1      38.134  31.220  31.617  1.00  0.00     0.049 A 
ATOM     42  C   UNL A   1      42.306  29.358  34.842  1.00  0.00     0.074 A 
ATOM     43  C   UNL A   1      37.187  32.025  32.225  1.00  0.00     0.029 A 
ATOM     44  N   UNL A   1      39.082  30.918  32.580  1.00  0.00    -0.354 N 
ATOM     45  N   UNL A   1      41.265  29.859  34.223  1.00  0.00    -0.248 NA
ATOM     46  C   UNL A   1      42.467  29.827  36.225  1.00  0.00     0.031 C 
ATOM     47  C   UNL A   1      37.585  32.243  33.550  1.00  0.00     0.029 A 
ATOM     48  C   UNL A   1      38.760  31.546  33.772  1.00  0.00     0.049 A 
ATOM     49  H   UNL A   1      39.869  30.342  32.438  1.00  0.00     0.167 HD
ATOM     50  C   UNL A   1      40.646  30.697  35.138  1.00  0.00     0.074 A 
ATOM     51  C   UNL A   1      41.414  30.621  36.364  1.00  0.00     0.031 C 
ATOM     52  C   UNL A   1      39.543  31.467  34.978  1.00  0.00     0.037 A 
BRANCH  39  53
ATOM     53  C   UNL A   1      37.125  31.264  29.311  1.00  0.00     0.057 A 
ATOM     54  C   UNL A   1      36.012  30.492  28.962  1.00  0.00     0.134 A 
ATOM     55  C   UNL A   1      37.200  32.564  28.795  1.00  0.00     0.134 A 
ATOM     56  F   UNL A   1      35.888  29.235  29.415  1.00  0.00    -0.206 F 
ATOM     57  C   UNL A   1      35.014  30.990  28.123  1.00  0.00     0.040 A 
ATOM     58  C   UNL A   1      36.201  33.081  27.971  1.00  0.00     0.040 A 
ATOM     59  F   UNL A   1      38.241  33.357  29.096  1.00  0.00    -0.206 F 
ATOM     60  C   UNL A   1      35.103  32.292  27.631  1.00  0.00     0.006 A 
ENDBRANCH  39  53
BRANCH  40  61
ATOM     61  C   UNL A   1      44.468  27.967  35.188  1.00  0.00     0.057 A 
ATOM     62  C   UNL A   1      45.651  28.710  35.250  1.00  0.00     0.134 A 
ATOM     63  C   UNL A   1      44.392  26.801  35.960  1.00  0.00     0.134 A 
ATOM     64  F   UNL A   1      45.789  29.822  34.514  1.00  0.00    -0.206 F 
ATOM     65  C   UNL A   1      46.726  28.302  36.042  1.00  0.00     0.040 A 
ATOM     66  C   UNL A   1      45.451  26.394  36.773  1.00  0.00     0.040 A 
ATOM     67  F   UNL A   1      43.284  26.046  35.941  1.00  0.00    -0.206 F 
ATOM     68  C   UNL A   1      46.625  27.144  36.810  1.00  0.00     0.006 A 
ENDBRANCH  40  61
BRANCH  52  69
ATOM     69  C   UNL A   1      39.103  32.282  36.156  1.00  0.00     0.057 A 
ATOM     70  C   UNL A   1      39.544  33.598  36.338  1.00  0.00     0.134 A 
ATOM     71  C   UNL A   1      38.210  31.758  37.099  1.00  0.00     0.134 A 
ATOM     72  F   UNL A   1      40.412  34.150  35.476  1.00  0.00    -0.206 F 
ATOM     73  C   UNL A   1      39.122  34.362  37.427  1.00  0.00     0.040 A 
ATOM     74  C   UNL A   1      37.767  32.519  38.180  1.00  0.00     0.040 A 
ATOM     75  F   UNL A   1      37.749  30.505  36.976  1.00  0.00    -0.206 F 
ATOM     76  C   UNL A   1      38.227  33.823  38.349  1.00  0.00     0.006 A 
ENDBRANCH  52  69
ENDBRANCH  26  27
ENDBRANCH  19  21
ENDBRANCH  18  19
ENDBRANCH  17  18
ENDBRANCH   1  17
TORSDOF 14
ENDMDL
MODEL 2
REMARK VINA RESULT:     -10.2      1.018      6.677
REMARK SMILES CC(C)Cc1ccc([C@@H](C)C(=O)OCCOC(=O)c2ccc(-c3c4nc(c(-c5c(F)cccc5F)c5ccc([nH]5)c(-c5c(F)cccc5F)c5nc(c(-c6c(F)cccc6F)c6ccc3[nH]6)C=C5)C=C4)cc2)cc1
REMARK SMILES IDX 14 1 13 2 11 3 12 4 9 5 10 6 8 7 5 8 6 9 74 10 7 11 73 12
REMARK SMILES IDX 4 13 2 14 1 15 3 16 15 17 16 18 17 19 18 20 19 21 20 22
REMARK SMILES IDX 72 23 21 24 71 25 22 26 23 27 24 28 65 29 25 30 70 31 64 32
REMARK SMILES IDX 66 33 26 34 69 35 63 36 62 37 27 39 53 40 36 41 52 42 37 43
REMARK SMILES IDX 40 44 51 45 67 46 38 47 39 48 50 50 68 51 41 52 28 53 29 54
REMARK SMILES IDX 34 55 30 56 31 57 33 58 35 59 32 60 54 61 55 62 60 63 56 64
REMARK SMILES IDX 57 65 59 66 61 67 58 68 42 69 43 70 48 71 44 72 45 73 47 74
REMARK SMILES IDX 49 75 46 76
REMARK H PARENT 66 38 40 49
REMARK Flexibility Score: inf
ROOT
ATOM      1  C   UNL A   1      42.566  21.373  26.061  1.00  0.00     0.274 C 
ENDROOT
BRANCH   1   2
ATOM      2  O   UNL A   1      41.234  21.818  25.738  1.00  0.00    -0.462 OA
BRANCH   2   3
ATOM      3  C   UNL A   1      40.429  22.136  26.786  1.00  0.00     0.313 C 
ATOM      4  O   UNL A   1      40.424  21.544  27.863  1.00  0.00    -0.252 OA
BRANCH   3   5
ATOM      5  C   UNL A   1      39.472  23.283  26.490  1.00  0.00     0.126 C 
ATOM      6  C   UNL A   1      39.323  24.159  27.732  1.00  0.00     0.025 C 
BRANCH   5   7
ATOM      7  C   UNL A   1      38.147  22.875  25.865  1.00  0.00    -0.034 A 
ATOM      8  C   UNL A   1      35.690  22.026  24.718  1.00  0.00    -0.048 A 
ATOM      9  C   UNL A   1      35.848  23.330  25.208  1.00  0.00     0.004 A 
ATOM     10  C   UNL A   1      36.770  21.148  24.833  1.00  0.00     0.004 A 
ATOM     11  C   UNL A   1      37.056  23.748  25.780  1.00  0.00     0.005 A 
ATOM     12  C   UNL A   1      37.985  21.571  25.375  1.00  0.00     0.005 A 
BRANCH   8  13
ATOM     13  C   UNL A   1      34.354  21.582  24.162  1.00  0.00     0.038 C 
BRANCH  13  14
ATOM     14  C   UNL A   1      33.492  20.689  25.088  1.00  0.00    -0.013 C 
ATOM     15  C   UNL A   1      32.036  21.159  25.185  1.00  0.00     0.008 C 
ATOM     16  C   UNL A   1      33.502  19.247  24.565  1.00  0.00     0.008 C 
ENDBRANCH  13  14
ENDBRANCH   8  13
ENDBRANCH   5   7
ENDBRANCH   3   5
ENDBRANCH   2   3
ENDBRANCH   1   2
BRANCH   1  17
ATOM     17  C   UNL A   1      43.599  22.080  25.186  1.00  0.00     0.275 C 
BRANCH  17  18
ATOM     18  O   UNL A   1      43.161  23.417  24.886  1.00  0.00    -0.458 OA
BRANCH  18  19
ATOM     19  C   UNL A   1      44.060  24.398  25.113  1.00  0.00     0.338 C 
ATOM     20  O   UNL A   1      45.129  24.588  24.556  1.00  0.00    -0.246 OA
BRANCH  19  21
ATOM     21  C   UNL A   1      43.541  25.274  26.167  1.00  0.00     0.060 A 
ATOM     22  C   UNL A   1      43.809  26.642  26.111  1.00  0.00     0.016 A 
ATOM     23  C   UNL A   1      42.847  24.729  27.248  1.00  0.00     0.016 A 
ATOM     24  C   UNL A   1      43.408  27.476  27.151  1.00  0.00     0.010 A 
ATOM     25  C   UNL A   1      42.410  25.572  28.273  1.00  0.00     0.010 A 
ATOM     26  C   UNL A   1      42.697  26.947  28.238  1.00  0.00    -0.014 A 
BRANCH  26  27
ATOM     27  C   UNL A   1      42.241  27.835  29.334  1.00  0.00     0.031 A 
ATOM     28  C   UNL A   1      42.957  27.839  30.653  1.00  0.00     0.074 A 
ATOM     29  C   UNL A   1      41.162  28.618  29.146  1.00  0.00     0.049 A 
ATOM     30  N   UNL A   1      42.637  28.452  31.764  1.00  0.00    -0.248 NA
ATOM     31  C   UNL A   1      44.194  27.047  30.737  1.00  0.00     0.031 C 
ATOM     32  C   UNL A   1      40.392  28.713  27.905  1.00  0.00     0.029 A 
ATOM     33  N   UNL A   1      40.515  29.469  30.007  1.00  0.00    -0.354 N 
ATOM     34  C   UNL A   1      43.612  28.099  32.686  1.00  0.00     0.074 A 
ATOM     35  C   UNL A   1      44.535  27.213  32.007  1.00  0.00     0.031 C 
ATOM     36  C   UNL A   1      39.371  29.565  28.088  1.00  0.00     0.029 A 
ATOM     37  C   UNL A   1      39.388  30.037  29.469  1.00  0.00     0.049 A 
ATOM     38  H   UNL A   1      40.830  29.654  30.922  1.00  0.00     0.167 HD
ATOM     39  C   UNL A   1      43.725  28.482  33.980  1.00  0.00     0.037 A 
ATOM     40  C   UNL A   1      38.450  30.819  30.035  1.00  0.00     0.037 A 
ATOM     41  C   UNL A   1      42.823  29.386  34.643  1.00  0.00     0.049 A 
ATOM     42  C   UNL A   1      38.579  31.196  31.483  1.00  0.00     0.074 A 
ATOM     43  C   UNL A   1      42.893  29.879  35.934  1.00  0.00     0.029 A 
ATOM     44  N   UNL A   1      41.685  29.927  34.069  1.00  0.00    -0.354 N 
ATOM     45  N   UNL A   1      39.519  30.876  32.338  1.00  0.00    -0.248 NA
ATOM     46  C   UNL A   1      37.511  32.033  32.048  1.00  0.00     0.031 C 
ATOM     47  C   UNL A   1      41.774  30.690  36.154  1.00  0.00     0.029 A 
ATOM     48  C   UNL A   1      41.026  30.726  34.989  1.00  0.00     0.049 A 
ATOM     49  H   UNL A   1      41.388  29.768  33.144  1.00  0.00     0.167 HD
ATOM     50  C   UNL A   1      39.162  31.474  33.538  1.00  0.00     0.074 A 
ATOM     51  C   UNL A   1      37.928  32.195  33.297  1.00  0.00     0.031 C 
ATOM     52  C   UNL A   1      39.795  31.427  34.734  1.00  0.00     0.037 A 
BRANCH  39  53
ATOM     53  C   UNL A   1      44.855  27.906  34.779  1.00  0.00     0.057 A 
ATOM     54  C   UNL A   1      46.122  28.498  34.801  1.00  0.00     0.134 A 
ATOM     55  C   UNL A   1      44.650  26.778  35.583  1.00  0.00     0.134 A 
ATOM     56  F   UNL A   1      46.383  29.574  34.043  1.00  0.00    -0.206 F 
ATOM     57  C   UNL A   1      47.153  27.981  35.588  1.00  0.00     0.040 A 
ATOM     58  C   UNL A   1      45.666  26.263  36.388  1.00  0.00     0.040 A 
ATOM     59  F   UNL A   1      43.456  26.168  35.609  1.00  0.00    -0.206 F 
ATOM     60  C   UNL A   1      46.923  26.864  36.391  1.00  0.00     0.006 A 
ENDBRANCH  39  53
BRANCH  40  61
ATOM     61  C   UNL A   1      37.279  31.261  29.240  1.00  0.00     0.057 A 
ATOM     62  C   UNL A   1      37.185  32.567  28.750  1.00  0.00     0.134 A 
ATOM     63  C   UNL A   1      36.223  30.386  28.959  1.00  0.00     0.134 A 
ATOM     64  F   UNL A   1      38.155  33.456  29.009  1.00  0.00    -0.206 F 
ATOM     65  C   UNL A   1      36.074  32.993  28.019  1.00  0.00     0.040 A 
ATOM     66  C   UNL A   1      35.118  30.791  28.210  1.00  0.00     0.040 A 
ATOM     67  F   UNL A   1      36.255  29.120  29.402  1.00  0.00    -0.206 F 
ATOM     68  C   UNL A   1      35.040  32.101  27.742  1.00  0.00     0.006 A 
ENDBRANCH  40  61
BRANCH  52  69
ATOM     69  C   UNL A   1      39.164  32.176  35.869  1.00  0.00     0.057 A 
ATOM     70  C   UNL A   1      38.309  31.540  36.777  1.00  0.00     0.134 A 
ATOM     71  C   UNL A   1      39.435  33.534  36.072  1.00  0.00     0.134 A 
ATOM     72  F   UNL A   1      37.999  30.244  36.626  1.00  0.00    -0.206 F 
ATOM     73  C   UNL A   1      37.734  32.235  37.842  1.00  0.00     0.040 A 
ATOM     74  C   UNL A   1      38.882  34.234  37.143  1.00  0.00     0.040 A 
ATOM     75  F   UNL A   1      40.250  34.197  35.238  1.00  0.00    -0.206 F 
ATOM     76  C   UNL A   1      38.025  33.585  38.030  1.00  0.00     0.006 A 
ENDBRANCH  52  69
ENDBRANCH  26  27
ENDBRANCH  19  21
ENDBRANCH  18  19
ENDBRANCH  17  18
ENDBRANCH   1  17
TORSDOF 14
ENDMDL
MODEL 3
REMARK VINA RESULT:     -10.2      4.290     10.492
REMARK SMILES CC(C)Cc1ccc([C@@H](C)C(=O)OCCOC(=O)c2ccc(-c3c4nc(c(-c5c(F)cccc5F)c5ccc([nH]5)c(-c5c(F)cccc5F)c5nc(c(-c6c(F)cccc6F)c6ccc3[nH]6)C=C5)C=C4)cc2)cc1
REMARK SMILES IDX 14 1 13 2 11 3 12 4 9 5 10 6 8 7 5 8 6 9 74 10 7 11 73 12
REMARK SMILES IDX 4 13 2 14 1 15 3 16 15 17 16 18 17 19 18 20 19 21 20 22
REMARK SMILES IDX 72 23 21 24 71 25 22 26 23 27 24 28 65 29 25 30 70 31 64 32
REMARK SMILES IDX 66 33 26 34 69 35 63 36 62 37 27 39 53 40 36 41 52 42 37 43
REMARK SMILES IDX 40 44 51 45 67 46 38 47 39 48 50 50 68 51 41 52 28 53 29 54
REMARK SMILES IDX 34 55 30 56 31 57 33 58 35 59 32 60 54 61 55 62 60 63 56 64
REMARK SMILES IDX 57 65 59 66 61 67 58 68 42 69 43 70 48 71 44 72 45 73 47 74
REMARK SMILES IDX 49 75 46 76
REMARK H PARENT 66 38 40 49
REMARK Flexibility Score: inf
ROOT
ATOM      1  C   UNL A   1      34.367  34.637  29.377  1.00  0.00     0.274 C 
ENDROOT
BRANCH   1   2
ATOM      2  O   UNL A   1      33.837  34.434  30.702  1.00  0.00    -0.462 OA
BRANCH   2   3
ATOM      3  C   UNL A   1      34.514  33.568  31.500  1.00  0.00     0.313 C 
ATOM      4  O   UNL A   1      34.418  32.345  31.438  1.00  0.00    -0.252 OA
BRANCH   3   5
ATOM      5  C   UNL A   1      35.386  34.257  32.542  1.00  0.00     0.126 C 
ATOM      6  C   UNL A   1      34.805  35.631  32.868  1.00  0.00     0.025 C 
BRANCH   5   7
ATOM      7  C   UNL A   1      36.874  34.280  32.228  1.00  0.00    -0.034 A 
ATOM      8  C   UNL A   1      39.671  34.302  31.728  1.00  0.00    -0.048 A 
ATOM      9  C   UNL A   1      38.754  34.025  30.704  1.00  0.00     0.004 A 
ATOM     10  C   UNL A   1      39.169  34.543  33.009  1.00  0.00     0.004 A 
ATOM     11  C   UNL A   1      37.376  34.007  30.951  1.00  0.00     0.005 A 
ATOM     12  C   UNL A   1      37.793  34.555  33.250  1.00  0.00     0.005 A 
BRANCH   8  13
ATOM     13  C   UNL A   1      41.158  34.253  31.448  1.00  0.00     0.038 C 
BRANCH  13  14
ATOM     14  C   UNL A   1      41.573  33.716  30.057  1.00  0.00    -0.013 C 
ATOM     15  C   UNL A   1      42.316  34.757  29.212  1.00  0.00     0.008 C 
ATOM     16  C   UNL A   1      42.483  32.493  30.230  1.00  0.00     0.008 C 
ENDBRANCH  13  14
ENDBRANCH   8  13
ENDBRANCH   5   7
ENDBRANCH   3   5
ENDBRANCH   2   3
ENDBRANCH   1   2
BRANCH   1  17
ATOM     17  C   UNL A   1      33.819  33.590  28.410  1.00  0.00     0.275 C 
BRANCH  17  18
ATOM     18  O   UNL A   1      34.893  32.776  27.904  1.00  0.00    -0.458 OA
BRANCH  18  19
ATOM     19  C   UNL A   1      34.730  31.442  28.025  1.00  0.00     0.338 C 
ATOM     20  O   UNL A   1      33.765  30.765  27.706  1.00  0.00    -0.246 OA
BRANCH  19  21
ATOM     21  C   UNL A   1      35.949  30.871  28.606  1.00  0.00     0.060 A 
ATOM     22  C   UNL A   1      37.187  31.419  28.266  1.00  0.00     0.016 A 
ATOM     23  C   UNL A   1      35.869  29.750  29.431  1.00  0.00     0.016 A 
ATOM     24  C   UNL A   1      38.360  30.831  28.730  1.00  0.00     0.010 A 
ATOM     25  C   UNL A   1      37.046  29.183  29.929  1.00  0.00     0.010 A 
ATOM     26  C   UNL A   1      38.299  29.713  29.573  1.00  0.00    -0.014 A 
BRANCH  26  27
ATOM     27  C   UNL A   1      39.544  29.101  30.094  1.00  0.00     0.031 A 
ATOM     28  C   UNL A   1      40.204  29.655  31.323  1.00  0.00     0.074 A 
ATOM     29  C   UNL A   1      40.094  28.060  29.441  1.00  0.00     0.049 A 
ATOM     30  N   UNL A   1      41.354  29.334  31.859  1.00  0.00    -0.248 NA
ATOM     31  C   UNL A   1      39.478  30.712  32.044  1.00  0.00     0.031 C 
ATOM     32  C   UNL A   1      39.539  27.424  28.245  1.00  0.00     0.029 A 
ATOM     33  N   UNL A   1      41.254  27.367  29.680  1.00  0.00    -0.354 N 
ATOM     34  C   UNL A   1      41.505  30.166  32.959  1.00  0.00     0.074 A 
ATOM     35  C   UNL A   1      40.330  31.011  33.015  1.00  0.00     0.031 C 
ATOM     36  C   UNL A   1      40.364  26.442  27.850  1.00  0.00     0.029 A 
ATOM     37  C   UNL A   1      41.525  26.411  28.734  1.00  0.00     0.049 A 
ATOM     38  H   UNL A   1      41.835  27.539  30.457  1.00  0.00     0.167 HD
ATOM     39  C   UNL A   1      42.531  30.217  33.842  1.00  0.00     0.037 A 
ATOM     40  C   UNL A   1      42.606  25.626  28.571  1.00  0.00     0.037 A 
ATOM     41  C   UNL A   1      43.683  29.355  33.801  1.00  0.00     0.049 A 
ATOM     42  C   UNL A   1      43.747  25.731  29.542  1.00  0.00     0.074 A 
ATOM     43  C   UNL A   1      44.743  29.292  34.689  1.00  0.00     0.029 A 
ATOM     44  N   UNL A   1      43.928  28.411  32.817  1.00  0.00    -0.354 N 
ATOM     45  N   UNL A   1      43.867  26.504  30.594  1.00  0.00    -0.248 NA
ATOM     46  C   UNL A   1      44.908  24.863  29.298  1.00  0.00     0.031 C 
ATOM     47  C   UNL A   1      45.650  28.334  34.220  1.00  0.00     0.029 A 
ATOM     48  C   UNL A   1      45.137  27.780  33.059  1.00  0.00     0.049 A 
ATOM     49  H   UNL A   1      43.331  28.217  32.059  1.00  0.00     0.167 HD
ATOM     50  C   UNL A   1      45.109  26.214  31.139  1.00  0.00     0.074 A 
ATOM     51  C   UNL A   1      45.698  25.178  30.315  1.00  0.00     0.031 C 
ATOM     52  C   UNL A   1      45.712  26.760  32.222  1.00  0.00     0.037 A 
BRANCH  39  53
ATOM     53  C   UNL A   1      42.469  31.256  34.920  1.00  0.00     0.057 A 
ATOM     54  C   UNL A   1      42.860  32.580  34.695  1.00  0.00     0.134 A 
ATOM     55  C   UNL A   1      41.954  30.935  36.182  1.00  0.00     0.134 A 
ATOM     56  F   UNL A   1      43.371  32.946  33.510  1.00  0.00    -0.206 F 
ATOM     57  C   UNL A   1      42.750  33.550  35.693  1.00  0.00     0.040 A 
ATOM     58  C   UNL A   1      41.823  31.899  37.181  1.00  0.00     0.040 A 
ATOM     59  F   UNL A   1      41.559  29.684  36.458  1.00  0.00    -0.206 F 
ATOM     60  C   UNL A   1      42.223  33.212  36.939  1.00  0.00     0.006 A 
ENDBRANCH  39  53
BRANCH  40  61
ATOM     61  C   UNL A   1      42.680  24.702  27.414  1.00  0.00     0.057 A 
ATOM     62  C   UNL A   1      43.201  25.117  26.185  1.00  0.00     0.134 A 
ATOM     63  C   UNL A   1      42.221  23.382  27.511  1.00  0.00     0.134 A 
ATOM     64  F   UNL A   1      43.633  26.377  26.027  1.00  0.00    -0.206 F 
ATOM     65  C   UNL A   1      43.254  24.256  25.088  1.00  0.00     0.040 A 
ATOM     66  C   UNL A   1      42.289  22.504  26.429  1.00  0.00     0.040 A 
ATOM     67  F   UNL A   1      41.709  22.926  28.663  1.00  0.00    -0.206 F 
ATOM     68  C   UNL A   1      42.802  22.944  25.210  1.00  0.00     0.006 A 
ENDBRANCH  40  61
BRANCH  52  69
ATOM     69  C   UNL A   1      47.074  26.245  32.575  1.00  0.00     0.057 A 
ATOM     70  C   UNL A   1      48.235  26.842  32.069  1.00  0.00     0.134 A 
ATOM     71  C   UNL A   1      47.228  25.163  33.451  1.00  0.00     0.134 A 
ATOM     72  F   UNL A   1      48.151  27.873  31.214  1.00  0.00    -0.206 F 
ATOM     73  C   UNL A   1      49.503  26.372  32.411  1.00  0.00     0.040 A 
ATOM     74  C   UNL A   1      48.491  24.696  33.815  1.00  0.00     0.040 A 
ATOM     75  F   UNL A   1      46.154  24.551  33.972  1.00  0.00    -0.206 F 
ATOM     76  C   UNL A   1      49.633  25.299  33.290  1.00  0.00     0.006 A 
ENDBRANCH  52  69
ENDBRANCH  26  27
ENDBRANCH  19  21
ENDBRANCH  18  19
ENDBRANCH  17  18
ENDBRANCH   1  17
TORSDOF 14
ENDMDL
