MODEL 1
REMARK VINA RESULT:     -11.6      0.000      0.000
REMARK SMILES COc1cc2cc(C(=O)OCCOC(=O)c3ccc(-c4c5nc(c(-c6c(F)cccc6F)c6ccc([nH]6)c(-c6c(F)cccc6F)c6nc(c(-c7c(F)cccc7F)c7ccc4[nH]7)C=C6)C=C5)cc3)n(Cc3ccccc3)c2c(OC)c1OC
REMARK SMILES IDX 11 1 10 2 8 3 9 4 7 5 3 6 4 7 82 8 5 9 79 10 6 11 78 12
REMARK SMILES IDX 70 13 2 14 1 15 83 16 84 17 80 18 81 19 71 20 72 21 73 22
REMARK SMILES IDX 77 23 74 24 76 25 75 26 12 27 13 28 14 29 15 30 16 31 17 32
REMARK SMILES IDX 69 33 18 34 68 35 19 36 20 37 21 38 62 39 22 40 67 41 61 42
REMARK SMILES IDX 63 43 23 44 66 45 60 46 59 47 24 49 50 50 33 51 49 52 34 53
REMARK SMILES IDX 37 54 48 55 64 56 35 57 36 58 47 60 65 61 38 62 25 63 26 64
REMARK SMILES IDX 31 65 27 66 28 67 30 68 32 69 29 70 51 71 52 72 57 73 53 74
REMARK SMILES IDX 54 75 56 76 58 77 55 78 39 79 40 80 45 81 41 82 42 83 44 84
REMARK SMILES IDX 46 85 43 86
REMARK H PARENT 63 48 37 59
REMARK Flexibility Score: inf
ROOT
ATOM      1  C   UNL A   1      33.702  31.555  27.754  1.00  0.00     0.275 C 
ENDROOT
BRANCH   1   2
ATOM      2  O   UNL A   1      33.572  30.490  26.770  1.00  0.00    -0.457 OA
BRANCH   2   3
ATOM      3  C   UNL A   1      32.289  30.185  26.440  1.00  0.00     0.355 C 
ATOM      4  O   UNL A   1      31.412  31.031  26.503  1.00  0.00    -0.244 OA
BRANCH   3   5
ATOM      5  C   UNL A   1      32.061  28.820  25.952  1.00  0.00     0.129 A 
ATOM      6  C   UNL A   1      31.319  24.211  25.681  1.00  0.00     0.165 A 
ATOM      7  C   UNL A   1      31.750  25.203  26.554  1.00  0.00     0.061 A 
ATOM      8  C   UNL A   1      31.055  24.534  24.342  1.00  0.00     0.205 A 
ATOM      9  C   UNL A   1      31.844  26.531  26.102  1.00  0.00     0.008 A 
ATOM     10  C   UNL A   1      31.170  25.882  23.874  1.00  0.00     0.189 A 
ATOM     11  C   UNL A   1      32.250  27.701  26.738  1.00  0.00     0.044 A 
ATOM     12  C   UNL A   1      31.510  26.895  24.804  1.00  0.00     0.096 A 
ATOM     13  N   UNL A   1      31.608  28.299  24.743  1.00  0.00    -0.327 N 
BRANCH   6  14
ATOM     14  O   UNL A   1      31.043  22.951  26.148  1.00  0.00    -0.493 OA
ATOM     15  C   UNL A   1      29.897  22.858  26.991  1.00  0.00     0.278 C 
ENDBRANCH   6  14
BRANCH   8  16
ATOM     16  O   UNL A   1      30.620  23.604  23.418  1.00  0.00    -0.490 OA
ATOM     17  C   UNL A   1      31.603  22.696  22.926  1.00  0.00     0.278 C 
ENDBRANCH   8  16
BRANCH  10  18
ATOM     18  O   UNL A   1      30.949  26.232  22.564  1.00  0.00    -0.491 OA
ATOM     19  C   UNL A   1      32.127  26.160  21.760  1.00  0.00     0.278 C 
ENDBRANCH  10  18
BRANCH  13  20
ATOM     20  C   UNL A   1      31.322  29.115  23.573  1.00  0.00     0.158 C 
BRANCH  20  21
ATOM     21  C   UNL A   1      29.917  29.676  23.528  1.00  0.00    -0.028 A 
ATOM     22  C   UNL A   1      29.593  30.996  23.884  1.00  0.00     0.005 A 
ATOM     23  C   UNL A   1      28.906  28.883  22.970  1.00  0.00     0.005 A 
ATOM     24  C   UNL A   1      28.336  31.534  23.615  1.00  0.00     0.000 A 
ATOM     25  C   UNL A   1      27.634  29.408  22.735  1.00  0.00     0.000 A 
ATOM     26  C   UNL A   1      27.357  30.740  23.033  1.00  0.00     0.000 A 
ENDBRANCH  20  21
ENDBRANCH  13  20
ENDBRANCH   3   5
ENDBRANCH   2   3
ENDBRANCH   1   2
BRANCH   1  27
ATOM     27  C   UNL A   1      35.151  31.781  28.237  1.00  0.00     0.275 C 
BRANCH  27  28
ATOM     28  O   UNL A   1      35.807  30.520  28.441  1.00  0.00    -0.458 OA
BRANCH  28  29
ATOM     29  C   UNL A   1      36.896  30.488  29.250  1.00  0.00     0.338 C 
ATOM     30  O   UNL A   1      37.013  31.002  30.351  1.00  0.00    -0.246 OA
BRANCH  29  31
ATOM     31  C   UNL A   1      37.744  29.397  28.719  1.00  0.00     0.060 A 
ATOM     32  C   UNL A   1      38.132  28.326  29.539  1.00  0.00     0.016 A 
ATOM     33  C   UNL A   1      38.463  29.706  27.568  1.00  0.00     0.016 A 
ATOM     34  C   UNL A   1      39.390  27.748  29.365  1.00  0.00     0.010 A 
ATOM     35  C   UNL A   1      39.699  29.102  27.390  1.00  0.00     0.010 A 
ATOM     36  C   UNL A   1      40.229  28.227  28.361  1.00  0.00    -0.014 A 
BRANCH  36  37
ATOM     37  C   UNL A   1      41.648  27.818  28.301  1.00  0.00     0.031 A 
ATOM     38  C   UNL A   1      41.886  26.573  27.548  1.00  0.00     0.074 A 
ATOM     39  C   UNL A   1      42.749  28.503  28.715  1.00  0.00     0.049 A 
ATOM     40  N   UNL A   1      42.274  25.458  28.072  1.00  0.00    -0.248 NA
ATOM     41  C   UNL A   1      41.607  26.505  26.110  1.00  0.00     0.031 C 
ATOM     42  C   UNL A   1      42.857  29.819  29.347  1.00  0.00     0.029 A 
ATOM     43  N   UNL A   1      44.074  28.194  28.517  1.00  0.00    -0.354 N 
ATOM     44  C   UNL A   1      42.453  24.590  27.012  1.00  0.00     0.074 A 
ATOM     45  C   UNL A   1      41.865  25.221  25.859  1.00  0.00     0.031 C 
ATOM     46  C   UNL A   1      44.102  30.325  29.196  1.00  0.00     0.029 A 
ATOM     47  C   UNL A   1      44.953  29.259  28.710  1.00  0.00     0.049 A 
ATOM     48  H   UNL A   1      44.378  27.293  28.260  1.00  0.00     0.167 HD
ATOM     49  C   UNL A   1      43.283  23.521  27.114  1.00  0.00     0.037 A 
ATOM     50  C   UNL A   1      46.303  29.271  28.601  1.00  0.00     0.037 A 
ATOM     51  C   UNL A   1      43.626  23.228  28.484  1.00  0.00     0.049 A 
ATOM     52  C   UNL A   1      46.756  27.891  28.855  1.00  0.00     0.074 A 
ATOM     53  C   UNL A   1      42.907  22.959  29.635  1.00  0.00     0.029 A 
ATOM     54  N   UNL A   1      44.894  23.535  28.911  1.00  0.00    -0.354 N 
ATOM     55  N   UNL A   1      46.686  27.311  30.020  1.00  0.00    -0.248 NA
ATOM     56  C   UNL A   1      46.969  27.007  27.723  1.00  0.00     0.031 C 
ATOM     57  C   UNL A   1      43.647  23.563  30.696  1.00  0.00     0.029 A 
ATOM     58  C   UNL A   1      44.783  24.144  30.136  1.00  0.00     0.049 A 
ATOM     59  H   UNL A   1      45.731  23.351  28.427  1.00  0.00     0.167 HD
ATOM     60  C   UNL A   1      46.384  25.994  29.725  1.00  0.00     0.074 A 
ATOM     61  C   UNL A   1      46.729  25.835  28.315  1.00  0.00     0.031 C 
ATOM     62  C   UNL A   1      45.611  25.249  30.567  1.00  0.00     0.037 A 
BRANCH  49  63
ATOM     63  C   UNL A   1      44.035  22.959  25.944  1.00  0.00     0.057 A 
ATOM     64  C   UNL A   1      45.002  23.674  25.207  1.00  0.00     0.134 A 
ATOM     65  C   UNL A   1      43.974  21.583  25.683  1.00  0.00     0.134 A 
ATOM     66  F   UNL A   1      45.271  24.966  25.445  1.00  0.00    -0.206 F 
ATOM     67  C   UNL A   1      45.821  23.075  24.250  1.00  0.00     0.040 A 
ATOM     68  C   UNL A   1      44.833  20.959  24.771  1.00  0.00     0.040 A 
ATOM     69  F   UNL A   1      43.127  20.793  26.358  1.00  0.00    -0.206 F 
ATOM     70  C   UNL A   1      45.755  21.706  24.046  1.00  0.00     0.006 A 
ENDBRANCH  49  63
BRANCH  50  71
ATOM     71  C   UNL A   1      47.244  30.358  28.256  1.00  0.00     0.057 A 
ATOM     72  C   UNL A   1      48.069  30.927  29.240  1.00  0.00     0.134 A 
ATOM     73  C   UNL A   1      47.156  31.061  27.044  1.00  0.00     0.134 A 
ATOM     74  F   UNL A   1      48.169  30.368  30.456  1.00  0.00    -0.206 F 
ATOM     75  C   UNL A   1      48.743  32.139  29.044  1.00  0.00     0.040 A 
ATOM     76  C   UNL A   1      47.825  32.275  26.835  1.00  0.00     0.040 A 
ATOM     77  F   UNL A   1      46.368  30.618  26.055  1.00  0.00    -0.206 F 
ATOM     78  C   UNL A   1      48.611  32.825  27.842  1.00  0.00     0.006 A 
ENDBRANCH  50  71
BRANCH  62  79
ATOM     79  C   UNL A   1      45.376  25.785  31.957  1.00  0.00     0.057 A 
ATOM     80  C   UNL A   1      46.254  25.427  32.985  1.00  0.00     0.134 A 
ATOM     81  C   UNL A   1      44.247  26.531  32.330  1.00  0.00     0.134 A 
ATOM     82  F   UNL A   1      47.330  24.669  32.721  1.00  0.00    -0.206 F 
ATOM     83  C   UNL A   1      46.028  25.802  34.314  1.00  0.00     0.040 A 
ATOM     84  C   UNL A   1      44.024  26.938  33.649  1.00  0.00     0.040 A 
ATOM     85  F   UNL A   1      43.302  26.844  31.440  1.00  0.00    -0.206 F 
ATOM     86  C   UNL A   1      44.914  26.567  34.649  1.00  0.00     0.006 A 
ENDBRANCH  62  79
ENDBRANCH  36  37
ENDBRANCH  29  31
ENDBRANCH  28  29
ENDBRANCH  27  28
ENDBRANCH   1  27
TORSDOF 16
ENDMDL
MODEL 2
REMARK VINA RESULT:     -11.4      4.674      9.657
REMARK SMILES COc1cc2cc(C(=O)OCCOC(=O)c3ccc(-c4c5nc(c(-c6c(F)cccc6F)c6ccc([nH]6)c(-c6c(F)cccc6F)c6nc(c(-c7c(F)cccc7F)c7ccc4[nH]7)C=C6)C=C5)cc3)n(Cc3ccccc3)c2c(OC)c1OC
REMARK SMILES IDX 11 1 10 2 8 3 9 4 7 5 3 6 4 7 82 8 5 9 79 10 6 11 78 12
REMARK SMILES IDX 70 13 2 14 1 15 83 16 84 17 80 18 81 19 71 20 72 21 73 22
REMARK SMILES IDX 77 23 74 24 76 25 75 26 12 27 13 28 14 29 15 30 16 31 17 32
REMARK SMILES IDX 69 33 18 34 68 35 19 36 20 37 21 38 62 39 22 40 67 41 61 42
REMARK SMILES IDX 63 43 23 44 66 45 60 46 59 47 24 49 50 50 33 51 49 52 34 53
REMARK SMILES IDX 37 54 48 55 64 56 35 57 36 58 47 60 65 61 38 62 25 63 26 64
REMARK SMILES IDX 31 65 27 66 28 67 30 68 32 69 29 70 51 71 52 72 57 73 53 74
REMARK SMILES IDX 54 75 56 76 58 77 55 78 39 79 40 80 45 81 41 82 42 83 44 84
REMARK SMILES IDX 46 85 43 86
REMARK H PARENT 63 48 37 59
REMARK Flexibility Score: inf
ROOT
ATOM      1  C   UNL A   1      39.251  21.565  26.068  1.00  0.00     0.275 C 
ENDROOT
BRANCH   1   2
ATOM      2  O   UNL A   1      37.906  22.106  25.931  1.00  0.00    -0.457 OA
BRANCH   2   3
ATOM      3  C   UNL A   1      37.132  21.461  25.019  1.00  0.00     0.355 C 
ATOM      4  O   UNL A   1      37.451  20.360  24.598  1.00  0.00    -0.244 OA
BRANCH   3   5
ATOM      5  C   UNL A   1      35.886  22.139  24.643  1.00  0.00     0.129 A 
ATOM      6  C   UNL A   1      32.726  24.945  22.643  1.00  0.00     0.165 A 
ATOM      7  C   UNL A   1      34.094  24.797  22.837  1.00  0.00     0.061 A 
ATOM      8  C   UNL A   1      31.836  24.070  23.283  1.00  0.00     0.205 A 
ATOM      9  C   UNL A   1      34.573  23.725  23.610  1.00  0.00     0.008 A 
ATOM     10  C   UNL A   1      32.321  22.990  24.088  1.00  0.00     0.189 A 
ATOM     11  C   UNL A   1      35.862  23.347  23.975  1.00  0.00     0.044 A 
ATOM     12  C   UNL A   1      33.720  22.793  24.188  1.00  0.00     0.096 A 
ATOM     13  N   UNL A   1      34.540  21.811  24.777  1.00  0.00    -0.327 N 
BRANCH   6  14
ATOM     14  O   UNL A   1      32.250  25.868  21.745  1.00  0.00    -0.493 OA
ATOM     15  C   UNL A   1      32.533  25.579  20.378  1.00  0.00     0.278 C 
ENDBRANCH   6  14
BRANCH   8  16
ATOM     16  O   UNL A   1      30.466  24.153  23.136  1.00  0.00    -0.490 OA
ATOM     17  C   UNL A   1      29.815  25.195  23.860  1.00  0.00     0.278 C 
ENDBRANCH   8  16
BRANCH  10  18
ATOM     18  O   UNL A   1      31.482  22.129  24.755  1.00  0.00    -0.491 OA
ATOM     19  C   UNL A   1      31.156  22.574  26.072  1.00  0.00     0.278 C 
ENDBRANCH  10  18
BRANCH  13  20
ATOM     20  C   UNL A   1      34.067  20.626  25.478  1.00  0.00     0.158 C 
BRANCH  20  21
ATOM     21  C   UNL A   1      33.907  19.403  24.601  1.00  0.00    -0.028 A 
ATOM     22  C   UNL A   1      34.783  18.304  24.629  1.00  0.00     0.005 A 
ATOM     23  C   UNL A   1      32.748  19.296  23.821  1.00  0.00     0.005 A 
ATOM     24  C   UNL A   1      34.475  17.112  23.975  1.00  0.00     0.000 A 
ATOM     25  C   UNL A   1      32.456  18.116  23.135  1.00  0.00     0.000 A 
ATOM     26  C   UNL A   1      33.306  17.016  23.233  1.00  0.00     0.000 A 
ENDBRANCH  20  21
ENDBRANCH  13  20
ENDBRANCH   3   5
ENDBRANCH   2   3
ENDBRANCH   1   2
BRANCH   1  27
ATOM     27  C   UNL A   1      40.245  22.534  26.743  1.00  0.00     0.275 C 
BRANCH  27  28
ATOM     28  O   UNL A   1      39.711  23.867  26.747  1.00  0.00    -0.458 OA
BRANCH  28  29
ATOM     29  C   UNL A   1      40.583  24.906  26.709  1.00  0.00     0.338 C 
ATOM     30  O   UNL A   1      41.605  24.988  26.048  1.00  0.00    -0.246 OA
BRANCH  29  31
ATOM     31  C   UNL A   1      39.853  26.049  27.305  1.00  0.00     0.060 A 
ATOM     32  C   UNL A   1      40.065  27.356  26.839  1.00  0.00     0.016 A 
ATOM     33  C   UNL A   1      39.322  25.824  28.570  1.00  0.00     0.016 A 
ATOM     34  C   UNL A   1      40.014  28.422  27.739  1.00  0.00     0.010 A 
ATOM     35  C   UNL A   1      39.248  26.897  29.446  1.00  0.00     0.010 A 
ATOM     36  C   UNL A   1      39.725  28.172  29.079  1.00  0.00    -0.014 A 
BRANCH  36  37
ATOM     37  C   UNL A   1      39.903  29.225  30.101  1.00  0.00     0.031 A 
ATOM     38  C   UNL A   1      38.688  30.015  30.370  1.00  0.00     0.074 A 
ATOM     39  C   UNL A   1      40.975  29.455  30.908  1.00  0.00     0.049 A 
ATOM     40  N   UNL A   1      38.538  31.262  30.066  1.00  0.00    -0.248 NA
ATOM     41  C   UNL A   1      37.500  29.383  30.952  1.00  0.00     0.031 C 
ATOM     42  C   UNL A   1      42.256  28.752  30.995  1.00  0.00     0.029 A 
ATOM     43  N   UNL A   1      41.079  30.331  31.963  1.00  0.00    -0.354 N 
ATOM     44  C   UNL A   1      37.302  31.622  30.568  1.00  0.00     0.074 A 
ATOM     45  C   UNL A   1      36.637  30.400  30.941  1.00  0.00     0.031 C 
ATOM     46  C   UNL A   1      42.853  28.987  32.186  1.00  0.00     0.029 A 
ATOM     47  C   UNL A   1      42.141  30.072  32.828  1.00  0.00     0.049 A 
ATOM     48  H   UNL A   1      40.455  31.080  32.096  1.00  0.00     0.167 HD
ATOM     49  C   UNL A   1      37.014  32.915  30.859  1.00  0.00     0.037 A 
ATOM     50  C   UNL A   1      42.510  30.751  33.940  1.00  0.00     0.037 A 
ATOM     51  C   UNL A   1      37.959  33.829  30.266  1.00  0.00     0.049 A 
ATOM     52  C   UNL A   1      42.026  32.133  33.767  1.00  0.00     0.074 A 
ATOM     53  C   UNL A   1      38.409  34.072  28.980  1.00  0.00     0.029 A 
ATOM     54  N   UNL A   1      38.870  34.441  31.091  1.00  0.00    -0.354 N 
ATOM     55  N   UNL A   1      42.514  32.965  32.891  1.00  0.00    -0.248 NA
ATOM     56  C   UNL A   1      40.738  32.496  34.332  1.00  0.00     0.031 C 
ATOM     57  C   UNL A   1      39.790  34.407  29.117  1.00  0.00     0.029 A 
ATOM     58  C   UNL A   1      40.096  34.374  30.477  1.00  0.00     0.049 A 
ATOM     59  H   UNL A   1      38.679  34.852  31.964  1.00  0.00     0.167 HD
ATOM     60  C   UNL A   1      41.416  33.688  32.461  1.00  0.00     0.074 A 
ATOM     61  C   UNL A   1      40.399  33.472  33.486  1.00  0.00     0.031 C 
ATOM     62  C   UNL A   1      41.340  34.146  31.178  1.00  0.00     0.037 A 
BRANCH  49  63
ATOM     63  C   UNL A   1      36.066  33.313  31.952  1.00  0.00     0.057 A 
ATOM     64  C   UNL A   1      36.301  33.087  33.325  1.00  0.00     0.134 A 
ATOM     65  C   UNL A   1      34.991  34.163  31.656  1.00  0.00     0.134 A 
ATOM     66  F   UNL A   1      37.372  32.410  33.765  1.00  0.00    -0.206 F 
ATOM     67  C   UNL A   1      35.501  33.631  34.329  1.00  0.00     0.040 A 
ATOM     68  C   UNL A   1      34.221  34.765  32.657  1.00  0.00     0.040 A 
ATOM     69  F   UNL A   1      34.702  34.489  30.388  1.00  0.00    -0.206 F 
ATOM     70  C   UNL A   1      34.470  34.495  33.998  1.00  0.00     0.006 A 
ENDBRANCH  49  63
BRANCH  50  71
ATOM     71  C   UNL A   1      43.210  30.310  35.165  1.00  0.00     0.057 A 
ATOM     72  C   UNL A   1      44.566  30.620  35.364  1.00  0.00     0.134 A 
ATOM     73  C   UNL A   1      42.669  29.340  36.023  1.00  0.00     0.134 A 
ATOM     74  F   UNL A   1      45.195  31.486  34.555  1.00  0.00    -0.206 F 
ATOM     75  C   UNL A   1      45.347  29.982  36.336  1.00  0.00     0.040 A 
ATOM     76  C   UNL A   1      43.439  28.693  37.000  1.00  0.00     0.040 A 
ATOM     77  F   UNL A   1      41.394  28.950  35.892  1.00  0.00    -0.206 F 
ATOM     78  C   UNL A   1      44.786  29.003  37.150  1.00  0.00     0.006 A 
ENDBRANCH  50  71
BRANCH  62  79
ATOM     79  C   UNL A   1      42.603  34.129  30.354  1.00  0.00     0.057 A 
ATOM     80  C   UNL A   1      43.382  35.287  30.274  1.00  0.00     0.134 A 
ATOM     81  C   UNL A   1      42.996  33.052  29.544  1.00  0.00     0.134 A 
ATOM     82  F   UNL A   1      43.043  36.379  30.978  1.00  0.00    -0.206 F 
ATOM     83  C   UNL A   1      44.503  35.367  29.441  1.00  0.00     0.040 A 
ATOM     84  C   UNL A   1      44.130  33.108  28.728  1.00  0.00     0.040 A 
ATOM     85  F   UNL A   1      42.267  31.936  29.477  1.00  0.00    -0.206 F 
ATOM     86  C   UNL A   1      44.886  34.273  28.670  1.00  0.00     0.006 A 
ENDBRANCH  62  79
ENDBRANCH  36  37
ENDBRANCH  29  31
ENDBRANCH  28  29
ENDBRANCH  27  28
ENDBRANCH   1  27
TORSDOF 16
ENDMDL
MODEL 3
REMARK VINA RESULT:     -11.4      1.910      6.043
REMARK SMILES COc1cc2cc(C(=O)OCCOC(=O)c3ccc(-c4c5nc(c(-c6c(F)cccc6F)c6ccc([nH]6)c(-c6c(F)cccc6F)c6nc(c(-c7c(F)cccc7F)c7ccc4[nH]7)C=C6)C=C5)cc3)n(Cc3ccccc3)c2c(OC)c1OC
REMARK SMILES IDX 11 1 10 2 8 3 9 4 7 5 3 6 4 7 82 8 5 9 79 10 6 11 78 12
REMARK SMILES IDX 70 13 2 14 1 15 83 16 84 17 80 18 81 19 71 20 72 21 73 22
REMARK SMILES IDX 77 23 74 24 76 25 75 26 12 27 13 28 14 29 15 30 16 31 17 32
REMARK SMILES IDX 69 33 18 34 68 35 19 36 20 37 21 38 62 39 22 40 67 41 61 42
REMARK SMILES IDX 63 43 23 44 66 45 60 46 59 47 24 49 50 50 33 51 49 52 34 53
REMARK SMILES IDX 37 54 48 55 64 56 35 57 36 58 47 60 65 61 38 62 25 63 26 64
REMARK SMILES IDX 31 65 27 66 28 67 30 68 32 69 29 70 51 71 52 72 57 73 53 74
REMARK SMILES IDX 54 75 56 76 58 77 55 78 39 79 40 80 45 81 41 82 42 83 44 84
REMARK SMILES IDX 46 85 43 86
REMARK H PARENT 63 48 37 59
REMARK Flexibility Score: inf
ROOT
ATOM      1  C   UNL A   1      33.062  30.667  27.509  1.00  0.00     0.275 C 
ENDROOT
BRANCH   1   2
ATOM      2  O   UNL A   1      33.117  30.277  26.107  1.00  0.00    -0.457 OA
BRANCH   2   3
ATOM      3  C   UNL A   1      31.927  29.869  25.592  1.00  0.00     0.355 C 
ATOM      4  O   UNL A   1      31.028  30.669  25.391  1.00  0.00    -0.244 OA
BRANCH   3   5
ATOM      5  C   UNL A   1      31.835  28.447  25.242  1.00  0.00     0.129 A 
ATOM      6  C   UNL A   1      31.315  23.803  25.413  1.00  0.00     0.165 A 
ATOM      7  C   UNL A   1      31.552  24.910  26.219  1.00  0.00     0.061 A 
ATOM      8  C   UNL A   1      31.276  23.955  24.020  1.00  0.00     0.205 A 
ATOM      9  C   UNL A   1      31.676  26.181  25.632  1.00  0.00     0.008 A 
ATOM     10  C   UNL A   1      31.423  25.246  23.418  1.00  0.00     0.189 A 
ATOM     11  C   UNL A   1      31.924  27.437  26.180  1.00  0.00     0.044 A 
ATOM     12  C   UNL A   1      31.560  26.375  24.261  1.00  0.00     0.096 A 
ATOM     13  N   UNL A   1      31.618  27.767  24.047  1.00  0.00    -0.327 N 
BRANCH   6  14
ATOM     14  O   UNL A   1      31.007  22.590  25.978  1.00  0.00    -0.493 OA
ATOM     15  C   UNL A   1      29.901  22.609  26.878  1.00  0.00     0.278 C 
ENDBRANCH   6  14
BRANCH   8  16
ATOM     16  O   UNL A   1      31.041  22.904  23.156  1.00  0.00    -0.490 OA
ATOM     17  C   UNL A   1      32.158  22.067  22.861  1.00  0.00     0.278 C 
ENDBRANCH   8  16
BRANCH  10  18
ATOM     18  O   UNL A   1      31.421  25.432  22.056  1.00  0.00    -0.491 OA
ATOM     19  C   UNL A   1      32.732  25.426  21.489  1.00  0.00     0.278 C 
ENDBRANCH  10  18
BRANCH  13  20
ATOM     20  C   UNL A   1      31.512  28.427  22.754  1.00  0.00     0.158 C 
BRANCH  20  21
ATOM     21  C   UNL A   1      30.129  28.950  22.430  1.00  0.00    -0.028 A 
ATOM     22  C   UNL A   1      28.948  28.424  22.982  1.00  0.00     0.005 A 
ATOM     23  C   UNL A   1      30.026  30.107  21.648  1.00  0.00     0.005 A 
ATOM     24  C   UNL A   1      27.724  29.074  22.833  1.00  0.00     0.000 A 
ATOM     25  C   UNL A   1      28.795  30.739  21.466  1.00  0.00     0.000 A 
ATOM     26  C   UNL A   1      27.649  30.238  22.080  1.00  0.00     0.000 A 
ENDBRANCH  20  21
ENDBRANCH  13  20
ENDBRANCH   3   5
ENDBRANCH   2   3
ENDBRANCH   1   2
BRANCH   1  27
ATOM     27  C   UNL A   1      33.339  32.167  27.747  1.00  0.00     0.275 C 
BRANCH  27  28
ATOM     28  O   UNL A   1      34.344  32.330  28.760  1.00  0.00    -0.458 OA
BRANCH  28  29
ATOM     29  C   UNL A   1      35.625  32.538  28.363  1.00  0.00     0.338 C 
ATOM     30  O   UNL A   1      36.035  33.419  27.626  1.00  0.00    -0.246 OA
BRANCH  29  31
ATOM     31  C   UNL A   1      36.456  31.749  29.301  1.00  0.00     0.060 A 
ATOM     32  C   UNL A   1      37.590  32.315  29.904  1.00  0.00     0.016 A 
ATOM     33  C   UNL A   1      36.319  30.368  29.202  1.00  0.00     0.016 A 
ATOM     34  C   UNL A   1      38.708  31.516  30.151  1.00  0.00     0.010 A 
ATOM     35  C   UNL A   1      37.427  29.582  29.479  1.00  0.00     0.010 A 
ATOM     36  C   UNL A   1      38.667  30.163  29.819  1.00  0.00    -0.014 A 
BRANCH  36  37
ATOM     37  C   UNL A   1      39.896  29.343  29.832  1.00  0.00     0.031 A 
ATOM     38  C   UNL A   1      40.401  29.032  31.182  1.00  0.00     0.074 A 
ATOM     39  C   UNL A   1      40.522  28.732  28.789  1.00  0.00     0.049 A 
ATOM     40  N   UNL A   1      41.497  29.496  31.684  1.00  0.00    -0.248 NA
ATOM     41  C   UNL A   1      39.611  28.208  32.102  1.00  0.00     0.031 C 
ATOM     42  C   UNL A   1      40.182  28.714  27.365  1.00  0.00     0.029 A 
ATOM     43  N   UNL A   1      41.571  27.843  28.823  1.00  0.00    -0.354 N 
ATOM     44  C   UNL A   1      41.627  28.892  32.919  1.00  0.00     0.074 A 
ATOM     45  C   UNL A   1      40.367  28.254  33.200  1.00  0.00     0.031 C 
ATOM     46  C   UNL A   1      40.765  27.663  26.744  1.00  0.00     0.029 A 
ATOM     47  C   UNL A   1      41.739  27.100  27.655  1.00  0.00     0.049 A 
ATOM     48  H   UNL A   1      42.156  27.739  29.608  1.00  0.00     0.167 HD
ATOM     49  C   UNL A   1      42.842  28.760  33.510  1.00  0.00     0.037 A 
ATOM     50  C   UNL A   1      42.676  26.162  27.377  1.00  0.00     0.037 A 
ATOM     51  C   UNL A   1      43.838  29.605  32.899  1.00  0.00     0.049 A 
ATOM     52  C   UNL A   1      43.843  26.472  28.223  1.00  0.00     0.074 A 
ATOM     53  C   UNL A   1      43.949  30.961  32.649  1.00  0.00     0.029 A 
ATOM     54  N   UNL A   1      44.791  29.011  32.109  1.00  0.00    -0.354 N 
ATOM     55  N   UNL A   1      44.599  27.520  28.055  1.00  0.00    -0.248 NA
ATOM     56  C   UNL A   1      43.975  25.799  29.503  1.00  0.00     0.031 C 
ATOM     57  C   UNL A   1      44.631  31.064  31.399  1.00  0.00     0.029 A 
ATOM     58  C   UNL A   1      44.918  29.768  30.971  1.00  0.00     0.049 A 
ATOM     59  H   UNL A   1      45.293  28.191  32.321  1.00  0.00     0.167 HD
ATOM     60  C   UNL A   1      44.942  27.900  29.340  1.00  0.00     0.074 A 
ATOM     61  C   UNL A   1      44.670  26.727  30.165  1.00  0.00     0.031 C 
ATOM     62  C   UNL A   1      45.131  29.215  29.652  1.00  0.00     0.037 A 
BRANCH  49  63
ATOM     63  C   UNL A   1      43.184  27.621  34.424  1.00  0.00     0.057 A 
ATOM     64  C   UNL A   1      43.484  26.315  33.983  1.00  0.00     0.134 A 
ATOM     65  C   UNL A   1      43.460  27.879  35.774  1.00  0.00     0.134 A 
ATOM     66  F   UNL A   1      43.403  25.960  32.692  1.00  0.00    -0.206 F 
ATOM     67  C   UNL A   1      43.982  25.325  34.830  1.00  0.00     0.040 A 
ATOM     68  C   UNL A   1      44.018  26.914  36.618  1.00  0.00     0.040 A 
ATOM     69  F   UNL A   1      43.260  29.100  36.294  1.00  0.00    -0.206 F 
ATOM     70  C   UNL A   1      44.275  25.630  36.149  1.00  0.00     0.006 A 
ENDBRANCH  49  63
BRANCH  50  71
ATOM     71  C   UNL A   1      42.646  24.990  26.476  1.00  0.00     0.057 A 
ATOM     72  C   UNL A   1      41.951  23.825  26.842  1.00  0.00     0.134 A 
ATOM     73  C   UNL A   1      43.521  24.868  25.386  1.00  0.00     0.134 A 
ATOM     74  F   UNL A   1      41.139  23.820  27.910  1.00  0.00    -0.206 F 
ATOM     75  C   UNL A   1      42.137  22.603  26.183  1.00  0.00     0.040 A 
ATOM     76  C   UNL A   1      43.719  23.651  24.719  1.00  0.00     0.040 A 
ATOM     77  F   UNL A   1      44.256  25.914  24.981  1.00  0.00    -0.206 F 
ATOM     78  C   UNL A   1      43.036  22.510  25.126  1.00  0.00     0.006 A 
ENDBRANCH  50  71
BRANCH  62  79
ATOM     79  C   UNL A   1      45.276  30.190  28.511  1.00  0.00     0.057 A 
ATOM     80  C   UNL A   1      44.135  30.819  28.000  1.00  0.00     0.134 A 
ATOM     81  C   UNL A   1      46.479  30.424  27.827  1.00  0.00     0.134 A 
ATOM     82  F   UNL A   1      42.937  30.605  28.564  1.00  0.00    -0.206 F 
ATOM     83  C   UNL A   1      44.191  31.647  26.874  1.00  0.00     0.040 A 
ATOM     84  C   UNL A   1      46.554  31.273  26.718  1.00  0.00     0.040 A 
ATOM     85  F   UNL A   1      47.605  29.799  28.178  1.00  0.00    -0.206 F 
ATOM     86  C   UNL A   1      45.404  31.884  26.234  1.00  0.00     0.006 A 
ENDBRANCH  62  79
ENDBRANCH  36  37
ENDBRANCH  29  31
ENDBRANCH  28  29
ENDBRANCH  27  28
ENDBRANCH   1  27
TORSDOF 16
ENDMDL
