MODEL 1
REMARK VINA RESULT:     -11.1      0.000      0.000
REMARK SMILES C[C@](NC(=O)C[C@@H]1CCC[NH2+]C1)(C(=O)OCCOC(=O)c1ccc(-c2c3nc(c(-c4c(F)cccc4F)c4ccc([nH]4)c(-c4c(F)cccc4F)c4nc(c(-c5c(F)cccc5F)c5ccc2[nH]5)C=C4)C=C3)cc1)C(F)(F)F
REMARK SMILES IDX 16 1 15 2 13 3 14 4 2 5 1 6 75 7 76 8 77 9 78 10 3 11 4 12
REMARK SMILES IDX 5 14 6 15 7 16 8 17 12 18 9 19 11 20 10 21 17 24 18 25 19 26
REMARK SMILES IDX 20 27 21 28 22 29 74 30 23 31 73 32 24 33 25 34 26 35 67 36
REMARK SMILES IDX 27 37 72 38 66 39 68 40 28 41 71 42 65 43 64 44 29 46 55 47
REMARK SMILES IDX 38 48 54 49 39 50 42 51 53 52 69 53 40 54 41 55 52 57 70 58
REMARK SMILES IDX 43 59 30 60 31 61 36 62 32 63 33 64 35 65 37 66 34 67 56 68
REMARK SMILES IDX 57 69 62 70 58 71 59 72 61 73 63 74 60 75 44 76 45 77 50 78
REMARK SMILES IDX 46 79 47 80 49 81 51 82 48 83
REMARK H PARENT 3 13 11 22 11 23 68 45 42 56
REMARK Flexibility Score: inf
ROOT
ATOM      1  C   UNL A   1      34.867  21.073  25.657  1.00  0.00     0.274 C 
ENDROOT
BRANCH   1   2
ATOM      2  O   UNL A   1      34.021  21.659  24.641  1.00  0.00    -0.460 OA
BRANCH   2   3
ATOM      3  C   UNL A   1      32.746  21.962  25.041  1.00  0.00     0.341 C 
ATOM      4  O   UNL A   1      31.907  21.111  25.311  1.00  0.00    -0.249 OA
BRANCH   3   5
ATOM      5  C   UNL A   1      32.444  23.473  24.952  1.00  0.00     0.231 C 
ATOM      6  C   UNL A   1      30.933  23.524  24.682  1.00  0.00     0.058 C 
BRANCH   5   7
ATOM      7  C   UNL A   1      32.824  24.033  26.331  1.00  0.00     0.422 C 
ATOM      8  F   UNL A   1      32.049  25.096  26.645  1.00  0.00    -0.168 F 
ATOM      9  F   UNL A   1      32.647  23.127  27.320  1.00  0.00    -0.168 F 
ATOM     10  F   UNL A   1      34.110  24.425  26.442  1.00  0.00    -0.168 F 
ENDBRANCH   5   7
BRANCH   5  11
ATOM     11  N   UNL A   1      33.183  24.045  23.778  1.00  0.00    -0.333 N 
ATOM     12  C   UNL A   1      33.276  25.261  23.188  1.00  0.00     0.221 C 
ATOM     13  H   UNL A   1      33.739  23.370  23.325  1.00  0.00     0.164 HD
ATOM     14  O   UNL A   1      33.945  25.315  22.152  1.00  0.00    -0.275 OA
BRANCH  12  15
ATOM     15  C   UNL A   1      32.655  26.520  23.756  1.00  0.00     0.109 C 
BRANCH  15  16
ATOM     16  C   UNL A   1      33.648  27.602  24.203  1.00  0.00     0.054 C 
ATOM     17  C   UNL A   1      33.812  27.696  25.725  1.00  0.00     0.016 C 
ATOM     18  C   UNL A   1      33.281  28.970  23.600  1.00  0.00     0.264 C 
ATOM     19  C   UNL A   1      32.657  28.438  26.383  1.00  0.00     0.062 C 
ATOM     20  N   UNL A   1      32.135  29.583  24.267  1.00  0.00    -0.346 N 
ATOM     21  C   UNL A   1      32.400  29.776  25.693  1.00  0.00     0.260 C 
ATOM     22  H   UNL A   1      31.945  30.489  23.838  1.00  0.00     0.346 HD
ATOM     23  H   UNL A   1      31.330  28.965  24.166  1.00  0.00     0.346 HD
ENDBRANCH  15  16
ENDBRANCH  12  15
ENDBRANCH   5  11
ENDBRANCH   3   5
ENDBRANCH   2   3
ENDBRANCH   1   2
BRANCH   1  24
ATOM     24  C   UNL A   1      36.111  20.445  25.035  1.00  0.00     0.275 C 
BRANCH  24  25
ATOM     25  O   UNL A   1      37.132  21.445  24.886  1.00  0.00    -0.458 OA
BRANCH  25  26
ATOM     26  C   UNL A   1      38.322  21.144  25.449  1.00  0.00     0.338 C 
ATOM     27  O   UNL A   1      38.938  20.086  25.322  1.00  0.00    -0.246 OA
BRANCH  26  28
ATOM     28  C   UNL A   1      38.859  22.288  26.218  1.00  0.00     0.060 A 
ATOM     29  C   UNL A   1      38.303  23.560  26.103  1.00  0.00     0.016 A 
ATOM     30  C   UNL A   1      40.034  22.123  26.952  1.00  0.00     0.016 A 
ATOM     31  C   UNL A   1      39.006  24.680  26.565  1.00  0.00     0.010 A 
ATOM     32  C   UNL A   1      40.669  23.235  27.519  1.00  0.00     0.010 A 
ATOM     33  C   UNL A   1      40.211  24.541  27.265  1.00  0.00    -0.014 A 
BRANCH  33  34
ATOM     34  C   UNL A   1      41.065  25.721  27.627  1.00  0.00     0.031 A 
ATOM     35  C   UNL A   1      40.519  26.771  28.571  1.00  0.00     0.074 A 
ATOM     36  C   UNL A   1      42.323  25.884  27.171  1.00  0.00     0.049 A 
ATOM     37  N   UNL A   1      40.914  28.006  28.763  1.00  0.00    -0.248 NA
ATOM     38  C   UNL A   1      39.352  26.388  29.382  1.00  0.00     0.031 C 
ATOM     39  C   UNL A   1      43.064  24.949  26.326  1.00  0.00     0.029 A 
ATOM     40  N   UNL A   1      43.214  26.915  27.376  1.00  0.00    -0.354 N 
ATOM     41  C   UNL A   1      39.973  28.577  29.613  1.00  0.00     0.074 A 
ATOM     42  C   UNL A   1      39.009  27.545  29.930  1.00  0.00     0.031 C 
ATOM     43  C   UNL A   1      44.312  25.411  26.145  1.00  0.00     0.029 A 
ATOM     44  C   UNL A   1      44.428  26.728  26.762  1.00  0.00     0.049 A 
ATOM     45  H   UNL A   1      43.000  27.711  27.915  1.00  0.00     0.167 HD
ATOM     46  C   UNL A   1      39.908  29.850  30.072  1.00  0.00     0.037 A 
ATOM     47  C   UNL A   1      45.499  27.538  26.660  1.00  0.00     0.037 A 
ATOM     48  C   UNL A   1      40.938  30.837  29.880  1.00  0.00     0.049 A 
ATOM     49  C   UNL A   1      45.442  28.931  27.222  1.00  0.00     0.074 A 
ATOM     50  C   UNL A   1      40.969  32.153  30.314  1.00  0.00     0.029 A 
ATOM     51  N   UNL A   1      42.146  30.599  29.248  1.00  0.00    -0.354 N 
ATOM     52  N   UNL A   1      44.472  29.519  27.878  1.00  0.00    -0.248 NA
ATOM     53  C   UNL A   1      46.616  29.786  26.992  1.00  0.00     0.031 C 
ATOM     54  C   UNL A   1      42.197  32.710  29.942  1.00  0.00     0.029 A 
ATOM     55  C   UNL A   1      42.937  31.734  29.297  1.00  0.00     0.049 A 
ATOM     56  H   UNL A   1      42.404  29.748  28.824  1.00  0.00     0.167 HD
ATOM     57  C   UNL A   1      44.919  30.808  28.140  1.00  0.00     0.074 A 
ATOM     58  C   UNL A   1      46.256  30.911  27.594  1.00  0.00     0.031 C 
ATOM     59  C   UNL A   1      44.272  31.820  28.765  1.00  0.00     0.037 A 
BRANCH  46  60
ATOM     60  C   UNL A   1      38.658  30.265  30.790  1.00  0.00     0.057 A 
ATOM     61  C   UNL A   1      38.502  30.138  32.174  1.00  0.00     0.134 A 
ATOM     62  C   UNL A   1      37.599  30.835  30.069  1.00  0.00     0.134 A 
ATOM     63  F   UNL A   1      39.473  29.588  32.919  1.00  0.00    -0.206 F 
ATOM     64  C   UNL A   1      37.328  30.541  32.814  1.00  0.00     0.040 A 
ATOM     65  C   UNL A   1      36.431  31.264  30.700  1.00  0.00     0.040 A 
ATOM     66  F   UNL A   1      37.688  30.992  28.739  1.00  0.00    -0.206 F 
ATOM     67  C   UNL A   1      36.290  31.112  32.076  1.00  0.00     0.006 A 
ENDBRANCH  46  60
BRANCH  47  68
ATOM     68  C   UNL A   1      46.717  27.068  25.954  1.00  0.00     0.057 A 
ATOM     69  C   UNL A   1      47.702  26.342  26.631  1.00  0.00     0.134 A 
ATOM     70  C   UNL A   1      46.928  27.334  24.596  1.00  0.00     0.134 A 
ATOM     71  F   UNL A   1      47.570  26.083  27.941  1.00  0.00    -0.206 F 
ATOM     72  C   UNL A   1      48.855  25.895  25.984  1.00  0.00     0.040 A 
ATOM     73  C   UNL A   1      48.063  26.872  23.930  1.00  0.00     0.040 A 
ATOM     74  F   UNL A   1      46.023  28.030  23.893  1.00  0.00    -0.206 F 
ATOM     75  C   UNL A   1      49.034  26.153  24.626  1.00  0.00     0.006 A 
ENDBRANCH  47  68
BRANCH  59  76
ATOM     76  C   UNL A   1      45.015  33.110  28.927  1.00  0.00     0.057 A 
ATOM     77  C   UNL A   1      45.823  33.359  30.044  1.00  0.00     0.134 A 
ATOM     78  C   UNL A   1      44.935  34.107  27.947  1.00  0.00     0.134 A 
ATOM     79  F   UNL A   1      45.929  32.447  31.023  1.00  0.00    -0.206 F 
ATOM     80  C   UNL A   1      46.511  34.565  30.189  1.00  0.00     0.040 A 
ATOM     81  C   UNL A   1      45.631  35.310  28.074  1.00  0.00     0.040 A 
ATOM     82  F   UNL A   1      44.180  33.928  26.853  1.00  0.00    -0.206 F 
ATOM     83  C   UNL A   1      46.418  35.543  29.201  1.00  0.00     0.006 A 
ENDBRANCH  59  76
ENDBRANCH  33  34
ENDBRANCH  26  28
ENDBRANCH  25  26
ENDBRANCH  24  25
ENDBRANCH   1  24
TORSDOF 15
ENDMDL
MODEL 2
REMARK VINA RESULT:     -11.1      3.906      8.824
REMARK SMILES C[C@](NC(=O)C[C@@H]1CCC[NH2+]C1)(C(=O)OCCOC(=O)c1ccc(-c2c3nc(c(-c4c(F)cccc4F)c4ccc([nH]4)c(-c4c(F)cccc4F)c4nc(c(-c5c(F)cccc5F)c5ccc2[nH]5)C=C4)C=C3)cc1)C(F)(F)F
REMARK SMILES IDX 16 1 15 2 13 3 14 4 2 5 1 6 75 7 76 8 77 9 78 10 3 11 4 12
REMARK SMILES IDX 5 14 6 15 7 16 8 17 12 18 9 19 11 20 10 21 17 24 18 25 19 26
REMARK SMILES IDX 20 27 21 28 22 29 74 30 23 31 73 32 24 33 25 34 26 35 67 36
REMARK SMILES IDX 27 37 72 38 66 39 68 40 28 41 71 42 65 43 64 44 29 46 55 47
REMARK SMILES IDX 38 48 54 49 39 50 42 51 53 52 69 53 40 54 41 55 52 57 70 58
REMARK SMILES IDX 43 59 30 60 31 61 36 62 32 63 33 64 35 65 37 66 34 67 56 68
REMARK SMILES IDX 57 69 62 70 58 71 59 72 61 73 63 74 60 75 44 76 45 77 50 78
REMARK SMILES IDX 46 79 47 80 49 81 51 82 48 83
REMARK H PARENT 3 13 11 22 11 23 68 45 42 56
REMARK Flexibility Score: inf
ROOT
ATOM      1  C   UNL A   1      32.416  29.130  24.473  1.00  0.00     0.274 C 
ENDROOT
BRANCH   1   2
ATOM      2  O   UNL A   1      32.301  27.718  24.762  1.00  0.00    -0.460 OA
BRANCH   2   3
ATOM      3  C   UNL A   1      31.678  26.969  23.798  1.00  0.00     0.341 C 
ATOM      4  O   UNL A   1      30.891  27.442  22.985  1.00  0.00    -0.249 OA
BRANCH   3   5
ATOM      5  C   UNL A   1      31.950  25.459  23.957  1.00  0.00     0.231 C 
ATOM      6  C   UNL A   1      30.836  24.802  23.129  1.00  0.00     0.058 C 
BRANCH   5   7
ATOM      7  C   UNL A   1      33.348  25.244  23.355  1.00  0.00     0.422 C 
ATOM      8  F   UNL A   1      34.266  25.068  24.332  1.00  0.00    -0.168 F 
ATOM      9  F   UNL A   1      33.407  24.143  22.572  1.00  0.00    -0.168 F 
ATOM     10  F   UNL A   1      33.781  26.254  22.572  1.00  0.00    -0.168 F 
ENDBRANCH   5   7
BRANCH   5  11
ATOM     11  N   UNL A   1      31.787  25.088  25.402  1.00  0.00    -0.333 N 
ATOM     12  C   UNL A   1      31.588  23.940  26.093  1.00  0.00     0.221 C 
ATOM     13  H   UNL A   1      31.837  25.873  25.994  1.00  0.00     0.164 HD
ATOM     14  O   UNL A   1      31.411  24.059  27.309  1.00  0.00    -0.275 OA
BRANCH  12  15
ATOM     15  C   UNL A   1      31.622  22.563  25.463  1.00  0.00     0.109 C 
BRANCH  15  16
ATOM     16  C   UNL A   1      33.019  22.031  25.114  1.00  0.00     0.054 C 
ATOM     17  C   UNL A   1      33.053  21.179  23.839  1.00  0.00     0.016 C 
ATOM     18  C   UNL A   1      33.632  21.271  26.304  1.00  0.00     0.264 C 
ATOM     19  C   UNL A   1      32.539  19.766  24.078  1.00  0.00     0.062 C 
ATOM     20  N   UNL A   1      33.045  19.946  26.481  1.00  0.00    -0.346 N 
ATOM     21  C   UNL A   1      33.229  19.128  25.281  1.00  0.00     0.260 C 
ATOM     22  H   UNL A   1      33.496  19.483  27.271  1.00  0.00     0.346 HD
ATOM     23  H   UNL A   1      32.046  20.052  26.653  1.00  0.00     0.346 HD
ENDBRANCH  15  16
ENDBRANCH  12  15
ENDBRANCH   5  11
ENDBRANCH   3   5
ENDBRANCH   2   3
ENDBRANCH   1   2
BRANCH   1  24
ATOM     24  C   UNL A   1      31.550  29.953  25.423  1.00  0.00     0.275 C 
BRANCH  24  25
ATOM     25  O   UNL A   1      32.142  29.953  26.734  1.00  0.00    -0.458 OA
BRANCH  25  26
ATOM     26  C   UNL A   1      32.761  31.100  27.087  1.00  0.00     0.338 C 
ATOM     27  O   UNL A   1      32.245  32.214  27.149  1.00  0.00    -0.246 OA
BRANCH  26  28
ATOM     28  C   UNL A   1      34.170  30.856  27.466  1.00  0.00     0.060 A 
ATOM     29  C   UNL A   1      34.675  29.561  27.573  1.00  0.00     0.016 A 
ATOM     30  C   UNL A   1      34.963  31.930  27.869  1.00  0.00     0.016 A 
ATOM     31  C   UNL A   1      35.885  29.331  28.239  1.00  0.00     0.010 A 
ATOM     32  C   UNL A   1      36.228  31.700  28.423  1.00  0.00     0.010 A 
ATOM     33  C   UNL A   1      36.676  30.394  28.694  1.00  0.00    -0.014 A 
BRANCH  33  34
ATOM     34  C   UNL A   1      37.890  30.178  29.550  1.00  0.00     0.031 A 
ATOM     35  C   UNL A   1      39.078  29.434  28.980  1.00  0.00     0.074 A 
ATOM     36  C   UNL A   1      37.989  30.642  30.812  1.00  0.00     0.049 A 
ATOM     37  N   UNL A   1      40.070  28.845  29.602  1.00  0.00    -0.248 NA
ATOM     38  C   UNL A   1      39.138  29.309  27.514  1.00  0.00     0.031 C 
ATOM     39  C   UNL A   1      36.998  31.453  31.515  1.00  0.00     0.029 A 
ATOM     40  N   UNL A   1      39.006  30.500  31.732  1.00  0.00    -0.354 N 
ATOM     41  C   UNL A   1      40.793  28.179  28.618  1.00  0.00     0.074 A 
ATOM     42  C   UNL A   1      40.149  28.467  27.354  1.00  0.00     0.031 C 
ATOM     43  C   UNL A   1      37.481  31.794  32.721  1.00  0.00     0.029 A 
ATOM     44  C   UNL A   1      38.766  31.133  32.926  1.00  0.00     0.049 A 
ATOM     45  H   UNL A   1      39.829  29.990  31.548  1.00  0.00     0.167 HD
ATOM     46  C   UNL A   1      41.882  27.387  28.757  1.00  0.00     0.037 A 
ATOM     47  C   UNL A   1      39.468  31.147  34.075  1.00  0.00     0.037 A 
ATOM     48  C   UNL A   1      42.612  27.215  29.986  1.00  0.00     0.049 A 
ATOM     49  C   UNL A   1      40.709  30.309  34.204  1.00  0.00     0.074 A 
ATOM     50  C   UNL A   1      43.734  26.439  30.226  1.00  0.00     0.029 A 
ATOM     51  N   UNL A   1      42.325  27.876  31.168  1.00  0.00    -0.354 N 
ATOM     52  N   UNL A   1      41.287  29.544  33.312  1.00  0.00    -0.248 NA
ATOM     53  C   UNL A   1      41.370  30.305  35.518  1.00  0.00     0.031 C 
ATOM     54  C   UNL A   1      44.125  26.631  31.557  1.00  0.00     0.029 A 
ATOM     55  C   UNL A   1      43.260  27.544  32.135  1.00  0.00     0.049 A 
ATOM     56  H   UNL A   1      41.569  28.492  31.301  1.00  0.00     0.167 HD
ATOM     57  C   UNL A   1      42.379  28.973  33.953  1.00  0.00     0.074 A 
ATOM     58  C   UNL A   1      42.397  29.494  35.303  1.00  0.00     0.031 C 
ATOM     59  C   UNL A   1      43.278  28.082  33.469  1.00  0.00     0.037 A 
BRANCH  46  60
ATOM     60  C   UNL A   1      42.328  26.603  27.558  1.00  0.00     0.057 A 
ATOM     61  C   UNL A   1      41.874  25.309  27.288  1.00  0.00     0.134 A 
ATOM     62  C   UNL A   1      43.215  27.183  26.639  1.00  0.00     0.134 A 
ATOM     63  F   UNL A   1      41.035  24.692  28.135  1.00  0.00    -0.206 F 
ATOM     64  C   UNL A   1      42.303  24.608  26.158  1.00  0.00     0.040 A 
ATOM     65  C   UNL A   1      43.632  26.503  25.494  1.00  0.00     0.040 A 
ATOM     66  F   UNL A   1      43.683  28.426  26.835  1.00  0.00    -0.206 F 
ATOM     67  C   UNL A   1      43.180  25.208  25.255  1.00  0.00     0.006 A 
ENDBRANCH  46  60
BRANCH  47  68
ATOM     68  C   UNL A   1      38.990  31.955  35.224  1.00  0.00     0.057 A 
ATOM     69  C   UNL A   1      39.279  33.321  35.308  1.00  0.00     0.134 A 
ATOM     70  C   UNL A   1      38.241  31.387  36.262  1.00  0.00     0.134 A 
ATOM     71  F   UNL A   1      40.019  33.914  34.360  1.00  0.00    -0.206 F 
ATOM     72  C   UNL A   1      38.841  34.096  36.384  1.00  0.00     0.040 A 
ATOM     73  C   UNL A   1      37.775  32.154  37.329  1.00  0.00     0.040 A 
ATOM     74  F   UNL A   1      37.936  30.082  36.240  1.00  0.00    -0.206 F 
ATOM     75  C   UNL A   1      38.078  33.513  37.394  1.00  0.00     0.006 A 
ENDBRANCH  47  68
BRANCH  59  76
ATOM     76  C   UNL A   1      44.376  27.649  34.391  1.00  0.00     0.057 A 
ATOM     77  C   UNL A   1      45.582  28.355  34.481  1.00  0.00     0.134 A 
ATOM     78  C   UNL A   1      44.218  26.523  35.209  1.00  0.00     0.134 A 
ATOM     79  F   UNL A   1      45.797  29.434  33.712  1.00  0.00    -0.206 F 
ATOM     80  C   UNL A   1      46.602  27.944  35.340  1.00  0.00     0.040 A 
ATOM     81  C   UNL A   1      45.224  26.113  36.083  1.00  0.00     0.040 A 
ATOM     82  F   UNL A   1      43.085  25.807  35.170  1.00  0.00    -0.206 F 
ATOM     83  C   UNL A   1      46.423  26.821  36.147  1.00  0.00     0.006 A 
ENDBRANCH  59  76
ENDBRANCH  33  34
ENDBRANCH  26  28
ENDBRANCH  25  26
ENDBRANCH  24  25
ENDBRANCH   1  24
TORSDOF 15
ENDMDL
MODEL 3
REMARK VINA RESULT:     -10.9      3.869      8.773
REMARK SMILES C[C@](NC(=O)C[C@@H]1CCC[NH2+]C1)(C(=O)OCCOC(=O)c1ccc(-c2c3nc(c(-c4c(F)cccc4F)c4ccc([nH]4)c(-c4c(F)cccc4F)c4nc(c(-c5c(F)cccc5F)c5ccc2[nH]5)C=C4)C=C3)cc1)C(F)(F)F
REMARK SMILES IDX 16 1 15 2 13 3 14 4 2 5 1 6 75 7 76 8 77 9 78 10 3 11 4 12
REMARK SMILES IDX 5 14 6 15 7 16 8 17 12 18 9 19 11 20 10 21 17 24 18 25 19 26
REMARK SMILES IDX 20 27 21 28 22 29 74 30 23 31 73 32 24 33 25 34 26 35 67 36
REMARK SMILES IDX 27 37 72 38 66 39 68 40 28 41 71 42 65 43 64 44 29 46 55 47
REMARK SMILES IDX 38 48 54 49 39 50 42 51 53 52 69 53 40 54 41 55 52 57 70 58
REMARK SMILES IDX 43 59 30 60 31 61 36 62 32 63 33 64 35 65 37 66 34 67 56 68
REMARK SMILES IDX 57 69 62 70 58 71 59 72 61 73 63 74 60 75 44 76 45 77 50 78
REMARK SMILES IDX 46 79 47 80 49 81 51 82 48 83
REMARK H PARENT 3 13 11 22 11 23 68 45 42 56
REMARK Flexibility Score: inf
ROOT
ATOM      1  C   UNL A   1      31.128  29.243  24.576  1.00  0.00     0.274 C 
ENDROOT
BRANCH   1   2
ATOM      2  O   UNL A   1      31.149  27.830  24.882  1.00  0.00    -0.460 OA
BRANCH   2   3
ATOM      3  C   UNL A   1      31.222  26.995  23.799  1.00  0.00     0.341 C 
ATOM      4  O   UNL A   1      30.674  27.234  22.729  1.00  0.00    -0.249 OA
BRANCH   3   5
ATOM      5  C   UNL A   1      31.923  25.660  24.128  1.00  0.00     0.231 C 
ATOM      6  C   UNL A   1      31.430  24.711  23.027  1.00  0.00     0.058 C 
BRANCH   5   7
ATOM      7  C   UNL A   1      33.425  25.968  24.023  1.00  0.00     0.422 C 
ATOM      8  F   UNL A   1      33.641  27.021  23.203  1.00  0.00    -0.168 F 
ATOM      9  F   UNL A   1      33.967  26.298  25.218  1.00  0.00    -0.168 F 
ATOM     10  F   UNL A   1      34.176  24.943  23.569  1.00  0.00    -0.168 F 
ENDBRANCH   5   7
BRANCH   5  11
ATOM     11  N   UNL A   1      31.438  25.176  25.463  1.00  0.00    -0.333 N 
ATOM     12  C   UNL A   1      31.594  24.053  26.204  1.00  0.00     0.221 C 
ATOM     13  H   UNL A   1      30.864  25.839  25.911  1.00  0.00     0.164 HD
ATOM     14  O   UNL A   1      30.941  23.994  27.250  1.00  0.00    -0.275 OA
BRANCH  12  15
ATOM     15  C   UNL A   1      32.543  22.931  25.839  1.00  0.00     0.109 C 
BRANCH  15  16
ATOM     16  C   UNL A   1      33.649  22.641  26.863  1.00  0.00     0.054 C 
ATOM     17  C   UNL A   1      34.922  23.470  26.646  1.00  0.00     0.016 C 
ATOM     18  C   UNL A   1      33.970  21.137  26.916  1.00  0.00     0.264 C 
ATOM     19  C   UNL A   1      35.779  22.920  25.514  1.00  0.00     0.062 C 
ATOM     20  N   UNL A   1      34.758  20.694  25.768  1.00  0.00    -0.346 N 
ATOM     21  C   UNL A   1      36.024  21.423  25.690  1.00  0.00     0.260 C 
ATOM     22  H   UNL A   1      34.953  19.697  25.862  1.00  0.00     0.346 HD
ATOM     23  H   UNL A   1      34.225  20.875  24.918  1.00  0.00     0.346 HD
ENDBRANCH  15  16
ENDBRANCH  12  15
ENDBRANCH   5  11
ENDBRANCH   3   5
ENDBRANCH   2   3
ENDBRANCH   1   2
BRANCH   1  24
ATOM     24  C   UNL A   1      32.367  29.939  25.134  1.00  0.00     0.275 C 
BRANCH  24  25
ATOM     25  O   UNL A   1      32.225  30.109  26.555  1.00  0.00    -0.458 OA
BRANCH  25  26
ATOM     26  C   UNL A   1      32.823  31.205  27.068  1.00  0.00     0.338 C 
ATOM     27  O   UNL A   1      32.296  32.300  27.255  1.00  0.00    -0.246 OA
BRANCH  26  28
ATOM     28  C   UNL A   1      34.224  30.922  27.452  1.00  0.00     0.060 A 
ATOM     29  C   UNL A   1      34.680  29.615  27.613  1.00  0.00     0.016 A 
ATOM     30  C   UNL A   1      35.060  31.981  27.807  1.00  0.00     0.016 A 
ATOM     31  C   UNL A   1      35.882  29.367  28.284  1.00  0.00     0.010 A 
ATOM     32  C   UNL A   1      36.318  31.726  28.366  1.00  0.00     0.010 A 
ATOM     33  C   UNL A   1      36.717  30.416  28.691  1.00  0.00    -0.014 A 
BRANCH  33  34
ATOM     34  C   UNL A   1      37.925  30.189  29.552  1.00  0.00     0.031 A 
ATOM     35  C   UNL A   1      39.109  29.435  28.987  1.00  0.00     0.074 A 
ATOM     36  C   UNL A   1      38.024  30.653  30.814  1.00  0.00     0.049 A 
ATOM     37  N   UNL A   1      40.093  28.838  29.612  1.00  0.00    -0.248 NA
ATOM     38  C   UNL A   1      39.173  29.309  27.521  1.00  0.00     0.031 C 
ATOM     39  C   UNL A   1      37.037  31.474  31.513  1.00  0.00     0.029 A 
ATOM     40  N   UNL A   1      39.035  30.502  31.737  1.00  0.00    -0.354 N 
ATOM     41  C   UNL A   1      40.813  28.164  28.632  1.00  0.00     0.074 A 
ATOM     42  C   UNL A   1      40.177  28.457  27.365  1.00  0.00     0.031 C 
ATOM     43  C   UNL A   1      37.518  31.811  32.721  1.00  0.00     0.029 A 
ATOM     44  C   UNL A   1      38.796  31.139  32.931  1.00  0.00     0.049 A 
ATOM     45  H   UNL A   1      39.855  29.986  31.557  1.00  0.00     0.167 HD
ATOM     46  C   UNL A   1      41.895  27.362  28.775  1.00  0.00     0.037 A 
ATOM     47  C   UNL A   1      39.495  31.147  34.082  1.00  0.00     0.037 A 
ATOM     48  C   UNL A   1      42.618  27.185  30.007  1.00  0.00     0.049 A 
ATOM     49  C   UNL A   1      40.727  30.297  34.217  1.00  0.00     0.074 A 
ATOM     50  C   UNL A   1      43.733  26.399  30.252  1.00  0.00     0.029 A 
ATOM     51  N   UNL A   1      42.333  27.849  31.187  1.00  0.00    -0.354 N 
ATOM     52  N   UNL A   1      41.302  29.527  33.327  1.00  0.00    -0.248 NA
ATOM     53  C   UNL A   1      41.383  30.288  35.533  1.00  0.00     0.031 C 
ATOM     54  C   UNL A   1      44.120  26.588  31.584  1.00  0.00     0.029 A 
ATOM     55  C   UNL A   1      43.261  27.508  32.158  1.00  0.00     0.049 A 
ATOM     56  H   UNL A   1      41.581  28.472  31.318  1.00  0.00     0.167 HD
ATOM     57  C   UNL A   1      42.386  28.946  33.972  1.00  0.00     0.074 A 
ATOM     58  C   UNL A   1      42.404  29.468  35.322  1.00  0.00     0.031 C 
ATOM     59  C   UNL A   1      43.279  28.047  33.492  1.00  0.00     0.037 A 
BRANCH  46  60
ATOM     60  C   UNL A   1      42.338  26.574  27.578  1.00  0.00     0.057 A 
ATOM     61  C   UNL A   1      43.256  27.066  26.646  1.00  0.00     0.134 A 
ATOM     62  C   UNL A   1      41.846  25.275  27.380  1.00  0.00     0.134 A 
ATOM     63  F   UNL A   1      43.753  28.306  26.770  1.00  0.00    -0.206 F 
ATOM     64  C   UNL A   1      43.654  26.304  25.545  1.00  0.00     0.040 A 
ATOM     65  C   UNL A   1      42.255  24.495  26.298  1.00  0.00     0.040 A 
ATOM     66  F   UNL A   1      40.968  24.741  28.243  1.00  0.00    -0.206 F 
ATOM     67  C   UNL A   1      43.157  25.012  25.372  1.00  0.00     0.006 A 
ENDBRANCH  46  60
BRANCH  47  68
ATOM     68  C   UNL A   1      39.020  31.960  35.229  1.00  0.00     0.057 A 
ATOM     69  C   UNL A   1      39.332  33.320  35.321  1.00  0.00     0.134 A 
ATOM     70  C   UNL A   1      38.250  31.402  36.257  1.00  0.00     0.134 A 
ATOM     71  F   UNL A   1      40.092  33.903  34.382  1.00  0.00    -0.206 F 
ATOM     72  C   UNL A   1      38.897  34.099  36.394  1.00  0.00     0.040 A 
ATOM     73  C   UNL A   1      37.787  32.173  37.322  1.00  0.00     0.040 A 
ATOM     74  F   UNL A   1      37.922  30.102  36.229  1.00  0.00    -0.206 F 
ATOM     75  C   UNL A   1      38.114  33.527  37.395  1.00  0.00     0.006 A 
ENDBRANCH  47  68
BRANCH  59  76
ATOM     76  C   UNL A   1      44.370  27.605  34.418  1.00  0.00     0.057 A 
ATOM     77  C   UNL A   1      45.580  28.301  34.514  1.00  0.00     0.134 A 
ATOM     78  C   UNL A   1      44.199  26.480  35.234  1.00  0.00     0.134 A 
ATOM     79  F   UNL A   1      45.807  29.379  33.748  1.00  0.00    -0.206 F 
ATOM     80  C   UNL A   1      46.594  27.882  35.378  1.00  0.00     0.040 A 
ATOM     81  C   UNL A   1      45.199  26.060  36.113  1.00  0.00     0.040 A 
ATOM     82  F   UNL A   1      43.061  25.772  35.190  1.00  0.00    -0.206 F 
ATOM     83  C   UNL A   1      46.402  26.759  36.183  1.00  0.00     0.006 A 
ENDBRANCH  59  76
ENDBRANCH  33  34
ENDBRANCH  26  28
ENDBRANCH  25  26
ENDBRANCH  24  25
ENDBRANCH   1  24
TORSDOF 15
ENDMDL
