MODEL 1
REMARK VINA RESULT:     -12.0      0.000      0.000
REMARK SMILES CC1(C)[C@H](C(=O)Nc2ccccc2C(=O)Nc2nccs2)[C@H]1C(=O)OCCOC(=O)c1ccc(-c2c3nc(c(-c4c(F)cccc4F)c4ccc([nH]4)c(-c4c(F)cccc4F)c4nc(c(-c5c(F)cccc5F)c5ccc2[nH]5)C=C4)C=C3)cc1
REMARK SMILES IDX 26 1 25 2 23 3 24 4 22 5 1 6 2 7 3 8 4 9 5 10 6 11 7 12 8 14
REMARK SMILES IDX 9 15 13 16 10 17 12 18 11 19 14 20 15 21 16 22 17 24 18 25
REMARK SMILES IDX 21 26 19 27 20 28 27 29 28 30 29 31 30 32 31 33 32 34 84 35
REMARK SMILES IDX 33 36 83 37 34 38 35 39 36 40 77 41 37 42 82 43 76 44 78 45
REMARK SMILES IDX 38 46 81 47 75 48 74 49 39 51 65 52 48 53 64 54 49 55 52 56
REMARK SMILES IDX 63 57 79 58 50 59 51 60 62 62 80 63 53 64 40 65 41 66 46 67
REMARK SMILES IDX 42 68 43 69 45 70 47 71 44 72 66 73 67 74 72 75 68 76 69 77
REMARK SMILES IDX 71 78 73 79 70 80 54 81 55 82 60 83 56 84 57 85 59 86 61 87
REMARK SMILES IDX 58 88
REMARK H PARENT 7 13 16 23 78 50 52 61
REMARK Flexibility Score: inf
ROOT
ATOM      1  C   UNL A   1      34.776  20.966  24.726  1.00  0.00     0.274 C 
ENDROOT
BRANCH   1   2
ATOM      2  O   UNL A   1      33.597  21.482  25.359  1.00  0.00    -0.462 OA
BRANCH   2   3
ATOM      3  C   UNL A   1      32.785  22.194  24.538  1.00  0.00     0.310 C 
ATOM      4  O   UNL A   1      31.881  21.751  23.860  1.00  0.00    -0.252 OA
BRANCH   3   5
ATOM      5  C   UNL A   1      32.904  23.634  24.787  1.00  0.00     0.118 C 
ATOM      6  C   UNL A   1      35.108  24.181  23.552  1.00  0.00     0.013 C 
ATOM      7  C   UNL A   1      33.936  24.622  24.403  1.00  0.00    -0.009 C 
ATOM      8  C   UNL A   1      34.358  25.543  25.521  1.00  0.00     0.013 C 
ATOM      9  C   UNL A   1      32.582  24.644  23.686  1.00  0.00     0.100 C 
BRANCH   9  10
ATOM     10  C   UNL A   1      31.177  25.083  23.894  1.00  0.00     0.228 C 
ATOM     11  O   UNL A   1      30.296  24.420  23.344  1.00  0.00    -0.274 OA
ATOM     12  N   UNL A   1      30.769  26.061  24.744  1.00  0.00    -0.325 N 
ATOM     13  H   UNL A   1      29.838  25.933  25.037  1.00  0.00     0.169 HD
BRANCH  12  14
ATOM     14  C   UNL A   1      31.348  27.202  25.306  1.00  0.00     0.054 A 
ATOM     15  C   UNL A   1      31.253  27.225  26.716  1.00  0.00     0.027 A 
ATOM     16  C   UNL A   1      31.965  28.277  24.649  1.00  0.00     0.063 A 
ATOM     17  C   UNL A   1      31.894  28.198  27.478  1.00  0.00     0.002 A 
ATOM     18  C   UNL A   1      32.629  29.243  25.440  1.00  0.00     0.016 A 
ATOM     19  C   UNL A   1      32.612  29.193  26.837  1.00  0.00     0.001 A 
BRANCH  16  20
ATOM     20  C   UNL A   1      32.064  28.514  23.182  1.00  0.00     0.259 C 
ATOM     21  O   UNL A   1      33.190  28.508  22.672  1.00  0.00    -0.269 OA
ATOM     22  N   UNL A   1      31.009  28.718  22.337  1.00  0.00    -0.298 N 
ATOM     23  H   UNL A   1      31.221  28.655  21.377  1.00  0.00     0.172 HD
BRANCH  22  24
ATOM     24  C   UNL A   1      29.711  28.995  22.628  1.00  0.00     0.189 A 
ATOM     25  N   UNL A   1      28.771  28.225  23.107  1.00  0.00    -0.229 NA
ATOM     26  S   UNL A   1      29.266  30.599  22.231  1.00  0.00    -0.105 S 
ATOM     27  C   UNL A   1      27.569  28.909  23.056  1.00  0.00     0.125 A 
ATOM     28  C   UNL A   1      27.634  30.198  22.567  1.00  0.00     0.088 A 
ENDBRANCH  22  24
ENDBRANCH  16  20
ENDBRANCH  12  14
ENDBRANCH   9  10
ENDBRANCH   3   5
ENDBRANCH   2   3
ENDBRANCH   1   2
BRANCH   1  29
ATOM     29  C   UNL A   1      35.958  21.130  25.679  1.00  0.00     0.275 C 
BRANCH  29  30
ATOM     30  O   UNL A   1      37.142  21.586  24.982  1.00  0.00    -0.458 OA
BRANCH  30  31
ATOM     31  C   UNL A   1      38.313  21.275  25.585  1.00  0.00     0.338 C 
ATOM     32  O   UNL A   1      38.875  20.191  25.593  1.00  0.00    -0.246 OA
BRANCH  31  33
ATOM     33  C   UNL A   1      38.878  22.430  26.306  1.00  0.00     0.060 A 
ATOM     34  C   UNL A   1      38.357  23.703  26.105  1.00  0.00     0.016 A 
ATOM     35  C   UNL A   1      40.074  22.276  27.008  1.00  0.00     0.016 A 
ATOM     36  C   UNL A   1      39.106  24.825  26.454  1.00  0.00     0.010 A 
ATOM     37  C   UNL A   1      40.751  23.406  27.486  1.00  0.00     0.010 A 
ATOM     38  C   UNL A   1      40.307  24.700  27.167  1.00  0.00    -0.014 A 
BRANCH  38  39
ATOM     39  C   UNL A   1      41.091  25.914  27.551  1.00  0.00     0.031 A 
ATOM     40  C   UNL A   1      40.488  26.974  28.442  1.00  0.00     0.074 A 
ATOM     41  C   UNL A   1      42.360  26.071  27.120  1.00  0.00     0.049 A 
ATOM     42  N   UNL A   1      40.951  28.163  28.743  1.00  0.00    -0.248 NA
ATOM     43  C   UNL A   1      39.190  26.668  29.062  1.00  0.00     0.031 C 
ATOM     44  C   UNL A   1      43.095  25.127  26.276  1.00  0.00     0.029 A 
ATOM     45  N   UNL A   1      43.265  27.082  27.342  1.00  0.00    -0.354 N 
ATOM     46  C   UNL A   1      39.973  28.769  29.523  1.00  0.00     0.074 A 
ATOM     47  C   UNL A   1      38.892  27.815  29.656  1.00  0.00     0.031 C 
ATOM     48  C   UNL A   1      44.348  25.571  26.100  1.00  0.00     0.029 A 
ATOM     49  C   UNL A   1      44.480  26.876  26.732  1.00  0.00     0.049 A 
ATOM     50  H   UNL A   1      43.062  27.877  27.885  1.00  0.00     0.167 HD
ATOM     51  C   UNL A   1      39.972  30.006  30.079  1.00  0.00     0.037 A 
ATOM     52  C   UNL A   1      45.569  27.663  26.648  1.00  0.00     0.037 A 
ATOM     53  C   UNL A   1      41.073  30.933  30.011  1.00  0.00     0.049 A 
ATOM     54  C   UNL A   1      45.549  29.025  27.275  1.00  0.00     0.074 A 
ATOM     55  C   UNL A   1      41.170  32.202  30.560  1.00  0.00     0.029 A 
ATOM     56  N   UNL A   1      42.278  30.684  29.373  1.00  0.00    -0.354 N 
ATOM     57  N   UNL A   1      44.592  29.603  27.958  1.00  0.00    -0.248 NA
ATOM     58  C   UNL A   1      46.750  29.852  27.101  1.00  0.00     0.031 C 
ATOM     59  C   UNL A   1      42.425  32.728  30.234  1.00  0.00     0.029 A 
ATOM     60  C   UNL A   1      43.122  31.775  29.512  1.00  0.00     0.049 A 
ATOM     61  H   UNL A   1      42.500  29.855  28.890  1.00  0.00     0.167 HD
ATOM     62  C   UNL A   1      45.077  30.857  28.301  1.00  0.00     0.074 A 
ATOM     63  C   UNL A   1      46.423  30.947  27.771  1.00  0.00     0.031 C 
ATOM     64  C   UNL A   1      44.460  31.848  28.987  1.00  0.00     0.037 A 
BRANCH  51  65
ATOM     65  C   UNL A   1      38.728  30.448  30.794  1.00  0.00     0.057 A 
ATOM     66  C   UNL A   1      37.688  31.116  30.138  1.00  0.00     0.134 A 
ATOM     67  C   UNL A   1      38.553  30.158  32.154  1.00  0.00     0.134 A 
ATOM     68  F   UNL A   1      37.797  31.433  28.839  1.00  0.00    -0.206 F 
ATOM     69  C   UNL A   1      36.526  31.499  30.813  1.00  0.00     0.040 A 
ATOM     70  C   UNL A   1      37.388  30.514  32.834  1.00  0.00     0.040 A 
ATOM     71  F   UNL A   1      39.508  29.511  32.840  1.00  0.00    -0.206 F 
ATOM     72  C   UNL A   1      36.372  31.192  32.164  1.00  0.00     0.006 A 
ENDBRANCH  51  65
BRANCH  52  73
ATOM     73  C   UNL A   1      46.766  27.188  25.909  1.00  0.00     0.057 A 
ATOM     74  C   UNL A   1      47.749  26.422  26.545  1.00  0.00     0.134 A 
ATOM     75  C   UNL A   1      46.949  27.476  24.551  1.00  0.00     0.134 A 
ATOM     76  F   UNL A   1      47.640  26.133  27.850  1.00  0.00    -0.206 F 
ATOM     77  C   UNL A   1      48.874  25.964  25.859  1.00  0.00     0.040 A 
ATOM     78  C   UNL A   1      48.055  27.001  23.845  1.00  0.00     0.040 A 
ATOM     79  F   UNL A   1      46.038  28.201  23.885  1.00  0.00    -0.206 F 
ATOM     80  C   UNL A   1      49.025  26.247  24.502  1.00  0.00     0.006 A 
ENDBRANCH  52  73
BRANCH  64  81
ATOM     81  C   UNL A   1      45.247  33.101  29.230  1.00  0.00     0.057 A 
ATOM     82  C   UNL A   1      46.052  33.256  30.365  1.00  0.00     0.134 A 
ATOM     83  C   UNL A   1      45.209  34.156  28.310  1.00  0.00     0.134 A 
ATOM     84  F   UNL A   1      46.117  32.288  31.291  1.00  0.00    -0.206 F 
ATOM     85  C   UNL A   1      46.778  34.428  30.586  1.00  0.00     0.040 A 
ATOM     86  C   UNL A   1      45.946  35.322  28.510  1.00  0.00     0.040 A 
ATOM     87  F   UNL A   1      44.459  34.066  27.202  1.00  0.00    -0.206 F 
ATOM     88  C   UNL A   1      46.729  35.464  29.654  1.00  0.00     0.006 A 
ENDBRANCH  64  81
ENDBRANCH  38  39
ENDBRANCH  31  33
ENDBRANCH  30  31
ENDBRANCH  29  30
ENDBRANCH   1  29
TORSDOF 15
ENDMDL
MODEL 2
REMARK VINA RESULT:     -11.8      3.940      8.901
REMARK SMILES CC1(C)[C@H](C(=O)Nc2ccccc2C(=O)Nc2nccs2)[C@H]1C(=O)OCCOC(=O)c1ccc(-c2c3nc(c(-c4c(F)cccc4F)c4ccc([nH]4)c(-c4c(F)cccc4F)c4nc(c(-c5c(F)cccc5F)c5ccc2[nH]5)C=C4)C=C3)cc1
REMARK SMILES IDX 26 1 25 2 23 3 24 4 22 5 1 6 2 7 3 8 4 9 5 10 6 11 7 12 8 14
REMARK SMILES IDX 9 15 13 16 10 17 12 18 11 19 14 20 15 21 16 22 17 24 18 25
REMARK SMILES IDX 21 26 19 27 20 28 27 29 28 30 29 31 30 32 31 33 32 34 84 35
REMARK SMILES IDX 33 36 83 37 34 38 35 39 36 40 77 41 37 42 82 43 76 44 78 45
REMARK SMILES IDX 38 46 81 47 75 48 74 49 39 51 65 52 48 53 64 54 49 55 52 56
REMARK SMILES IDX 63 57 79 58 50 59 51 60 62 62 80 63 53 64 40 65 41 66 46 67
REMARK SMILES IDX 42 68 43 69 45 70 47 71 44 72 66 73 67 74 72 75 68 76 69 77
REMARK SMILES IDX 71 78 73 79 70 80 54 81 55 82 60 83 56 84 57 85 59 86 61 87
REMARK SMILES IDX 58 88
REMARK H PARENT 7 13 16 23 78 50 52 61
REMARK Flexibility Score: inf
ROOT
ATOM      1  C   UNL A   1      30.991  28.982  24.576  1.00  0.00     0.274 C 
ENDROOT
BRANCH   1   2
ATOM      2  O   UNL A   1      32.060  28.217  24.004  1.00  0.00    -0.462 OA
BRANCH   2   3
ATOM      3  C   UNL A   1      31.694  26.987  23.561  1.00  0.00     0.310 C 
ATOM      4  O   UNL A   1      30.941  26.750  22.638  1.00  0.00    -0.252 OA
BRANCH   3   5
ATOM      5  C   UNL A   1      32.559  25.940  24.115  1.00  0.00     0.118 C 
ATOM      6  C   UNL A   1      32.351  26.404  26.650  1.00  0.00     0.013 C 
ATOM      7  C   UNL A   1      32.942  25.609  25.506  1.00  0.00    -0.009 C 
ATOM      8  C   UNL A   1      34.415  25.345  25.696  1.00  0.00     0.013 C 
ATOM      9  C   UNL A   1      31.955  24.697  24.767  1.00  0.00     0.100 C 
BRANCH   9  10
ATOM     10  C   UNL A   1      31.928  23.631  23.732  1.00  0.00     0.228 C 
ATOM     11  O   UNL A   1      30.875  23.480  23.112  1.00  0.00    -0.274 OA
ATOM     12  N   UNL A   1      32.997  22.905  23.313  1.00  0.00    -0.325 N 
ATOM     13  H   UNL A   1      32.880  22.567  22.396  1.00  0.00     0.169 HD
BRANCH  12  14
ATOM     14  C   UNL A   1      34.223  22.520  23.864  1.00  0.00     0.054 A 
ATOM     15  C   UNL A   1      35.327  22.996  23.123  1.00  0.00     0.027 A 
ATOM     16  C   UNL A   1      34.455  21.740  25.007  1.00  0.00     0.063 A 
ATOM     17  C   UNL A   1      36.634  22.851  23.581  1.00  0.00     0.002 A 
ATOM     18  C   UNL A   1      35.787  21.623  25.468  1.00  0.00     0.016 A 
ATOM     19  C   UNL A   1      36.862  22.189  24.776  1.00  0.00     0.001 A 
BRANCH  16  20
ATOM     20  C   UNL A   1      33.449  21.043  25.856  1.00  0.00     0.259 C 
ATOM     21  O   UNL A   1      33.272  21.465  27.003  1.00  0.00    -0.269 OA
ATOM     22  N   UNL A   1      32.682  19.980  25.467  1.00  0.00    -0.298 N 
ATOM     23  H   UNL A   1      31.929  19.765  26.064  1.00  0.00     0.172 HD
BRANCH  22  24
ATOM     24  C   UNL A   1      32.807  19.177  24.378  1.00  0.00     0.189 A 
ATOM     25  N   UNL A   1      32.185  19.211  23.229  1.00  0.00    -0.229 NA
ATOM     26  S   UNL A   1      33.918  17.898  24.616  1.00  0.00    -0.105 S 
ATOM     27  C   UNL A   1      32.520  18.076  22.512  1.00  0.00     0.125 A 
ATOM     28  C   UNL A   1      33.415  17.222  23.123  1.00  0.00     0.088 A 
ENDBRANCH  22  24
ENDBRANCH  16  20
ENDBRANCH  12  14
ENDBRANCH   9  10
ENDBRANCH   3   5
ENDBRANCH   2   3
ENDBRANCH   1   2
BRANCH   1  29
ATOM     29  C   UNL A   1      31.567  30.272  25.157  1.00  0.00     0.275 C 
BRANCH  29  30
ATOM     30  O   UNL A   1      32.251  30.030  26.410  1.00  0.00    -0.458 OA
BRANCH  30  31
ATOM     31  C   UNL A   1      32.811  31.125  26.974  1.00  0.00     0.338 C 
ATOM     32  O   UNL A   1      32.303  32.225  27.116  1.00  0.00    -0.246 OA
BRANCH  31  33
ATOM     33  C   UNL A   1      34.197  30.865  27.406  1.00  0.00     0.060 A 
ATOM     34  C   UNL A   1      34.636  29.561  27.603  1.00  0.00     0.016 A 
ATOM     35  C   UNL A   1      34.987  31.932  27.834  1.00  0.00     0.016 A 
ATOM     36  C   UNL A   1      35.773  29.318  28.370  1.00  0.00     0.010 A 
ATOM     37  C   UNL A   1      36.207  31.682  28.477  1.00  0.00     0.010 A 
ATOM     38  C   UNL A   1      36.590  30.370  28.806  1.00  0.00    -0.014 A 
BRANCH  38  39
ATOM     39  C   UNL A   1      37.819  30.093  29.612  1.00  0.00     0.031 A 
ATOM     40  C   UNL A   1      38.950  29.272  29.041  1.00  0.00     0.074 A 
ATOM     41  C   UNL A   1      37.942  30.591  30.861  1.00  0.00     0.049 A 
ATOM     42  N   UNL A   1      40.010  28.791  29.644  1.00  0.00    -0.248 NA
ATOM     43  C   UNL A   1      38.874  28.930  27.612  1.00  0.00     0.031 C 
ATOM     44  C   UNL A   1      36.952  31.423  31.547  1.00  0.00     0.029 A 
ATOM     45  N   UNL A   1      38.961  30.477  31.776  1.00  0.00    -0.354 N 
ATOM     46  C   UNL A   1      40.684  28.036  28.691  1.00  0.00     0.074 A 
ATOM     47  C   UNL A   1      39.918  28.125  27.466  1.00  0.00     0.031 C 
ATOM     48  C   UNL A   1      37.433  31.791  32.743  1.00  0.00     0.029 A 
ATOM     49  C   UNL A   1      38.720  31.143  32.955  1.00  0.00     0.049 A 
ATOM     50  H   UNL A   1      39.785  29.966  31.604  1.00  0.00     0.167 HD
ATOM     51  C   UNL A   1      41.836  27.331  28.821  1.00  0.00     0.037 A 
ATOM     52  C   UNL A   1      39.428  31.196  34.099  1.00  0.00     0.037 A 
ATOM     53  C   UNL A   1      42.642  27.296  30.015  1.00  0.00     0.049 A 
ATOM     54  C   UNL A   1      40.701  30.414  34.219  1.00  0.00     0.074 A 
ATOM     55  C   UNL A   1      43.834  26.625  30.233  1.00  0.00     0.029 A 
ATOM     56  N   UNL A   1      42.350  27.977  31.186  1.00  0.00    -0.354 N 
ATOM     57  N   UNL A   1      41.291  29.658  33.326  1.00  0.00    -0.248 NA
ATOM     58  C   UNL A   1      41.395  30.475  35.512  1.00  0.00     0.031 C 
ATOM     59  C   UNL A   1      44.251  26.883  31.544  1.00  0.00     0.029 A 
ATOM     60  C   UNL A   1      43.337  27.742  32.130  1.00  0.00     0.049 A 
ATOM     61  H   UNL A   1      41.557  28.545  31.327  1.00  0.00     0.167 HD
ATOM     62  C   UNL A   1      42.428  29.159  33.945  1.00  0.00     0.074 A 
ATOM     63  C   UNL A   1      42.458  29.716  35.283  1.00  0.00     0.031 C 
ATOM     64  C   UNL A   1      43.359  28.308  33.453  1.00  0.00     0.037 A 
BRANCH  51  65
ATOM     65  C   UNL A   1      42.288  26.513  27.647  1.00  0.00     0.057 A 
ATOM     66  C   UNL A   1      43.159  27.020  26.675  1.00  0.00     0.134 A 
ATOM     67  C   UNL A   1      41.877  25.180  27.513  1.00  0.00     0.134 A 
ATOM     68  F   UNL A   1      43.581  28.292  26.738  1.00  0.00    -0.206 F 
ATOM     69  C   UNL A   1      43.589  26.237  25.601  1.00  0.00     0.040 A 
ATOM     70  C   UNL A   1      42.318  24.381  26.458  1.00  0.00     0.040 A 
ATOM     71  F   UNL A   1      41.050  24.629  28.415  1.00  0.00    -0.206 F 
ATOM     72  C   UNL A   1      43.173  24.911  25.494  1.00  0.00     0.006 A 
ENDBRANCH  51  65
BRANCH  52  73
ATOM     73  C   UNL A   1      38.923  32.002  35.239  1.00  0.00     0.057 A 
ATOM     74  C   UNL A   1      38.198  31.406  36.277  1.00  0.00     0.134 A 
ATOM     75  C   UNL A   1      39.163  33.379  35.325  1.00  0.00     0.134 A 
ATOM     76  F   UNL A   1      37.918  30.096  36.239  1.00  0.00    -0.206 F 
ATOM     77  C   UNL A   1      37.725  32.152  37.357  1.00  0.00     0.040 A 
ATOM     78  C   UNL A   1      38.720  34.132  36.413  1.00  0.00     0.040 A 
ATOM     79  F   UNL A   1      39.857  34.006  34.364  1.00  0.00    -0.206 F 
ATOM     80  C   UNL A   1      37.993  33.518  37.431  1.00  0.00     0.006 A 
ENDBRANCH  52  73
BRANCH  64  81
ATOM     81  C   UNL A   1      44.504  27.956  34.354  1.00  0.00     0.057 A 
ATOM     82  C   UNL A   1      44.463  26.836  35.192  1.00  0.00     0.134 A 
ATOM     83  C   UNL A   1      45.665  28.739  34.371  1.00  0.00     0.134 A 
ATOM     84  F   UNL A   1      43.372  26.056  35.233  1.00  0.00    -0.206 F 
ATOM     85  C   UNL A   1      45.531  26.517  36.033  1.00  0.00     0.040 A 
ATOM     86  C   UNL A   1      46.746  28.419  35.191  1.00  0.00     0.040 A 
ATOM     87  F   UNL A   1      45.766  29.823  33.588  1.00  0.00    -0.206 F 
ATOM     88  C   UNL A   1      46.680  27.308  36.029  1.00  0.00     0.006 A 
ENDBRANCH  64  81
ENDBRANCH  38  39
ENDBRANCH  31  33
ENDBRANCH  30  31
ENDBRANCH  29  30
ENDBRANCH   1  29
TORSDOF 15
ENDMDL
MODEL 3
REMARK VINA RESULT:     -11.8      1.016      2.051
REMARK SMILES CC1(C)[C@H](C(=O)Nc2ccccc2C(=O)Nc2nccs2)[C@H]1C(=O)OCCOC(=O)c1ccc(-c2c3nc(c(-c4c(F)cccc4F)c4ccc([nH]4)c(-c4c(F)cccc4F)c4nc(c(-c5c(F)cccc5F)c5ccc2[nH]5)C=C4)C=C3)cc1
REMARK SMILES IDX 26 1 25 2 23 3 24 4 22 5 1 6 2 7 3 8 4 9 5 10 6 11 7 12 8 14
REMARK SMILES IDX 9 15 13 16 10 17 12 18 11 19 14 20 15 21 16 22 17 24 18 25
REMARK SMILES IDX 21 26 19 27 20 28 27 29 28 30 29 31 30 32 31 33 32 34 84 35
REMARK SMILES IDX 33 36 83 37 34 38 35 39 36 40 77 41 37 42 82 43 76 44 78 45
REMARK SMILES IDX 38 46 81 47 75 48 74 49 39 51 65 52 48 53 64 54 49 55 52 56
REMARK SMILES IDX 63 57 79 58 50 59 51 60 62 62 80 63 53 64 40 65 41 66 46 67
REMARK SMILES IDX 42 68 43 69 45 70 47 71 44 72 66 73 67 74 72 75 68 76 69 77
REMARK SMILES IDX 71 78 73 79 70 80 54 81 55 82 60 83 56 84 57 85 59 86 61 87
REMARK SMILES IDX 58 88
REMARK H PARENT 7 13 16 23 78 50 52 61
REMARK Flexibility Score: inf
ROOT
ATOM      1  C   UNL A   1      35.318  21.450  25.031  1.00  0.00     0.274 C 
ENDROOT
BRANCH   1   2
ATOM      2  O   UNL A   1      35.662  22.446  24.057  1.00  0.00    -0.462 OA
BRANCH   2   3
ATOM      3  C   UNL A   1      34.972  23.608  24.177  1.00  0.00     0.310 C 
ATOM      4  O   UNL A   1      35.121  24.447  25.042  1.00  0.00    -0.252 OA
BRANCH   3   5
ATOM      5  C   UNL A   1      34.221  23.912  22.955  1.00  0.00     0.118 C 
ATOM      6  C   UNL A   1      32.222  22.286  23.173  1.00  0.00     0.013 C 
ATOM      7  C   UNL A   1      32.972  23.347  22.396  1.00  0.00    -0.009 C 
ATOM      8  C   UNL A   1      33.040  23.033  20.922  1.00  0.00     0.013 C 
ATOM      9  C   UNL A   1      32.944  24.749  23.014  1.00  0.00     0.100 C 
BRANCH   9  10
ATOM     10  C   UNL A   1      33.327  26.152  22.703  1.00  0.00     0.228 C 
ATOM     11  O   UNL A   1      33.925  26.346  21.643  1.00  0.00    -0.274 OA
ATOM     12  N   UNL A   1      32.958  27.251  23.410  1.00  0.00    -0.325 N 
ATOM     13  H   UNL A   1      32.956  28.065  22.857  1.00  0.00     0.169 HD
BRANCH  12  14
ATOM     14  C   UNL A   1      32.579  27.509  24.731  1.00  0.00     0.054 A 
ATOM     15  C   UNL A   1      33.597  28.144  25.477  1.00  0.00     0.027 A 
ATOM     16  C   UNL A   1      31.363  27.205  25.361  1.00  0.00     0.063 A 
ATOM     17  C   UNL A   1      33.373  28.620  26.766  1.00  0.00     0.002 A 
ATOM     18  C   UNL A   1      31.146  27.716  26.662  1.00  0.00     0.016 A 
ATOM     19  C   UNL A   1      32.130  28.434  27.348  1.00  0.00     0.001 A 
BRANCH  16  20
ATOM     20  C   UNL A   1      30.213  26.438  24.805  1.00  0.00     0.259 C 
ATOM     21  O   UNL A   1      30.021  25.296  25.235  1.00  0.00    -0.269 OA
ATOM     22  N   UNL A   1      29.331  26.898  23.867  1.00  0.00    -0.298 N 
ATOM     23  H   UNL A   1      28.516  26.356  23.755  1.00  0.00     0.172 HD
BRANCH  22  24
ATOM     24  C   UNL A   1      29.413  27.994  23.067  1.00  0.00     0.189 A 
ATOM     25  N   UNL A   1      30.412  28.447  22.357  1.00  0.00    -0.229 NA
ATOM     26  S   UNL A   1      27.982  28.930  23.070  1.00  0.00    -0.105 S 
ATOM     27  C   UNL A   1      30.072  29.693  21.860  1.00  0.00     0.125 A 
ATOM     28  C   UNL A   1      28.807  30.141  22.179  1.00  0.00     0.088 A 
ENDBRANCH  22  24
ENDBRANCH  16  20
ENDBRANCH  12  14
ENDBRANCH   9  10
ENDBRANCH   3   5
ENDBRANCH   2   3
ENDBRANCH   1   2
BRANCH   1  29
ATOM     29  C   UNL A   1      36.489  20.480  25.176  1.00  0.00     0.275 C 
BRANCH  29  30
ATOM     30  O   UNL A   1      37.740  21.100  24.794  1.00  0.00    -0.458 OA
BRANCH  30  31
ATOM     31  C   UNL A   1      38.787  20.817  25.604  1.00  0.00     0.338 C 
ATOM     32  O   UNL A   1      39.299  19.726  25.796  1.00  0.00    -0.246 OA
BRANCH  31  33
ATOM     33  C   UNL A   1      39.270  22.019  26.308  1.00  0.00     0.060 A 
ATOM     34  C   UNL A   1      38.734  23.267  26.011  1.00  0.00     0.016 A 
ATOM     35  C   UNL A   1      40.416  21.930  27.099  1.00  0.00     0.016 A 
ATOM     36  C   UNL A   1      39.429  24.424  26.358  1.00  0.00     0.010 A 
ATOM     37  C   UNL A   1      41.030  23.099  27.570  1.00  0.00     0.010 A 
ATOM     38  C   UNL A   1      40.578  24.364  27.159  1.00  0.00    -0.014 A 
BRANCH  38  39
ATOM     39  C   UNL A   1      41.303  25.615  27.540  1.00  0.00     0.031 A 
ATOM     40  C   UNL A   1      40.644  26.656  28.415  1.00  0.00     0.074 A 
ATOM     41  C   UNL A   1      42.569  25.825  27.121  1.00  0.00     0.049 A 
ATOM     42  N   UNL A   1      41.050  27.867  28.709  1.00  0.00    -0.248 NA
ATOM     43  C   UNL A   1      39.354  26.297  29.025  1.00  0.00     0.031 C 
ATOM     44  C   UNL A   1      43.354  24.908  26.293  1.00  0.00     0.029 A 
ATOM     45  N   UNL A   1      43.425  26.878  27.342  1.00  0.00    -0.354 N 
ATOM     46  C   UNL A   1      40.037  28.436  29.474  1.00  0.00     0.074 A 
ATOM     47  C   UNL A   1      38.999  27.435  29.605  1.00  0.00     0.031 C 
ATOM     48  C   UNL A   1      44.588  25.406  26.126  1.00  0.00     0.029 A 
ATOM     49  C   UNL A   1      44.654  26.721  26.747  1.00  0.00     0.049 A 
ATOM     50  H   UNL A   1      43.180  27.668  27.876  1.00  0.00     0.167 HD
ATOM     51  C   UNL A   1      39.976  29.676  30.018  1.00  0.00     0.037 A 
ATOM     52  C   UNL A   1      45.708  27.555  26.668  1.00  0.00     0.037 A 
ATOM     53  C   UNL A   1      41.035  30.651  29.952  1.00  0.00     0.049 A 
ATOM     54  C   UNL A   1      45.620  28.920  27.281  1.00  0.00     0.074 A 
ATOM     55  C   UNL A   1      41.069  31.927  30.491  1.00  0.00     0.029 A 
ATOM     56  N   UNL A   1      42.256  30.450  29.329  1.00  0.00    -0.354 N 
ATOM     57  N   UNL A   1      44.631  29.462  27.948  1.00  0.00    -0.248 NA
ATOM     58  C   UNL A   1      46.786  29.799  27.111  1.00  0.00     0.031 C 
ATOM     59  C   UNL A   1      42.303  32.506  30.173  1.00  0.00     0.029 A 
ATOM     60  C   UNL A   1      43.049  31.578  29.467  1.00  0.00     0.049 A 
ATOM     61  H   UNL A   1      42.521  29.628  28.857  1.00  0.00     0.167 HD
ATOM     62  C   UNL A   1      45.057  30.739  28.285  1.00  0.00     0.074 A 
ATOM     63  C   UNL A   1      46.402  30.884  27.768  1.00  0.00     0.031 C 
ATOM     64  C   UNL A   1      44.388  31.707  28.955  1.00  0.00     0.037 A 
BRANCH  51  65
ATOM     65  C   UNL A   1      38.706  30.068  30.716  1.00  0.00     0.057 A 
ATOM     66  C   UNL A   1      38.500  29.833  32.080  1.00  0.00     0.134 A 
ATOM     67  C   UNL A   1      37.689  30.731  30.015  1.00  0.00     0.134 A 
ATOM     68  F   UNL A   1      39.429  29.193  32.806  1.00  0.00    -0.206 F 
ATOM     69  C   UNL A   1      37.322  30.226  32.719  1.00  0.00     0.040 A 
ATOM     70  C   UNL A   1      36.517  31.149  30.646  1.00  0.00     0.040 A 
ATOM     71  F   UNL A   1      37.825  30.996  28.706  1.00  0.00    -0.206 F 
ATOM     72  C   UNL A   1      36.329  30.892  32.003  1.00  0.00     0.006 A 
ENDBRANCH  51  65
BRANCH  52  73
ATOM     73  C   UNL A   1      46.932  27.127  25.945  1.00  0.00     0.057 A 
ATOM     74  C   UNL A   1      47.103  27.411  24.586  1.00  0.00     0.134 A 
ATOM     75  C   UNL A   1      47.963  26.438  26.596  1.00  0.00     0.134 A 
ATOM     76  F   UNL A   1      46.141  28.049  23.903  1.00  0.00    -0.206 F 
ATOM     77  C   UNL A   1      48.252  27.020  23.897  1.00  0.00     0.040 A 
ATOM     78  C   UNL A   1      49.129  26.065  25.927  1.00  0.00     0.040 A 
ATOM     79  F   UNL A   1      47.860  26.141  27.899  1.00  0.00    -0.206 F 
ATOM     80  C   UNL A   1      49.273  26.351  24.571  1.00  0.00     0.006 A 
ENDBRANCH  52  73
BRANCH  64  81
ATOM     81  C   UNL A   1      45.116  32.996  29.194  1.00  0.00     0.057 A 
ATOM     82  C   UNL A   1      45.925  33.187  30.321  1.00  0.00     0.134 A 
ATOM     83  C   UNL A   1      45.016  34.051  28.279  1.00  0.00     0.134 A 
ATOM     84  F   UNL A   1      46.047  32.219  31.243  1.00  0.00    -0.206 F 
ATOM     85  C   UNL A   1      46.595  34.391  30.539  1.00  0.00     0.040 A 
ATOM     86  C   UNL A   1      45.697  35.252  28.476  1.00  0.00     0.040 A 
ATOM     87  F   UNL A   1      44.259  33.928  27.179  1.00  0.00    -0.206 F 
ATOM     88  C   UNL A   1      46.486  35.427  29.611  1.00  0.00     0.006 A 
ENDBRANCH  64  81
ENDBRANCH  38  39
ENDBRANCH  31  33
ENDBRANCH  30  31
ENDBRANCH  29  30
ENDBRANCH   1  29
TORSDOF 15
ENDMDL
