MODEL 1
REMARK VINA RESULT:     -12.8      0.000      0.000
REMARK SMILES Cc1nc2ccc(Cl)cc2cc1C(=O)N1CCC(C(=O)OCCOC(=O)c2ccc(-c3c4nc(c(-c5c(F)cccc5F)c5ccc([nH]5)c(-c5c(F)cccc5F)c5nc(c(-c6c(F)cccc6F)c6ccc3[nH]6)C=C5)C=C4)cc2)CC1
REMARK SMILES IDX 23 1 22 2 21 3 19 4 20 5 18 6 13 7 14 8 15 9 16 10 82 11
REMARK SMILES IDX 17 12 81 13 12 14 1 15 2 16 3 17 4 18 11 19 5 20 10 21 6 22
REMARK SMILES IDX 9 23 7 24 8 25 24 26 25 27 26 28 27 29 28 30 80 31 29 32
REMARK SMILES IDX 79 33 30 34 31 35 32 36 73 37 33 38 78 39 72 40 74 41 34 42
REMARK SMILES IDX 77 43 71 44 70 45 35 47 61 48 44 49 60 50 45 51 48 52 59 53
REMARK SMILES IDX 75 54 46 55 47 56 58 58 76 59 49 60 36 61 37 62 42 63 38 64
REMARK SMILES IDX 39 65 41 66 43 67 40 68 62 69 63 70 68 71 64 72 65 73 67 74
REMARK SMILES IDX 69 75 66 76 50 77 51 78 56 79 52 80 53 81 55 82 57 83 54 84
REMARK H PARENT 74 46 48 57
REMARK Flexibility Score: inf
ROOT
ATOM      1  C   UNL A   1      32.444  33.116  26.929  1.00  0.00     0.275 C 
ENDROOT
BRANCH   1   2
ATOM      2  C   UNL A   1      31.403  31.996  26.850  1.00  0.00     0.274 C 
BRANCH   2   3
ATOM      3  O   UNL A   1      31.841  30.956  25.957  1.00  0.00    -0.462 OA
BRANCH   3   4
ATOM      4  C   UNL A   1      32.493  29.906  26.514  1.00  0.00     0.309 C 
ATOM      5  O   UNL A   1      33.024  29.912  27.618  1.00  0.00    -0.252 OA
BRANCH   4   6
ATOM      6  C   UNL A   1      32.472  28.668  25.640  1.00  0.00     0.103 C 
ATOM      7  C   UNL A   1      33.568  25.691  22.780  1.00  0.00     0.255 C 
ATOM      8  O   UNL A   1      33.653  25.994  21.593  1.00  0.00    -0.269 OA
ATOM      9  N   UNL A   1      33.188  26.598  23.773  1.00  0.00    -0.339 N 
ATOM     10  C   UNL A   1      32.239  27.635  23.377  1.00  0.00     0.120 C 
ATOM     11  C   UNL A   1      33.449  26.413  25.204  1.00  0.00     0.120 C 
ATOM     12  C   UNL A   1      32.415  28.939  24.137  1.00  0.00     0.037 C 
ATOM     13  C   UNL A   1      33.648  27.740  25.936  1.00  0.00     0.037 C 
BRANCH   7  14
ATOM     14  C   UNL A   1      33.716  24.263  23.138  1.00  0.00     0.061 A 
ATOM     15  C   UNL A   1      31.208  23.902  23.262  1.00  0.00     0.067 C 
ATOM     16  C   UNL A   1      32.627  23.441  23.421  1.00  0.00     0.051 A 
ATOM     17  N   UNL A   1      32.783  22.180  23.919  1.00  0.00    -0.252 NA
ATOM     18  C   UNL A   1      34.022  21.717  24.165  1.00  0.00     0.071 A 
ATOM     19  C   UNL A   1      35.001  23.770  23.389  1.00  0.00     0.026 A 
ATOM     20  C   UNL A   1      34.193  20.457  24.726  1.00  0.00     0.030 A 
ATOM     21  C   UNL A   1      35.175  22.481  23.896  1.00  0.00     0.002 A 
ATOM     22  C   UNL A   1      35.465  19.941  25.004  1.00  0.00     0.023 A 
ATOM     23  C   UNL A   1      36.456  21.967  24.159  1.00  0.00     0.030 A 
ATOM     24  C   UNL A   1      36.593  20.697  24.709  1.00  0.00     0.041 A 
ATOM     25  Cl  UNL A   1      38.160  20.070  25.032  1.00  0.00    -0.084 Cl
ENDBRANCH   7  14
ENDBRANCH   4   6
ENDBRANCH   3   4
ENDBRANCH   2   3
ENDBRANCH   1   2
BRANCH   1  26
ATOM     26  O   UNL A   1      32.190  33.996  28.042  1.00  0.00    -0.458 OA
BRANCH  26  27
ATOM     27  C   UNL A   1      33.235  34.770  28.417  1.00  0.00     0.338 C 
ATOM     28  O   UNL A   1      33.274  35.984  28.491  1.00  0.00    -0.246 OA
BRANCH  27  29
ATOM     29  C   UNL A   1      34.349  33.918  28.855  1.00  0.00     0.060 A 
ATOM     30  C   UNL A   1      34.066  32.866  29.730  1.00  0.00     0.016 A 
ATOM     31  C   UNL A   1      35.666  34.207  28.497  1.00  0.00     0.016 A 
ATOM     32  C   UNL A   1      35.098  32.098  30.258  1.00  0.00     0.010 A 
ATOM     33  C   UNL A   1      36.704  33.432  29.026  1.00  0.00     0.010 A 
ATOM     34  C   UNL A   1      36.427  32.381  29.918  1.00  0.00    -0.014 A 
BRANCH  34  35
ATOM     35  C   UNL A   1      37.526  31.603  30.538  1.00  0.00     0.031 A 
ATOM     36  C   UNL A   1      37.887  31.832  31.977  1.00  0.00     0.074 A 
ATOM     37  C   UNL A   1      38.181  30.677  29.815  1.00  0.00     0.049 A 
ATOM     38  N   UNL A   1      38.864  31.316  32.676  1.00  0.00    -0.248 NA
ATOM     39  C   UNL A   1      37.033  32.765  32.729  1.00  0.00     0.031 C 
ATOM     40  C   UNL A   1      37.891  30.329  28.424  1.00  0.00     0.029 A 
ATOM     41  N   UNL A   1      39.230  29.860  30.155  1.00  0.00    -0.354 N 
ATOM     42  C   UNL A   1      38.759  31.875  33.942  1.00  0.00     0.074 A 
ATOM     43  C   UNL A   1      37.628  32.779  33.913  1.00  0.00     0.031 C 
ATOM     44  C   UNL A   1      38.743  29.371  28.028  1.00  0.00     0.029 A 
ATOM     45  C   UNL A   1      39.666  29.070  29.120  1.00  0.00     0.049 A 
ATOM     46  H   UNL A   1      39.631  29.842  31.053  1.00  0.00     0.167 HD
ATOM     47  C   UNL A   1      39.535  31.654  35.030  1.00  0.00     0.037 A 
ATOM     48  C   UNL A   1      40.707  28.222  29.052  1.00  0.00     0.037 A 
ATOM     49  C   UNL A   1      40.651  30.745  35.062  1.00  0.00     0.049 A 
ATOM     50  C   UNL A   1      41.588  28.035  30.256  1.00  0.00     0.074 A 
ATOM     51  C   UNL A   1      41.491  30.445  36.121  1.00  0.00     0.029 A 
ATOM     52  N   UNL A   1      41.079  29.985  33.985  1.00  0.00    -0.354 N 
ATOM     53  N   UNL A   1      41.488  28.580  31.444  1.00  0.00    -0.248 NA
ATOM     54  C   UNL A   1      42.731  27.124  30.106  1.00  0.00     0.031 C 
ATOM     55  C   UNL A   1      42.450  29.529  35.674  1.00  0.00     0.029 A 
ATOM     56  C   UNL A   1      42.182  29.230  34.347  1.00  0.00     0.049 A 
ATOM     57  H   UNL A   1      40.661  29.982  33.093  1.00  0.00     0.167 HD
ATOM     58  C   UNL A   1      42.542  28.067  32.187  1.00  0.00     0.074 A 
ATOM     59  C   UNL A   1      43.262  27.156  31.320  1.00  0.00     0.031 C 
ATOM     60  C   UNL A   1      42.885  28.327  33.472  1.00  0.00     0.037 A 
BRANCH  47  61
ATOM     61  C   UNL A   1      39.220  32.433  36.270  1.00  0.00     0.057 A 
ATOM     62  C   UNL A   1      39.809  33.675  36.533  1.00  0.00     0.134 A 
ATOM     63  C   UNL A   1      38.293  31.946  37.201  1.00  0.00     0.134 A 
ATOM     64  F   UNL A   1      40.716  34.190  35.689  1.00  0.00    -0.206 F 
ATOM     65  C   UNL A   1      39.500  34.399  37.686  1.00  0.00     0.040 A 
ATOM     66  C   UNL A   1      37.961  32.668  38.347  1.00  0.00     0.040 A 
ATOM     67  F   UNL A   1      37.692  30.762  37.006  1.00  0.00    -0.206 F 
ATOM     68  C   UNL A   1      38.569  33.898  38.594  1.00  0.00     0.006 A 
ENDBRANCH  47  61
BRANCH  48  69
ATOM     69  C   UNL A   1      40.992  27.502  27.786  1.00  0.00     0.057 A 
ATOM     70  C   UNL A   1      41.853  28.042  26.825  1.00  0.00     0.134 A 
ATOM     71  C   UNL A   1      40.407  26.261  27.509  1.00  0.00     0.134 A 
ATOM     72  F   UNL A   1      42.424  29.238  27.026  1.00  0.00    -0.206 F 
ATOM     73  C   UNL A   1      42.115  27.378  25.626  1.00  0.00     0.040 A 
ATOM     74  C   UNL A   1      40.679  25.575  26.324  1.00  0.00     0.040 A 
ATOM     75  F   UNL A   1      39.574  25.692  28.392  1.00  0.00    -0.206 F 
ATOM     76  C   UNL A   1      41.531  26.136  25.376  1.00  0.00     0.006 A 
ENDBRANCH  48  69
BRANCH  60  77
ATOM     77  C   UNL A   1      44.075  27.601  34.022  1.00  0.00     0.057 A 
ATOM     78  C   UNL A   1      43.957  26.335  34.608  1.00  0.00     0.134 A 
ATOM     79  C   UNL A   1      45.356  28.160  33.933  1.00  0.00     0.134 A 
ATOM     80  F   UNL A   1      42.755  25.755  34.735  1.00  0.00    -0.206 F 
ATOM     81  C   UNL A   1      45.072  25.658  35.105  1.00  0.00     0.040 A 
ATOM     82  C   UNL A   1      46.480  27.484  34.407  1.00  0.00     0.040 A 
ATOM     83  F   UNL A   1      45.534  29.368  33.375  1.00  0.00    -0.206 F 
ATOM     84  C   UNL A   1      46.338  26.230  34.999  1.00  0.00     0.006 A 
ENDBRANCH  60  77
ENDBRANCH  34  35
ENDBRANCH  27  29
ENDBRANCH  26  27
ENDBRANCH   1  26
TORSDOF 12
ENDMDL
MODEL 2
REMARK VINA RESULT:     -12.6      3.380      8.268
REMARK SMILES Cc1nc2ccc(Cl)cc2cc1C(=O)N1CCC(C(=O)OCCOC(=O)c2ccc(-c3c4nc(c(-c5c(F)cccc5F)c5ccc([nH]5)c(-c5c(F)cccc5F)c5nc(c(-c6c(F)cccc6F)c6ccc3[nH]6)C=C5)C=C4)cc2)CC1
REMARK SMILES IDX 23 1 22 2 21 3 19 4 20 5 18 6 13 7 14 8 15 9 16 10 82 11
REMARK SMILES IDX 17 12 81 13 12 14 1 15 2 16 3 17 4 18 11 19 5 20 10 21 6 22
REMARK SMILES IDX 9 23 7 24 8 25 24 26 25 27 26 28 27 29 28 30 80 31 29 32
REMARK SMILES IDX 79 33 30 34 31 35 32 36 73 37 33 38 78 39 72 40 74 41 34 42
REMARK SMILES IDX 77 43 71 44 70 45 35 47 61 48 44 49 60 50 45 51 48 52 59 53
REMARK SMILES IDX 75 54 46 55 47 56 58 58 76 59 49 60 36 61 37 62 42 63 38 64
REMARK SMILES IDX 39 65 41 66 43 67 40 68 62 69 63 70 68 71 64 72 65 73 67 74
REMARK SMILES IDX 69 75 66 76 50 77 51 78 56 79 52 80 53 81 55 82 57 83 54 84
REMARK H PARENT 74 46 48 57
REMARK Flexibility Score: inf
ROOT
ATOM      1  C   UNL A   1      40.169  22.455  26.802  1.00  0.00     0.275 C 
ENDROOT
BRANCH   1   2
ATOM      2  C   UNL A   1      39.252  21.458  26.089  1.00  0.00     0.274 C 
BRANCH   2   3
ATOM      3  O   UNL A   1      37.992  22.070  25.760  1.00  0.00    -0.462 OA
BRANCH   3   4
ATOM      4  C   UNL A   1      37.016  21.251  25.298  1.00  0.00     0.309 C 
ATOM      5  O   UNL A   1      37.178  20.086  24.956  1.00  0.00    -0.252 OA
BRANCH   4   6
ATOM      6  C   UNL A   1      35.652  21.911  25.279  1.00  0.00     0.103 C 
ATOM      7  C   UNL A   1      32.050  23.836  26.528  1.00  0.00     0.255 C 
ATOM      8  O   UNL A   1      31.266  23.239  27.261  1.00  0.00    -0.269 OA
ATOM      9  N   UNL A   1      33.234  23.267  26.053  1.00  0.00    -0.339 N 
ATOM     10  C   UNL A   1      33.213  21.826  25.815  1.00  0.00     0.120 C 
ATOM     11  C   UNL A   1      34.366  24.036  25.525  1.00  0.00     0.120 C 
ATOM     12  C   UNL A   1      34.559  21.157  26.035  1.00  0.00     0.037 C 
ATOM     13  C   UNL A   1      35.707  23.351  25.785  1.00  0.00     0.037 C 
BRANCH   7  14
ATOM     14  C   UNL A   1      31.630  25.154  26.000  1.00  0.00     0.061 A 
ATOM     15  C   UNL A   1      30.708  24.146  23.862  1.00  0.00     0.067 C 
ATOM     16  C   UNL A   1      31.060  25.312  24.739  1.00  0.00     0.051 A 
ATOM     17  N   UNL A   1      30.840  26.544  24.194  1.00  0.00    -0.252 NA
ATOM     18  C   UNL A   1      31.199  27.642  24.883  1.00  0.00     0.071 A 
ATOM     19  C   UNL A   1      31.993  26.302  26.712  1.00  0.00     0.026 A 
ATOM     20  C   UNL A   1      31.034  28.901  24.317  1.00  0.00     0.030 A 
ATOM     21  C   UNL A   1      31.771  27.568  26.169  1.00  0.00     0.002 A 
ATOM     22  C   UNL A   1      31.402  30.069  24.996  1.00  0.00     0.023 A 
ATOM     23  C   UNL A   1      32.131  28.734  26.864  1.00  0.00     0.030 A 
ATOM     24  C   UNL A   1      31.941  29.979  26.274  1.00  0.00     0.041 A 
ATOM     25  Cl  UNL A   1      32.383  31.406  27.125  1.00  0.00    -0.084 Cl
ENDBRANCH   7  14
ENDBRANCH   4   6
ENDBRANCH   3   4
ENDBRANCH   2   3
ENDBRANCH   1   2
BRANCH   1  26
ATOM     26  O   UNL A   1      39.825  23.816  26.475  1.00  0.00    -0.458 OA
BRANCH  26  27
ATOM     27  C   UNL A   1      40.850  24.698  26.520  1.00  0.00     0.338 C 
ATOM     28  O   UNL A   1      41.834  24.733  25.803  1.00  0.00    -0.246 OA
BRANCH  27  29
ATOM     29  C   UNL A   1      40.568  25.735  27.522  1.00  0.00     0.060 A 
ATOM     30  C   UNL A   1      41.453  26.812  27.618  1.00  0.00     0.016 A 
ATOM     31  C   UNL A   1      39.510  25.604  28.421  1.00  0.00     0.016 A 
ATOM     32  C   UNL A   1      41.291  27.763  28.620  1.00  0.00     0.010 A 
ATOM     33  C   UNL A   1      39.345  26.562  29.427  1.00  0.00     0.010 A 
ATOM     34  C   UNL A   1      40.241  27.641  29.539  1.00  0.00    -0.014 A 
BRANCH  34  35
ATOM     35  C   UNL A   1      40.115  28.619  30.645  1.00  0.00     0.031 A 
ATOM     36  C   UNL A   1      39.101  29.723  30.558  1.00  0.00     0.074 A 
ATOM     37  C   UNL A   1      40.893  28.501  31.735  1.00  0.00     0.049 A 
ATOM     38  N   UNL A   1      38.893  30.721  31.376  1.00  0.00    -0.248 NA
ATOM     39  C   UNL A   1      38.201  29.699  29.393  1.00  0.00     0.031 C 
ATOM     40  C   UNL A   1      41.880  27.445  31.959  1.00  0.00     0.029 A 
ATOM     41  N   UNL A   1      40.976  29.283  32.860  1.00  0.00    -0.354 N 
ATOM     42  C   UNL A   1      37.856  31.458  30.819  1.00  0.00     0.074 A 
ATOM     43  C   UNL A   1      37.483  30.796  29.587  1.00  0.00     0.031 C 
ATOM     44  C   UNL A   1      42.471  27.645  33.148  1.00  0.00     0.029 A 
ATOM     45  C   UNL A   1      41.938  28.866  33.747  1.00  0.00     0.049 A 
ATOM     46  H   UNL A   1      40.402  30.067  33.016  1.00  0.00     0.167 HD
ATOM     47  C   UNL A   1      37.268  32.581  31.294  1.00  0.00     0.037 A 
ATOM     48  C   UNL A   1      42.360  29.422  34.897  1.00  0.00     0.037 A 
ATOM     49  C   UNL A   1      37.631  33.230  32.527  1.00  0.00     0.049 A 
ATOM     50  C   UNL A   1      41.730  30.700  35.375  1.00  0.00     0.074 A 
ATOM     51  C   UNL A   1      37.086  34.368  33.097  1.00  0.00     0.029 A 
ATOM     52  N   UNL A   1      38.630  32.794  33.383  1.00  0.00    -0.354 N 
ATOM     53  N   UNL A   1      40.760  31.395  34.833  1.00  0.00    -0.248 NA
ATOM     54  C   UNL A   1      42.261  31.276  36.619  1.00  0.00     0.031 C 
ATOM     55  C   UNL A   1      37.779  34.640  34.282  1.00  0.00     0.029 A 
ATOM     56  C   UNL A   1      38.731  33.649  34.467  1.00  0.00     0.049 A 
ATOM     57  H   UNL A   1      39.187  31.995  33.241  1.00  0.00     0.167 HD
ATOM     58  C   UNL A   1      40.552  32.479  35.675  1.00  0.00     0.074 A 
ATOM     59  C   UNL A   1      41.488  32.342  36.772  1.00  0.00     0.031 C 
ATOM     60  C   UNL A   1      39.667  33.497  35.551  1.00  0.00     0.037 A 
BRANCH  47  61
ATOM     61  C   UNL A   1      36.188  33.199  30.459  1.00  0.00     0.057 A 
ATOM     62  C   UNL A   1      34.833  33.058  30.780  1.00  0.00     0.134 A 
ATOM     63  C   UNL A   1      36.511  33.968  29.333  1.00  0.00     0.134 A 
ATOM     64  F   UNL A   1      34.458  32.321  31.837  1.00  0.00    -0.206 F 
ATOM     65  C   UNL A   1      33.835  33.648  30.003  1.00  0.00     0.040 A 
ATOM     66  C   UNL A   1      35.524  34.579  28.560  1.00  0.00     0.040 A 
ATOM     67  F   UNL A   1      37.792  34.143  28.973  1.00  0.00    -0.206 F 
ATOM     68  C   UNL A   1      34.180  34.416  28.892  1.00  0.00     0.006 A 
ENDBRANCH  47  61
BRANCH  48  69
ATOM     69  C   UNL A   1      43.457  28.784  35.666  1.00  0.00     0.057 A 
ATOM     70  C   UNL A   1      44.789  29.165  35.476  1.00  0.00     0.134 A 
ATOM     71  C   UNL A   1      43.198  27.777  36.603  1.00  0.00     0.134 A 
ATOM     72  F   UNL A   1      45.100  30.108  34.575  1.00  0.00    -0.206 F 
ATOM     73  C   UNL A   1      45.828  28.561  36.186  1.00  0.00     0.040 A 
ATOM     74  C   UNL A   1      44.224  27.181  37.336  1.00  0.00     0.040 A 
ATOM     75  F   UNL A   1      41.941  27.369  36.829  1.00  0.00    -0.206 F 
ATOM     76  C   UNL A   1      45.545  27.569  37.124  1.00  0.00     0.006 A 
ENDBRANCH  48  69
BRANCH  60  77
ATOM     77  C   UNL A   1      39.655  34.528  36.639  1.00  0.00     0.057 A 
ATOM     78  C   UNL A   1      38.898  34.357  37.805  1.00  0.00     0.134 A 
ATOM     79  C   UNL A   1      40.434  35.686  36.533  1.00  0.00     0.134 A 
ATOM     80  F   UNL A   1      38.120  33.276  37.957  1.00  0.00    -0.206 F 
ATOM     81  C   UNL A   1      38.903  35.314  38.821  1.00  0.00     0.040 A 
ATOM     82  C   UNL A   1      40.463  36.640  37.551  1.00  0.00     0.040 A 
ATOM     83  F   UNL A   1      41.186  35.903  35.443  1.00  0.00    -0.206 F 
ATOM     84  C   UNL A   1      39.692  36.456  38.698  1.00  0.00     0.006 A 
ENDBRANCH  60  77
ENDBRANCH  34  35
ENDBRANCH  27  29
ENDBRANCH  26  27
ENDBRANCH   1  26
TORSDOF 12
ENDMDL
MODEL 3
REMARK VINA RESULT:     -12.6      4.138      6.451
REMARK SMILES Cc1nc2ccc(Cl)cc2cc1C(=O)N1CCC(C(=O)OCCOC(=O)c2ccc(-c3c4nc(c(-c5c(F)cccc5F)c5ccc([nH]5)c(-c5c(F)cccc5F)c5nc(c(-c6c(F)cccc6F)c6ccc3[nH]6)C=C5)C=C4)cc2)CC1
REMARK SMILES IDX 23 1 22 2 21 3 19 4 20 5 18 6 13 7 14 8 15 9 16 10 82 11
REMARK SMILES IDX 17 12 81 13 12 14 1 15 2 16 3 17 4 18 11 19 5 20 10 21 6 22
REMARK SMILES IDX 9 23 7 24 8 25 24 26 25 27 26 28 27 29 28 30 80 31 29 32
REMARK SMILES IDX 79 33 30 34 31 35 32 36 73 37 33 38 78 39 72 40 74 41 34 42
REMARK SMILES IDX 77 43 71 44 70 45 35 47 61 48 44 49 60 50 45 51 48 52 59 53
REMARK SMILES IDX 75 54 46 55 47 56 58 58 76 59 49 60 36 61 37 62 42 63 38 64
REMARK SMILES IDX 39 65 41 66 43 67 40 68 62 69 63 70 68 71 64 72 65 73 67 74
REMARK SMILES IDX 69 75 66 76 50 77 51 78 56 79 52 80 53 81 55 82 57 83 54 84
REMARK H PARENT 74 46 48 57
REMARK Flexibility Score: inf
ROOT
ATOM      1  C   UNL A   1      34.721  33.643  31.452  1.00  0.00     0.275 C 
ENDROOT
BRANCH   1   2
ATOM      2  C   UNL A   1      34.408  33.758  29.958  1.00  0.00     0.274 C 
BRANCH   2   3
ATOM      3  O   UNL A   1      33.994  32.486  29.425  1.00  0.00    -0.462 OA
BRANCH   3   4
ATOM      4  C   UNL A   1      34.492  32.140  28.213  1.00  0.00     0.309 C 
ATOM      5  O   UNL A   1      35.412  32.712  27.640  1.00  0.00    -0.252 OA
BRANCH   4   6
ATOM      6  C   UNL A   1      33.819  30.916  27.627  1.00  0.00     0.103 C 
ATOM      7  C   UNL A   1      32.601  27.856  24.907  1.00  0.00     0.255 C 
ATOM      8  O   UNL A   1      31.941  28.155  23.916  1.00  0.00    -0.269 OA
ATOM      9  N   UNL A   1      33.014  28.792  25.859  1.00  0.00    -0.339 N 
ATOM     10  C   UNL A   1      32.120  29.925  26.086  1.00  0.00     0.120 C 
ATOM     11  C   UNL A   1      34.105  28.573  26.814  1.00  0.00     0.120 C 
ATOM     12  C   UNL A   1      32.846  31.199  26.483  1.00  0.00     0.037 C 
ATOM     13  C   UNL A   1      34.833  29.868  27.173  1.00  0.00     0.037 C 
BRANCH   7  14
ATOM     14  C   UNL A   1      32.822  26.418  25.180  1.00  0.00     0.061 A 
ATOM     15  C   UNL A   1      30.719  26.230  26.586  1.00  0.00     0.067 C 
ATOM     16  C   UNL A   1      31.985  25.671  26.006  1.00  0.00     0.051 A 
ATOM     17  N   UNL A   1      32.295  24.399  26.389  1.00  0.00    -0.252 NA
ATOM     18  C   UNL A   1      33.451  23.849  25.976  1.00  0.00     0.071 A 
ATOM     19  C   UNL A   1      34.019  25.835  24.748  1.00  0.00     0.026 A 
ATOM     20  C   UNL A   1      33.807  22.576  26.405  1.00  0.00     0.030 A 
ATOM     21  C   UNL A   1      34.347  24.533  25.130  1.00  0.00     0.002 A 
ATOM     22  C   UNL A   1      35.005  21.971  26.005  1.00  0.00     0.023 A 
ATOM     23  C   UNL A   1      35.545  23.931  24.712  1.00  0.00     0.030 A 
ATOM     24  C   UNL A   1      35.865  22.650  25.151  1.00  0.00     0.041 A 
ATOM     25  Cl  UNL A   1      37.332  21.913  24.640  1.00  0.00    -0.084 Cl
ENDBRANCH   7  14
ENDBRANCH   4   6
ENDBRANCH   3   4
ENDBRANCH   2   3
ENDBRANCH   1   2
BRANCH   1  26
ATOM     26  O   UNL A   1      34.995  32.279  31.831  1.00  0.00    -0.458 OA
BRANCH  26  27
ATOM     27  C   UNL A   1      36.066  32.109  32.640  1.00  0.00     0.338 C 
ATOM     28  O   UNL A   1      36.140  32.333  33.835  1.00  0.00    -0.246 OA
BRANCH  27  29
ATOM     29  C   UNL A   1      37.160  31.480  31.888  1.00  0.00     0.060 A 
ATOM     30  C   UNL A   1      38.200  30.892  32.612  1.00  0.00     0.016 A 
ATOM     31  C   UNL A   1      37.219  31.555  30.496  1.00  0.00     0.016 A 
ATOM     32  C   UNL A   1      39.311  30.379  31.949  1.00  0.00     0.010 A 
ATOM     33  C   UNL A   1      38.334  31.037  29.830  1.00  0.00     0.010 A 
ATOM     34  C   UNL A   1      39.391  30.455  30.553  1.00  0.00    -0.014 A 
BRANCH  34  35
ATOM     35  C   UNL A   1      40.607  29.969  29.860  1.00  0.00     0.031 A 
ATOM     36  C   UNL A   1      41.761  30.902  29.626  1.00  0.00     0.074 A 
ATOM     37  C   UNL A   1      40.684  28.687  29.462  1.00  0.00     0.049 A 
ATOM     38  N   UNL A   1      42.872  30.694  28.969  1.00  0.00    -0.248 NA
ATOM     39  C   UNL A   1      41.646  32.248  30.210  1.00  0.00     0.031 C 
ATOM     40  C   UNL A   1      39.652  27.673  29.675  1.00  0.00     0.029 A 
ATOM     41  N   UNL A   1      41.679  28.019  28.793  1.00  0.00    -0.354 N 
ATOM     42  C   UNL A   1      43.582  31.885  29.040  1.00  0.00     0.074 A 
ATOM     43  C   UNL A   1      42.770  32.816  29.796  1.00  0.00     0.031 C 
ATOM     44  C   UNL A   1      40.065  26.511  29.145  1.00  0.00     0.029 A 
ATOM     45  C   UNL A   1      41.370  26.710  28.517  1.00  0.00     0.049 A 
ATOM     46  H   UNL A   1      42.531  28.437  28.536  1.00  0.00     0.167 HD
ATOM     47  C   UNL A   1      44.799  32.174  28.523  1.00  0.00     0.037 A 
ATOM     48  C   UNL A   1      42.048  25.785  27.815  1.00  0.00     0.037 A 
ATOM     49  C   UNL A   1      45.611  31.243  27.784  1.00  0.00     0.049 A 
ATOM     50  C   UNL A   1      43.373  26.147  27.203  1.00  0.00     0.074 A 
ATOM     51  C   UNL A   1      46.864  31.441  27.228  1.00  0.00     0.029 A 
ATOM     52  N   UNL A   1      45.250  29.935  27.500  1.00  0.00    -0.354 N 
ATOM     53  N   UNL A   1      44.027  27.281  27.264  1.00  0.00    -0.248 NA
ATOM     54  C   UNL A   1      44.046  25.105  26.415  1.00  0.00     0.031 C 
ATOM     55  C   UNL A   1      47.247  30.262  26.579  1.00  0.00     0.029 A 
ATOM     56  C   UNL A   1      46.247  29.319  26.762  1.00  0.00     0.049 A 
ATOM     57  H   UNL A   1      44.409  29.508  27.780  1.00  0.00     0.167 HD
ATOM     58  C   UNL A   1      45.196  27.085  26.540  1.00  0.00     0.074 A 
ATOM     59  C   UNL A   1      45.166  25.718  26.060  1.00  0.00     0.031 C 
ATOM     60  C   UNL A   1      46.202  27.958  26.294  1.00  0.00     0.037 A 
BRANCH  47  61
ATOM     61  C   UNL A   1      45.315  33.568  28.715  1.00  0.00     0.057 A 
ATOM     62  C   UNL A   1      46.140  33.909  29.793  1.00  0.00     0.134 A 
ATOM     63  C   UNL A   1      45.005  34.575  27.792  1.00  0.00     0.134 A 
ATOM     64  F   UNL A   1      46.460  32.994  30.720  1.00  0.00    -0.206 F 
ATOM     65  C   UNL A   1      46.625  35.208  29.957  1.00  0.00     0.040 A 
ATOM     66  C   UNL A   1      45.500  35.871  27.933  1.00  0.00     0.040 A 
ATOM     67  F   UNL A   1      44.221  34.312  26.735  1.00  0.00    -0.206 F 
ATOM     68  C   UNL A   1      46.310  36.192  29.021  1.00  0.00     0.006 A 
ENDBRANCH  47  61
BRANCH  48  69
ATOM     69  C   UNL A   1      41.473  24.430  27.628  1.00  0.00     0.057 A 
ATOM     70  C   UNL A   1      40.455  24.199  26.696  1.00  0.00     0.134 A 
ATOM     71  C   UNL A   1      41.925  23.340  28.380  1.00  0.00     0.134 A 
ATOM     72  F   UNL A   1      39.967  25.211  25.965  1.00  0.00    -0.206 F 
ATOM     73  C   UNL A   1      39.900  22.930  26.525  1.00  0.00     0.040 A 
ATOM     74  C   UNL A   1      41.394  22.061  28.202  1.00  0.00     0.040 A 
ATOM     75  F   UNL A   1      42.898  23.499  29.288  1.00  0.00    -0.206 F 
ATOM     76  C   UNL A   1      40.374  21.855  27.276  1.00  0.00     0.006 A 
ENDBRANCH  48  69
BRANCH  60  77
ATOM     77  C   UNL A   1      47.362  27.454  25.489  1.00  0.00     0.057 A 
ATOM     78  C   UNL A   1      47.419  27.617  24.100  1.00  0.00     0.134 A 
ATOM     79  C   UNL A   1      48.446  26.827  26.116  1.00  0.00     0.134 A 
ATOM     80  F   UNL A   1      46.404  28.196  23.442  1.00  0.00    -0.206 F 
ATOM     81  C   UNL A   1      48.509  27.158  23.359  1.00  0.00     0.040 A 
ATOM     82  C   UNL A   1      49.550  26.382  25.388  1.00  0.00     0.040 A 
ATOM     83  F   UNL A   1      48.453  26.646  27.446  1.00  0.00    -0.206 F 
ATOM     84  C   UNL A   1      49.581  26.544  24.004  1.00  0.00     0.006 A 
ENDBRANCH  60  77
ENDBRANCH  34  35
ENDBRANCH  27  29
ENDBRANCH  26  27
ENDBRANCH   1  26
TORSDOF 12
ENDMDL
