MODEL 1
REMARK VINA RESULT:      -9.5      0.000      0.000
REMARK SMILES COc1ccc(CC(=O)N[C@H](C)C(=O)OCCOC(=O)c2ccc(-c3c4nc(c(-c5c(F)cccc5F)c5ccc([nH]5)c(-c5c(F)cccc5F)c5nc(c(-c6c(F)cccc6F)c6ccc3[nH]6)C=C5)C=C4)cc2)cc1F
REMARK SMILES IDX 16 1 15 2 13 3 14 4 11 5 12 6 10 7 8 8 9 9 7 11 6 12 3 13
REMARK SMILES IDX 4 14 76 15 5 16 75 17 77 18 2 19 1 20 17 21 18 22 19 23
REMARK SMILES IDX 20 24 21 25 22 26 74 27 23 28 73 29 24 30 25 31 26 32 67 33
REMARK SMILES IDX 27 34 72 35 66 36 68 37 28 38 71 39 65 40 64 41 29 43 55 44
REMARK SMILES IDX 38 45 54 46 39 47 42 48 53 49 69 50 40 51 41 52 52 54 70 55
REMARK SMILES IDX 43 56 30 57 31 58 36 59 32 60 33 61 35 62 37 63 34 64 56 65
REMARK SMILES IDX 57 66 62 67 58 68 59 69 61 70 63 71 60 72 44 73 45 74 50 75
REMARK SMILES IDX 46 76 47 77 49 78 51 79 48 80
REMARK H PARENT 10 10 68 42 42 53
REMARK Flexibility Score: inf
ROOT
ATOM      1  C   UNL A   1      33.465  34.523  28.025  1.00  0.00     0.274 C 
ENDROOT
BRANCH   1   2
ATOM      2  O   UNL A   1      32.695  34.622  29.240  1.00  0.00    -0.461 OA
BRANCH   2   3
ATOM      3  C   UNL A   1      32.947  35.753  29.943  1.00  0.00     0.328 C 
ATOM      4  O   UNL A   1      32.768  36.867  29.472  1.00  0.00    -0.250 OA
BRANCH   3   5
ATOM      5  C   UNL A   1      33.538  35.534  31.344  1.00  0.00     0.189 C 
ATOM      6  C   UNL A   1      32.708  36.135  32.473  1.00  0.00     0.043 C 
BRANCH   5   7
ATOM      7  N   UNL A   1      33.789  34.107  31.559  1.00  0.00    -0.343 N 
ATOM      8  C   UNL A   1      34.900  33.479  32.046  1.00  0.00     0.225 C 
ATOM      9  O   UNL A   1      34.917  32.245  32.020  1.00  0.00    -0.275 OA
ATOM     10  H   UNL A   1      33.045  33.512  31.316  1.00  0.00     0.164 HD
BRANCH   8  11
ATOM     11  C   UNL A   1      36.060  34.260  32.648  1.00  0.00     0.135 C 
BRANCH  11  12
ATOM     12  C   UNL A   1      37.371  34.106  31.915  1.00  0.00    -0.036 A 
ATOM     13  C   UNL A   1      39.859  34.095  30.540  1.00  0.00     0.154 A 
ATOM     14  C   UNL A   1      38.676  33.775  29.875  1.00  0.00     0.050 A 
ATOM     15  C   UNL A   1      39.772  34.416  31.887  1.00  0.00     0.165 A 
ATOM     16  C   UNL A   1      37.441  33.781  30.552  1.00  0.00     0.008 A 
ATOM     17  C   UNL A   1      38.564  34.368  32.587  1.00  0.00     0.047 A 
ATOM     18  F   UNL A   1      40.854  34.842  32.543  1.00  0.00    -0.203 F 
BRANCH  13  19
ATOM     19  O   UNL A   1      41.006  34.088  29.791  1.00  0.00    -0.494 OA
ATOM     20  C   UNL A   1      41.943  33.049  30.081  1.00  0.00     0.278 C 
ENDBRANCH  13  19
ENDBRANCH  11  12
ENDBRANCH   8  11
ENDBRANCH   5   7
ENDBRANCH   3   5
ENDBRANCH   2   3
ENDBRANCH   1   2
BRANCH   1  21
ATOM     21  C   UNL A   1      34.602  33.499  28.146  1.00  0.00     0.275 C 
BRANCH  21  22
ATOM     22  O   UNL A   1      34.207  32.251  28.761  1.00  0.00    -0.458 OA
BRANCH  22  23
ATOM     23  C   UNL A   1      34.505  31.126  28.065  1.00  0.00     0.338 C 
ATOM     24  O   UNL A   1      33.874  30.673  27.120  1.00  0.00    -0.246 OA
BRANCH  23  25
ATOM     25  C   UNL A   1      35.809  30.560  28.482  1.00  0.00     0.060 A 
ATOM     26  C   UNL A   1      35.867  29.858  29.694  1.00  0.00     0.016 A 
ATOM     27  C   UNL A   1      36.972  30.726  27.725  1.00  0.00     0.016 A 
ATOM     28  C   UNL A   1      37.060  29.263  30.119  1.00  0.00     0.010 A 
ATOM     29  C   UNL A   1      38.175  30.151  28.165  1.00  0.00     0.010 A 
ATOM     30  C   UNL A   1      38.224  29.391  29.350  1.00  0.00    -0.014 A 
BRANCH  30  31
ATOM     31  C   UNL A   1      39.511  28.821  29.834  1.00  0.00     0.031 A 
ATOM     32  C   UNL A   1      40.185  29.470  31.000  1.00  0.00     0.074 A 
ATOM     33  C   UNL A   1      40.078  27.736  29.268  1.00  0.00     0.049 A 
ATOM     34  N   UNL A   1      41.320  29.162  31.569  1.00  0.00    -0.248 NA
ATOM     35  C   UNL A   1      39.478  30.599  31.622  1.00  0.00     0.031 C 
ATOM     36  C   UNL A   1      39.481  26.941  28.210  1.00  0.00     0.029 A 
ATOM     37  N   UNL A   1      41.283  27.113  29.490  1.00  0.00    -0.354 N 
ATOM     38  C   UNL A   1      41.453  30.040  32.630  1.00  0.00     0.074 A 
ATOM     39  C   UNL A   1      40.305  30.922  32.605  1.00  0.00     0.031 C 
ATOM     40  C   UNL A   1      40.329  25.981  27.815  1.00  0.00     0.029 A 
ATOM     41  C   UNL A   1      41.542  26.083  28.612  1.00  0.00     0.049 A 
ATOM     42  H   UNL A   1      41.903  27.378  30.208  1.00  0.00     0.167 HD
ATOM     43  C   UNL A   1      42.441  30.093  33.552  1.00  0.00     0.037 A 
ATOM     44  C   UNL A   1      42.630  25.304  28.455  1.00  0.00     0.037 A 
ATOM     45  C   UNL A   1      43.596  29.236  33.551  1.00  0.00     0.049 A 
ATOM     46  C   UNL A   1      43.778  25.473  29.405  1.00  0.00     0.074 A 
ATOM     47  C   UNL A   1      44.655  29.225  34.441  1.00  0.00     0.029 A 
ATOM     48  N   UNL A   1      43.858  28.255  32.605  1.00  0.00    -0.354 N 
ATOM     49  N   UNL A   1      43.882  26.292  30.422  1.00  0.00    -0.248 NA
ATOM     50  C   UNL A   1      44.948  24.608  29.204  1.00  0.00     0.031 C 
ATOM     51  C   UNL A   1      45.587  28.284  33.997  1.00  0.00     0.029 A 
ATOM     52  C   UNL A   1      45.081  27.660  32.867  1.00  0.00     0.049 A 
ATOM     53  H   UNL A   1      43.261  28.016  31.859  1.00  0.00     0.167 HD
ATOM     54  C   UNL A   1      45.111  26.024  31.003  1.00  0.00     0.074 A 
ATOM     55  C   UNL A   1      45.716  24.959  30.227  1.00  0.00     0.031 C 
ATOM     56  C   UNL A   1      45.680  26.606  32.086  1.00  0.00     0.037 A 
BRANCH  43  57
ATOM     57  C   UNL A   1      42.324  31.137  34.618  1.00  0.00     0.057 A 
ATOM     58  C   UNL A   1      41.751  30.829  35.858  1.00  0.00     0.134 A 
ATOM     59  C   UNL A   1      42.755  32.454  34.411  1.00  0.00     0.134 A 
ATOM     60  F   UNL A   1      41.322  29.585  36.119  1.00  0.00    -0.206 F 
ATOM     61  C   UNL A   1      41.599  31.797  36.850  1.00  0.00     0.040 A 
ATOM     62  C   UNL A   1      42.633  33.424  35.406  1.00  0.00     0.040 A 
ATOM     63  F   UNL A   1      43.334  32.807  33.253  1.00  0.00    -0.206 F 
ATOM     64  C   UNL A   1      42.044  33.098  36.627  1.00  0.00     0.006 A 
ENDBRANCH  43  57
BRANCH  44  65
ATOM     65  C   UNL A   1      42.665  24.285  27.373  1.00  0.00     0.057 A 
ATOM     66  C   UNL A   1      42.262  22.963  27.603  1.00  0.00     0.134 A 
ATOM     67  C   UNL A   1      43.126  24.601  26.091  1.00  0.00     0.134 A 
ATOM     68  F   UNL A   1      41.811  22.591  28.810  1.00  0.00    -0.206 F 
ATOM     69  C   UNL A   1      42.333  21.989  26.604  1.00  0.00     0.040 A 
ATOM     70  C   UNL A   1      43.182  23.643  25.075  1.00  0.00     0.040 A 
ATOM     71  F   UNL A   1      43.510  25.853  25.802  1.00  0.00    -0.206 F 
ATOM     72  C   UNL A   1      42.792  22.330  25.333  1.00  0.00     0.006 A 
ENDBRANCH  44  65
BRANCH  56  73
ATOM     73  C   UNL A   1      47.026  26.106  32.516  1.00  0.00     0.057 A 
ATOM     74  C   UNL A   1      47.136  25.093  33.478  1.00  0.00     0.134 A 
ATOM     75  C   UNL A   1      48.211  26.690  32.051  1.00  0.00     0.134 A 
ATOM     76  F   UNL A   1      46.039  24.498  33.969  1.00  0.00    -0.206 F 
ATOM     77  C   UNL A   1      48.376  24.698  33.982  1.00  0.00     0.040 A 
ATOM     78  C   UNL A   1      49.458  26.283  32.526  1.00  0.00     0.040 A 
ATOM     79  F   UNL A   1      48.173  27.655  31.120  1.00  0.00    -0.206 F 
ATOM     80  C   UNL A   1      49.541  25.294  33.506  1.00  0.00     0.006 A 
ENDBRANCH  56  73
ENDBRANCH  30  31
ENDBRANCH  23  25
ENDBRANCH  22  23
ENDBRANCH  21  22
ENDBRANCH   1  21
TORSDOF 15
ENDMDL
MODEL 2
REMARK VINA RESULT:      -9.4      1.984      2.947
REMARK SMILES COc1ccc(CC(=O)N[C@H](C)C(=O)OCCOC(=O)c2ccc(-c3c4nc(c(-c5c(F)cccc5F)c5ccc([nH]5)c(-c5c(F)cccc5F)c5nc(c(-c6c(F)cccc6F)c6ccc3[nH]6)C=C5)C=C4)cc2)cc1F
REMARK SMILES IDX 16 1 15 2 13 3 14 4 11 5 12 6 10 7 8 8 9 9 7 11 6 12 3 13
REMARK SMILES IDX 4 14 76 15 5 16 75 17 77 18 2 19 1 20 17 21 18 22 19 23
REMARK SMILES IDX 20 24 21 25 22 26 74 27 23 28 73 29 24 30 25 31 26 32 67 33
REMARK SMILES IDX 27 34 72 35 66 36 68 37 28 38 71 39 65 40 64 41 29 43 55 44
REMARK SMILES IDX 38 45 54 46 39 47 42 48 53 49 69 50 40 51 41 52 52 54 70 55
REMARK SMILES IDX 43 56 30 57 31 58 36 59 32 60 33 61 35 62 37 63 34 64 56 65
REMARK SMILES IDX 57 66 62 67 58 68 59 69 61 70 63 71 60 72 44 73 45 74 50 75
REMARK SMILES IDX 46 76 47 77 49 78 51 79 48 80
REMARK H PARENT 10 10 68 42 42 53
REMARK Flexibility Score: inf
ROOT
ATOM      1  C   UNL A   1      33.652  33.978  28.359  1.00  0.00     0.274 C 
ENDROOT
BRANCH   1   2
ATOM      2  O   UNL A   1      32.696  34.470  29.320  1.00  0.00    -0.461 OA
BRANCH   2   3
ATOM      3  C   UNL A   1      32.911  35.761  29.675  1.00  0.00     0.328 C 
ATOM      4  O   UNL A   1      32.652  36.693  28.928  1.00  0.00    -0.250 OA
BRANCH   3   5
ATOM      5  C   UNL A   1      33.564  35.961  31.051  1.00  0.00     0.189 C 
ATOM      6  C   UNL A   1      33.277  37.317  31.688  1.00  0.00     0.043 C 
BRANCH   5   7
ATOM      7  N   UNL A   1      33.194  34.858  31.941  1.00  0.00    -0.343 N 
ATOM      8  C   UNL A   1      33.988  34.016  32.666  1.00  0.00     0.225 C 
ATOM      9  O   UNL A   1      33.442  33.078  33.253  1.00  0.00    -0.275 OA
ATOM     10  H   UNL A   1      32.227  34.700  32.030  1.00  0.00     0.164 HD
BRANCH   8  11
ATOM     11  C   UNL A   1      35.488  34.246  32.795  1.00  0.00     0.135 C 
BRANCH  11  12
ATOM     12  C   UNL A   1      36.272  33.043  33.261  1.00  0.00    -0.036 A 
ATOM     13  C   UNL A   1      37.979  30.933  34.107  1.00  0.00     0.154 A 
ATOM     14  C   UNL A   1      37.334  30.877  32.873  1.00  0.00     0.050 A 
ATOM     15  C   UNL A   1      37.756  32.052  34.898  1.00  0.00     0.165 A 
ATOM     16  C   UNL A   1      36.489  31.921  32.449  1.00  0.00     0.008 A 
ATOM     17  C   UNL A   1      36.873  33.067  34.519  1.00  0.00     0.047 A 
ATOM     18  F   UNL A   1      38.436  32.212  36.035  1.00  0.00    -0.203 F 
BRANCH  13  19
ATOM     19  O   UNL A   1      38.802  29.884  34.419  1.00  0.00    -0.494 OA
ATOM     20  C   UNL A   1      40.091  29.888  33.803  1.00  0.00     0.278 C 
ENDBRANCH  13  19
ENDBRANCH  11  12
ENDBRANCH   8  11
ENDBRANCH   5   7
ENDBRANCH   3   5
ENDBRANCH   2   3
ENDBRANCH   1   2
BRANCH   1  21
ATOM     21  C   UNL A   1      34.209  32.603  28.754  1.00  0.00     0.275 C 
BRANCH  21  22
ATOM     22  O   UNL A   1      34.546  31.760  27.629  1.00  0.00    -0.458 OA
BRANCH  22  23
ATOM     23  C   UNL A   1      34.597  30.428  27.879  1.00  0.00     0.338 C 
ATOM     24  O   UNL A   1      33.686  29.628  27.718  1.00  0.00    -0.246 OA
BRANCH  23  25
ATOM     25  C   UNL A   1      35.968  29.994  28.236  1.00  0.00     0.060 A 
ATOM     26  C   UNL A   1      36.963  30.075  27.251  1.00  0.00     0.016 A 
ATOM     27  C   UNL A   1      36.288  29.490  29.499  1.00  0.00     0.016 A 
ATOM     28  C   UNL A   1      38.286  29.722  27.541  1.00  0.00     0.010 A 
ATOM     29  C   UNL A   1      37.610  29.111  29.782  1.00  0.00     0.010 A 
ATOM     30  C   UNL A   1      38.626  29.250  28.816  1.00  0.00    -0.014 A 
BRANCH  30  31
ATOM     31  C   UNL A   1      40.016  28.806  29.106  1.00  0.00     0.031 A 
ATOM     32  C   UNL A   1      40.937  29.756  29.803  1.00  0.00     0.074 A 
ATOM     33  C   UNL A   1      40.465  27.578  28.777  1.00  0.00     0.049 A 
ATOM     34  N   UNL A   1      42.192  29.593  30.131  1.00  0.00    -0.248 NA
ATOM     35  C   UNL A   1      40.365  31.049  30.206  1.00  0.00     0.031 C 
ATOM     36  C   UNL A   1      39.653  26.520  28.204  1.00  0.00     0.029 A 
ATOM     37  N   UNL A   1      41.713  27.007  28.865  1.00  0.00    -0.354 N 
ATOM     38  C   UNL A   1      42.554  30.749  30.799  1.00  0.00     0.074 A 
ATOM     39  C   UNL A   1      41.401  31.625  30.796  1.00  0.00     0.031 C 
ATOM     40  C   UNL A   1      40.412  25.453  27.922  1.00  0.00     0.029 A 
ATOM     41  C   UNL A   1      41.782  25.746  28.311  1.00  0.00     0.049 A 
ATOM     42  H   UNL A   1      42.483  27.454  29.283  1.00  0.00     0.167 HD
ATOM     43  C   UNL A   1      43.741  31.043  31.375  1.00  0.00     0.037 A 
ATOM     44  C   UNL A   1      42.826  24.914  28.130  1.00  0.00     0.037 A 
ATOM     45  C   UNL A   1      44.892  30.183  31.343  1.00  0.00     0.049 A 
ATOM     46  C   UNL A   1      44.169  25.321  28.655  1.00  0.00     0.074 A 
ATOM     47  C   UNL A   1      46.143  30.405  31.892  1.00  0.00     0.029 A 
ATOM     48  N   UNL A   1      44.945  28.948  30.712  1.00  0.00    -0.354 N 
ATOM     49  N   UNL A   1      44.495  26.409  29.309  1.00  0.00    -0.248 NA
ATOM     50  C   UNL A   1      45.285  24.390  28.440  1.00  0.00     0.031 C 
ATOM     51  C   UNL A   1      46.969  29.336  31.537  1.00  0.00     0.029 A 
ATOM     52  C   UNL A   1      46.219  28.415  30.823  1.00  0.00     0.049 A 
ATOM     53  H   UNL A   1      44.188  28.515  30.254  1.00  0.00     0.167 HD
ATOM     54  C   UNL A   1      45.842  26.284  29.611  1.00  0.00     0.074 A 
ATOM     55  C   UNL A   1      46.273  25.009  29.073  1.00  0.00     0.031 C 
ATOM     56  C   UNL A   1      46.642  27.148  30.279  1.00  0.00     0.037 A 
BRANCH  43  57
ATOM     57  C   UNL A   1      43.855  32.370  32.061  1.00  0.00     0.057 A 
ATOM     58  C   UNL A   1      44.338  33.488  31.371  1.00  0.00     0.134 A 
ATOM     59  C   UNL A   1      43.512  32.536  33.409  1.00  0.00     0.134 A 
ATOM     60  F   UNL A   1      44.680  33.396  30.077  1.00  0.00    -0.206 F 
ATOM     61  C   UNL A   1      44.487  34.723  32.001  1.00  0.00     0.040 A 
ATOM     62  C   UNL A   1      43.631  33.773  34.042  1.00  0.00     0.040 A 
ATOM     63  F   UNL A   1      43.021  31.509  34.118  1.00  0.00    -0.206 F 
ATOM     64  C   UNL A   1      44.130  34.870  33.340  1.00  0.00     0.006 A 
ENDBRANCH  43  57
BRANCH  44  65
ATOM     65  C   UNL A   1      42.627  23.611  27.442  1.00  0.00     0.057 A 
ATOM     66  C   UNL A   1      42.713  23.502  26.048  1.00  0.00     0.134 A 
ATOM     67  C   UNL A   1      42.319  22.449  28.158  1.00  0.00     0.134 A 
ATOM     68  F   UNL A   1      43.001  24.577  25.300  1.00  0.00    -0.206 F 
ATOM     69  C   UNL A   1      42.484  22.291  25.390  1.00  0.00     0.040 A 
ATOM     70  C   UNL A   1      42.110  21.226  27.517  1.00  0.00     0.040 A 
ATOM     71  F   UNL A   1      42.239  22.484  29.496  1.00  0.00    -0.206 F 
ATOM     72  C   UNL A   1      42.184  21.146  26.127  1.00  0.00     0.006 A 
ENDBRANCH  44  65
BRANCH  56  73
ATOM     73  C   UNL A   1      48.073  26.752  30.484  1.00  0.00     0.057 A 
ATOM     74  C   UNL A   1      49.051  27.101  29.542  1.00  0.00     0.134 A 
ATOM     75  C   UNL A   1      48.468  25.946  31.559  1.00  0.00     0.134 A 
ATOM     76  F   UNL A   1      48.737  27.865  28.485  1.00  0.00    -0.206 F 
ATOM     77  C   UNL A   1      50.363  26.640  29.649  1.00  0.00     0.040 A 
ATOM     78  C   UNL A   1      49.784  25.503  31.691  1.00  0.00     0.040 A 
ATOM     79  F   UNL A   1      47.582  25.589  32.501  1.00  0.00    -0.206 F 
ATOM     80  C   UNL A   1      50.733  25.838  30.726  1.00  0.00     0.006 A 
ENDBRANCH  56  73
ENDBRANCH  30  31
ENDBRANCH  23  25
ENDBRANCH  22  23
ENDBRANCH  21  22
ENDBRANCH   1  21
TORSDOF 15
ENDMDL
MODEL 3
REMARK VINA RESULT:      -9.4      4.667     11.112
REMARK SMILES COc1ccc(CC(=O)N[C@H](C)C(=O)OCCOC(=O)c2ccc(-c3c4nc(c(-c5c(F)cccc5F)c5ccc([nH]5)c(-c5c(F)cccc5F)c5nc(c(-c6c(F)cccc6F)c6ccc3[nH]6)C=C5)C=C4)cc2)cc1F
REMARK SMILES IDX 16 1 15 2 13 3 14 4 11 5 12 6 10 7 8 8 9 9 7 11 6 12 3 13
REMARK SMILES IDX 4 14 76 15 5 16 75 17 77 18 2 19 1 20 17 21 18 22 19 23
REMARK SMILES IDX 20 24 21 25 22 26 74 27 23 28 73 29 24 30 25 31 26 32 67 33
REMARK SMILES IDX 27 34 72 35 66 36 68 37 28 38 71 39 65 40 64 41 29 43 55 44
REMARK SMILES IDX 38 45 54 46 39 47 42 48 53 49 69 50 40 51 41 52 52 54 70 55
REMARK SMILES IDX 43 56 30 57 31 58 36 59 32 60 33 61 35 62 37 63 34 64 56 65
REMARK SMILES IDX 57 66 62 67 58 68 59 69 61 70 63 71 60 72 44 73 45 74 50 75
REMARK SMILES IDX 46 76 47 77 49 78 51 79 48 80
REMARK H PARENT 10 10 68 42 42 53
REMARK Flexibility Score: inf
ROOT
ATOM      1  C   UNL A   1      41.400  19.358  26.385  1.00  0.00     0.274 C 
ENDROOT
BRANCH   1   2
ATOM      2  O   UNL A   1      42.197  19.460  25.188  1.00  0.00    -0.461 OA
BRANCH   2   3
ATOM      3  C   UNL A   1      43.482  19.062  25.366  1.00  0.00     0.328 C 
ATOM      4  O   UNL A   1      43.769  17.923  25.702  1.00  0.00    -0.250 OA
BRANCH   3   5
ATOM      5  C   UNL A   1      44.538  20.162  25.181  1.00  0.00     0.189 C 
ATOM      6  C   UNL A   1      45.724  19.750  24.316  1.00  0.00     0.043 C 
BRANCH   5   7
ATOM      7  N   UNL A   1      43.902  21.382  24.680  1.00  0.00    -0.343 N 
ATOM      8  C   UNL A   1      44.206  22.691  24.927  1.00  0.00     0.225 C 
ATOM      9  O   UNL A   1      43.441  23.550  24.479  1.00  0.00    -0.275 OA
ATOM     10  H   UNL A   1      43.142  21.237  24.073  1.00  0.00     0.164 HD
BRANCH   8  11
ATOM     11  C   UNL A   1      45.466  23.089  25.683  1.00  0.00     0.135 C 
BRANCH  11  12
ATOM     12  C   UNL A   1      45.223  23.635  27.069  1.00  0.00    -0.036 A 
ATOM     13  C   UNL A   1      44.953  24.477  29.771  1.00  0.00     0.154 A 
ATOM     14  C   UNL A   1      43.932  23.768  29.140  1.00  0.00     0.050 A 
ATOM     15  C   UNL A   1      46.095  24.751  29.033  1.00  0.00     0.165 A 
ATOM     16  C   UNL A   1      44.062  23.347  27.802  1.00  0.00     0.008 A 
ATOM     17  C   UNL A   1      46.215  24.395  27.687  1.00  0.00     0.047 A 
ATOM     18  F   UNL A   1      47.148  25.324  29.621  1.00  0.00    -0.203 F 
BRANCH  13  19
ATOM     19  O   UNL A   1      44.744  24.818  31.081  1.00  0.00    -0.494 OA
ATOM     20  C   UNL A   1      44.129  26.088  31.312  1.00  0.00     0.278 C 
ENDBRANCH  13  19
ENDBRANCH  11  12
ENDBRANCH   8  11
ENDBRANCH   5   7
ENDBRANCH   3   5
ENDBRANCH   2   3
ENDBRANCH   1   2
BRANCH   1  21
ATOM     21  C   UNL A   1      41.179  20.725  27.047  1.00  0.00     0.275 C 
BRANCH  21  22
ATOM     22  O   UNL A   1      41.015  21.814  26.110  1.00  0.00    -0.458 OA
BRANCH  22  23
ATOM     23  C   UNL A   1      39.909  22.580  26.278  1.00  0.00     0.338 C 
ATOM     24  O   UNL A   1      38.749  22.197  26.214  1.00  0.00    -0.246 OA
BRANCH  23  25
ATOM     25  C   UNL A   1      40.259  23.951  26.718  1.00  0.00     0.060 A 
ATOM     26  C   UNL A   1      40.288  24.215  28.094  1.00  0.00     0.016 A 
ATOM     27  C   UNL A   1      40.531  24.979  25.813  1.00  0.00     0.016 A 
ATOM     28  C   UNL A   1      40.655  25.479  28.572  1.00  0.00     0.010 A 
ATOM     29  C   UNL A   1      40.874  26.254  26.291  1.00  0.00     0.010 A 
ATOM     30  C   UNL A   1      40.966  26.508  27.674  1.00  0.00    -0.014 A 
BRANCH  30  31
ATOM     31  C   UNL A   1      41.287  27.872  28.176  1.00  0.00     0.031 A 
ATOM     32  C   UNL A   1      42.723  28.273  28.284  1.00  0.00     0.074 A 
ATOM     33  C   UNL A   1      40.330  28.757  28.520  1.00  0.00     0.049 A 
ATOM     34  N   UNL A   1      43.232  29.395  28.719  1.00  0.00    -0.248 NA
ATOM     35  C   UNL A   1      43.715  27.292  27.819  1.00  0.00     0.031 C 
ATOM     36  C   UNL A   1      38.903  28.546  28.358  1.00  0.00     0.029 A 
ATOM     37  N   UNL A   1      40.403  30.009  29.084  1.00  0.00    -0.354 N 
ATOM     38  C   UNL A   1      44.601  29.267  28.559  1.00  0.00     0.074 A 
ATOM     39  C   UNL A   1      44.849  27.944  28.025  1.00  0.00     0.031 C 
ATOM     40  C   UNL A   1      38.220  29.581  28.867  1.00  0.00     0.029 A 
ATOM     41  C   UNL A   1      39.172  30.551  29.385  1.00  0.00     0.049 A 
ATOM     42  H   UNL A   1      41.253  30.475  29.257  1.00  0.00     0.167 HD
ATOM     43  C   UNL A   1      45.561  30.182  28.822  1.00  0.00     0.037 A 
ATOM     44  C   UNL A   1      38.835  31.696  30.010  1.00  0.00     0.037 A 
ATOM     45  C   UNL A   1      45.311  31.481  29.385  1.00  0.00     0.049 A 
ATOM     46  C   UNL A   1      39.928  32.637  30.421  1.00  0.00     0.074 A 
ATOM     47  C   UNL A   1      46.225  32.471  29.696  1.00  0.00     0.029 A 
ATOM     48  N   UNL A   1      44.060  31.964  29.743  1.00  0.00    -0.354 N 
ATOM     49  N   UNL A   1      41.220  32.517  30.242  1.00  0.00    -0.248 NA
ATOM     50  C   UNL A   1      39.526  33.876  31.101  1.00  0.00     0.031 C 
ATOM     51  C   UNL A   1      45.537  33.525  30.301  1.00  0.00     0.029 A 
ATOM     52  C   UNL A   1      44.184  33.222  30.309  1.00  0.00     0.049 A 
ATOM     53  H   UNL A   1      43.210  31.484  29.613  1.00  0.00     0.167 HD
ATOM     54  C   UNL A   1      41.786  33.672  30.756  1.00  0.00     0.074 A 
ATOM     55  C   UNL A   1      40.694  34.487  31.250  1.00  0.00     0.031 C 
ATOM     56  C   UNL A   1      43.093  34.024  30.805  1.00  0.00     0.037 A 
BRANCH  43  57
ATOM     57  C   UNL A   1      46.976  29.787  28.530  1.00  0.00     0.057 A 
ATOM     58  C   UNL A   1      47.554  30.075  27.287  1.00  0.00     0.134 A 
ATOM     59  C   UNL A   1      47.760  29.103  29.468  1.00  0.00     0.134 A 
ATOM     60  F   UNL A   1      46.857  30.732  26.348  1.00  0.00    -0.206 F 
ATOM     61  C   UNL A   1      48.857  29.683  26.983  1.00  0.00     0.040 A 
ATOM     62  C   UNL A   1      49.074  28.730  29.185  1.00  0.00     0.040 A 
ATOM     63  F   UNL A   1      47.272  28.819  30.685  1.00  0.00    -0.206 F 
ATOM     64  C   UNL A   1      49.623  29.012  27.935  1.00  0.00     0.006 A 
ENDBRANCH  43  57
BRANCH  44  65
ATOM     65  C   UNL A   1      37.405  32.015  30.258  1.00  0.00     0.057 A 
ATOM     66  C   UNL A   1      36.663  32.787  29.354  1.00  0.00     0.134 A 
ATOM     67  C   UNL A   1      36.752  31.581  31.417  1.00  0.00     0.134 A 
ATOM     68  F   UNL A   1      37.228  33.239  28.225  1.00  0.00    -0.206 F 
ATOM     69  C   UNL A   1      35.331  33.129  29.600  1.00  0.00     0.040 A 
ATOM     70  C   UNL A   1      35.414  31.895  31.666  1.00  0.00     0.040 A 
ATOM     71  F   UNL A   1      37.402  30.825  32.313  1.00  0.00    -0.206 F 
ATOM     72  C   UNL A   1      34.702  32.679  30.760  1.00  0.00     0.006 A 
ENDBRANCH  44  65
BRANCH  56  73
ATOM     73  C   UNL A   1      43.431  35.355  31.407  1.00  0.00     0.057 A 
ATOM     74  C   UNL A   1      43.638  36.474  30.589  1.00  0.00     0.134 A 
ATOM     75  C   UNL A   1      43.645  35.508  32.782  1.00  0.00     0.134 A 
ATOM     76  F   UNL A   1      43.456  36.393  29.263  1.00  0.00    -0.206 F 
ATOM     77  C   UNL A   1      44.072  37.691  31.116  1.00  0.00     0.040 A 
ATOM     78  C   UNL A   1      44.052  36.728  33.324  1.00  0.00     0.040 A 
ATOM     79  F   UNL A   1      43.451  34.478  33.619  1.00  0.00    -0.206 F 
ATOM     80  C   UNL A   1      44.280  37.820  32.487  1.00  0.00     0.006 A 
ENDBRANCH  56  73
ENDBRANCH  30  31
ENDBRANCH  23  25
ENDBRANCH  22  23
ENDBRANCH  21  22
ENDBRANCH   1  21
TORSDOF 15
ENDMDL
