MODEL 1
REMARK VINA RESULT:     -11.5      0.000      0.000
REMARK SMILES C[C@@H](C(=O)OCCOC(=O)c1ccc(-c2c3nc(c(-c4c(F)cccc4F)c4ccc([nH]4)c(-c4c(F)cccc4F)c4nc(c(-c5c(F)cccc5F)c5ccc2[nH]5)C=C4)C=C3)cc1)c1ccc(C[C@@H]2CCC[C@@H]2O)cc1
REMARK SMILES IDX 6 1 5 2 3 3 4 4 2 5 1 6 65 7 66 8 77 9 67 10 76 11 68 12
REMARK SMILES IDX 69 13 70 14 71 15 74 16 72 17 73 18 75 19 7 21 8 22 9 23
REMARK SMILES IDX 10 24 11 25 12 26 64 27 13 28 63 29 14 30 15 31 16 32 57 33
REMARK SMILES IDX 17 34 62 35 56 36 58 37 18 38 61 39 55 40 54 41 19 43 45 44
REMARK SMILES IDX 28 45 44 46 29 47 32 48 43 49 59 50 30 51 31 52 42 54 60 55
REMARK SMILES IDX 33 56 20 57 21 58 26 59 22 60 23 61 25 62 27 63 24 64 46 65
REMARK SMILES IDX 47 66 52 67 48 68 49 69 51 70 53 71 50 72 34 73 35 74 40 75
REMARK SMILES IDX 36 76 37 77 39 78 41 79 38 80
REMARK H PARENT 75 20 58 42 32 53
REMARK Flexibility Score: inf
ROOT
ATOM      1  C   UNL A   1      34.452  33.872  29.816  1.00  0.00     0.274 C 
ENDROOT
BRANCH   1   2
ATOM      2  O   UNL A   1      34.051  32.644  29.173  1.00  0.00    -0.462 OA
BRANCH   2   3
ATOM      3  C   UNL A   1      34.823  32.213  28.138  1.00  0.00     0.313 C 
ATOM      4  O   UNL A   1      35.492  32.958  27.428  1.00  0.00    -0.252 OA
BRANCH   3   5
ATOM      5  C   UNL A   1      34.726  30.694  27.923  1.00  0.00     0.126 C 
ATOM      6  C   UNL A   1      36.075  30.050  27.577  1.00  0.00     0.025 C 
BRANCH   5   7
ATOM      7  C   UNL A   1      33.602  30.332  26.950  1.00  0.00    -0.034 A 
ATOM      8  C   UNL A   1      32.432  31.112  26.935  1.00  0.00     0.005 A 
ATOM      9  C   UNL A   1      33.689  29.269  26.041  1.00  0.00     0.005 A 
ATOM     10  C   UNL A   1      31.397  30.849  26.032  1.00  0.00     0.004 A 
ATOM     11  C   UNL A   1      32.643  28.994  25.151  1.00  0.00     0.004 A 
ATOM     12  C   UNL A   1      31.488  29.785  25.131  1.00  0.00    -0.048 A 
BRANCH  12  13
ATOM     13  C   UNL A   1      30.404  29.529  24.110  1.00  0.00     0.041 C 
BRANCH  13  14
ATOM     14  C   UNL A   1      29.712  30.731  23.441  1.00  0.00     0.022 C 
ATOM     15  C   UNL A   1      28.294  31.015  23.936  1.00  0.00     0.007 C 
ATOM     16  C   UNL A   1      29.526  30.670  21.923  1.00  0.00     0.117 C 
ATOM     17  C   UNL A   1      27.348  30.343  22.939  1.00  0.00     0.003 C 
ATOM     18  C   UNL A   1      28.190  29.967  21.722  1.00  0.00     0.032 C 
BRANCH  16  19
ATOM     19  O   UNL A   1      30.579  30.020  21.241  1.00  0.00    -0.393 OA
ATOM     20  H   UNL A   1      30.533  30.233  20.295  1.00  0.00     0.210 HD
ENDBRANCH  16  19
ENDBRANCH  13  14
ENDBRANCH  12  13
ENDBRANCH   5   7
ENDBRANCH   3   5
ENDBRANCH   2   3
ENDBRANCH   1   2
BRANCH   1  21
ATOM     21  C   UNL A   1      34.404  33.698  31.331  1.00  0.00     0.275 C 
BRANCH  21  22
ATOM     22  O   UNL A   1      34.689  32.325  31.649  1.00  0.00    -0.458 OA
BRANCH  22  23
ATOM     23  C   UNL A   1      35.746  32.104  32.465  1.00  0.00     0.338 C 
ATOM     24  O   UNL A   1      35.853  32.417  33.638  1.00  0.00    -0.246 OA
BRANCH  23  25
ATOM     25  C   UNL A   1      36.808  31.404  31.715  1.00  0.00     0.060 A 
ATOM     26  C   UNL A   1      37.396  30.253  32.230  1.00  0.00     0.016 A 
ATOM     27  C   UNL A   1      37.295  31.960  30.530  1.00  0.00     0.016 A 
ATOM     28  C   UNL A   1      38.525  29.715  31.612  1.00  0.00     0.010 A 
ATOM     29  C   UNL A   1      38.381  31.366  29.871  1.00  0.00     0.010 A 
ATOM     30  C   UNL A   1      39.048  30.262  30.431  1.00  0.00    -0.014 A 
BRANCH  30  31
ATOM     31  C   UNL A   1      40.323  29.742  29.840  1.00  0.00     0.031 A 
ATOM     32  C   UNL A   1      41.555  30.616  29.800  1.00  0.00     0.074 A 
ATOM     33  C   UNL A   1      40.429  28.478  29.380  1.00  0.00     0.049 A 
ATOM     34  N   UNL A   1      42.673  30.445  29.135  1.00  0.00    -0.248 NA
ATOM     35  C   UNL A   1      41.525  31.849  30.601  1.00  0.00     0.031 C 
ATOM     36  C   UNL A   1      39.371  27.469  29.403  1.00  0.00     0.029 A 
ATOM     37  N   UNL A   1      41.498  27.818  28.820  1.00  0.00    -0.354 N 
ATOM     38  C   UNL A   1      43.428  31.591  29.356  1.00  0.00     0.074 A 
ATOM     39  C   UNL A   1      42.659  32.436  30.245  1.00  0.00     0.031 C 
ATOM     40  C   UNL A   1      39.861  26.304  28.953  1.00  0.00     0.029 A 
ATOM     41  C   UNL A   1      41.234  26.508  28.503  1.00  0.00     0.049 A 
ATOM     42  H   UNL A   1      42.372  28.245  28.663  1.00  0.00     0.167 HD
ATOM     43  C   UNL A   1      44.645  31.914  28.856  1.00  0.00     0.037 A 
ATOM     44  C   UNL A   1      41.983  25.580  27.878  1.00  0.00     0.037 A 
ATOM     45  C   UNL A   1      45.462  31.040  28.054  1.00  0.00     0.049 A 
ATOM     46  C   UNL A   1      43.338  25.948  27.345  1.00  0.00     0.074 A 
ATOM     47  C   UNL A   1      46.709  31.287  27.502  1.00  0.00     0.029 A 
ATOM     48  N   UNL A   1      45.132  29.737  27.722  1.00  0.00    -0.354 N 
ATOM     49  N   UNL A   1      43.982  27.085  27.442  1.00  0.00    -0.248 NA
ATOM     50  C   UNL A   1      44.052  24.915  26.579  1.00  0.00     0.031 C 
ATOM     51  C   UNL A   1      47.129  30.135  26.829  1.00  0.00     0.029 A 
ATOM     52  C   UNL A   1      46.155  29.163  26.985  1.00  0.00     0.049 A 
ATOM     53  H   UNL A   1      44.294  29.285  27.974  1.00  0.00     0.167 HD
ATOM     54  C   UNL A   1      45.165  26.910  26.738  1.00  0.00     0.074 A 
ATOM     55  C   UNL A   1      45.170  25.548  26.251  1.00  0.00     0.031 C 
ATOM     56  C   UNL A   1      46.150  27.810  26.500  1.00  0.00     0.037 A 
BRANCH  43  57
ATOM     57  C   UNL A   1      45.164  33.295  29.127  1.00  0.00     0.057 A 
ATOM     58  C   UNL A   1      46.024  33.575  30.194  1.00  0.00     0.134 A 
ATOM     59  C   UNL A   1      44.833  34.352  28.267  1.00  0.00     0.134 A 
ATOM     60  F   UNL A   1      46.369  32.609  31.059  1.00  0.00    -0.206 F 
ATOM     61  C   UNL A   1      46.525  34.861  30.405  1.00  0.00     0.040 A 
ATOM     62  C   UNL A   1      45.344  35.636  28.455  1.00  0.00     0.040 A 
ATOM     63  F   UNL A   1      44.018  34.147  27.221  1.00  0.00    -0.206 F 
ATOM     64  C   UNL A   1      46.191  35.894  29.530  1.00  0.00     0.006 A 
ENDBRANCH  43  57
BRANCH  44  65
ATOM     65  C   UNL A   1      41.441  24.214  27.665  1.00  0.00     0.057 A 
ATOM     66  C   UNL A   1      41.888  23.135  28.436  1.00  0.00     0.134 A 
ATOM     67  C   UNL A   1      40.463  23.959  26.698  1.00  0.00     0.134 A 
ATOM     68  F   UNL A   1      42.845  23.315  29.358  1.00  0.00    -0.206 F 
ATOM     69  C   UNL A   1      41.379  21.848  28.252  1.00  0.00     0.040 A 
ATOM     70  C   UNL A   1      39.927  22.683  26.521  1.00  0.00     0.040 A 
ATOM     71  F   UNL A   1      39.997  24.952  25.926  1.00  0.00    -0.206 F 
ATOM     72  C   UNL A   1      40.388  21.623  27.298  1.00  0.00     0.006 A 
ENDBRANCH  44  65
BRANCH  56  73
ATOM     73  C   UNL A   1      47.314  27.345  25.680  1.00  0.00     0.057 A 
ATOM     74  C   UNL A   1      48.408  26.697  26.267  1.00  0.00     0.134 A 
ATOM     75  C   UNL A   1      47.333  27.527  24.293  1.00  0.00     0.134 A 
ATOM     76  F   UNL A   1      48.453  26.506  27.594  1.00  0.00    -0.206 F 
ATOM     77  C   UNL A   1      49.491  26.259  25.502  1.00  0.00     0.040 A 
ATOM     78  C   UNL A   1      48.403  27.079  23.515  1.00  0.00     0.040 A 
ATOM     79  F   UNL A   1      46.313  28.138  23.671  1.00  0.00    -0.206 F 
ATOM     80  C   UNL A   1      49.487  26.447  24.121  1.00  0.00     0.006 A 
ENDBRANCH  56  73
ENDBRANCH  30  31
ENDBRANCH  23  25
ENDBRANCH  22  23
ENDBRANCH  21  22
ENDBRANCH   1  21
TORSDOF 15
ENDMDL
MODEL 2
REMARK VINA RESULT:     -11.3      4.962      8.914
REMARK SMILES C[C@@H](C(=O)OCCOC(=O)c1ccc(-c2c3nc(c(-c4c(F)cccc4F)c4ccc([nH]4)c(-c4c(F)cccc4F)c4nc(c(-c5c(F)cccc5F)c5ccc2[nH]5)C=C4)C=C3)cc1)c1ccc(C[C@@H]2CCC[C@@H]2O)cc1
REMARK SMILES IDX 6 1 5 2 3 3 4 4 2 5 1 6 65 7 66 8 77 9 67 10 76 11 68 12
REMARK SMILES IDX 69 13 70 14 71 15 74 16 72 17 73 18 75 19 7 21 8 22 9 23
REMARK SMILES IDX 10 24 11 25 12 26 64 27 13 28 63 29 14 30 15 31 16 32 57 33
REMARK SMILES IDX 17 34 62 35 56 36 58 37 18 38 61 39 55 40 54 41 19 43 45 44
REMARK SMILES IDX 28 45 44 46 29 47 32 48 43 49 59 50 30 51 31 52 42 54 60 55
REMARK SMILES IDX 33 56 20 57 21 58 26 59 22 60 23 61 25 62 27 63 24 64 46 65
REMARK SMILES IDX 47 66 52 67 48 68 49 69 51 70 53 71 50 72 34 73 35 74 40 75
REMARK SMILES IDX 36 76 37 77 39 78 41 79 38 80
REMARK H PARENT 75 20 58 42 32 53
REMARK Flexibility Score: inf
ROOT
ATOM      1  C   UNL A   1      31.125  28.900  24.596  1.00  0.00     0.274 C 
ENDROOT
BRANCH   1   2
ATOM      2  O   UNL A   1      31.841  27.680  24.315  1.00  0.00    -0.462 OA
BRANCH   2   3
ATOM      3  C   UNL A   1      31.291  26.524  24.781  1.00  0.00     0.313 C 
ATOM      4  O   UNL A   1      30.105  26.234  24.657  1.00  0.00    -0.252 OA
BRANCH   3   5
ATOM      5  C   UNL A   1      32.308  25.645  25.526  1.00  0.00     0.126 C 
ATOM      6  C   UNL A   1      33.653  26.347  25.754  1.00  0.00     0.025 C 
BRANCH   5   7
ATOM      7  C   UNL A   1      32.435  24.261  24.887  1.00  0.00    -0.034 A 
ATOM      8  C   UNL A   1      31.784  23.169  25.486  1.00  0.00     0.005 A 
ATOM      9  C   UNL A   1      33.150  24.027  23.704  1.00  0.00     0.005 A 
ATOM     10  C   UNL A   1      31.832  21.893  24.914  1.00  0.00     0.004 A 
ATOM     11  C   UNL A   1      33.213  22.746  23.143  1.00  0.00     0.004 A 
ATOM     12  C   UNL A   1      32.550  21.665  23.737  1.00  0.00    -0.048 A 
BRANCH  12  13
ATOM     13  C   UNL A   1      32.558  20.307  23.076  1.00  0.00     0.041 C 
BRANCH  13  14
ATOM     14  C   UNL A   1      32.500  19.048  23.960  1.00  0.00     0.022 C 
ATOM     15  C   UNL A   1      33.670  18.891  24.934  1.00  0.00     0.007 C 
ATOM     16  C   UNL A   1      32.481  17.695  23.245  1.00  0.00     0.117 C 
ATOM     17  C   UNL A   1      34.672  17.957  24.253  1.00  0.00     0.003 C 
ATOM     18  C   UNL A   1      33.949  17.330  23.064  1.00  0.00     0.032 C 
BRANCH  16  19
ATOM     19  O   UNL A   1      31.778  17.702  22.020  1.00  0.00    -0.393 OA
ATOM     20  H   UNL A   1      31.388  16.827  21.865  1.00  0.00     0.210 HD
ENDBRANCH  16  19
ENDBRANCH  13  14
ENDBRANCH  12  13
ENDBRANCH   5   7
ENDBRANCH   3   5
ENDBRANCH   2   3
ENDBRANCH   1   2
BRANCH   1  21
ATOM     21  C   UNL A   1      31.541  29.436  25.963  1.00  0.00     0.275 C 
BRANCH  21  22
ATOM     22  O   UNL A   1      32.653  30.332  25.791  1.00  0.00    -0.458 OA
BRANCH  22  23
ATOM     23  C   UNL A   1      32.909  31.176  26.817  1.00  0.00     0.338 C 
ATOM     24  O   UNL A   1      32.183  32.053  27.251  1.00  0.00    -0.246 OA
BRANCH  23  25
ATOM     25  C   UNL A   1      34.248  30.888  27.368  1.00  0.00     0.060 A 
ATOM     26  C   UNL A   1      34.646  29.577  27.610  1.00  0.00     0.016 A 
ATOM     27  C   UNL A   1      35.079  31.945  27.746  1.00  0.00     0.016 A 
ATOM     28  C   UNL A   1      35.827  29.328  28.309  1.00  0.00     0.010 A 
ATOM     29  C   UNL A   1      36.305  31.683  28.376  1.00  0.00     0.010 A 
ATOM     30  C   UNL A   1      36.674  30.370  28.716  1.00  0.00    -0.014 A 
BRANCH  30  31
ATOM     31  C   UNL A   1      37.881  30.095  29.560  1.00  0.00     0.031 A 
ATOM     32  C   UNL A   1      39.046  29.318  28.993  1.00  0.00     0.074 A 
ATOM     33  C   UNL A   1      37.992  30.571  30.818  1.00  0.00     0.049 A 
ATOM     34  N   UNL A   1      40.068  28.781  29.616  1.00  0.00    -0.248 NA
ATOM     35  C   UNL A   1      39.061  29.105  27.537  1.00  0.00     0.031 C 
ATOM     36  C   UNL A   1      37.004  31.400  31.508  1.00  0.00     0.029 A 
ATOM     37  N   UNL A   1      39.007  30.441  31.737  1.00  0.00    -0.354 N 
ATOM     38  C   UNL A   1      40.783  28.086  28.648  1.00  0.00     0.074 A 
ATOM     39  C   UNL A   1      40.101  28.296  27.389  1.00  0.00     0.031 C 
ATOM     40  C   UNL A   1      37.489  31.764  32.704  1.00  0.00     0.029 A 
ATOM     41  C   UNL A   1      38.773  31.104  32.917  1.00  0.00     0.049 A 
ATOM     42  H   UNL A   1      39.825  29.920  31.565  1.00  0.00     0.167 HD
ATOM     43  C   UNL A   1      41.900  27.332  28.795  1.00  0.00     0.037 A 
ATOM     44  C   UNL A   1      39.477  31.146  34.064  1.00  0.00     0.037 A 
ATOM     45  C   UNL A   1      42.643  27.198  30.021  1.00  0.00     0.049 A 
ATOM     46  C   UNL A   1      40.722  30.319  34.206  1.00  0.00     0.074 A 
ATOM     47  C   UNL A   1      43.786  26.452  30.262  1.00  0.00     0.029 A 
ATOM     48  N   UNL A   1      42.342  27.856  31.202  1.00  0.00    -0.354 N 
ATOM     49  N   UNL A   1      41.310  29.553  33.320  1.00  0.00    -0.248 NA
ATOM     50  C   UNL A   1      41.379  30.331  35.523  1.00  0.00     0.031 C 
ATOM     51  C   UNL A   1      44.171  26.652  31.592  1.00  0.00     0.029 A 
ATOM     52  C   UNL A   1      43.282  27.543  32.170  1.00  0.00     0.049 A 
ATOM     53  H   UNL A   1      41.573  28.457  31.334  1.00  0.00     0.167 HD
ATOM     54  C   UNL A   1      42.392  28.980  33.976  1.00  0.00     0.074 A 
ATOM     55  C   UNL A   1      42.404  29.515  35.320  1.00  0.00     0.031 C 
ATOM     56  C   UNL A   1      43.284  28.074  33.507  1.00  0.00     0.037 A 
BRANCH  43  57
ATOM     57  C   UNL A   1      42.375  26.552  27.605  1.00  0.00     0.057 A 
ATOM     58  C   UNL A   1      43.282  27.078  26.680  1.00  0.00     0.134 A 
ATOM     59  C   UNL A   1      41.951  25.229  27.418  1.00  0.00     0.134 A 
ATOM     60  F   UNL A   1      43.715  28.342  26.799  1.00  0.00    -0.206 F 
ATOM     61  C   UNL A   1      43.740  26.320  25.600  1.00  0.00     0.040 A 
ATOM     62  C   UNL A   1      42.418  24.454  26.355  1.00  0.00     0.040 A 
ATOM     63  F   UNL A   1      41.088  24.663  28.275  1.00  0.00    -0.206 F 
ATOM     64  C   UNL A   1      43.314  25.003  25.440  1.00  0.00     0.006 A 
ENDBRANCH  43  57
BRANCH  44  65
ATOM     65  C   UNL A   1      38.986  31.962  35.202  1.00  0.00     0.057 A 
ATOM     66  C   UNL A   1      38.240  31.381  36.234  1.00  0.00     0.134 A 
ATOM     67  C   UNL A   1      39.256  33.332  35.290  1.00  0.00     0.134 A 
ATOM     68  F   UNL A   1      37.925  30.078  36.188  1.00  0.00    -0.206 F 
ATOM     69  C   UNL A   1      37.779  32.136  37.314  1.00  0.00     0.040 A 
ATOM     70  C   UNL A   1      38.826  34.093  36.376  1.00  0.00     0.040 A 
ATOM     71  F   UNL A   1      39.964  33.946  34.329  1.00  0.00    -0.206 F 
ATOM     72  C   UNL A   1      38.081  33.495  37.391  1.00  0.00     0.006 A 
ENDBRANCH  44  65
BRANCH  56  73
ATOM     73  C   UNL A   1      44.346  27.609  34.454  1.00  0.00     0.057 A 
ATOM     74  C   UNL A   1      44.171  26.466  35.243  1.00  0.00     0.134 A 
ATOM     75  C   UNL A   1      45.561  28.295  34.563  1.00  0.00     0.134 A 
ATOM     76  F   UNL A   1      43.023  25.774  35.192  1.00  0.00    -0.206 F 
ATOM     77  C   UNL A   1      45.164  26.028  36.122  1.00  0.00     0.040 A 
ATOM     78  C   UNL A   1      46.568  27.859  35.427  1.00  0.00     0.040 A 
ATOM     79  F   UNL A   1      45.790  29.397  33.832  1.00  0.00    -0.206 F 
ATOM     80  C   UNL A   1      46.368  26.725  36.212  1.00  0.00     0.006 A 
ENDBRANCH  56  73
ENDBRANCH  30  31
ENDBRANCH  23  25
ENDBRANCH  22  23
ENDBRANCH  21  22
ENDBRANCH   1  21
TORSDOF 15
ENDMDL
MODEL 3
REMARK VINA RESULT:     -11.3      3.401      7.593
REMARK SMILES C[C@@H](C(=O)OCCOC(=O)c1ccc(-c2c3nc(c(-c4c(F)cccc4F)c4ccc([nH]4)c(-c4c(F)cccc4F)c4nc(c(-c5c(F)cccc5F)c5ccc2[nH]5)C=C4)C=C3)cc1)c1ccc(C[C@@H]2CCC[C@@H]2O)cc1
REMARK SMILES IDX 6 1 5 2 3 3 4 4 2 5 1 6 65 7 66 8 77 9 67 10 76 11 68 12
REMARK SMILES IDX 69 13 70 14 71 15 74 16 72 17 73 18 75 19 7 21 8 22 9 23
REMARK SMILES IDX 10 24 11 25 12 26 64 27 13 28 63 29 14 30 15 31 16 32 57 33
REMARK SMILES IDX 17 34 62 35 56 36 58 37 18 38 61 39 55 40 54 41 19 43 45 44
REMARK SMILES IDX 28 45 44 46 29 47 32 48 43 49 59 50 30 51 31 52 42 54 60 55
REMARK SMILES IDX 33 56 20 57 21 58 26 59 22 60 23 61 25 62 27 63 24 64 46 65
REMARK SMILES IDX 47 66 52 67 48 68 49 69 51 70 53 71 50 72 34 73 35 74 40 75
REMARK SMILES IDX 36 76 37 77 39 78 41 79 38 80
REMARK H PARENT 75 20 58 42 32 53
REMARK Flexibility Score: inf
ROOT
ATOM      1  C   UNL A   1      34.623  20.700  24.809  1.00  0.00     0.274 C 
ENDROOT
BRANCH   1   2
ATOM      2  O   UNL A   1      34.574  22.111  25.103  1.00  0.00    -0.462 OA
BRANCH   2   3
ATOM      3  C   UNL A   1      33.477  22.791  24.667  1.00  0.00     0.313 C 
ATOM      4  O   UNL A   1      32.379  22.274  24.489  1.00  0.00    -0.252 OA
BRANCH   3   5
ATOM      5  C   UNL A   1      33.779  24.269  24.373  1.00  0.00     0.126 C 
ATOM      6  C   UNL A   1      34.783  24.883  25.357  1.00  0.00     0.025 C 
BRANCH   5   7
ATOM      7  C   UNL A   1      32.496  25.087  24.211  1.00  0.00    -0.034 A 
ATOM      8  C   UNL A   1      31.831  25.553  25.358  1.00  0.00     0.005 A 
ATOM      9  C   UNL A   1      31.957  25.425  22.962  1.00  0.00     0.005 A 
ATOM     10  C   UNL A   1      30.681  26.343  25.260  1.00  0.00     0.004 A 
ATOM     11  C   UNL A   1      30.794  26.199  22.865  1.00  0.00     0.004 A 
ATOM     12  C   UNL A   1      30.147  26.674  24.012  1.00  0.00    -0.048 A 
BRANCH  12  13
ATOM     13  C   UNL A   1      28.942  27.577  23.891  1.00  0.00     0.041 C 
BRANCH  13  14
ATOM     14  C   UNL A   1      28.907  28.626  22.764  1.00  0.00     0.022 C 
ATOM     15  C   UNL A   1      29.938  29.748  22.898  1.00  0.00     0.007 C 
ATOM     16  C   UNL A   1      27.601  29.398  22.571  1.00  0.00     0.117 C 
ATOM     17  C   UNL A   1      29.211  30.922  23.556  1.00  0.00     0.003 C 
ATOM     18  C   UNL A   1      27.719  30.602  23.498  1.00  0.00     0.032 C 
BRANCH  16  19
ATOM     19  O   UNL A   1      26.439  28.637  22.832  1.00  0.00    -0.393 OA
ATOM     20  H   UNL A   1      25.717  28.942  22.261  1.00  0.00     0.210 HD
ENDBRANCH  16  19
ENDBRANCH  13  14
ENDBRANCH  12  13
ENDBRANCH   5   7
ENDBRANCH   3   5
ENDBRANCH   2   3
ENDBRANCH   1   2
BRANCH   1  21
ATOM     21  C   UNL A   1      36.048  20.186  24.995  1.00  0.00     0.275 C 
BRANCH  21  22
ATOM     22  O   UNL A   1      36.916  21.306  25.242  1.00  0.00    -0.458 OA
BRANCH  22  23
ATOM     23  C   UNL A   1      38.203  21.014  25.541  1.00  0.00     0.338 C 
ATOM     24  O   UNL A   1      38.793  19.969  25.328  1.00  0.00    -0.246 OA
BRANCH  23  25
ATOM     25  C   UNL A   1      38.832  22.179  26.194  1.00  0.00     0.060 A 
ATOM     26  C   UNL A   1      38.287  23.451  26.048  1.00  0.00     0.016 A 
ATOM     27  C   UNL A   1      40.041  22.018  26.875  1.00  0.00     0.016 A 
ATOM     28  C   UNL A   1      38.994  24.565  26.501  1.00  0.00     0.010 A 
ATOM     29  C   UNL A   1      40.705  23.136  27.399  1.00  0.00     0.010 A 
ATOM     30  C   UNL A   1      40.218  24.435  27.174  1.00  0.00    -0.014 A 
BRANCH  30  31
ATOM     31  C   UNL A   1      41.017  25.643  27.558  1.00  0.00     0.031 A 
ATOM     32  C   UNL A   1      40.428  26.685  28.480  1.00  0.00     0.074 A 
ATOM     33  C   UNL A   1      42.290  25.814  27.143  1.00  0.00     0.049 A 
ATOM     34  N   UNL A   1      40.856  27.896  28.746  1.00  0.00    -0.248 NA
ATOM     35  C   UNL A   1      39.190  26.325  29.189  1.00  0.00     0.031 C 
ATOM     36  C   UNL A   1      43.049  24.882  26.310  1.00  0.00     0.029 A 
ATOM     37  N   UNL A   1      43.182  26.832  27.390  1.00  0.00    -0.354 N 
ATOM     38  C   UNL A   1      39.891  28.471  29.564  1.00  0.00     0.074 A 
ATOM     39  C   UNL A   1      38.872  27.467  29.782  1.00  0.00     0.031 C 
ATOM     40  C   UNL A   1      44.306  25.331  26.176  1.00  0.00     0.029 A 
ATOM     41  C   UNL A   1      44.415  26.636  26.817  1.00  0.00     0.049 A 
ATOM     42  H   UNL A   1      42.956  27.626  27.927  1.00  0.00     0.167 HD
ATOM     43  C   UNL A   1      39.851  29.725  30.078  1.00  0.00     0.037 A 
ATOM     44  C   UNL A   1      45.502  27.430  26.765  1.00  0.00     0.037 A 
ATOM     45  C   UNL A   1      40.906  30.697  29.951  1.00  0.00     0.049 A 
ATOM     46  C   UNL A   1      45.449  28.810  27.355  1.00  0.00     0.074 A 
ATOM     47  C   UNL A   1      40.949  31.994  30.439  1.00  0.00     0.029 A 
ATOM     48  N   UNL A   1      42.119  30.467  29.325  1.00  0.00    -0.354 N 
ATOM     49  N   UNL A   1      44.472  29.392  28.007  1.00  0.00    -0.248 NA
ATOM     50  C   UNL A   1      46.636  29.658  27.165  1.00  0.00     0.031 C 
ATOM     51  C   UNL A   1      42.186  32.551  30.099  1.00  0.00     0.029 A 
ATOM     52  C   UNL A   1      42.922  31.592  29.424  1.00  0.00     0.049 A 
ATOM     53  H   UNL A   1      42.374  29.628  28.876  1.00  0.00     0.167 HD
ATOM     54  C   UNL A   1      44.919  30.676  28.288  1.00  0.00     0.074 A 
ATOM     55  C   UNL A   1      46.268  30.777  27.772  1.00  0.00     0.031 C 
ATOM     56  C   UNL A   1      44.260  31.687  28.903  1.00  0.00     0.037 A 
BRANCH  43  57
ATOM     57  C   UNL A   1      38.604  30.141  30.799  1.00  0.00     0.057 A 
ATOM     58  C   UNL A   1      38.438  29.953  32.175  1.00  0.00     0.134 A 
ATOM     59  C   UNL A   1      37.575  30.792  30.104  1.00  0.00     0.134 A 
ATOM     60  F   UNL A   1      39.382  29.326  32.893  1.00  0.00    -0.206 F 
ATOM     61  C   UNL A   1      37.284  30.384  32.833  1.00  0.00     0.040 A 
ATOM     62  C   UNL A   1      36.426  31.246  30.755  1.00  0.00     0.040 A 
ATOM     63  F   UNL A   1      37.677  31.010  28.785  1.00  0.00    -0.206 F 
ATOM     64  C   UNL A   1      36.278  31.038  32.124  1.00  0.00     0.006 A 
ENDBRANCH  43  57
BRANCH  44  65
ATOM     65  C   UNL A   1      46.727  26.959  26.071  1.00  0.00     0.057 A 
ATOM     66  C   UNL A   1      47.708  26.235  26.758  1.00  0.00     0.134 A 
ATOM     67  C   UNL A   1      46.940  27.212  24.712  1.00  0.00     0.134 A 
ATOM     68  F   UNL A   1      47.571  25.988  28.069  1.00  0.00    -0.206 F 
ATOM     69  C   UNL A   1      48.860  25.778  26.115  1.00  0.00     0.040 A 
ATOM     70  C   UNL A   1      48.073  26.739  24.050  1.00  0.00     0.040 A 
ATOM     71  F   UNL A   1      46.036  27.904  24.001  1.00  0.00    -0.206 F 
ATOM     72  C   UNL A   1      49.039  26.023  24.754  1.00  0.00     0.006 A 
ENDBRANCH  44  65
BRANCH  56  73
ATOM     73  C   UNL A   1      44.989  32.986  29.052  1.00  0.00     0.057 A 
ATOM     74  C   UNL A   1      45.805  33.242  30.161  1.00  0.00     0.134 A 
ATOM     75  C   UNL A   1      44.893  33.980  28.072  1.00  0.00     0.134 A 
ATOM     76  F   UNL A   1      45.926  32.333  31.140  1.00  0.00    -0.206 F 
ATOM     77  C   UNL A   1      46.490  34.451  30.298  1.00  0.00     0.040 A 
ATOM     78  C   UNL A   1      45.584  35.187  28.189  1.00  0.00     0.040 A 
ATOM     79  F   UNL A   1      44.128  33.794  26.985  1.00  0.00    -0.206 F 
ATOM     80  C   UNL A   1      46.382  35.426  29.307  1.00  0.00     0.006 A 
ENDBRANCH  56  73
ENDBRANCH  30  31
ENDBRANCH  23  25
ENDBRANCH  22  23
ENDBRANCH  21  22
ENDBRANCH   1  21
TORSDOF 15
ENDMDL
