MODEL 1
REMARK VINA RESULT:     -10.3      0.000      0.000
REMARK SMILES O=C(OCCOC(=O)[C@H]1CC[C@@H](CNC(=O)[C@@H]2CSc3ccccc32)O1)c1ccc(-c2c3nc(c(-c4c(F)cccc4F)c4ccc([nH]4)c(-c4c(F)cccc4F)c4nc(c(-c5c(F)cccc5F)c5ccc2[nH]5)C=C4)C=C3)cc1
REMARK SMILES IDX 5 1 4 2 3 3 2 4 1 5 27 6 28 7 80 8 29 9 79 10 30 11 31 12
REMARK SMILES IDX 32 13 73 14 33 15 78 16 72 17 74 18 34 19 77 20 71 21 70 22
REMARK SMILES IDX 35 24 61 25 44 26 60 27 45 28 48 29 59 30 75 31 46 32 47 33
REMARK SMILES IDX 58 35 76 36 49 37 36 38 37 39 42 40 38 41 39 42 41 43 43 44
REMARK SMILES IDX 40 45 62 46 63 47 68 48 64 49 65 50 67 51 69 52 66 53 50 54
REMARK SMILES IDX 51 55 56 56 52 57 53 58 55 59 57 60 54 61 6 62 7 63 8 64
REMARK SMILES IDX 9 65 10 66 26 67 11 68 12 69 13 70 14 71 15 72 16 74 17 75
REMARK SMILES IDX 18 76 25 77 19 78 20 79 24 80 21 81 23 82 22 83
REMARK H PARENT 74 23 48 34 14 73
REMARK Flexibility Score: inf
ROOT
ATOM      1  C   UNL A   1      33.504  33.929  28.345  1.00  0.00     0.274 C 
ENDROOT
BRANCH   1   2
ATOM      2  C   UNL A   1      34.630  32.962  27.986  1.00  0.00     0.275 C 
BRANCH   2   3
ATOM      3  O   UNL A   1      34.486  31.726  28.708  1.00  0.00    -0.458 OA
BRANCH   3   4
ATOM      4  C   UNL A   1      34.781  30.575  28.055  1.00  0.00     0.338 C 
ATOM      5  O   UNL A   1      33.949  29.882  27.489  1.00  0.00    -0.246 OA
BRANCH   4   6
ATOM      6  C   UNL A   1      36.123  30.050  28.381  1.00  0.00     0.060 A 
ATOM      7  C   UNL A   1      37.117  30.081  27.396  1.00  0.00     0.016 A 
ATOM      8  C   UNL A   1      36.423  29.597  29.667  1.00  0.00     0.016 A 
ATOM      9  C   UNL A   1      38.397  29.600  27.680  1.00  0.00     0.010 A 
ATOM     10  C   UNL A   1      37.701  29.123  29.953  1.00  0.00     0.010 A 
ATOM     11  C   UNL A   1      38.694  29.117  28.960  1.00  0.00    -0.014 A 
BRANCH  11  12
ATOM     12  C   UNL A   1      40.073  28.735  29.332  1.00  0.00     0.031 A 
ATOM     13  C   UNL A   1      41.042  29.731  29.889  1.00  0.00     0.074 A 
ATOM     14  C   UNL A   1      40.468  27.478  29.061  1.00  0.00     0.049 A 
ATOM     15  N   UNL A   1      42.263  29.542  30.316  1.00  0.00    -0.248 NA
ATOM     16  C   UNL A   1      40.580  31.120  30.009  1.00  0.00     0.031 C 
ATOM     17  C   UNL A   1      39.620  26.431  28.489  1.00  0.00     0.029 A 
ATOM     18  N   UNL A   1      41.701  26.893  29.170  1.00  0.00    -0.354 N 
ATOM     19  C   UNL A   1      42.673  30.758  30.843  1.00  0.00     0.074 A 
ATOM     20  C   UNL A   1      41.593  31.698  30.640  1.00  0.00     0.031 C 
ATOM     21  C   UNL A   1      40.375  25.354  28.226  1.00  0.00     0.029 A 
ATOM     22  C   UNL A   1      41.756  25.652  28.589  1.00  0.00     0.049 A 
ATOM     23  H   UNL A   1      42.467  27.319  29.618  1.00  0.00     0.167 HD
ATOM     24  C   UNL A   1      43.851  31.059  31.435  1.00  0.00     0.037 A 
ATOM     25  C   UNL A   1      42.818  24.870  28.323  1.00  0.00     0.037 A 
ATOM     26  C   UNL A   1      44.979  30.169  31.465  1.00  0.00     0.049 A 
ATOM     27  C   UNL A   1      44.180  25.325  28.755  1.00  0.00     0.074 A 
ATOM     28  C   UNL A   1      46.219  30.352  32.050  1.00  0.00     0.029 A 
ATOM     29  N   UNL A   1      45.024  28.953  30.800  1.00  0.00    -0.354 N 
ATOM     30  N   UNL A   1      44.514  26.408  29.417  1.00  0.00    -0.248 NA
ATOM     31  C   UNL A   1      45.309  24.457  28.405  1.00  0.00     0.031 C 
ATOM     32  C   UNL A   1      47.040  29.285  31.665  1.00  0.00     0.029 A 
ATOM     33  C   UNL A   1      46.295  28.416  30.881  1.00  0.00     0.049 A 
ATOM     34  H   UNL A   1      44.263  28.534  30.338  1.00  0.00     0.167 HD
ATOM     35  C   UNL A   1      45.889  26.337  29.588  1.00  0.00     0.074 A 
ATOM     36  C   UNL A   1      46.325  25.108  28.954  1.00  0.00     0.031 C 
ATOM     37  C   UNL A   1      46.712  27.204  30.227  1.00  0.00     0.037 A 
BRANCH  24  38
ATOM     38  C   UNL A   1      43.989  32.410  32.063  1.00  0.00     0.057 A 
ATOM     39  C   UNL A   1      43.551  32.651  33.369  1.00  0.00     0.134 A 
ATOM     40  C   UNL A   1      44.512  33.492  31.341  1.00  0.00     0.134 A 
ATOM     41  F   UNL A   1      43.052  31.654  34.113  1.00  0.00    -0.206 F 
ATOM     42  C   UNL A   1      43.614  33.928  33.933  1.00  0.00     0.040 A 
ATOM     43  C   UNL A   1      44.587  34.771  31.897  1.00  0.00     0.040 A 
ATOM     44  F   UNL A   1      44.963  33.320  30.090  1.00  0.00    -0.206 F 
ATOM     45  C   UNL A   1      44.131  34.992  33.195  1.00  0.00     0.006 A 
ENDBRANCH  24  38
BRANCH  25  46
ATOM     46  C   UNL A   1      42.625  23.620  27.556  1.00  0.00     0.057 A 
ATOM     47  C   UNL A   1      42.718  23.612  26.157  1.00  0.00     0.134 A 
ATOM     48  C   UNL A   1      42.318  22.415  28.192  1.00  0.00     0.134 A 
ATOM     49  F   UNL A   1      43.008  24.741  25.492  1.00  0.00    -0.206 F 
ATOM     50  C   UNL A   1      42.496  22.452  25.417  1.00  0.00     0.040 A 
ATOM     51  C   UNL A   1      42.113  21.242  27.464  1.00  0.00     0.040 A 
ATOM     52  F   UNL A   1      42.231  22.360  29.528  1.00  0.00    -0.206 F 
ATOM     53  C   UNL A   1      42.195  21.260  26.072  1.00  0.00     0.006 A 
ENDBRANCH  25  46
BRANCH  37  54
ATOM     54  C   UNL A   1      48.163  26.843  30.276  1.00  0.00     0.057 A 
ATOM     55  C   UNL A   1      48.658  26.014  31.290  1.00  0.00     0.134 A 
ATOM     56  C   UNL A   1      49.073  27.329  29.329  1.00  0.00     0.134 A 
ATOM     57  F   UNL A   1      47.834  25.521  32.228  1.00  0.00    -0.206 F 
ATOM     58  C   UNL A   1      50.010  25.683  31.363  1.00  0.00     0.040 A 
ATOM     59  C   UNL A   1      50.424  26.988  29.380  1.00  0.00     0.040 A 
ATOM     60  F   UNL A   1      48.654  28.113  28.325  1.00  0.00    -0.206 F 
ATOM     61  C   UNL A   1      50.896  26.166  30.403  1.00  0.00     0.006 A 
ENDBRANCH  37  54
ENDBRANCH  11  12
ENDBRANCH   4   6
ENDBRANCH   3   4
ENDBRANCH   2   3
ENDBRANCH   1   2
BRANCH   1  62
ATOM     62  O   UNL A   1      34.057  35.125  28.917  1.00  0.00    -0.460 OA
BRANCH  62  63
ATOM     63  C   UNL A   1      33.149  36.004  29.439  1.00  0.00     0.335 C 
ATOM     64  O   UNL A   1      32.153  36.412  28.856  1.00  0.00    -0.249 OA
BRANCH  63  65
ATOM     65  C   UNL A   1      33.515  36.339  30.884  1.00  0.00     0.228 C 
ATOM     66  C   UNL A   1      32.310  36.363  31.810  1.00  0.00     0.047 C 
ATOM     67  O   UNL A   1      34.434  35.365  31.398  1.00  0.00    -0.361 OA
ATOM     68  C   UNL A   1      32.381  35.012  32.484  1.00  0.00     0.037 C 
ATOM     69  C   UNL A   1      33.883  34.805  32.599  1.00  0.00     0.138 C 
BRANCH  69  70
ATOM     70  C   UNL A   1      34.378  33.366  32.829  1.00  0.00     0.147 C 
BRANCH  70  71
ATOM     71  N   UNL A   1      35.286  33.209  33.953  1.00  0.00    -0.353 N 
ATOM     72  C   UNL A   1      36.539  32.737  34.121  1.00  0.00     0.228 C 
ATOM     73  H   UNL A   1      34.890  33.523  34.797  1.00  0.00     0.163 HD
ATOM     74  O   UNL A   1      36.906  32.720  35.307  1.00  0.00    -0.274 OA
BRANCH  72  75
ATOM     75  C   UNL A   1      37.470  32.173  33.049  1.00  0.00     0.120 C 
ATOM     76  C   UNL A   1      38.831  31.879  33.723  1.00  0.00     0.093 C 
ATOM     77  C   UNL A   1      37.850  33.008  31.854  1.00  0.00    -0.021 A 
ATOM     78  S   UNL A   1      39.809  33.415  33.554  1.00  0.00    -0.125 SA
ATOM     79  C   UNL A   1      39.001  33.785  32.026  1.00  0.00     0.011 A 
ATOM     80  C   UNL A   1      37.223  32.985  30.616  1.00  0.00     0.006 A 
ATOM     81  C   UNL A   1      39.469  34.624  31.026  1.00  0.00     0.015 A 
ATOM     82  C   UNL A   1      37.696  33.813  29.597  1.00  0.00     0.000 A 
ATOM     83  C   UNL A   1      38.796  34.648  29.806  1.00  0.00     0.001 A 
ENDBRANCH  72  75
ENDBRANCH  70  71
ENDBRANCH  69  70
ENDBRANCH  63  65
ENDBRANCH  62  63
ENDBRANCH   1  62
TORSDOF 14
ENDMDL
MODEL 2
REMARK VINA RESULT:     -10.3      1.755      6.323
REMARK SMILES O=C(OCCOC(=O)[C@H]1CC[C@@H](CNC(=O)[C@@H]2CSc3ccccc32)O1)c1ccc(-c2c3nc(c(-c4c(F)cccc4F)c4ccc([nH]4)c(-c4c(F)cccc4F)c4nc(c(-c5c(F)cccc5F)c5ccc2[nH]5)C=C4)C=C3)cc1
REMARK SMILES IDX 5 1 4 2 3 3 2 4 1 5 27 6 28 7 80 8 29 9 79 10 30 11 31 12
REMARK SMILES IDX 32 13 73 14 33 15 78 16 72 17 74 18 34 19 77 20 71 21 70 22
REMARK SMILES IDX 35 24 61 25 44 26 60 27 45 28 48 29 59 30 75 31 46 32 47 33
REMARK SMILES IDX 58 35 76 36 49 37 36 38 37 39 42 40 38 41 39 42 41 43 43 44
REMARK SMILES IDX 40 45 62 46 63 47 68 48 64 49 65 50 67 51 69 52 66 53 50 54
REMARK SMILES IDX 51 55 56 56 52 57 53 58 55 59 57 60 54 61 6 62 7 63 8 64
REMARK SMILES IDX 9 65 10 66 26 67 11 68 12 69 13 70 14 71 15 72 16 74 17 75
REMARK SMILES IDX 18 76 25 77 19 78 20 79 24 80 21 81 23 82 22 83
REMARK H PARENT 74 23 48 34 14 73
REMARK Flexibility Score: inf
ROOT
ATOM      1  C   UNL A   1      33.493  33.877  27.999  1.00  0.00     0.274 C 
ENDROOT
BRANCH   1   2
ATOM      2  C   UNL A   1      34.538  32.768  27.884  1.00  0.00     0.275 C 
BRANCH   2   3
ATOM      3  O   UNL A   1      33.964  31.495  28.227  1.00  0.00    -0.458 OA
BRANCH   3   4
ATOM      4  C   UNL A   1      34.495  30.388  27.652  1.00  0.00     0.338 C 
ATOM      5  O   UNL A   1      33.847  29.580  27.004  1.00  0.00    -0.246 OA
BRANCH   4   6
ATOM      6  C   UNL A   1      35.842  30.057  28.164  1.00  0.00     0.060 A 
ATOM      7  C   UNL A   1      35.961  29.530  29.455  1.00  0.00     0.016 A 
ATOM      8  C   UNL A   1      36.972  30.199  27.356  1.00  0.00     0.016 A 
ATOM      9  C   UNL A   1      37.220  29.200  29.961  1.00  0.00     0.010 A 
ATOM     10  C   UNL A   1      38.227  29.865  27.858  1.00  0.00     0.010 A 
ATOM     11  C   UNL A   1      38.359  29.368  29.164  1.00  0.00    -0.014 A 
BRANCH  11  12
ATOM     12  C   UNL A   1      39.685  28.897  29.618  1.00  0.00     0.031 A 
ATOM     13  C   UNL A   1      40.283  27.622  29.108  1.00  0.00     0.074 A 
ATOM     14  C   UNL A   1      40.302  29.600  30.584  1.00  0.00     0.049 A 
ATOM     15  N   UNL A   1      41.456  27.104  29.363  1.00  0.00    -0.248 NA
ATOM     16  C   UNL A   1      39.477  26.833  28.170  1.00  0.00     0.031 C 
ATOM     17  C   UNL A   1      39.797  30.839  31.180  1.00  0.00     0.029 A 
ATOM     18  N   UNL A   1      41.451  29.334  31.280  1.00  0.00    -0.354 N 
ATOM     19  C   UNL A   1      41.564  25.989  28.545  1.00  0.00     0.074 A 
ATOM     20  C   UNL A   1      40.320  25.871  27.818  1.00  0.00     0.031 C 
ATOM     21  C   UNL A   1      40.593  31.186  32.203  1.00  0.00     0.029 A 
ATOM     22  C   UNL A   1      41.640  30.180  32.343  1.00  0.00     0.049 A 
ATOM     23  H   UNL A   1      42.075  28.611  31.042  1.00  0.00     0.167 HD
ATOM     24  C   UNL A   1      42.608  25.139  28.421  1.00  0.00     0.037 A 
ATOM     25  C   UNL A   1      42.525  30.111  33.353  1.00  0.00     0.037 A 
ATOM     26  C   UNL A   1      43.761  25.163  29.279  1.00  0.00     0.049 A 
ATOM     27  C   UNL A   1      43.537  29.004  33.357  1.00  0.00     0.074 A 
ATOM     28  C   UNL A   1      44.892  24.367  29.242  1.00  0.00     0.029 A 
ATOM     29  N   UNL A   1      43.882  25.982  30.391  1.00  0.00    -0.354 N 
ATOM     30  N   UNL A   1      43.727  28.061  32.466  1.00  0.00    -0.248 NA
ATOM     31  C   UNL A   1      44.451  28.950  34.502  1.00  0.00     0.031 C 
ATOM     32  C   UNL A   1      45.655  24.647  30.383  1.00  0.00     0.029 A 
ATOM     33  C   UNL A   1      45.022  25.650  31.101  1.00  0.00     0.049 A 
ATOM     34  H   UNL A   1      43.251  26.694  30.639  1.00  0.00     0.167 HD
ATOM     35  C   UNL A   1      44.804  27.317  32.927  1.00  0.00     0.074 A 
ATOM     36  C   UNL A   1      45.218  27.916  34.181  1.00  0.00     0.031 C 
ATOM     37  C   UNL A   1      45.404  26.244  32.355  1.00  0.00     0.037 A 
BRANCH  24  38
ATOM     38  C   UNL A   1      42.536  24.098  27.349  1.00  0.00     0.057 A 
ATOM     39  C   UNL A   1      42.020  22.825  27.607  1.00  0.00     0.134 A 
ATOM     40  C   UNL A   1      43.038  24.349  26.064  1.00  0.00     0.134 A 
ATOM     41  F   UNL A   1      41.515  22.528  28.814  1.00  0.00    -0.206 F 
ATOM     42  C   UNL A   1      42.016  21.829  26.627  1.00  0.00     0.040 A 
ATOM     43  C   UNL A   1      43.033  23.364  25.074  1.00  0.00     0.040 A 
ATOM     44  F   UNL A   1      43.532  25.556  25.751  1.00  0.00    -0.206 F 
ATOM     45  C   UNL A   1      42.526  22.097  25.358  1.00  0.00     0.006 A 
ENDBRANCH  24  38
BRANCH  25  46
ATOM     46  C   UNL A   1      42.435  31.084  34.465  1.00  0.00     0.057 A 
ATOM     47  C   UNL A   1      43.152  32.288  34.426  1.00  0.00     0.134 A 
ATOM     48  C   UNL A   1      41.661  30.826  35.598  1.00  0.00     0.134 A 
ATOM     49  F   UNL A   1      43.915  32.588  33.365  1.00  0.00    -0.206 F 
ATOM     50  C   UNL A   1      43.112  33.195  35.484  1.00  0.00     0.040 A 
ATOM     51  C   UNL A   1      41.597  31.735  36.656  1.00  0.00     0.040 A 
ATOM     52  F   UNL A   1      40.943  29.697  35.683  1.00  0.00    -0.206 F 
ATOM     53  C   UNL A   1      42.329  32.920  36.603  1.00  0.00     0.006 A 
ENDBRANCH  25  46
BRANCH  37  54
ATOM     54  C   UNL A   1      46.576  25.662  33.081  1.00  0.00     0.057 A 
ATOM     55  C   UNL A   1      46.398  24.624  34.003  1.00  0.00     0.134 A 
ATOM     56  C   UNL A   1      47.875  26.140  32.878  1.00  0.00     0.134 A 
ATOM     57  F   UNL A   1      45.175  24.127  34.242  1.00  0.00    -0.206 F 
ATOM     58  C   UNL A   1      47.475  24.083  34.703  1.00  0.00     0.040 A 
ATOM     59  C   UNL A   1      48.964  25.593  33.557  1.00  0.00     0.040 A 
ATOM     60  F   UNL A   1      48.108  27.122  31.994  1.00  0.00    -0.206 F 
ATOM     61  C   UNL A   1      48.763  24.564  34.476  1.00  0.00     0.006 A 
ENDBRANCH  37  54
ENDBRANCH  11  12
ENDBRANCH   4   6
ENDBRANCH   3   4
ENDBRANCH   2   3
ENDBRANCH   1   2
BRANCH   1  62
ATOM     62  O   UNL A   1      33.408  34.323  29.362  1.00  0.00    -0.460 OA
BRANCH  62  63
ATOM     63  C   UNL A   1      33.027  35.624  29.534  1.00  0.00     0.335 C 
ATOM     64  O   UNL A   1      32.164  36.195  28.881  1.00  0.00    -0.249 OA
BRANCH  63  65
ATOM     65  C   UNL A   1      33.779  36.238  30.715  1.00  0.00     0.228 C 
ATOM     66  C   UNL A   1      32.861  36.954  31.693  1.00  0.00     0.047 C 
ATOM     67  O   UNL A   1      34.471  35.215  31.444  1.00  0.00    -0.361 OA
ATOM     68  C   UNL A   1      32.689  35.935  32.796  1.00  0.00     0.037 C 
ATOM     69  C   UNL A   1      34.058  35.272  32.818  1.00  0.00     0.138 C 
BRANCH  69  70
ATOM     70  C   UNL A   1      34.160  33.895  33.495  1.00  0.00     0.147 C 
BRANCH  70  71
ATOM     71  N   UNL A   1      34.955  33.874  34.711  1.00  0.00    -0.353 N 
ATOM     72  C   UNL A   1      36.173  33.407  35.060  1.00  0.00     0.228 C 
ATOM     73  H   UNL A   1      34.492  34.306  35.466  1.00  0.00     0.163 HD
ATOM     74  O   UNL A   1      36.427  33.543  36.268  1.00  0.00    -0.274 OA
BRANCH  72  75
ATOM     75  C   UNL A   1      37.182  32.689  34.166  1.00  0.00     0.120 C 
ATOM     76  C   UNL A   1      38.589  32.946  34.755  1.00  0.00     0.093 C 
ATOM     77  C   UNL A   1      37.336  33.084  32.720  1.00  0.00    -0.021 A 
ATOM     78  S   UNL A   1      39.190  34.476  33.953  1.00  0.00    -0.125 SA
ATOM     79  C   UNL A   1      38.284  34.086  32.485  1.00  0.00     0.011 A 
ATOM     80  C   UNL A   1      36.701  32.481  31.643  1.00  0.00     0.006 A 
ATOM     81  C   UNL A   1      38.528  34.573  31.210  1.00  0.00     0.015 A 
ATOM     82  C   UNL A   1      36.951  32.953  30.354  1.00  0.00     0.000 A 
ATOM     83  C   UNL A   1      37.838  34.010  30.138  1.00  0.00     0.001 A 
ENDBRANCH  72  75
ENDBRANCH  70  71
ENDBRANCH  69  70
ENDBRANCH  63  65
ENDBRANCH  62  63
ENDBRANCH   1  62
TORSDOF 14
ENDMDL
MODEL 3
REMARK VINA RESULT:     -10.2      4.973      9.628
REMARK SMILES O=C(OCCOC(=O)[C@H]1CC[C@@H](CNC(=O)[C@@H]2CSc3ccccc32)O1)c1ccc(-c2c3nc(c(-c4c(F)cccc4F)c4ccc([nH]4)c(-c4c(F)cccc4F)c4nc(c(-c5c(F)cccc5F)c5ccc2[nH]5)C=C4)C=C3)cc1
REMARK SMILES IDX 5 1 4 2 3 3 2 4 1 5 27 6 28 7 80 8 29 9 79 10 30 11 31 12
REMARK SMILES IDX 32 13 73 14 33 15 78 16 72 17 74 18 34 19 77 20 71 21 70 22
REMARK SMILES IDX 35 24 61 25 44 26 60 27 45 28 48 29 59 30 75 31 46 32 47 33
REMARK SMILES IDX 58 35 76 36 49 37 36 38 37 39 42 40 38 41 39 42 41 43 43 44
REMARK SMILES IDX 40 45 62 46 63 47 68 48 64 49 65 50 67 51 69 52 66 53 50 54
REMARK SMILES IDX 51 55 56 56 52 57 53 58 55 59 57 60 54 61 6 62 7 63 8 64
REMARK SMILES IDX 9 65 10 66 26 67 11 68 12 69 13 70 14 71 15 72 16 74 17 75
REMARK SMILES IDX 18 76 25 77 19 78 20 79 24 80 21 81 23 82 22 83
REMARK H PARENT 74 23 48 34 14 73
REMARK Flexibility Score: inf
ROOT
ATOM      1  C   UNL A   1      38.190  19.990  24.984  1.00  0.00     0.274 C 
ENDROOT
BRANCH   1   2
ATOM      2  C   UNL A   1      39.431  20.253  25.836  1.00  0.00     0.275 C 
BRANCH   2   3
ATOM      3  O   UNL A   1      40.404  19.211  25.648  1.00  0.00    -0.458 OA
BRANCH   3   4
ATOM      4  C   UNL A   1      41.647  19.409  26.153  1.00  0.00     0.338 C 
ATOM      5  O   UNL A   1      42.374  18.508  26.544  1.00  0.00    -0.246 OA
BRANCH   4   6
ATOM      6  C   UNL A   1      41.908  20.818  26.515  1.00  0.00     0.060 A 
ATOM      7  C   UNL A   1      42.037  21.154  27.867  1.00  0.00     0.016 A 
ATOM      8  C   UNL A   1      42.094  21.789  25.529  1.00  0.00     0.016 A 
ATOM      9  C   UNL A   1      42.294  22.476  28.237  1.00  0.00     0.010 A 
ATOM     10  C   UNL A   1      42.355  23.107  25.897  1.00  0.00     0.010 A 
ATOM     11  C   UNL A   1      42.452  23.460  27.252  1.00  0.00    -0.014 A 
BRANCH  11  12
ATOM     12  C   UNL A   1      42.862  24.835  27.605  1.00  0.00     0.031 A 
ATOM     13  C   UNL A   1      41.869  25.860  28.058  1.00  0.00     0.074 A 
ATOM     14  C   UNL A   1      44.150  25.172  27.411  1.00  0.00     0.049 A 
ATOM     15  N   UNL A   1      42.077  27.087  28.458  1.00  0.00    -0.248 NA
ATOM     16  C   UNL A   1      40.459  25.455  28.095  1.00  0.00     0.031 C 
ATOM     17  C   UNL A   1      45.199  24.266  26.942  1.00  0.00     0.029 A 
ATOM     18  N   UNL A   1      44.775  26.385  27.521  1.00  0.00    -0.354 N 
ATOM     19  C   UNL A   1      40.845  27.561  28.885  1.00  0.00     0.074 A 
ATOM     20  C   UNL A   1      39.879  26.512  28.651  1.00  0.00     0.031 C 
ATOM     21  C   UNL A   1      46.321  24.971  26.732  1.00  0.00     0.029 A 
ATOM     22  C   UNL A   1      46.055  26.374  27.028  1.00  0.00     0.049 A 
ATOM     23  H   UNL A   1      44.350  27.183  27.913  1.00  0.00     0.167 HD
ATOM     24  C   UNL A   1      40.552  28.770  29.416  1.00  0.00     0.037 A 
ATOM     25  C   UNL A   1      46.895  27.395  26.784  1.00  0.00     0.037 A 
ATOM     26  C   UNL A   1      41.482  29.863  29.472  1.00  0.00     0.049 A 
ATOM     27  C   UNL A   1      46.466  28.787  27.139  1.00  0.00     0.074 A 
ATOM     28  C   UNL A   1      41.309  31.129  30.003  1.00  0.00     0.029 A 
ATOM     29  N   UNL A   1      42.742  29.839  28.894  1.00  0.00    -0.354 N 
ATOM     30  N   UNL A   1      45.355  29.185  27.711  1.00  0.00    -0.248 NA
ATOM     31  C   UNL A   1      47.401  29.870  26.814  1.00  0.00     0.031 C 
ATOM     32  C   UNL A   1      42.433  31.895  29.668  1.00  0.00     0.029 A 
ATOM     33  C   UNL A   1      43.323  31.091  28.972  1.00  0.00     0.049 A 
ATOM     34  H   UNL A   1      43.162  29.047  28.487  1.00  0.00     0.167 HD
ATOM     35  C   UNL A   1      45.469  30.562  27.843  1.00  0.00     0.074 A 
ATOM     36  C   UNL A   1      46.755  30.929  27.284  1.00  0.00     0.031 C 
ATOM     37  C   UNL A   1      44.593  31.439  28.392  1.00  0.00     0.037 A 
BRANCH  24  38
ATOM     38  C   UNL A   1      39.167  28.981  29.942  1.00  0.00     0.057 A 
ATOM     39  C   UNL A   1      38.154  29.502  29.132  1.00  0.00     0.134 A 
ATOM     40  C   UNL A   1      38.857  28.716  31.283  1.00  0.00     0.134 A 
ATOM     41  F   UNL A   1      38.387  29.765  27.838  1.00  0.00    -0.206 F 
ATOM     42  C   UNL A   1      36.879  29.766  29.640  1.00  0.00     0.040 A 
ATOM     43  C   UNL A   1      37.585  28.969  31.801  1.00  0.00     0.040 A 
ATOM     44  F   UNL A   1      39.782  28.201  32.107  1.00  0.00    -0.206 F 
ATOM     45  C   UNL A   1      36.594  29.502  30.978  1.00  0.00     0.006 A 
ENDBRANCH  24  38
BRANCH  25  46
ATOM     46  C   UNL A   1      48.187  27.129  26.113  1.00  0.00     0.057 A 
ATOM     47  C   UNL A   1      48.304  27.208  24.719  1.00  0.00     0.134 A 
ATOM     48  C   UNL A   1      49.322  26.762  26.840  1.00  0.00     0.134 A 
ATOM     49  F   UNL A   1      47.246  27.552  23.969  1.00  0.00    -0.206 F 
ATOM     50  C   UNL A   1      49.502  26.918  24.069  1.00  0.00     0.040 A 
ATOM     51  C   UNL A   1      50.534  26.488  26.203  1.00  0.00     0.040 A 
ATOM     52  F   UNL A   1      49.273  26.684  28.177  1.00  0.00    -0.206 F 
ATOM     53  C   UNL A   1      50.624  26.559  24.813  1.00  0.00     0.006 A 
ENDBRANCH  25  46
BRANCH  37  54
ATOM     54  C   UNL A   1      45.008  32.876  28.419  1.00  0.00     0.057 A 
ATOM     55  C   UNL A   1      45.719  33.392  29.510  1.00  0.00     0.134 A 
ATOM     56  C   UNL A   1      44.690  33.752  27.375  1.00  0.00     0.134 A 
ATOM     57  F   UNL A   1      46.048  32.602  30.543  1.00  0.00    -0.206 F 
ATOM     58  C   UNL A   1      46.096  34.733  29.562  1.00  0.00     0.040 A 
ATOM     59  C   UNL A   1      45.081  35.091  27.406  1.00  0.00     0.040 A 
ATOM     60  F   UNL A   1      44.027  33.310  26.296  1.00  0.00    -0.206 F 
ATOM     61  C   UNL A   1      45.781  35.585  28.506  1.00  0.00     0.006 A 
ENDBRANCH  37  54
ENDBRANCH  11  12
ENDBRANCH   4   6
ENDBRANCH   3   4
ENDBRANCH   2   3
ENDBRANCH   1   2
BRANCH   1  62
ATOM     62  O   UNL A   1      37.483  21.222  24.765  1.00  0.00    -0.460 OA
BRANCH  62  63
ATOM     63  C   UNL A   1      36.178  21.232  25.169  1.00  0.00     0.335 C 
ATOM     64  O   UNL A   1      35.361  20.354  24.924  1.00  0.00    -0.249 OA
BRANCH  63  65
ATOM     65  C   UNL A   1      35.908  22.458  26.039  1.00  0.00     0.228 C 
ATOM     66  C   UNL A   1      36.450  23.744  25.436  1.00  0.00     0.047 C 
ATOM     67  O   UNL A   1      34.496  22.630  26.222  1.00  0.00    -0.361 OA
ATOM     68  C   UNL A   1      35.221  24.363  24.810  1.00  0.00     0.037 C 
ATOM     69  C   UNL A   1      34.137  23.953  25.794  1.00  0.00     0.138 C 
BRANCH  69  70
ATOM     70  C   UNL A   1      32.681  24.008  25.299  1.00  0.00     0.147 C 
BRANCH  70  71
ATOM     71  N   UNL A   1      32.505  24.644  24.004  1.00  0.00    -0.353 N 
ATOM     72  C   UNL A   1      31.730  25.635  23.513  1.00  0.00     0.228 C 
ATOM     73  H   UNL A   1      33.095  24.258  23.316  1.00  0.00     0.163 HD
ATOM     74  O   UNL A   1      31.858  25.803  22.289  1.00  0.00    -0.274 OA
BRANCH  72  75
ATOM     75  C   UNL A   1      30.702  26.471  24.273  1.00  0.00     0.120 C 
ATOM     76  C   UNL A   1      29.970  27.359  23.240  1.00  0.00     0.093 C 
ATOM     77  C   UNL A   1      31.147  27.457  25.322  1.00  0.00    -0.021 A 
ATOM     78  S   UNL A   1      30.939  28.908  23.143  1.00  0.00    -0.125 SA
ATOM     79  C   UNL A   1      31.404  28.746  24.841  1.00  0.00     0.011 A 
ATOM     80  C   UNL A   1      31.220  27.212  26.687  1.00  0.00     0.006 A 
ATOM     81  C   UNL A   1      31.840  29.761  25.678  1.00  0.00     0.015 A 
ATOM     82  C   UNL A   1      31.644  28.232  27.540  1.00  0.00     0.000 A 
ATOM     83  C   UNL A   1      31.977  29.492  27.039  1.00  0.00     0.001 A 
ENDBRANCH  72  75
ENDBRANCH  70  71
ENDBRANCH  69  70
ENDBRANCH  63  65
ENDBRANCH  62  63
ENDBRANCH   1  62
TORSDOF 14
ENDMDL
