MODEL 1
REMARK VINA RESULT:     -11.9      0.000      0.000
REMARK SMILES Cc1c(Cl)ccc2c1C=C(C(=O)OCCOC(=O)c1ccc(-c3c4nc(c(-c5c(F)cccc5F)c5ccc([nH]5)c(-c5c(F)cccc5F)c5nc(c(-c6c(F)cccc6F)c6ccc3[nH]6)C=C5)C=C4)cc1)[C@@H](C(F)(F)F)O2
REMARK SMILES IDX 15 1 14 2 13 3 11 4 12 5 10 6 1 7 2 8 3 9 8 10 4 11 5 12
REMARK SMILES IDX 7 13 9 14 6 15 78 16 73 17 74 18 75 19 76 20 77 21 16 22
REMARK SMILES IDX 17 23 18 24 19 25 20 26 72 27 21 28 71 29 22 30 23 31 24 32
REMARK SMILES IDX 65 33 25 34 70 35 64 36 66 37 26 38 69 39 63 40 62 41 27 43
REMARK SMILES IDX 53 44 36 45 52 46 37 47 40 48 51 49 67 50 38 51 39 52 50 54
REMARK SMILES IDX 68 55 41 56 28 57 29 58 34 59 30 60 31 61 33 62 35 63 32 64
REMARK SMILES IDX 54 65 55 66 60 67 56 68 57 69 59 70 61 71 58 72 42 73 43 74
REMARK SMILES IDX 48 75 44 76 45 77 47 78 49 79 46 80
REMARK H PARENT 66 42 40 53
REMARK Flexibility Score: inf
ROOT
ATOM      1  C   UNL A   1      37.166  20.065  24.840  1.00  0.00     0.275 C 
ENDROOT
BRANCH   1   2
ATOM      2  C   UNL A   1      35.670  20.304  25.035  1.00  0.00     0.275 C 
BRANCH   2   3
ATOM      3  O   UNL A   1      35.430  21.471  25.850  1.00  0.00    -0.459 OA
BRANCH   3   4
ATOM      4  C   UNL A   1      34.173  21.970  25.792  1.00  0.00     0.338 C 
ATOM      5  O   UNL A   1      33.212  21.607  26.444  1.00  0.00    -0.246 OA
BRANCH   4   6
ATOM      6  C   UNL A   1      34.106  23.070  24.810  1.00  0.00     0.087 C 
ATOM      7  C   UNL A   1      33.866  27.124  26.244  1.00  0.00     0.047 C 
ATOM      8  C   UNL A   1      33.697  26.770  24.785  1.00  0.00    -0.021 A 
ATOM      9  C   UNL A   1      33.379  27.751  23.826  1.00  0.00     0.044 A 
ATOM     10  C   UNL A   1      33.838  25.425  24.349  1.00  0.00     0.022 A 
ATOM     11  Cl  UNL A   1      33.112  29.409  24.242  1.00  0.00    -0.084 Cl
ATOM     12  C   UNL A   1      33.250  27.419  22.476  1.00  0.00     0.024 A 
ATOM     13  C   UNL A   1      33.724  25.111  22.986  1.00  0.00     0.128 A 
ATOM     14  C   UNL A   1      34.058  24.323  25.279  1.00  0.00     0.027 C 
ATOM     15  C   UNL A   1      33.439  26.105  22.056  1.00  0.00     0.048 A 
ATOM     16  O   UNL A   1      33.895  23.858  22.465  1.00  0.00    -0.475 OA
ATOM     17  C   UNL A   1      33.962  22.720  23.362  1.00  0.00     0.316 C 
BRANCH  17  18
ATOM     18  C   UNL A   1      32.739  21.821  23.115  1.00  0.00     0.430 C 
ATOM     19  F   UNL A   1      32.396  21.804  21.805  1.00  0.00    -0.167 F 
ATOM     20  F   UNL A   1      32.986  20.536  23.466  1.00  0.00    -0.167 F 
ATOM     21  F   UNL A   1      31.656  22.231  23.814  1.00  0.00    -0.167 F 
ENDBRANCH  17  18
ENDBRANCH   4   6
ENDBRANCH   3   4
ENDBRANCH   2   3
ENDBRANCH   1   2
BRANCH   1  22
ATOM     22  O   UNL A   1      37.911  21.243  25.200  1.00  0.00    -0.458 OA
BRANCH  22  23
ATOM     23  C   UNL A   1      39.052  21.016  25.888  1.00  0.00     0.338 C 
ATOM     24  O   UNL A   1      39.689  19.977  25.948  1.00  0.00    -0.246 OA
BRANCH  23  25
ATOM     25  C   UNL A   1      39.494  22.247  26.561  1.00  0.00     0.060 A 
ATOM     26  C   UNL A   1      38.956  23.471  26.177  1.00  0.00     0.016 A 
ATOM     27  C   UNL A   1      40.580  22.200  27.434  1.00  0.00     0.016 A 
ATOM     28  C   UNL A   1      39.594  24.653  26.541  1.00  0.00     0.010 A 
ATOM     29  C   UNL A   1      41.141  23.393  27.899  1.00  0.00     0.010 A 
ATOM     30  C   UNL A   1      40.696  24.633  27.407  1.00  0.00    -0.014 A 
BRANCH  30  31
ATOM     31  C   UNL A   1      41.414  25.894  27.749  1.00  0.00     0.031 A 
ATOM     32  C   UNL A   1      40.735  26.954  28.582  1.00  0.00     0.074 A 
ATOM     33  C   UNL A   1      42.682  26.089  27.336  1.00  0.00     0.049 A 
ATOM     34  N   UNL A   1      41.120  28.177  28.846  1.00  0.00    -0.248 NA
ATOM     35  C   UNL A   1      39.443  26.591  29.187  1.00  0.00     0.031 C 
ATOM     36  C   UNL A   1      43.485  25.132  26.573  1.00  0.00     0.029 A 
ATOM     37  N   UNL A   1      43.523  27.160  27.509  1.00  0.00    -0.354 N 
ATOM     38  C   UNL A   1      40.100  28.745  29.601  1.00  0.00     0.074 A 
ATOM     39  C   UNL A   1      39.069  27.738  29.737  1.00  0.00     0.031 C 
ATOM     40  C   UNL A   1      44.711  25.639  26.380  1.00  0.00     0.029 A 
ATOM     41  C   UNL A   1      44.753  26.992  26.919  1.00  0.00     0.049 A 
ATOM     42  H   UNL A   1      43.271  27.970  28.009  1.00  0.00     0.167 HD
ATOM     43  C   UNL A   1      40.027  29.990  30.134  1.00  0.00     0.037 A 
ATOM     44  C   UNL A   1      45.784  27.846  26.782  1.00  0.00     0.037 A 
ATOM     45  C   UNL A   1      41.073  30.977  30.031  1.00  0.00     0.049 A 
ATOM     46  C   UNL A   1      45.655  29.240  27.325  1.00  0.00     0.074 A 
ATOM     47  C   UNL A   1      41.102  32.263  30.541  1.00  0.00     0.029 A 
ATOM     48  N   UNL A   1      42.282  30.779  29.381  1.00  0.00    -0.354 N 
ATOM     49  N   UNL A   1      44.664  29.783  27.988  1.00  0.00    -0.248 NA
ATOM     50  C   UNL A   1      46.786  30.146  27.080  1.00  0.00     0.031 C 
ATOM     51  C   UNL A   1      42.311  32.858  30.162  1.00  0.00     0.029 A 
ATOM     52  C   UNL A   1      43.057  31.926  29.461  1.00  0.00     0.049 A 
ATOM     53  H   UNL A   1      42.551  29.947  28.929  1.00  0.00     0.167 HD
ATOM     54  C   UNL A   1      45.057  31.087  28.258  1.00  0.00     0.074 A 
ATOM     55  C   UNL A   1      46.386  31.245  27.704  1.00  0.00     0.031 C 
ATOM     56  C   UNL A   1      44.378  32.067  28.903  1.00  0.00     0.037 A 
BRANCH  43  57
ATOM     57  C   UNL A   1      38.757  30.364  30.847  1.00  0.00     0.057 A 
ATOM     58  C   UNL A   1      37.708  30.981  30.150  1.00  0.00     0.134 A 
ATOM     59  C   UNL A   1      38.566  30.124  32.214  1.00  0.00     0.134 A 
ATOM     60  F   UNL A   1      37.825  31.248  28.841  1.00  0.00    -0.206 F 
ATOM     61  C   UNL A   1      36.517  31.339  30.784  1.00  0.00     0.040 A 
ATOM     62  C   UNL A   1      37.368  30.452  32.853  1.00  0.00     0.040 A 
ATOM     63  F   UNL A   1      39.522  29.525  32.939  1.00  0.00    -0.206 F 
ATOM     64  C   UNL A   1      36.340  31.064  32.139  1.00  0.00     0.006 A 
ENDBRANCH  43  57
BRANCH  44  65
ATOM     65  C   UNL A   1      47.012  27.421  26.064  1.00  0.00     0.057 A 
ATOM     66  C   UNL A   1      48.111  26.882  26.748  1.00  0.00     0.134 A 
ATOM     67  C   UNL A   1      47.111  27.534  24.673  1.00  0.00     0.134 A 
ATOM     68  F   UNL A   1      48.080  26.750  28.082  1.00  0.00    -0.206 F 
ATOM     69  C   UNL A   1      49.267  26.485  26.076  1.00  0.00     0.040 A 
ATOM     70  C   UNL A   1      48.250  27.112  23.985  1.00  0.00     0.040 A 
ATOM     71  F   UNL A   1      46.084  28.019  23.961  1.00  0.00    -0.206 F 
ATOM     72  C   UNL A   1      49.335  26.592  24.688  1.00  0.00     0.006 A 
ENDBRANCH  44  65
BRANCH  56  73
ATOM     73  C   UNL A   1      45.087  33.378  29.076  1.00  0.00     0.057 A 
ATOM     74  C   UNL A   1      45.914  33.599  30.184  1.00  0.00     0.134 A 
ATOM     75  C   UNL A   1      44.956  34.420  28.148  1.00  0.00     0.134 A 
ATOM     76  F   UNL A   1      46.078  32.645  31.114  1.00  0.00    -0.206 F 
ATOM     77  C   UNL A   1      46.591  34.807  30.362  1.00  0.00     0.040 A 
ATOM     78  C   UNL A   1      45.650  35.622  28.300  1.00  0.00     0.040 A 
ATOM     79  F   UNL A   1      44.193  34.265  27.055  1.00  0.00    -0.206 F 
ATOM     80  C   UNL A   1      46.467  35.819  29.412  1.00  0.00     0.006 A 
ENDBRANCH  56  73
ENDBRANCH  30  31
ENDBRANCH  23  25
ENDBRANCH  22  23
ENDBRANCH   1  22
TORSDOF 12
ENDMDL
MODEL 2
REMARK VINA RESULT:     -11.8      0.737      1.578
REMARK SMILES Cc1c(Cl)ccc2c1C=C(C(=O)OCCOC(=O)c1ccc(-c3c4nc(c(-c5c(F)cccc5F)c5ccc([nH]5)c(-c5c(F)cccc5F)c5nc(c(-c6c(F)cccc6F)c6ccc3[nH]6)C=C5)C=C4)cc1)[C@@H](C(F)(F)F)O2
REMARK SMILES IDX 15 1 14 2 13 3 11 4 12 5 10 6 1 7 2 8 3 9 8 10 4 11 5 12
REMARK SMILES IDX 7 13 9 14 6 15 78 16 73 17 74 18 75 19 76 20 77 21 16 22
REMARK SMILES IDX 17 23 18 24 19 25 20 26 72 27 21 28 71 29 22 30 23 31 24 32
REMARK SMILES IDX 65 33 25 34 70 35 64 36 66 37 26 38 69 39 63 40 62 41 27 43
REMARK SMILES IDX 53 44 36 45 52 46 37 47 40 48 51 49 67 50 38 51 39 52 50 54
REMARK SMILES IDX 68 55 41 56 28 57 29 58 34 59 30 60 31 61 33 62 35 63 32 64
REMARK SMILES IDX 54 65 55 66 60 67 56 68 57 69 59 70 61 71 58 72 42 73 43 74
REMARK SMILES IDX 48 75 44 76 45 77 47 78 49 79 46 80
REMARK H PARENT 66 42 40 53
REMARK Flexibility Score: inf
ROOT
ATOM      1  C   UNL A   1      36.474  20.525  25.000  1.00  0.00     0.275 C 
ENDROOT
BRANCH   1   2
ATOM      2  C   UNL A   1      35.260  21.074  25.747  1.00  0.00     0.275 C 
BRANCH   2   3
ATOM      3  O   UNL A   1      35.218  22.516  25.686  1.00  0.00    -0.459 OA
BRANCH   3   4
ATOM      4  C   UNL A   1      33.994  23.068  25.859  1.00  0.00     0.338 C 
ATOM      5  O   UNL A   1      33.076  22.618  26.518  1.00  0.00    -0.246 OA
BRANCH   4   6
ATOM      6  C   UNL A   1      33.908  24.351  25.133  1.00  0.00     0.087 C 
ATOM      7  C   UNL A   1      32.552  27.850  27.246  1.00  0.00     0.047 C 
ATOM      8  C   UNL A   1      32.764  27.838  25.751  1.00  0.00    -0.021 A 
ATOM      9  C   UNL A   1      32.456  28.963  24.960  1.00  0.00     0.044 A 
ATOM     10  C   UNL A   1      33.264  26.678  25.102  1.00  0.00     0.022 A 
ATOM     11  Cl  UNL A   1      31.776  30.409  25.622  1.00  0.00    -0.084 Cl
ATOM     12  C   UNL A   1      32.679  28.953  23.581  1.00  0.00     0.024 A 
ATOM     13  C   UNL A   1      33.500  26.690  23.719  1.00  0.00     0.128 A 
ATOM     14  C   UNL A   1      33.509  25.430  25.816  1.00  0.00     0.027 C 
ATOM     15  C   UNL A   1      33.216  27.825  22.967  1.00  0.00     0.048 A 
ATOM     16  O   UNL A   1      34.028  25.643  23.015  1.00  0.00    -0.475 OA
ATOM     17  C   UNL A   1      34.140  24.345  23.654  1.00  0.00     0.316 C 
BRANCH  17  18
ATOM     18  C   UNL A   1      33.205  23.357  22.937  1.00  0.00     0.430 C 
ATOM     19  F   UNL A   1      33.113  23.635  21.615  1.00  0.00    -0.167 F 
ATOM     20  F   UNL A   1      33.658  22.083  23.032  1.00  0.00    -0.167 F 
ATOM     21  F   UNL A   1      31.952  23.380  23.445  1.00  0.00    -0.167 F 
ENDBRANCH  17  18
ENDBRANCH   4   6
ENDBRANCH   3   4
ENDBRANCH   2   3
ENDBRANCH   1   2
BRANCH   1  22
ATOM     22  O   UNL A   1      37.530  21.502  24.977  1.00  0.00    -0.458 OA
BRANCH  22  23
ATOM     23  C   UNL A   1      38.630  21.179  25.692  1.00  0.00     0.338 C 
ATOM     24  O   UNL A   1      39.184  20.094  25.753  1.00  0.00    -0.246 OA
BRANCH  23  25
ATOM     25  C   UNL A   1      39.146  22.362  26.396  1.00  0.00     0.060 A 
ATOM     26  C   UNL A   1      38.601  23.614  26.126  1.00  0.00     0.016 A 
ATOM     27  C   UNL A   1      40.295  22.250  27.178  1.00  0.00     0.016 A 
ATOM     28  C   UNL A   1      39.288  24.764  26.506  1.00  0.00     0.010 A 
ATOM     29  C   UNL A   1      40.911  23.407  27.664  1.00  0.00     0.010 A 
ATOM     30  C   UNL A   1      40.452  24.679  27.280  1.00  0.00    -0.014 A 
BRANCH  30  31
ATOM     31  C   UNL A   1      41.218  25.909  27.635  1.00  0.00     0.031 A 
ATOM     32  C   UNL A   1      40.581  26.982  28.482  1.00  0.00     0.074 A 
ATOM     33  C   UNL A   1      42.491  26.061  27.221  1.00  0.00     0.049 A 
ATOM     34  N   UNL A   1      41.012  28.187  28.761  1.00  0.00    -0.248 NA
ATOM     35  C   UNL A   1      39.278  26.660  29.087  1.00  0.00     0.031 C 
ATOM     36  C   UNL A   1      43.256  25.085  26.443  1.00  0.00     0.029 A 
ATOM     37  N   UNL A   1      43.372  27.099  27.404  1.00  0.00    -0.354 N 
ATOM     38  C   UNL A   1      40.015  28.783  29.525  1.00  0.00     0.074 A 
ATOM     39  C   UNL A   1      38.948  27.813  29.652  1.00  0.00     0.031 C 
ATOM     40  C   UNL A   1      44.500  25.548  26.253  1.00  0.00     0.029 A 
ATOM     41  C   UNL A   1      44.593  26.892  26.808  1.00  0.00     0.049 A 
ATOM     42  H   UNL A   1      43.151  27.910  27.915  1.00  0.00     0.167 HD
ATOM     43  C   UNL A   1      39.990  30.023  30.075  1.00  0.00     0.037 A 
ATOM     44  C   UNL A   1      45.655  27.709  26.679  1.00  0.00     0.037 A 
ATOM     45  C   UNL A   1      41.071  30.971  29.981  1.00  0.00     0.049 A 
ATOM     46  C   UNL A   1      45.579  29.100  27.239  1.00  0.00     0.074 A 
ATOM     47  C   UNL A   1      41.150  32.250  30.506  1.00  0.00     0.029 A 
ATOM     48  N   UNL A   1      42.271  30.737  29.324  1.00  0.00    -0.354 N 
ATOM     49  N   UNL A   1      44.610  29.671  27.912  1.00  0.00    -0.248 NA
ATOM     50  C   UNL A   1      46.742  29.967  27.002  1.00  0.00     0.031 C 
ATOM     51  C   UNL A   1      42.379  32.804  30.131  1.00  0.00     0.029 A 
ATOM     52  C   UNL A   1      43.087  31.853  29.416  1.00  0.00     0.049 A 
ATOM     53  H   UNL A   1      42.507  29.901  28.862  1.00  0.00     0.167 HD
ATOM     54  C   UNL A   1      45.052  30.956  28.196  1.00  0.00     0.074 A 
ATOM     55  C   UNL A   1      46.385  31.072  27.641  1.00  0.00     0.031 C 
ATOM     56  C   UNL A   1      44.411  31.953  28.856  1.00  0.00     0.037 A 
BRANCH  43  57
ATOM     57  C   UNL A   1      38.736  30.435  30.795  1.00  0.00     0.057 A 
ATOM     58  C   UNL A   1      38.587  30.175  32.165  1.00  0.00     0.134 A 
ATOM     59  C   UNL A   1      37.677  31.081  30.145  1.00  0.00     0.134 A 
ATOM     60  F   UNL A   1      39.559  29.552  32.850  1.00  0.00    -0.206 F 
ATOM     61  C   UNL A   1      37.436  30.547  32.861  1.00  0.00     0.040 A 
ATOM     62  C   UNL A   1      36.531  31.484  30.838  1.00  0.00     0.040 A 
ATOM     63  F   UNL A   1      37.757  31.374  28.840  1.00  0.00    -0.206 F 
ATOM     64  C   UNL A   1      36.407  31.213  32.198  1.00  0.00     0.006 A 
ENDBRANCH  43  57
BRANCH  44  65
ATOM     65  C   UNL A   1      46.865  27.248  25.952  1.00  0.00     0.057 A 
ATOM     66  C   UNL A   1      47.906  26.581  26.612  1.00  0.00     0.134 A 
ATOM     67  C   UNL A   1      47.002  27.453  24.575  1.00  0.00     0.134 A 
ATOM     68  F   UNL A   1      47.836  26.355  27.932  1.00  0.00    -0.206 F 
ATOM     69  C   UNL A   1      49.045  26.149  25.933  1.00  0.00     0.040 A 
ATOM     70  C   UNL A   1      48.122  27.000  23.877  1.00  0.00     0.040 A 
ATOM     71  F   UNL A   1      46.029  28.063  23.884  1.00  0.00    -0.206 F 
ATOM     72  C   UNL A   1      49.151  26.351  24.558  1.00  0.00     0.006 A 
ENDBRANCH  44  65
BRANCH  56  73
ATOM     73  C   UNL A   1      45.169  33.234  29.043  1.00  0.00     0.057 A 
ATOM     74  C   UNL A   1      45.057  34.270  28.107  1.00  0.00     0.134 A 
ATOM     75  C   UNL A   1      46.007  33.446  30.145  1.00  0.00     0.134 A 
ATOM     76  F   UNL A   1      44.277  34.129  27.024  1.00  0.00    -0.206 F 
ATOM     77  C   UNL A   1      45.745  35.474  28.264  1.00  0.00     0.040 A 
ATOM     78  C   UNL A   1      46.679  34.657  30.328  1.00  0.00     0.040 A 
ATOM     79  F   UNL A   1      46.144  32.500  31.087  1.00  0.00    -0.206 F 
ATOM     80  C   UNL A   1      46.551  35.673  29.383  1.00  0.00     0.006 A 
ENDBRANCH  56  73
ENDBRANCH  30  31
ENDBRANCH  23  25
ENDBRANCH  22  23
ENDBRANCH   1  22
TORSDOF 12
ENDMDL
MODEL 3
REMARK VINA RESULT:     -11.8      1.150      1.627
REMARK SMILES Cc1c(Cl)ccc2c1C=C(C(=O)OCCOC(=O)c1ccc(-c3c4nc(c(-c5c(F)cccc5F)c5ccc([nH]5)c(-c5c(F)cccc5F)c5nc(c(-c6c(F)cccc6F)c6ccc3[nH]6)C=C5)C=C4)cc1)[C@@H](C(F)(F)F)O2
REMARK SMILES IDX 15 1 14 2 13 3 11 4 12 5 10 6 1 7 2 8 3 9 8 10 4 11 5 12
REMARK SMILES IDX 7 13 9 14 6 15 78 16 73 17 74 18 75 19 76 20 77 21 16 22
REMARK SMILES IDX 17 23 18 24 19 25 20 26 72 27 21 28 71 29 22 30 23 31 24 32
REMARK SMILES IDX 65 33 25 34 70 35 64 36 66 37 26 38 69 39 63 40 62 41 27 43
REMARK SMILES IDX 53 44 36 45 52 46 37 47 40 48 51 49 67 50 38 51 39 52 50 54
REMARK SMILES IDX 68 55 41 56 28 57 29 58 34 59 30 60 31 61 33 62 35 63 32 64
REMARK SMILES IDX 54 65 55 66 60 67 56 68 57 69 59 70 61 71 58 72 42 73 43 74
REMARK SMILES IDX 48 75 44 76 45 77 47 78 49 79 46 80
REMARK H PARENT 66 42 40 53
REMARK Flexibility Score: inf
ROOT
ATOM      1  C   UNL A   1      36.606  20.373  24.998  1.00  0.00     0.275 C 
ENDROOT
BRANCH   1   2
ATOM      2  C   UNL A   1      35.224  20.956  25.291  1.00  0.00     0.275 C 
BRANCH   2   3
ATOM      3  O   UNL A   1      35.229  22.394  25.166  1.00  0.00    -0.459 OA
BRANCH   3   4
ATOM      4  C   UNL A   1      34.602  23.065  26.161  1.00  0.00     0.338 C 
ATOM      5  O   UNL A   1      34.782  22.933  27.358  1.00  0.00    -0.246 OA
BRANCH   4   6
ATOM      6  C   UNL A   1      33.640  24.032  25.597  1.00  0.00     0.087 C 
ATOM      7  C   UNL A   1      34.210  28.229  26.379  1.00  0.00     0.047 C 
ATOM      8  C   UNL A   1      32.968  27.691  25.709  1.00  0.00    -0.021 A 
ATOM      9  C   UNL A   1      31.895  28.539  25.371  1.00  0.00     0.044 A 
ATOM     10  C   UNL A   1      32.845  26.305  25.422  1.00  0.00     0.022 A 
ATOM     11  Cl  UNL A   1      31.893  30.230  25.732  1.00  0.00    -0.084 Cl
ATOM     12  C   UNL A   1      30.760  28.038  24.729  1.00  0.00     0.024 A 
ATOM     13  C   UNL A   1      31.707  25.820  24.760  1.00  0.00     0.128 A 
ATOM     14  C   UNL A   1      33.852  25.332  25.831  1.00  0.00     0.027 C 
ATOM     15  C   UNL A   1      30.675  26.685  24.410  1.00  0.00     0.048 A 
ATOM     16  O   UNL A   1      31.522  24.516  24.394  1.00  0.00    -0.475 OA
ATOM     17  C   UNL A   1      32.419  23.501  24.913  1.00  0.00     0.316 C 
BRANCH  17  18
ATOM     18  C   UNL A   1      31.623  22.556  25.828  1.00  0.00     0.430 C 
ATOM     19  F   UNL A   1      31.748  22.908  27.130  1.00  0.00    -0.167 F 
ATOM     20  F   UNL A   1      30.297  22.589  25.546  1.00  0.00    -0.167 F 
ATOM     21  F   UNL A   1      32.030  21.271  25.713  1.00  0.00    -0.167 F 
ENDBRANCH  17  18
ENDBRANCH   4   6
ENDBRANCH   3   4
ENDBRANCH   2   3
ENDBRANCH   1   2
BRANCH   1  22
ATOM     22  O   UNL A   1      37.605  21.408  25.043  1.00  0.00    -0.458 OA
BRANCH  22  23
ATOM     23  C   UNL A   1      38.720  21.101  25.740  1.00  0.00     0.338 C 
ATOM     24  O   UNL A   1      39.296  20.026  25.788  1.00  0.00    -0.246 OA
BRANCH  23  25
ATOM     25  C   UNL A   1      39.224  22.291  26.444  1.00  0.00     0.060 A 
ATOM     26  C   UNL A   1      38.684  23.540  26.154  1.00  0.00     0.016 A 
ATOM     27  C   UNL A   1      40.359  22.185  27.246  1.00  0.00     0.016 A 
ATOM     28  C   UNL A   1      39.364  24.693  26.535  1.00  0.00     0.010 A 
ATOM     29  C   UNL A   1      40.967  23.346  27.733  1.00  0.00     0.010 A 
ATOM     30  C   UNL A   1      40.515  24.615  27.331  1.00  0.00    -0.014 A 
BRANCH  30  31
ATOM     31  C   UNL A   1      41.275  25.847  27.688  1.00  0.00     0.031 A 
ATOM     32  C   UNL A   1      40.632  26.915  28.539  1.00  0.00     0.074 A 
ATOM     33  C   UNL A   1      42.546  26.008  27.274  1.00  0.00     0.049 A 
ATOM     34  N   UNL A   1      41.057  28.122  28.820  1.00  0.00    -0.248 NA
ATOM     35  C   UNL A   1      39.331  26.585  29.144  1.00  0.00     0.031 C 
ATOM     36  C   UNL A   1      43.317  25.037  26.494  1.00  0.00     0.029 A 
ATOM     37  N   UNL A   1      43.422  27.049  27.460  1.00  0.00    -0.354 N 
ATOM     38  C   UNL A   1      40.057  28.710  29.587  1.00  0.00     0.074 A 
ATOM     39  C   UNL A   1      38.995  27.735  29.712  1.00  0.00     0.031 C 
ATOM     40  C   UNL A   1      44.558  25.508  26.305  1.00  0.00     0.029 A 
ATOM     41  C   UNL A   1      44.644  26.851  26.863  1.00  0.00     0.049 A 
ATOM     42  H   UNL A   1      43.197  27.859  27.973  1.00  0.00     0.167 HD
ATOM     43  C   UNL A   1      40.026  29.949  30.139  1.00  0.00     0.037 A 
ATOM     44  C   UNL A   1      45.701  27.673  26.736  1.00  0.00     0.037 A 
ATOM     45  C   UNL A   1      41.102  30.903  30.047  1.00  0.00     0.049 A 
ATOM     46  C   UNL A   1      45.618  29.063  27.299  1.00  0.00     0.074 A 
ATOM     47  C   UNL A   1      41.174  32.181  30.576  1.00  0.00     0.029 A 
ATOM     48  N   UNL A   1      42.303  30.677  29.390  1.00  0.00    -0.354 N 
ATOM     49  N   UNL A   1      44.647  29.627  27.974  1.00  0.00    -0.248 NA
ATOM     50  C   UNL A   1      46.776  29.936  27.065  1.00  0.00     0.031 C 
ATOM     51  C   UNL A   1      42.400  32.742  30.202  1.00  0.00     0.029 A 
ATOM     52  C   UNL A   1      43.113  31.797  29.484  1.00  0.00     0.049 A 
ATOM     53  H   UNL A   1      42.543  29.844  28.925  1.00  0.00     0.167 HD
ATOM     54  C   UNL A   1      45.082  30.914  28.262  1.00  0.00     0.074 A 
ATOM     55  C   UNL A   1      46.414  31.038  27.706  1.00  0.00     0.031 C 
ATOM     56  C   UNL A   1      44.437  31.905  28.924  1.00  0.00     0.037 A 
BRANCH  43  57
ATOM     57  C   UNL A   1      38.770  30.353  30.861  1.00  0.00     0.057 A 
ATOM     58  C   UNL A   1      37.739  31.011  30.177  1.00  0.00     0.134 A 
ATOM     59  C   UNL A   1      38.577  30.100  32.226  1.00  0.00     0.134 A 
ATOM     60  F   UNL A   1      37.859  31.293  28.871  1.00  0.00    -0.206 F 
ATOM     61  C   UNL A   1      36.562  31.397  30.821  1.00  0.00     0.040 A 
ATOM     62  C   UNL A   1      37.391  30.456  32.874  1.00  0.00     0.040 A 
ATOM     63  F   UNL A   1      39.516  29.462  32.939  1.00  0.00    -0.206 F 
ATOM     64  C   UNL A   1      36.381  31.110  32.173  1.00  0.00     0.006 A 
ENDBRANCH  43  57
BRANCH  44  65
ATOM     65  C   UNL A   1      46.913  27.221  26.007  1.00  0.00     0.057 A 
ATOM     66  C   UNL A   1      47.049  27.405  24.625  1.00  0.00     0.134 A 
ATOM     67  C   UNL A   1      47.972  26.602  26.682  1.00  0.00     0.134 A 
ATOM     68  F   UNL A   1      46.069  27.989  23.920  1.00  0.00    -0.206 F 
ATOM     69  C   UNL A   1      48.185  26.979  23.938  1.00  0.00     0.040 A 
ATOM     70  C   UNL A   1      49.128  26.198  26.012  1.00  0.00     0.040 A 
ATOM     71  F   UNL A   1      47.912  26.420  28.008  1.00  0.00    -0.206 F 
ATOM     72  C   UNL A   1      49.234  26.380  24.634  1.00  0.00     0.006 A 
ENDBRANCH  44  65
BRANCH  56  73
ATOM     73  C   UNL A   1      45.188  33.190  29.114  1.00  0.00     0.057 A 
ATOM     74  C   UNL A   1      46.018  33.371  30.227  1.00  0.00     0.134 A 
ATOM     75  C   UNL A   1      45.093  34.246  28.198  1.00  0.00     0.134 A 
ATOM     76  F   UNL A   1      46.148  32.402  31.146  1.00  0.00    -0.206 F 
ATOM     77  C   UNL A   1      46.733  34.554  30.420  1.00  0.00     0.040 A 
ATOM     78  C   UNL A   1      45.826  35.423  28.365  1.00  0.00     0.040 A 
ATOM     79  F   UNL A   1      44.329  34.129  27.101  1.00  0.00    -0.206 F 
ATOM     80  C   UNL A   1      46.645  35.580  29.481  1.00  0.00     0.006 A 
ENDBRANCH  56  73
ENDBRANCH  30  31
ENDBRANCH  23  25
ENDBRANCH  22  23
ENDBRANCH   1  22
TORSDOF 12
ENDMDL
