MODEL 1
REMARK VINA RESULT:     -12.2      0.000      0.000
REMARK SMILES O=C(CCOc1cccc(/C=C2/SC(=S)N(c3ccc(Cl)c(Cl)c3)C2=O)c1)OCCOC(=O)c1ccc(-c2c3nc(c(-c4c(F)cccc4F)c4ccc([nH]4)c(-c4c(F)cccc4F)c4nc(c(-c5c(F)cccc5F)c5ccc2[nH]5)C=C4)C=C3)cc1
REMARK SMILES IDX 28 1 2 2 1 3 3 4 4 5 5 6 6 7 7 8 27 9 8 10 10 11 9 12 11 13
REMARK SMILES IDX 12 14 13 15 25 16 14 17 16 18 26 19 15 20 17 21 18 22 24 23
REMARK SMILES IDX 19 24 22 25 20 26 23 27 21 28 29 29 30 30 31 31 32 32 33 33
REMARK SMILES IDX 34 34 35 35 87 36 36 37 86 38 37 39 38 40 39 41 80 42 40 43
REMARK SMILES IDX 85 44 79 45 81 46 41 47 84 48 78 49 77 50 42 52 68 53 51 54
REMARK SMILES IDX 67 55 52 56 55 57 66 58 82 59 53 60 54 61 65 63 83 64 56 65
REMARK SMILES IDX 43 66 44 67 49 68 45 69 46 70 48 71 50 72 47 73 69 74 70 75
REMARK SMILES IDX 75 76 71 77 72 78 74 79 76 80 73 81 57 82 58 83 63 84 59 85
REMARK SMILES IDX 60 86 62 87 64 88 61 89
REMARK H PARENT 81 51 55 62
REMARK Flexibility Score: inf
ROOT
ATOM      1  O   UNL A   1      43.825  19.834  24.684  1.00  0.00    -0.462 OA
ENDROOT
BRANCH   1   2
ATOM      2  C   UNL A   1      43.952  18.672  25.358  1.00  0.00     0.309 C 
ATOM      3  O   UNL A   1      45.029  18.074  25.369  1.00  0.00    -0.252 OA
BRANCH   2   4
ATOM      4  C   UNL A   1      42.812  18.187  26.193  1.00  0.00     0.164 C 
BRANCH   4   5
ATOM      5  C   UNL A   1      41.813  19.315  26.436  1.00  0.00     0.241 C 
BRANCH   5   6
ATOM      6  O   UNL A   1      40.559  19.203  25.754  1.00  0.00    -0.493 OA
BRANCH   6   7
ATOM      7  C   UNL A   1      39.714  20.274  25.638  1.00  0.00     0.119 A 
ATOM      8  C   UNL A   1      40.109  21.409  26.346  1.00  0.00     0.046 A 
ATOM      9  C   UNL A   1      38.470  20.290  25.008  1.00  0.00     0.054 A 
ATOM     10  C   UNL A   1      39.236  22.490  26.501  1.00  0.00     0.004 A 
ATOM     11  C   UNL A   1      37.513  21.268  25.340  1.00  0.00    -0.021 A 
ATOM     12  C   UNL A   1      37.921  22.397  26.043  1.00  0.00     0.008 A 
BRANCH  11  13
ATOM     13  C   UNL A   1      36.099  21.012  25.008  1.00  0.00     0.029 C 
ATOM     14  C   UNL A   1      35.137  21.923  24.748  1.00  0.00     0.081 C 
ATOM     15  S   UNL A   1      33.482  21.446  24.608  1.00  0.00    -0.054 SA
ATOM     16  C   UNL A   1      35.217  23.420  24.622  1.00  0.00     0.270 C 
ATOM     17  C   UNL A   1      32.881  23.104  24.584  1.00  0.00     0.152 C 
ATOM     18  N   UNL A   1      33.939  24.001  24.671  1.00  0.00    -0.261 N 
ATOM     19  O   UNL A   1      36.282  24.010  24.471  1.00  0.00    -0.268 OA
ATOM     20  S   UNL A   1      31.249  23.391  24.323  1.00  0.00    -0.051 S 
BRANCH  18  21
ATOM     21  C   UNL A   1      33.781  25.430  24.858  1.00  0.00     0.052 A 
ATOM     22  C   UNL A   1      33.497  25.988  26.116  1.00  0.00     0.028 A 
ATOM     23  C   UNL A   1      33.720  26.298  23.749  1.00  0.00     0.048 A 
ATOM     24  C   UNL A   1      33.124  27.336  26.251  1.00  0.00     0.024 A 
ATOM     25  C   UNL A   1      33.319  27.639  23.874  1.00  0.00     0.061 A 
ATOM     26  C   UNL A   1      33.015  28.159  25.130  1.00  0.00     0.059 A 
ATOM     27  Cl  UNL A   1      33.129  28.561  22.423  1.00  0.00    -0.083 Cl
ATOM     28  Cl  UNL A   1      32.456  29.777  25.359  1.00  0.00    -0.083 Cl
ENDBRANCH  18  21
ENDBRANCH  11  13
ENDBRANCH   6   7
ENDBRANCH   5   6
ENDBRANCH   4   5
ENDBRANCH   2   4
ENDBRANCH   1   2
BRANCH   1  29
ATOM     29  C   UNL A   1      44.513  21.065  24.993  1.00  0.00     0.274 C 
BRANCH  29  30
ATOM     30  C   UNL A   1      43.505  22.199  24.948  1.00  0.00     0.275 C 
BRANCH  30  31
ATOM     31  O   UNL A   1      43.744  23.123  26.015  1.00  0.00    -0.458 OA
BRANCH  31  32
ATOM     32  C   UNL A   1      44.233  24.344  25.651  1.00  0.00     0.338 C 
ATOM     33  O   UNL A   1      44.840  24.646  24.649  1.00  0.00    -0.246 OA
BRANCH  32  34
ATOM     34  C   UNL A   1      43.676  25.307  26.614  1.00  0.00     0.060 A 
ATOM     35  C   UNL A   1      44.089  26.644  26.558  1.00  0.00     0.016 A 
ATOM     36  C   UNL A   1      42.689  24.888  27.505  1.00  0.00     0.016 A 
ATOM     37  C   UNL A   1      43.481  27.583  27.382  1.00  0.00     0.010 A 
ATOM     38  C   UNL A   1      42.092  25.820  28.336  1.00  0.00     0.010 A 
ATOM     39  C   UNL A   1      42.498  27.163  28.283  1.00  0.00    -0.014 A 
BRANCH  39  40
ATOM     40  C   UNL A   1      42.015  28.064  29.341  1.00  0.00     0.031 A 
ATOM     41  C   UNL A   1      42.720  28.012  30.660  1.00  0.00     0.074 A 
ATOM     42  C   UNL A   1      40.929  28.827  29.144  1.00  0.00     0.049 A 
ATOM     43  N   UNL A   1      42.403  28.579  31.791  1.00  0.00    -0.248 NA
ATOM     44  C   UNL A   1      43.939  27.186  30.714  1.00  0.00     0.031 C 
ATOM     45  C   UNL A   1      40.189  28.942  27.888  1.00  0.00     0.029 A 
ATOM     46  N   UNL A   1      40.244  29.627  30.018  1.00  0.00    -0.354 N 
ATOM     47  C   UNL A   1      43.377  28.173  32.692  1.00  0.00     0.074 A 
ATOM     48  C   UNL A   1      44.271  27.279  31.991  1.00  0.00     0.031 C 
ATOM     49  C   UNL A   1      39.135  29.754  28.080  1.00  0.00     0.029 A 
ATOM     50  C   UNL A   1      39.112  30.182  29.476  1.00  0.00     0.049 A 
ATOM     51  H   UNL A   1      40.536  29.788  30.944  1.00  0.00     0.167 HD
ATOM     52  C   UNL A   1      43.513  28.525  33.990  1.00  0.00     0.037 A 
ATOM     53  C   UNL A   1      38.159  30.929  30.065  1.00  0.00     0.037 A 
ATOM     54  C   UNL A   1      42.600  29.400  34.671  1.00  0.00     0.049 A 
ATOM     55  C   UNL A   1      38.300  31.258  31.528  1.00  0.00     0.074 A 
ATOM     56  C   UNL A   1      42.642  29.844  35.979  1.00  0.00     0.029 A 
ATOM     57  N   UNL A   1      41.467  29.956  34.092  1.00  0.00    -0.354 N 
ATOM     58  N   UNL A   1      39.246  30.910  32.369  1.00  0.00    -0.248 NA
ATOM     59  C   UNL A   1      37.244  32.087  32.124  1.00  0.00     0.031 C 
ATOM     60  C   UNL A   1      41.506  30.626  36.206  1.00  0.00     0.029 A 
ATOM     61  C   UNL A   1      40.788  30.719  35.023  1.00  0.00     0.049 A 
ATOM     62  H   UNL A   1      41.189  29.825  33.156  1.00  0.00     0.167 HD
ATOM     63  C   UNL A   1      38.920  31.505  33.581  1.00  0.00     0.074 A 
ATOM     64  C   UNL A   1      37.692  32.244  33.361  1.00  0.00     0.031 C 
ATOM     65  C   UNL A   1      39.574  31.453  34.768  1.00  0.00     0.037 A 
BRANCH  52  66
ATOM     66  C   UNL A   1      44.669  27.939  34.743  1.00  0.00     0.057 A 
ATOM     67  C   UNL A   1      45.916  28.577  34.799  1.00  0.00     0.134 A 
ATOM     68  C   UNL A   1      44.536  26.722  35.422  1.00  0.00     0.134 A 
ATOM     69  F   UNL A   1      46.118  29.734  34.150  1.00  0.00    -0.206 F 
ATOM     70  C   UNL A   1      46.995  28.013  35.482  1.00  0.00     0.040 A 
ATOM     71  C   UNL A   1      45.599  26.162  36.132  1.00  0.00     0.040 A 
ATOM     72  F   UNL A   1      43.371  26.055  35.405  1.00  0.00    -0.206 F 
ATOM     73  C   UNL A   1      46.835  26.805  36.158  1.00  0.00     0.006 A 
ENDBRANCH  52  66
BRANCH  53  74
ATOM     74  C   UNL A   1      36.998  31.417  29.278  1.00  0.00     0.057 A 
ATOM     75  C   UNL A   1      35.901  30.587  29.020  1.00  0.00     0.134 A 
ATOM     76  C   UNL A   1      36.960  32.715  28.752  1.00  0.00     0.134 A 
ATOM     77  F   UNL A   1      35.885  29.328  29.482  1.00  0.00    -0.206 F 
ATOM     78  C   UNL A   1      34.821  31.019  28.249  1.00  0.00     0.040 A 
ATOM     79  C   UNL A   1      35.875  33.169  28.001  1.00  0.00     0.040 A 
ATOM     80  F   UNL A   1      37.976  33.564  28.969  1.00  0.00    -0.206 F 
ATOM     81  C   UNL A   1      34.804  32.315  27.740  1.00  0.00     0.006 A 
ENDBRANCH  53  74
BRANCH  65  82
ATOM     82  C   UNL A   1      39.002  32.251  35.902  1.00  0.00     0.057 A 
ATOM     83  C   UNL A   1      38.157  31.680  36.862  1.00  0.00     0.134 A 
ATOM     84  C   UNL A   1      39.349  33.599  36.065  1.00  0.00     0.134 A 
ATOM     85  F   UNL A   1      37.777  30.398  36.757  1.00  0.00    -0.206 F 
ATOM     86  C   UNL A   1      37.658  32.428  37.929  1.00  0.00     0.040 A 
ATOM     87  C   UNL A   1      38.882  34.349  37.144  1.00  0.00     0.040 A 
ATOM     88  F   UNL A   1      40.166  34.202  35.187  1.00  0.00    -0.206 F 
ATOM     89  C   UNL A   1      38.028  33.764  38.077  1.00  0.00     0.006 A 
ENDBRANCH  65  82
ENDBRANCH  39  40
ENDBRANCH  32  34
ENDBRANCH  31  32
ENDBRANCH  30  31
ENDBRANCH  29  30
ENDBRANCH   1  29
TORSDOF 16
ENDMDL
MODEL 2
REMARK VINA RESULT:     -12.1      5.092     10.753
REMARK SMILES O=C(CCOc1cccc(/C=C2/SC(=S)N(c3ccc(Cl)c(Cl)c3)C2=O)c1)OCCOC(=O)c1ccc(-c2c3nc(c(-c4c(F)cccc4F)c4ccc([nH]4)c(-c4c(F)cccc4F)c4nc(c(-c5c(F)cccc5F)c5ccc2[nH]5)C=C4)C=C3)cc1
REMARK SMILES IDX 28 1 2 2 1 3 3 4 4 5 5 6 6 7 7 8 27 9 8 10 10 11 9 12 11 13
REMARK SMILES IDX 12 14 13 15 25 16 14 17 16 18 26 19 15 20 17 21 18 22 24 23
REMARK SMILES IDX 19 24 22 25 20 26 23 27 21 28 29 29 30 30 31 31 32 32 33 33
REMARK SMILES IDX 34 34 35 35 87 36 36 37 86 38 37 39 38 40 39 41 80 42 40 43
REMARK SMILES IDX 85 44 79 45 81 46 41 47 84 48 78 49 77 50 42 52 68 53 51 54
REMARK SMILES IDX 67 55 52 56 55 57 66 58 82 59 53 60 54 61 65 63 83 64 56 65
REMARK SMILES IDX 43 66 44 67 49 68 45 69 46 70 48 71 50 72 47 73 69 74 70 75
REMARK SMILES IDX 75 76 71 77 72 78 74 79 76 80 73 81 57 82 58 83 63 84 59 85
REMARK SMILES IDX 60 86 62 87 64 88 61 89
REMARK H PARENT 81 51 55 62
REMARK Flexibility Score: inf
ROOT
ATOM      1  O   UNL A   1      34.086  35.336  31.935  1.00  0.00    -0.462 OA
ENDROOT
BRANCH   1   2
ATOM      2  C   UNL A   1      34.174  35.131  30.604  1.00  0.00     0.309 C 
ATOM      3  O   UNL A   1      35.209  34.683  30.111  1.00  0.00    -0.252 OA
BRANCH   2   4
ATOM      4  C   UNL A   1      32.960  35.331  29.756  1.00  0.00     0.164 C 
BRANCH   4   5
ATOM      5  C   UNL A   1      33.216  34.835  28.335  1.00  0.00     0.241 C 
BRANCH   5   6
ATOM      6  O   UNL A   1      32.275  33.887  27.821  1.00  0.00    -0.493 OA
BRANCH   6   7
ATOM      7  C   UNL A   1      32.629  32.583  27.596  1.00  0.00     0.119 A 
ATOM      8  C   UNL A   1      33.960  32.282  27.885  1.00  0.00     0.046 A 
ATOM      9  C   UNL A   1      31.844  31.597  26.999  1.00  0.00     0.054 A 
ATOM     10  C   UNL A   1      34.513  31.059  27.492  1.00  0.00     0.004 A 
ATOM     11  C   UNL A   1      32.442  30.467  26.410  1.00  0.00    -0.021 A 
ATOM     12  C   UNL A   1      33.770  30.174  26.710  1.00  0.00     0.008 A 
BRANCH  11  13
ATOM     13  C   UNL A   1      31.665  29.688  25.428  1.00  0.00     0.029 C 
ATOM     14  C   UNL A   1      31.754  28.366  25.169  1.00  0.00     0.081 C 
ATOM     15  S   UNL A   1      30.927  27.672  23.821  1.00  0.00    -0.054 SA
ATOM     16  C   UNL A   1      32.568  27.292  25.838  1.00  0.00     0.270 C 
ATOM     17  C   UNL A   1      31.735  26.111  23.976  1.00  0.00     0.152 C 
ATOM     18  N   UNL A   1      32.613  26.128  25.053  1.00  0.00    -0.261 N 
ATOM     19  O   UNL A   1      33.085  27.450  26.939  1.00  0.00    -0.268 OA
ATOM     20  S   UNL A   1      31.277  24.837  22.986  1.00  0.00    -0.051 S 
BRANCH  18  21
ATOM     21  C   UNL A   1      33.563  25.073  25.346  1.00  0.00     0.052 A 
ATOM     22  C   UNL A   1      34.661  24.807  24.512  1.00  0.00     0.028 A 
ATOM     23  C   UNL A   1      33.312  24.148  26.381  1.00  0.00     0.048 A 
ATOM     24  C   UNL A   1      35.442  23.651  24.675  1.00  0.00     0.024 A 
ATOM     25  C   UNL A   1      34.071  22.976  26.531  1.00  0.00     0.061 A 
ATOM     26  C   UNL A   1      35.138  22.723  25.671  1.00  0.00     0.059 A 
ATOM     27  Cl  UNL A   1      33.571  21.841  27.737  1.00  0.00    -0.083 Cl
ATOM     28  Cl  UNL A   1      36.077  21.276  25.751  1.00  0.00    -0.083 Cl
ENDBRANCH  18  21
ENDBRANCH  11  13
ENDBRANCH   6   7
ENDBRANCH   5   6
ENDBRANCH   4   5
ENDBRANCH   2   4
ENDBRANCH   1   2
BRANCH   1  29
ATOM     29  C   UNL A   1      35.173  35.215  32.878  1.00  0.00     0.274 C 
BRANCH  29  30
ATOM     30  C   UNL A   1      35.001  33.913  33.639  1.00  0.00     0.275 C 
BRANCH  30  31
ATOM     31  O   UNL A   1      35.941  32.937  33.178  1.00  0.00    -0.458 OA
BRANCH  31  32
ATOM     32  C   UNL A   1      35.499  32.097  32.197  1.00  0.00     0.338 C 
ATOM     33  O   UNL A   1      34.391  32.009  31.721  1.00  0.00    -0.246 OA
BRANCH  32  34
ATOM     34  C   UNL A   1      36.702  31.457  31.641  1.00  0.00     0.060 A 
ATOM     35  C   UNL A   1      37.571  30.774  32.500  1.00  0.00     0.016 A 
ATOM     36  C   UNL A   1      36.906  31.470  30.261  1.00  0.00     0.016 A 
ATOM     37  C   UNL A   1      38.642  30.065  31.970  1.00  0.00     0.010 A 
ATOM     38  C   UNL A   1      37.981  30.776  29.733  1.00  0.00     0.010 A 
ATOM     39  C   UNL A   1      38.855  30.086  30.588  1.00  0.00    -0.014 A 
BRANCH  39  40
ATOM     40  C   UNL A   1      40.106  29.570  30.013  1.00  0.00     0.031 A 
ATOM     41  C   UNL A   1      41.227  30.544  29.827  1.00  0.00     0.074 A 
ATOM     42  C   UNL A   1      40.192  28.298  29.595  1.00  0.00     0.049 A 
ATOM     43  N   UNL A   1      42.366  30.388  29.209  1.00  0.00    -0.248 NA
ATOM     44  C   UNL A   1      41.024  31.888  30.397  1.00  0.00     0.031 C 
ATOM     45  C   UNL A   1      39.150  27.283  29.746  1.00  0.00     0.029 A 
ATOM     46  N   UNL A   1      41.198  27.656  28.926  1.00  0.00    -0.354 N 
ATOM     47  C   UNL A   1      43.010  31.613  29.310  1.00  0.00     0.074 A 
ATOM     48  C   UNL A   1      42.122  32.515  30.008  1.00  0.00     0.031 C 
ATOM     49  C   UNL A   1      39.567  26.145  29.164  1.00  0.00     0.029 A 
ATOM     50  C   UNL A   1      40.885  26.368  28.574  1.00  0.00     0.049 A 
ATOM     51  H   UNL A   1      42.063  28.078  28.718  1.00  0.00     0.167 HD
ATOM     52  C   UNL A   1      44.240  31.949  28.862  1.00  0.00     0.037 A 
ATOM     53  C   UNL A   1      41.584  25.488  27.833  1.00  0.00     0.037 A 
ATOM     54  C   UNL A   1      45.098  31.041  28.152  1.00  0.00     0.049 A 
ATOM     55  C   UNL A   1      42.927  25.906  27.293  1.00  0.00     0.074 A 
ATOM     56  C   UNL A   1      46.372  31.260  27.664  1.00  0.00     0.029 A 
ATOM     57  N   UNL A   1      44.755  29.737  27.819  1.00  0.00    -0.354 N 
ATOM     58  N   UNL A   1      43.555  27.051  27.426  1.00  0.00    -0.248 NA
ATOM     59  C   UNL A   1      43.660  24.909  26.502  1.00  0.00     0.031 C 
ATOM     60  C   UNL A   1      46.779  30.105  26.990  1.00  0.00     0.029 A 
ATOM     61  C   UNL A   1      45.784  29.146  27.111  1.00  0.00     0.049 A 
ATOM     62  H   UNL A   1      43.904  29.299  28.054  1.00  0.00     0.167 HD
ATOM     63  C   UNL A   1      44.770  26.900  26.770  1.00  0.00     0.074 A 
ATOM     64  C   UNL A   1      44.792  25.548  26.247  1.00  0.00     0.031 C 
ATOM     65  C   UNL A   1      45.779  27.793  26.614  1.00  0.00     0.037 A 
BRANCH  52  66
ATOM     66  C   UNL A   1      44.701  33.354  29.107  1.00  0.00     0.057 A 
ATOM     67  C   UNL A   1      45.407  33.709  30.265  1.00  0.00     0.134 A 
ATOM     68  C   UNL A   1      44.436  34.365  28.177  1.00  0.00     0.134 A 
ATOM     69  F   UNL A   1      45.673  32.793  31.208  1.00  0.00    -0.206 F 
ATOM     70  C   UNL A   1      45.811  35.025  30.498  1.00  0.00     0.040 A 
ATOM     71  C   UNL A   1      44.860  35.679  28.386  1.00  0.00     0.040 A 
ATOM     72  F   UNL A   1      43.759  34.095  27.050  1.00  0.00    -0.206 F 
ATOM     73  C   UNL A   1      45.544  36.012  29.552  1.00  0.00     0.006 A 
ENDBRANCH  52  66
BRANCH  53  74
ATOM     74  C   UNL A   1      41.037  24.134  27.563  1.00  0.00     0.057 A 
ATOM     75  C   UNL A   1      41.545  23.006  28.217  1.00  0.00     0.134 A 
ATOM     76  C   UNL A   1      40.007  23.930  26.635  1.00  0.00     0.134 A 
ATOM     77  F   UNL A   1      42.543  23.135  29.104  1.00  0.00    -0.206 F 
ATOM     78  C   UNL A   1      41.068  21.724  27.943  1.00  0.00     0.040 A 
ATOM     79  C   UNL A   1      39.502  22.656  26.371  1.00  0.00     0.040 A 
ATOM     80  F   UNL A   1      39.470  24.970  25.979  1.00  0.00    -0.206 F 
ATOM     81  C   UNL A   1      40.040  21.546  27.021  1.00  0.00     0.006 A 
ENDBRANCH  53  74
BRANCH  65  82
ATOM     82  C   UNL A   1      47.007  27.321  25.892  1.00  0.00     0.057 A 
ATOM     83  C   UNL A   1      47.196  27.543  24.522  1.00  0.00     0.134 A 
ATOM     84  C   UNL A   1      48.040  26.684  26.593  1.00  0.00     0.134 A 
ATOM     85  F   UNL A   1      46.240  28.137  23.792  1.00  0.00    -0.206 F 
ATOM     86  C   UNL A   1      48.357  27.126  23.871  1.00  0.00     0.040 A 
ATOM     87  C   UNL A   1      49.218  26.291  25.960  1.00  0.00     0.040 A 
ATOM     88  F   UNL A   1      47.927  26.454  27.911  1.00  0.00    -0.206 F 
ATOM     89  C   UNL A   1      49.376  26.506  24.592  1.00  0.00     0.006 A 
ENDBRANCH  65  82
ENDBRANCH  39  40
ENDBRANCH  32  34
ENDBRANCH  31  32
ENDBRANCH  30  31
ENDBRANCH  29  30
ENDBRANCH   1  29
TORSDOF 16
ENDMDL
MODEL 3
REMARK VINA RESULT:     -11.8      4.225      9.458
REMARK SMILES O=C(CCOc1cccc(/C=C2/SC(=S)N(c3ccc(Cl)c(Cl)c3)C2=O)c1)OCCOC(=O)c1ccc(-c2c3nc(c(-c4c(F)cccc4F)c4ccc([nH]4)c(-c4c(F)cccc4F)c4nc(c(-c5c(F)cccc5F)c5ccc2[nH]5)C=C4)C=C3)cc1
REMARK SMILES IDX 28 1 2 2 1 3 3 4 4 5 5 6 6 7 7 8 27 9 8 10 10 11 9 12 11 13
REMARK SMILES IDX 12 14 13 15 25 16 14 17 16 18 26 19 15 20 17 21 18 22 24 23
REMARK SMILES IDX 19 24 22 25 20 26 23 27 21 28 29 29 30 30 31 31 32 32 33 33
REMARK SMILES IDX 34 34 35 35 87 36 36 37 86 38 37 39 38 40 39 41 80 42 40 43
REMARK SMILES IDX 85 44 79 45 81 46 41 47 84 48 78 49 77 50 42 52 68 53 51 54
REMARK SMILES IDX 67 55 52 56 55 57 66 58 82 59 53 60 54 61 65 63 83 64 56 65
REMARK SMILES IDX 43 66 44 67 49 68 45 69 46 70 48 71 50 72 47 73 69 74 70 75
REMARK SMILES IDX 75 76 71 77 72 78 74 79 76 80 73 81 57 82 58 83 63 84 59 85
REMARK SMILES IDX 60 86 62 87 64 88 61 89
REMARK H PARENT 81 51 55 62
REMARK Flexibility Score: inf
ROOT
ATOM      1  O   UNL A   1      34.512  34.341  29.074  1.00  0.00    -0.462 OA
ENDROOT
BRANCH   1   2
ATOM      2  C   UNL A   1      34.695  33.004  29.103  1.00  0.00     0.309 C 
ATOM      3  O   UNL A   1      34.211  32.330  30.012  1.00  0.00    -0.252 OA
BRANCH   2   4
ATOM      4  C   UNL A   1      35.378  32.339  27.953  1.00  0.00     0.164 C 
BRANCH   4   5
ATOM      5  C   UNL A   1      35.247  30.822  28.060  1.00  0.00     0.241 C 
BRANCH   5   6
ATOM      6  O   UNL A   1      34.962  30.127  26.841  1.00  0.00    -0.493 OA
BRANCH   6   7
ATOM      7  C   UNL A   1      33.709  29.643  26.574  1.00  0.00     0.119 A 
ATOM      8  C   UNL A   1      32.941  29.359  27.703  1.00  0.00     0.046 A 
ATOM      9  C   UNL A   1      33.200  29.293  25.324  1.00  0.00     0.054 A 
ATOM     10  C   UNL A   1      31.740  28.652  27.586  1.00  0.00     0.004 A 
ATOM     11  C   UNL A   1      32.117  28.400  25.218  1.00  0.00    -0.021 A 
ATOM     12  C   UNL A   1      31.355  28.128  26.351  1.00  0.00     0.008 A 
BRANCH  11  13
ATOM     13  C   UNL A   1      31.889  27.717  23.932  1.00  0.00     0.029 C 
ATOM     14  C   UNL A   1      32.282  26.474  23.577  1.00  0.00     0.081 C 
ATOM     15  S   UNL A   1      32.127  25.930  21.945  1.00  0.00    -0.054 SA
ATOM     16  C   UNL A   1      32.963  25.399  24.380  1.00  0.00     0.270 C 
ATOM     17  C   UNL A   1      33.069  24.463  22.219  1.00  0.00     0.152 C 
ATOM     18  N   UNL A   1      33.480  24.395  23.545  1.00  0.00    -0.261 N 
ATOM     19  O   UNL A   1      33.011  25.426  25.605  1.00  0.00    -0.268 OA
ATOM     20  S   UNL A   1      33.217  23.331  20.991  1.00  0.00    -0.051 S 
BRANCH  18  21
ATOM     21  C   UNL A   1      34.418  23.416  24.057  1.00  0.00     0.052 A 
ATOM     22  C   UNL A   1      35.804  23.647  24.068  1.00  0.00     0.028 A 
ATOM     23  C   UNL A   1      33.988  22.114  24.389  1.00  0.00     0.048 A 
ATOM     24  C   UNL A   1      36.716  22.617  24.351  1.00  0.00     0.024 A 
ATOM     25  C   UNL A   1      34.896  21.073  24.645  1.00  0.00     0.061 A 
ATOM     26  C   UNL A   1      36.266  21.324  24.621  1.00  0.00     0.059 A 
ATOM     27  Cl  UNL A   1      34.254  19.485  24.885  1.00  0.00    -0.083 Cl
ATOM     28  Cl  UNL A   1      37.446  20.086  24.862  1.00  0.00    -0.083 Cl
ENDBRANCH  18  21
ENDBRANCH  11  13
ENDBRANCH   6   7
ENDBRANCH   5   6
ENDBRANCH   4   5
ENDBRANCH   2   4
ENDBRANCH   1   2
BRANCH   1  29
ATOM     29  C   UNL A   1      33.286  35.014  28.716  1.00  0.00     0.274 C 
BRANCH  29  30
ATOM     30  C   UNL A   1      32.956  36.016  29.808  1.00  0.00     0.275 C 
BRANCH  30  31
ATOM     31  O   UNL A   1      32.471  35.343  30.974  1.00  0.00    -0.458 OA
BRANCH  31  32
ATOM     32  C   UNL A   1      32.868  35.859  32.173  1.00  0.00     0.338 C 
ATOM     33  O   UNL A   1      32.298  36.662  32.876  1.00  0.00    -0.246 OA
BRANCH  32  34
ATOM     34  C   UNL A   1      34.040  35.070  32.585  1.00  0.00     0.060 A 
ATOM     35  C   UNL A   1      35.321  35.607  32.405  1.00  0.00     0.016 A 
ATOM     36  C   UNL A   1      33.848  33.844  33.221  1.00  0.00     0.016 A 
ATOM     37  C   UNL A   1      36.425  34.923  32.900  1.00  0.00     0.010 A 
ATOM     38  C   UNL A   1      34.948  33.156  33.702  1.00  0.00     0.010 A 
ATOM     39  C   UNL A   1      36.236  33.689  33.529  1.00  0.00    -0.014 A 
BRANCH  39  40
ATOM     40  C   UNL A   1      37.381  32.818  33.836  1.00  0.00     0.031 A 
ATOM     41  C   UNL A   1      38.140  33.103  35.093  1.00  0.00     0.074 A 
ATOM     42  C   UNL A   1      37.769  31.871  32.968  1.00  0.00     0.049 A 
ATOM     43  N   UNL A   1      39.265  32.594  35.514  1.00  0.00    -0.248 NA
ATOM     44  C   UNL A   1      37.561  34.121  35.988  1.00  0.00     0.031 C 
ATOM     45  C   UNL A   1      37.080  31.524  31.726  1.00  0.00     0.029 A 
ATOM     46  N   UNL A   1      38.864  31.050  32.993  1.00  0.00    -0.354 N 
ATOM     47  C   UNL A   1      39.532  33.235  36.716  1.00  0.00     0.074 A 
ATOM     48  C   UNL A   1      38.478  34.198  36.938  1.00  0.00     0.031 C 
ATOM     49  C   UNL A   1      37.784  30.569  31.094  1.00  0.00     0.029 A 
ATOM     50  C   UNL A   1      38.985  30.269  31.871  1.00  0.00     0.049 A 
ATOM     51  H   UNL A   1      39.501  31.022  33.742  1.00  0.00     0.167 HD
ATOM     52  C   UNL A   1      40.566  33.027  37.561  1.00  0.00     0.037 A 
ATOM     53  C   UNL A   1      39.975  29.430  31.515  1.00  0.00     0.037 A 
ATOM     54  C   UNL A   1      41.614  32.077  37.310  1.00  0.00     0.049 A 
ATOM     55  C   UNL A   1      41.148  29.261  32.445  1.00  0.00     0.074 A 
ATOM     56  C   UNL A   1      42.704  31.765  38.100  1.00  0.00     0.029 A 
ATOM     57  N   UNL A   1      41.703  31.292  36.168  1.00  0.00    -0.354 N 
ATOM     58  N   UNL A   1      41.377  29.834  33.603  1.00  0.00    -0.248 NA
ATOM     59  C   UNL A   1      42.198  28.325  32.022  1.00  0.00     0.031 C 
ATOM     60  C   UNL A   1      43.481  30.829  37.411  1.00  0.00     0.029 A 
ATOM     61  C   UNL A   1      42.843  30.512  36.220  1.00  0.00     0.049 A 
ATOM     62  H   UNL A   1      41.050  31.291  35.431  1.00  0.00     0.167 HD
ATOM     63  C   UNL A   1      42.575  29.303  34.063  1.00  0.00     0.074 A 
ATOM     64  C   UNL A   1      43.019  28.354  33.061  1.00  0.00     0.031 C 
ATOM     65  C   UNL A   1      43.250  29.568  35.210  1.00  0.00     0.037 A 
BRANCH  52  66
ATOM     66  C   UNL A   1      40.614  33.861  38.806  1.00  0.00     0.057 A 
ATOM     67  C   UNL A   1      41.307  35.079  38.855  1.00  0.00     0.134 A 
ATOM     68  C   UNL A   1      39.961  33.443  39.972  1.00  0.00     0.134 A 
ATOM     69  F   UNL A   1      41.974  35.525  37.780  1.00  0.00    -0.206 F 
ATOM     70  C   UNL A   1      41.369  35.837  40.025  1.00  0.00     0.040 A 
ATOM     71  C   UNL A   1      39.992  34.206  41.139  1.00  0.00     0.040 A 
ATOM     72  F   UNL A   1      39.285  32.284  39.996  1.00  0.00    -0.206 F 
ATOM     73  C   UNL A   1      40.703  35.405  41.170  1.00  0.00     0.006 A 
ENDBRANCH  52  66
BRANCH  53  74
ATOM     74  C   UNL A   1      39.903  28.688  30.230  1.00  0.00     0.057 A 
ATOM     75  C   UNL A   1      40.491  29.199  29.068  1.00  0.00     0.134 A 
ATOM     76  C   UNL A   1      39.233  27.462  30.127  1.00  0.00     0.134 A 
ATOM     77  F   UNL A   1      41.132  30.377  29.098  1.00  0.00    -0.206 F 
ATOM     78  C   UNL A   1      40.396  28.533  27.845  1.00  0.00     0.040 A 
ATOM     79  C   UNL A   1      39.153  26.772  28.916  1.00  0.00     0.040 A 
ATOM     80  F   UNL A   1      38.654  26.913  31.205  1.00  0.00    -0.206 F 
ATOM     81  C   UNL A   1      39.729  27.313  27.768  1.00  0.00     0.006 A 
ENDBRANCH  53  74
BRANCH  65  82
ATOM     82  C   UNL A   1      44.508  28.790  35.462  1.00  0.00     0.057 A 
ATOM     83  C   UNL A   1      45.769  29.276  35.095  1.00  0.00     0.134 A 
ATOM     84  C   UNL A   1      44.457  27.561  36.132  1.00  0.00     0.134 A 
ATOM     85  F   UNL A   1      45.885  30.441  34.441  1.00  0.00    -0.206 F 
ATOM     86  C   UNL A   1      46.933  28.555  35.365  1.00  0.00     0.040 A 
ATOM     87  C   UNL A   1      45.616  26.846  36.436  1.00  0.00     0.040 A 
ATOM     88  F   UNL A   1      43.280  27.046  36.523  1.00  0.00    -0.206 F 
ATOM     89  C   UNL A   1      46.858  27.341  36.045  1.00  0.00     0.006 A 
ENDBRANCH  65  82
ENDBRANCH  39  40
ENDBRANCH  32  34
ENDBRANCH  31  32
ENDBRANCH  30  31
ENDBRANCH  29  30
ENDBRANCH   1  29
TORSDOF 16
ENDMDL
