MODEL 1
REMARK VINA RESULT:     -11.6      0.000      0.000
REMARK SMILES O=C(C[C@@H](C(=O)N(c1ccccc1)c1ccccc1)[NH+]1CCOCC1)OCCOC(=O)c1ccc(-c2c3nc(c(-c4c(F)cccc4F)c4ccc([nH]4)c(-c4c(F)cccc4F)c4nc(c(-c5c(F)cccc5F)c5ccc2[nH]5)C=C4)C=C3)cc1
REMARK SMILES IDX 27 1 26 2 2 3 1 4 3 5 4 6 5 7 6 8 7 9 8 10 9 11 13 12 10 13
REMARK SMILES IDX 12 14 11 15 14 16 15 17 19 18 16 19 18 20 17 21 20 22 21 23
REMARK SMILES IDX 25 24 22 26 24 27 23 28 28 29 29 30 30 31 31 32 32 33 33 34
REMARK SMILES IDX 85 35 34 36 84 37 35 38 36 39 37 40 78 41 38 42 83 43 77 44
REMARK SMILES IDX 79 45 39 46 82 47 76 48 75 49 40 51 66 52 49 53 65 54 50 55
REMARK SMILES IDX 53 56 64 57 80 58 51 59 52 60 63 62 81 63 54 64 41 65 42 66
REMARK SMILES IDX 47 67 43 68 44 69 46 70 48 71 45 72 67 73 68 74 73 75 69 76
REMARK SMILES IDX 70 77 72 78 74 79 71 80 55 81 56 82 61 83 57 84 58 85 60 86
REMARK SMILES IDX 62 87 59 88
REMARK H PARENT 20 25 79 50 53 61
REMARK Flexibility Score: inf
ROOT
ATOM      1  C   UNL A   1      31.704  27.987  26.360  1.00  0.00     0.274 C 
ENDROOT
BRANCH   1   2
ATOM      2  O   UNL A   1      30.999  26.825  26.853  1.00  0.00    -0.462 OA
BRANCH   2   3
ATOM      3  C   UNL A   1      30.243  25.993  26.103  1.00  0.00     0.312 C 
ATOM      4  O   UNL A   1      29.452  25.221  26.640  1.00  0.00    -0.252 OA
BRANCH   3   5
ATOM      5  C   UNL A   1      30.437  25.953  24.610  1.00  0.00     0.198 C 
BRANCH   5   6
ATOM      6  C   UNL A   1      31.733  25.444  23.961  1.00  0.00     0.286 C 
BRANCH   6   7
ATOM      7  C   UNL A   1      31.747  23.922  23.740  1.00  0.00     0.290 C 
ATOM      8  O   UNL A   1      30.630  23.385  23.628  1.00  0.00    -0.267 OA
ATOM      9  N   UNL A   1      32.905  23.113  23.729  1.00  0.00    -0.276 N 
BRANCH   9  10
ATOM     10  C   UNL A   1      34.304  23.399  24.050  1.00  0.00     0.049 A 
ATOM     11  C   UNL A   1      35.336  23.057  23.140  1.00  0.00     0.027 A 
ATOM     12  C   UNL A   1      34.759  23.942  25.251  1.00  0.00     0.027 A 
ATOM     13  C   UNL A   1      36.687  22.991  23.508  1.00  0.00     0.002 A 
ATOM     14  C   UNL A   1      36.111  23.867  25.640  1.00  0.00     0.002 A 
ATOM     15  C   UNL A   1      37.069  23.343  24.788  1.00  0.00     0.000 A 
ENDBRANCH   9  10
BRANCH   9  16
ATOM     16  C   UNL A   1      32.593  21.702  23.592  1.00  0.00     0.049 A 
ATOM     17  C   UNL A   1      32.253  21.165  22.338  1.00  0.00     0.027 A 
ATOM     18  C   UNL A   1      32.772  20.831  24.677  1.00  0.00     0.027 A 
ATOM     19  C   UNL A   1      32.062  19.792  22.184  1.00  0.00     0.002 A 
ATOM     20  C   UNL A   1      32.600  19.455  24.514  1.00  0.00     0.002 A 
ATOM     21  C   UNL A   1      32.241  18.937  23.270  1.00  0.00     0.000 A 
ENDBRANCH   9  16
ENDBRANCH   6   7
BRANCH   6  22
ATOM     22  N   UNL A   1      31.994  26.261  22.709  1.00  0.00    -0.320 N 
ATOM     23  C   UNL A   1      33.352  26.722  22.353  1.00  0.00     0.291 C 
ATOM     24  C   UNL A   1      31.026  27.327  22.394  1.00  0.00     0.291 C 
ATOM     25  H   UNL A   1      31.847  25.453  22.106  1.00  0.00     0.348 HD
ATOM     26  C   UNL A   1      33.725  28.136  22.813  1.00  0.00     0.221 C 
ATOM     27  C   UNL A   1      31.459  28.769  22.752  1.00  0.00     0.221 C 
ATOM     28  O   UNL A   1      32.783  29.083  22.303  1.00  0.00    -0.370 OA
ENDBRANCH   6  22
ENDBRANCH   5   6
ENDBRANCH   3   5
ENDBRANCH   2   3
ENDBRANCH   1   2
BRANCH   1  29
ATOM     29  C   UNL A   1      32.437  28.739  27.472  1.00  0.00     0.275 C 
BRANCH  29  30
ATOM     30  O   UNL A   1      33.809  28.952  27.093  1.00  0.00    -0.458 OA
BRANCH  30  31
ATOM     31  C   UNL A   1      34.330  30.159  27.443  1.00  0.00     0.338 C 
ATOM     32  O   UNL A   1      33.777  31.233  27.387  1.00  0.00    -0.246 OA
BRANCH  31  33
ATOM     33  C   UNL A   1      35.635  29.934  28.112  1.00  0.00     0.060 A 
ATOM     34  C   UNL A   1      36.797  30.151  27.360  1.00  0.00     0.016 A 
ATOM     35  C   UNL A   1      35.724  29.544  29.452  1.00  0.00     0.016 A 
ATOM     36  C   UNL A   1      38.051  29.934  27.931  1.00  0.00     0.010 A 
ATOM     37  C   UNL A   1      36.979  29.308  30.019  1.00  0.00     0.010 A 
ATOM     38  C   UNL A   1      38.144  29.460  29.245  1.00  0.00    -0.014 A 
BRANCH  38  39
ATOM     39  C   UNL A   1      39.414  28.854  29.708  1.00  0.00     0.031 A 
ATOM     40  C   UNL A   1      40.073  29.469  30.912  1.00  0.00     0.074 A 
ATOM     41  C   UNL A   1      39.960  27.786  29.101  1.00  0.00     0.049 A 
ATOM     42  N   UNL A   1      41.201  29.161  31.496  1.00  0.00    -0.248 NA
ATOM     43  C   UNL A   1      39.354  30.591  31.543  1.00  0.00     0.031 C 
ATOM     44  C   UNL A   1      39.391  27.076  27.958  1.00  0.00     0.029 A 
ATOM     45  N   UNL A   1      41.127  27.118  29.369  1.00  0.00    -0.354 N 
ATOM     46  C   UNL A   1      41.324  30.046  32.560  1.00  0.00     0.074 A 
ATOM     47  C   UNL A   1      40.176  30.923  32.525  1.00  0.00     0.031 C 
ATOM     48  C   UNL A   1      40.222  26.075  27.612  1.00  0.00     0.029 A 
ATOM     49  C   UNL A   1      41.390  26.093  28.492  1.00  0.00     0.049 A 
ATOM     50  H   UNL A   1      41.722  27.350  30.118  1.00  0.00     0.167 HD
ATOM     51  C   UNL A   1      42.303  30.120  33.490  1.00  0.00     0.037 A 
ATOM     52  C   UNL A   1      42.463  25.282  28.406  1.00  0.00     0.037 A 
ATOM     53  C   UNL A   1      43.457  29.264  33.510  1.00  0.00     0.049 A 
ATOM     54  C   UNL A   1      43.587  25.439  29.402  1.00  0.00     0.074 A 
ATOM     55  C   UNL A   1      44.518  29.262  34.396  1.00  0.00     0.029 A 
ATOM     56  N   UNL A   1      43.701  28.259  32.585  1.00  0.00    -0.354 N 
ATOM     57  N   UNL A   1      43.688  26.266  30.415  1.00  0.00    -0.248 NA
ATOM     58  C   UNL A   1      44.746  24.549  29.241  1.00  0.00     0.031 C 
ATOM     59  C   UNL A   1      45.428  28.285  33.980  1.00  0.00     0.029 A 
ATOM     60  C   UNL A   1      44.909  27.645  32.866  1.00  0.00     0.049 A 
ATOM     61  H   UNL A   1      43.105  28.019  31.840  1.00  0.00     0.167 HD
ATOM     62  C   UNL A   1      44.902  25.977  31.027  1.00  0.00     0.074 A 
ATOM     63  C   UNL A   1      45.498  24.891  30.278  1.00  0.00     0.031 C 
ATOM     64  C   UNL A   1      45.475  26.556  32.112  1.00  0.00     0.037 A 
BRANCH  51  65
ATOM     65  C   UNL A   1      42.176  31.191  34.532  1.00  0.00     0.057 A 
ATOM     66  C   UNL A   1      42.722  32.469  34.349  1.00  0.00     0.134 A 
ATOM     67  C   UNL A   1      41.508  30.939  35.736  1.00  0.00     0.134 A 
ATOM     68  F   UNL A   1      43.395  32.765  33.227  1.00  0.00    -0.206 F 
ATOM     69  C   UNL A   1      42.633  33.448  35.338  1.00  0.00     0.040 A 
ATOM     70  C   UNL A   1      41.389  31.919  36.722  1.00  0.00     0.040 A 
ATOM     71  F   UNL A   1      40.965  29.736  35.976  1.00  0.00    -0.206 F 
ATOM     72  C   UNL A   1      41.959  33.176  36.528  1.00  0.00     0.006 A 
ENDBRANCH  51  65
BRANCH  52  73
ATOM     73  C   UNL A   1      42.546  24.256  27.334  1.00  0.00     0.057 A 
ATOM     74  C   UNL A   1      42.111  22.943  27.548  1.00  0.00     0.134 A 
ATOM     75  C   UNL A   1      43.099  24.554  26.082  1.00  0.00     0.134 A 
ATOM     76  F   UNL A   1      41.599  22.586  28.735  1.00  0.00    -0.206 F 
ATOM     77  C   UNL A   1      42.238  21.959  26.565  1.00  0.00     0.040 A 
ATOM     78  C   UNL A   1      43.209  23.587  25.081  1.00  0.00     0.040 A 
ATOM     79  F   UNL A   1      43.539  25.792  25.813  1.00  0.00    -0.206 F 
ATOM     80  C   UNL A   1      42.785  22.282  25.324  1.00  0.00     0.006 A 
ENDBRANCH  52  73
BRANCH  64  81
ATOM     81  C   UNL A   1      46.790  26.003  32.577  1.00  0.00     0.057 A 
ATOM     82  C   UNL A   1      48.010  26.473  32.076  1.00  0.00     0.134 A 
ATOM     83  C   UNL A   1      46.834  25.027  33.581  1.00  0.00     0.134 A 
ATOM     84  F   UNL A   1      48.036  27.401  31.106  1.00  0.00    -0.206 F 
ATOM     85  C   UNL A   1      49.229  25.979  32.544  1.00  0.00     0.040 A 
ATOM     86  C   UNL A   1      48.046  24.545  34.076  1.00  0.00     0.040 A 
ATOM     87  F   UNL A   1      45.701  24.544  34.111  1.00  0.00    -0.206 F 
ATOM     88  C   UNL A   1      49.248  25.018  33.554  1.00  0.00     0.006 A 
ENDBRANCH  64  81
ENDBRANCH  38  39
ENDBRANCH  31  33
ENDBRANCH  30  31
ENDBRANCH  29  30
ENDBRANCH   1  29
TORSDOF 16
ENDMDL
MODEL 2
REMARK VINA RESULT:     -11.5      1.928      2.713
REMARK SMILES O=C(C[C@@H](C(=O)N(c1ccccc1)c1ccccc1)[NH+]1CCOCC1)OCCOC(=O)c1ccc(-c2c3nc(c(-c4c(F)cccc4F)c4ccc([nH]4)c(-c4c(F)cccc4F)c4nc(c(-c5c(F)cccc5F)c5ccc2[nH]5)C=C4)C=C3)cc1
REMARK SMILES IDX 27 1 26 2 2 3 1 4 3 5 4 6 5 7 6 8 7 9 8 10 9 11 13 12 10 13
REMARK SMILES IDX 12 14 11 15 14 16 15 17 19 18 16 19 18 20 17 21 20 22 21 23
REMARK SMILES IDX 25 24 22 26 24 27 23 28 28 29 29 30 30 31 31 32 32 33 33 34
REMARK SMILES IDX 85 35 34 36 84 37 35 38 36 39 37 40 78 41 38 42 83 43 77 44
REMARK SMILES IDX 79 45 39 46 82 47 76 48 75 49 40 51 66 52 49 53 65 54 50 55
REMARK SMILES IDX 53 56 64 57 80 58 51 59 52 60 63 62 81 63 54 64 41 65 42 66
REMARK SMILES IDX 47 67 43 68 44 69 46 70 48 71 45 72 67 73 68 74 73 75 69 76
REMARK SMILES IDX 70 77 72 78 74 79 71 80 55 81 56 82 61 83 57 84 58 85 60 86
REMARK SMILES IDX 62 87 59 88
REMARK H PARENT 20 25 79 50 53 61
REMARK Flexibility Score: inf
ROOT
ATOM      1  C   UNL A   1      31.833  29.975  26.159  1.00  0.00     0.274 C 
ENDROOT
BRANCH   1   2
ATOM      2  O   UNL A   1      32.280  28.607  26.297  1.00  0.00    -0.462 OA
BRANCH   2   3
ATOM      3  C   UNL A   1      31.625  27.636  26.969  1.00  0.00     0.312 C 
ATOM      4  O   UNL A   1      31.110  27.875  28.060  1.00  0.00    -0.252 OA
BRANCH   3   5
ATOM      5  C   UNL A   1      31.601  26.234  26.419  1.00  0.00     0.198 C 
BRANCH   5   6
ATOM      6  C   UNL A   1      32.538  25.776  25.291  1.00  0.00     0.286 C 
BRANCH   6   7
ATOM      7  C   UNL A   1      32.355  24.296  24.911  1.00  0.00     0.290 C 
ATOM      8  O   UNL A   1      31.181  23.882  24.913  1.00  0.00    -0.267 OA
ATOM      9  N   UNL A   1      33.405  23.391  24.640  1.00  0.00    -0.276 N 
BRANCH   9  10
ATOM     10  C   UNL A   1      34.859  23.507  24.774  1.00  0.00     0.049 A 
ATOM     11  C   UNL A   1      35.712  23.115  23.713  1.00  0.00     0.027 A 
ATOM     12  C   UNL A   1      35.530  23.922  25.923  1.00  0.00     0.027 A 
ATOM     13  C   UNL A   1      37.085  22.883  23.882  1.00  0.00     0.002 A 
ATOM     14  C   UNL A   1      36.904  23.679  26.114  1.00  0.00     0.002 A 
ATOM     15  C   UNL A   1      37.673  23.111  25.112  1.00  0.00     0.000 A 
ENDBRANCH   9  10
BRANCH   9  16
ATOM     16  C   UNL A   1      32.926  22.042  24.403  1.00  0.00     0.049 A 
ATOM     17  C   UNL A   1      32.511  21.647  23.119  1.00  0.00     0.027 A 
ATOM     18  C   UNL A   1      33.011  21.074  25.415  1.00  0.00     0.027 A 
ATOM     19  C   UNL A   1      32.156  20.322  22.866  1.00  0.00     0.002 A 
ATOM     20  C   UNL A   1      32.675  19.745  25.153  1.00  0.00     0.002 A 
ATOM     21  C   UNL A   1      32.244  19.371  23.881  1.00  0.00     0.000 A 
ENDBRANCH   9  16
ENDBRANCH   6   7
BRANCH   6  22
ATOM     22  N   UNL A   1      32.399  26.742  24.130  1.00  0.00    -0.320 N 
ATOM     23  C   UNL A   1      31.121  26.908  23.407  1.00  0.00     0.291 C 
ATOM     24  C   UNL A   1      33.509  26.785  23.161  1.00  0.00     0.291 C 
ATOM     25  H   UNL A   1      32.432  27.551  24.751  1.00  0.00     0.348 HD
ATOM     26  C   UNL A   1      30.950  26.062  22.141  1.00  0.00     0.221 C 
ATOM     27  C   UNL A   1      33.283  26.027  21.832  1.00  0.00     0.221 C 
ATOM     28  O   UNL A   1      32.018  26.324  21.227  1.00  0.00    -0.370 OA
ENDBRANCH   6  22
ENDBRANCH   5   6
ENDBRANCH   3   5
ENDBRANCH   2   3
ENDBRANCH   1   2
BRANCH   1  29
ATOM     29  C   UNL A   1      32.595  30.932  27.076  1.00  0.00     0.275 C 
BRANCH  29  30
ATOM     30  O   UNL A   1      33.665  30.228  27.734  1.00  0.00    -0.458 OA
BRANCH  30  31
ATOM     31  C   UNL A   1      34.605  31.014  28.323  1.00  0.00     0.338 C 
ATOM     32  O   UNL A   1      34.425  32.075  28.875  1.00  0.00    -0.246 OA
BRANCH  31  33
ATOM     33  C   UNL A   1      35.885  30.263  28.372  1.00  0.00     0.060 A 
ATOM     34  C   UNL A   1      36.266  29.707  29.600  1.00  0.00     0.016 A 
ATOM     35  C   UNL A   1      36.684  30.084  27.238  1.00  0.00     0.016 A 
ATOM     36  C   UNL A   1      37.469  29.011  29.710  1.00  0.00     0.010 A 
ATOM     37  C   UNL A   1      37.898  29.403  27.352  1.00  0.00     0.010 A 
ATOM     38  C   UNL A   1      38.314  28.904  28.599  1.00  0.00    -0.014 A 
BRANCH  38  39
ATOM     39  C   UNL A   1      39.735  28.535  28.803  1.00  0.00     0.031 A 
ATOM     40  C   UNL A   1      40.633  29.568  29.428  1.00  0.00     0.074 A 
ATOM     41  C   UNL A   1      40.214  27.325  28.467  1.00  0.00     0.049 A 
ATOM     42  N   UNL A   1      41.914  29.519  29.679  1.00  0.00    -0.248 NA
ATOM     43  C   UNL A   1      39.989  30.834  29.822  1.00  0.00     0.031 C 
ATOM     44  C   UNL A   1      39.434  26.228  27.900  1.00  0.00     0.029 A 
ATOM     45  N   UNL A   1      41.489  26.824  28.555  1.00  0.00    -0.354 N 
ATOM     46  C   UNL A   1      42.227  30.741  30.261  1.00  0.00     0.074 A 
ATOM     47  C   UNL A   1      41.013  31.523  30.298  1.00  0.00     0.031 C 
ATOM     48  C   UNL A   1      40.251  25.184  27.676  1.00  0.00     0.029 A 
ATOM     49  C   UNL A   1      41.615  25.548  28.060  1.00  0.00     0.049 A 
ATOM     50  H   UNL A   1      42.242  27.330  28.936  1.00  0.00     0.167 HD
ATOM     51  C   UNL A   1      43.419  31.173  30.730  1.00  0.00     0.037 A 
ATOM     52  C   UNL A   1      42.713  24.781  27.919  1.00  0.00     0.037 A 
ATOM     53  C   UNL A   1      44.631  30.405  30.671  1.00  0.00     0.049 A 
ATOM     54  C   UNL A   1      44.050  25.318  28.369  1.00  0.00     0.074 A 
ATOM     55  C   UNL A   1      45.898  30.753  31.102  1.00  0.00     0.029 A 
ATOM     56  N   UNL A   1      44.723  29.130  30.132  1.00  0.00    -0.354 N 
ATOM     57  N   UNL A   1      44.335  26.467  28.933  1.00  0.00    -0.248 NA
ATOM     58  C   UNL A   1      45.218  24.449  28.160  1.00  0.00     0.031 C 
ATOM     59  C   UNL A   1      46.767  29.704  30.783  1.00  0.00     0.029 A 
ATOM     60  C   UNL A   1      46.032  28.684  30.200  1.00  0.00     0.049 A 
ATOM     61  H   UNL A   1      43.971  28.618  29.758  1.00  0.00     0.167 HD
ATOM     62  C   UNL A   1      45.704  26.447  29.175  1.00  0.00     0.074 A 
ATOM     63  C   UNL A   1      46.192  25.167  28.704  1.00  0.00     0.031 C 
ATOM     64  C   UNL A   1      46.490  27.400  29.735  1.00  0.00     0.037 A 
BRANCH  51  65
ATOM     65  C   UNL A   1      43.463  32.556  31.310  1.00  0.00     0.057 A 
ATOM     66  C   UNL A   1      43.265  32.791  32.677  1.00  0.00     0.134 A 
ATOM     67  C   UNL A   1      43.696  33.666  30.489  1.00  0.00     0.134 A 
ATOM     68  F   UNL A   1      43.014  31.771  33.512  1.00  0.00    -0.206 F 
ATOM     69  C   UNL A   1      43.269  34.083  33.203  1.00  0.00     0.040 A 
ATOM     70  C   UNL A   1      43.727  34.961  31.008  1.00  0.00     0.040 A 
ATOM     71  F   UNL A   1      43.889  33.511  29.171  1.00  0.00    -0.206 F 
ATOM     72  C   UNL A   1      43.506  35.173  32.367  1.00  0.00     0.006 A 
ENDBRANCH  51  65
BRANCH  52  73
ATOM     73  C   UNL A   1      42.612  23.428  27.311  1.00  0.00     0.057 A 
ATOM     74  C   UNL A   1      42.294  22.305  28.084  1.00  0.00     0.134 A 
ATOM     75  C   UNL A   1      42.868  23.219  25.950  1.00  0.00     0.134 A 
ATOM     76  F   UNL A   1      42.066  22.434  29.399  1.00  0.00    -0.206 F 
ATOM     77  C   UNL A   1      42.253  21.023  27.532  1.00  0.00     0.040 A 
ATOM     78  C   UNL A   1      42.806  21.947  25.379  1.00  0.00     0.040 A 
ATOM     79  F   UNL A   1      43.183  24.251  25.153  1.00  0.00    -0.206 F 
ATOM     80  C   UNL A   1      42.505  20.841  26.173  1.00  0.00     0.006 A 
ENDBRANCH  52  73
BRANCH  64  81
ATOM     81  C   UNL A   1      47.946  27.082  29.907  1.00  0.00     0.057 A 
ATOM     82  C   UNL A   1      48.427  26.394  31.029  1.00  0.00     0.134 A 
ATOM     83  C   UNL A   1      48.869  27.419  28.909  1.00  0.00     0.134 A 
ATOM     84  F   UNL A   1      47.595  26.051  32.025  1.00  0.00    -0.206 F 
ATOM     85  C   UNL A   1      49.778  26.068  31.159  1.00  0.00     0.040 A 
ATOM     86  C   UNL A   1      50.217  27.075  29.016  1.00  0.00     0.040 A 
ATOM     87  F   UNL A   1      48.471  28.068  27.804  1.00  0.00    -0.206 F 
ATOM     88  C   UNL A   1      50.675  26.402  30.146  1.00  0.00     0.006 A 
ENDBRANCH  64  81
ENDBRANCH  38  39
ENDBRANCH  31  33
ENDBRANCH  30  31
ENDBRANCH  29  30
ENDBRANCH   1  29
TORSDOF 16
ENDMDL
MODEL 3
REMARK VINA RESULT:     -11.5      1.776      6.356
REMARK SMILES O=C(C[C@@H](C(=O)N(c1ccccc1)c1ccccc1)[NH+]1CCOCC1)OCCOC(=O)c1ccc(-c2c3nc(c(-c4c(F)cccc4F)c4ccc([nH]4)c(-c4c(F)cccc4F)c4nc(c(-c5c(F)cccc5F)c5ccc2[nH]5)C=C4)C=C3)cc1
REMARK SMILES IDX 27 1 26 2 2 3 1 4 3 5 4 6 5 7 6 8 7 9 8 10 9 11 13 12 10 13
REMARK SMILES IDX 12 14 11 15 14 16 15 17 19 18 16 19 18 20 17 21 20 22 21 23
REMARK SMILES IDX 25 24 22 26 24 27 23 28 28 29 29 30 30 31 31 32 32 33 33 34
REMARK SMILES IDX 85 35 34 36 84 37 35 38 36 39 37 40 78 41 38 42 83 43 77 44
REMARK SMILES IDX 79 45 39 46 82 47 76 48 75 49 40 51 66 52 49 53 65 54 50 55
REMARK SMILES IDX 53 56 64 57 80 58 51 59 52 60 63 62 81 63 54 64 41 65 42 66
REMARK SMILES IDX 47 67 43 68 44 69 46 70 48 71 45 72 67 73 68 74 73 75 69 76
REMARK SMILES IDX 70 77 72 78 74 79 71 80 55 81 56 82 61 83 57 84 58 85 60 86
REMARK SMILES IDX 62 87 59 88
REMARK H PARENT 20 25 79 50 53 61
REMARK Flexibility Score: inf
ROOT
ATOM      1  C   UNL A   1      31.416  28.259  26.043  1.00  0.00     0.274 C 
ENDROOT
BRANCH   1   2
ATOM      2  O   UNL A   1      30.896  27.094  26.724  1.00  0.00    -0.462 OA
BRANCH   2   3
ATOM      3  C   UNL A   1      30.281  26.050  26.126  1.00  0.00     0.312 C 
ATOM      4  O   UNL A   1      29.660  25.229  26.798  1.00  0.00    -0.252 OA
BRANCH   3   5
ATOM      5  C   UNL A   1      30.432  25.847  24.641  1.00  0.00     0.198 C 
BRANCH   5   6
ATOM      6  C   UNL A   1      31.735  25.335  24.008  1.00  0.00     0.286 C 
BRANCH   6   7
ATOM      7  C   UNL A   1      31.764  23.807  23.828  1.00  0.00     0.290 C 
ATOM      8  O   UNL A   1      30.653  23.255  23.739  1.00  0.00    -0.267 OA
ATOM      9  N   UNL A   1      32.931  23.012  23.829  1.00  0.00    -0.276 N 
BRANCH   9  10
ATOM     10  C   UNL A   1      34.330  23.322  24.132  1.00  0.00     0.049 A 
ATOM     11  C   UNL A   1      35.355  22.995  23.210  1.00  0.00     0.027 A 
ATOM     12  C   UNL A   1      34.791  23.877  25.325  1.00  0.00     0.027 A 
ATOM     13  C   UNL A   1      36.713  22.953  23.560  1.00  0.00     0.002 A 
ATOM     14  C   UNL A   1      36.149  23.825  25.697  1.00  0.00     0.002 A 
ATOM     15  C   UNL A   1      37.104  23.315  24.834  1.00  0.00     0.000 A 
ENDBRANCH   9  10
BRANCH   9  16
ATOM     16  C   UNL A   1      32.635  21.594  23.732  1.00  0.00     0.049 A 
ATOM     17  C   UNL A   1      32.328  21.013  22.490  1.00  0.00     0.027 A 
ATOM     18  C   UNL A   1      32.798  20.760  24.849  1.00  0.00     0.027 A 
ATOM     19  C   UNL A   1      32.152  19.634  22.377  1.00  0.00     0.002 A 
ATOM     20  C   UNL A   1      32.642  19.378  24.728  1.00  0.00     0.002 A 
ATOM     21  C   UNL A   1      32.315  18.817  23.494  1.00  0.00     0.000 A 
ENDBRANCH   9  16
ENDBRANCH   6   7
BRANCH   6  22
ATOM     22  N   UNL A   1      31.990  26.121  22.736  1.00  0.00    -0.320 N 
ATOM     23  C   UNL A   1      33.339  26.612  22.384  1.00  0.00     0.291 C 
ATOM     24  C   UNL A   1      30.995  27.147  22.375  1.00  0.00     0.291 C 
ATOM     25  H   UNL A   1      31.876  25.290  22.156  1.00  0.00     0.348 HD
ATOM     26  C   UNL A   1      33.662  28.050  22.807  1.00  0.00     0.221 C 
ATOM     27  C   UNL A   1      31.380  28.611  22.694  1.00  0.00     0.221 C 
ATOM     28  O   UNL A   1      32.700  28.951  22.255  1.00  0.00    -0.370 OA
ENDBRANCH   6  22
ENDBRANCH   5   6
ENDBRANCH   3   5
ENDBRANCH   2   3
ENDBRANCH   1   2
BRANCH   1  29
ATOM     29  C   UNL A   1      31.907  29.331  27.017  1.00  0.00     0.275 C 
BRANCH  29  30
ATOM     30  O   UNL A   1      32.965  30.095  26.409  1.00  0.00    -0.458 OA
BRANCH  30  31
ATOM     31  C   UNL A   1      33.357  31.199  27.097  1.00  0.00     0.338 C 
ATOM     32  O   UNL A   1      32.685  32.170  27.359  1.00  0.00    -0.246 OA
BRANCH  31  33
ATOM     33  C   UNL A   1      34.702  30.945  27.672  1.00  0.00     0.060 A 
ATOM     34  C   UNL A   1      35.088  29.611  27.856  1.00  0.00     0.016 A 
ATOM     35  C   UNL A   1      35.577  31.985  28.002  1.00  0.00     0.016 A 
ATOM     36  C   UNL A   1      36.331  29.313  28.413  1.00  0.00     0.010 A 
ATOM     37  C   UNL A   1      36.814  31.687  28.578  1.00  0.00     0.010 A 
ATOM     38  C   UNL A   1      37.175  30.351  28.825  1.00  0.00    -0.014 A 
BRANCH  38  39
ATOM     39  C   UNL A   1      38.283  30.054  29.764  1.00  0.00     0.031 A 
ATOM     40  C   UNL A   1      39.355  29.110  29.289  1.00  0.00     0.074 A 
ATOM     41  C   UNL A   1      38.355  30.612  30.984  1.00  0.00     0.049 A 
ATOM     42  N   UNL A   1      40.405  28.654  29.919  1.00  0.00    -0.248 NA
ATOM     43  C   UNL A   1      39.215  28.611  27.909  1.00  0.00     0.031 C 
ATOM     44  C   UNL A   1      37.405  31.575  31.535  1.00  0.00     0.029 A 
ATOM     45  N   UNL A   1      39.278  30.436  31.984  1.00  0.00    -0.354 N 
ATOM     46  C   UNL A   1      41.050  27.821  29.014  1.00  0.00     0.074 A 
ATOM     47  C   UNL A   1      40.260  27.807  27.804  1.00  0.00     0.031 C 
ATOM     48  C   UNL A   1      37.789  31.896  32.785  1.00  0.00     0.029 A 
ATOM     49  C   UNL A   1      38.994  31.141  33.128  1.00  0.00     0.049 A 
ATOM     50  H   UNL A   1      40.070  29.858  31.891  1.00  0.00     0.167 HD
ATOM     51  C   UNL A   1      42.203  27.132  29.172  1.00  0.00     0.037 A 
ATOM     52  C   UNL A   1      39.628  31.153  34.317  1.00  0.00     0.037 A 
ATOM     53  C   UNL A   1      42.975  27.126  30.383  1.00  0.00     0.049 A 
ATOM     54  C   UNL A   1      40.865  30.307  34.500  1.00  0.00     0.074 A 
ATOM     55  C   UNL A   1      44.149  26.451  30.658  1.00  0.00     0.029 A 
ATOM     56  N   UNL A   1      42.635  27.829  31.530  1.00  0.00    -0.354 N 
ATOM     57  N   UNL A   1      41.478  29.536  33.634  1.00  0.00    -0.248 NA
ATOM     58  C   UNL A   1      41.497  30.335  35.827  1.00  0.00     0.031 C 
ATOM     59  C   UNL A   1      44.497  26.708  31.988  1.00  0.00     0.029 A 
ATOM     60  C   UNL A   1      43.567  27.585  32.524  1.00  0.00     0.049 A 
ATOM     61  H   UNL A   1      41.849  28.413  31.623  1.00  0.00     0.167 HD
ATOM     62  C   UNL A   1      42.581  29.012  34.300  1.00  0.00     0.074 A 
ATOM     63  C   UNL A   1      42.558  29.562  35.640  1.00  0.00     0.031 C 
ATOM     64  C   UNL A   1      43.528  28.154  33.846  1.00  0.00     0.037 A 
BRANCH  51  65
ATOM     65  C   UNL A   1      42.665  26.301  28.012  1.00  0.00     0.057 A 
ATOM     66  C   UNL A   1      42.262  24.968  27.851  1.00  0.00     0.134 A 
ATOM     67  C   UNL A   1      43.532  26.835  27.052  1.00  0.00     0.134 A 
ATOM     68  F   UNL A   1      41.451  24.390  28.750  1.00  0.00    -0.206 F 
ATOM     69  C   UNL A   1      42.726  24.189  26.790  1.00  0.00     0.040 A 
ATOM     70  C   UNL A   1      43.982  26.073  25.973  1.00  0.00     0.040 A 
ATOM     71  F   UNL A   1      43.959  28.103  27.149  1.00  0.00    -0.206 F 
ATOM     72  C   UNL A   1      43.586  24.744  25.844  1.00  0.00     0.006 A 
ENDBRANCH  51  65
BRANCH  52  73
ATOM     73  C   UNL A   1      39.107  31.976  35.439  1.00  0.00     0.057 A 
ATOM     74  C   UNL A   1      39.486  33.314  35.598  1.00  0.00     0.134 A 
ATOM     75  C   UNL A   1      38.246  31.434  36.402  1.00  0.00     0.134 A 
ATOM     76  F   UNL A   1      40.330  33.885  34.726  1.00  0.00    -0.206 F 
ATOM     77  C   UNL A   1      39.045  34.077  36.681  1.00  0.00     0.040 A 
ATOM     78  C   UNL A   1      37.778  32.192  37.477  1.00  0.00     0.040 A 
ATOM     79  F   UNL A   1      37.848  30.156  36.312  1.00  0.00    -0.206 F 
ATOM     80  C   UNL A   1      38.184  33.517  37.623  1.00  0.00     0.006 A 
ENDBRANCH  52  73
BRANCH  64  81
ATOM     81  C   UNL A   1      44.637  27.789  34.789  1.00  0.00     0.057 A 
ATOM     82  C   UNL A   1      45.788  28.577  34.920  1.00  0.00     0.134 A 
ATOM     83  C   UNL A   1      44.524  26.664  35.616  1.00  0.00     0.134 A 
ATOM     84  F   UNL A   1      45.961  29.662  34.150  1.00  0.00    -0.206 F 
ATOM     85  C   UNL A   1      46.795  28.248  35.829  1.00  0.00     0.040 A 
ATOM     86  C   UNL A   1      45.512  26.341  36.547  1.00  0.00     0.040 A 
ATOM     87  F   UNL A   1      43.442  25.874  35.548  1.00  0.00    -0.206 F 
ATOM     88  C   UNL A   1      46.654  27.131  36.651  1.00  0.00     0.006 A 
ENDBRANCH  64  81
ENDBRANCH  38  39
ENDBRANCH  31  33
ENDBRANCH  30  31
ENDBRANCH  29  30
ENDBRANCH   1  29
TORSDOF 16
ENDMDL
