MODEL 1
REMARK VINA RESULT:     -12.6      0.000      0.000
REMARK SMILES Cc1ccccc1C(=O)Nc1ccc(OCC(=O)OCCOC(=O)c2ccc(-c3c4nc(c(-c5c(F)cccc5F)c5ccc([nH]5)c(-c5c(F)cccc5F)c5nc(c(-c6c(F)cccc6F)c6ccc3[nH]6)C=C5)C=C4)cc2)c(-c2nc3ccccc3s2)c1
REMARK SMILES IDX 20 1 19 2 17 3 18 4 16 5 15 6 14 7 11 8 12 9 89 10 13 11
REMARK SMILES IDX 79 12 10 13 8 14 9 15 7 17 1 18 2 19 3 20 4 21 6 22 5 23
REMARK SMILES IDX 80 24 81 25 88 26 82 27 87 28 83 29 86 30 84 31 85 32 21 33
REMARK SMILES IDX 22 34 23 35 24 36 25 37 26 38 78 39 27 40 77 41 28 42 29 43
REMARK SMILES IDX 30 44 71 45 31 46 76 47 70 48 72 49 32 50 75 51 69 52 68 53
REMARK SMILES IDX 33 55 59 56 42 57 58 58 43 59 46 60 57 61 73 62 44 63 45 64
REMARK SMILES IDX 56 66 74 67 47 68 34 69 35 70 40 71 36 72 37 73 39 74 41 75
REMARK SMILES IDX 38 76 60 77 61 78 66 79 62 80 63 81 65 82 67 83 64 84 48 85
REMARK SMILES IDX 49 86 54 87 50 88 51 89 53 90 55 91 52 92
REMARK H PARENT 10 16 72 54 46 65
REMARK Flexibility Score: inf
ROOT
ATOM      1  C   UNL A   1      34.139  33.470  28.092  1.00  0.00     0.274 C 
ENDROOT
BRANCH   1   2
ATOM      2  O   UNL A   1      33.946  32.156  28.643  1.00  0.00    -0.460 OA
BRANCH   2   3
ATOM      3  C   UNL A   1      34.048  31.162  27.720  1.00  0.00     0.344 C 
ATOM      4  O   UNL A   1      35.075  30.510  27.539  1.00  0.00    -0.248 OA
BRANCH   3   5
ATOM      5  C   UNL A   1      32.772  30.930  26.890  1.00  0.00     0.352 C 
BRANCH   5   6
ATOM      6  O   UNL A   1      32.697  30.013  25.803  1.00  0.00    -0.481 OA
BRANCH   6   7
ATOM      7  C   UNL A   1      32.014  28.834  25.938  1.00  0.00     0.130 A 
ATOM      8  C   UNL A   1      31.028  26.207  25.879  1.00  0.00     0.042 A 
ATOM      9  C   UNL A   1      31.721  26.661  26.996  1.00  0.00     0.030 A 
ATOM     10  C   UNL A   1      30.661  27.115  24.898  1.00  0.00     0.041 A 
ATOM     11  C   UNL A   1      32.264  27.948  26.995  1.00  0.00     0.049 A 
ATOM     12  C   UNL A   1      31.060  28.474  24.954  1.00  0.00     0.055 A 
BRANCH   8  13
ATOM     13  N   UNL A   1      30.729  24.843  25.797  1.00  0.00    -0.322 N 
ATOM     14  C   UNL A   1      31.473  23.772  25.343  1.00  0.00     0.255 C 
ATOM     15  O   UNL A   1      30.865  22.733  25.069  1.00  0.00    -0.269 OA
ATOM     16  H   UNL A   1      29.831  24.605  26.120  1.00  0.00     0.170 HD
BRANCH  14  17
ATOM     17  C   UNL A   1      32.972  23.718  25.322  1.00  0.00     0.043 A 
ATOM     18  C   UNL A   1      33.271  25.021  23.134  1.00  0.00     0.045 C 
ATOM     19  C   UNL A   1      33.791  24.351  24.371  1.00  0.00    -0.038 A 
ATOM     20  C   UNL A   1      35.192  24.364  24.581  1.00  0.00     0.004 A 
ATOM     21  C   UNL A   1      35.785  23.779  25.692  1.00  0.00     0.000 A 
ATOM     22  C   UNL A   1      33.586  23.207  26.487  1.00  0.00     0.014 A 
ATOM     23  C   UNL A   1      34.975  23.225  26.666  1.00  0.00     0.001 A 
ENDBRANCH  14  17
ENDBRANCH   8  13
BRANCH  12  24
ATOM     24  C   UNL A   1      30.468  29.346  23.904  1.00  0.00     0.128 A 
ATOM     25  N   UNL A   1      30.193  30.618  24.133  1.00  0.00    -0.236 NA
ATOM     26  S   UNL A   1      30.188  28.882  22.264  1.00  0.00    -0.114 S 
ATOM     27  C   UNL A   1      29.453  31.160  23.112  1.00  0.00     0.082 A 
ATOM     28  C   UNL A   1      29.307  30.347  21.990  1.00  0.00     0.055 A 
ATOM     29  C   UNL A   1      28.812  32.414  23.151  1.00  0.00     0.030 A 
ATOM     30  C   UNL A   1      28.514  30.748  20.899  1.00  0.00     0.021 A 
ATOM     31  C   UNL A   1      27.976  32.797  22.102  1.00  0.00     0.002 A 
ATOM     32  C   UNL A   1      27.824  31.969  20.993  1.00  0.00     0.002 A 
ENDBRANCH  12  24
ENDBRANCH   6   7
ENDBRANCH   5   6
ENDBRANCH   3   5
ENDBRANCH   2   3
ENDBRANCH   1   2
BRANCH   1  33
ATOM     33  C   UNL A   1      33.637  34.566  29.030  1.00  0.00     0.275 C 
BRANCH  33  34
ATOM     34  O   UNL A   1      33.646  34.261  30.458  1.00  0.00    -0.458 OA
BRANCH  34  35
ATOM     35  C   UNL A   1      34.529  34.565  31.432  1.00  0.00     0.338 C 
ATOM     36  O   UNL A   1      34.545  35.614  32.061  1.00  0.00    -0.246 OA
BRANCH  35  37
ATOM     37  C   UNL A   1      35.551  33.572  31.621  1.00  0.00     0.060 A 
ATOM     38  C   UNL A   1      35.372  32.462  32.455  1.00  0.00     0.016 A 
ATOM     39  C   UNL A   1      36.666  33.754  30.826  1.00  0.00     0.016 A 
ATOM     40  C   UNL A   1      36.353  31.501  32.505  1.00  0.00     0.010 A 
ATOM     41  C   UNL A   1      37.461  32.684  30.647  1.00  0.00     0.010 A 
ATOM     42  C   UNL A   1      37.396  31.669  31.612  1.00  0.00    -0.014 A 
BRANCH  42  43
ATOM     43  C   UNL A   1      38.633  30.940  31.667  1.00  0.00     0.031 A 
ATOM     44  C   UNL A   1      38.645  29.681  30.925  1.00  0.00     0.074 A 
ATOM     45  C   UNL A   1      39.609  31.758  32.133  1.00  0.00     0.049 A 
ATOM     46  N   UNL A   1      39.324  28.632  31.230  1.00  0.00    -0.248 NA
ATOM     47  C   UNL A   1      37.725  29.433  29.799  1.00  0.00     0.031 C 
ATOM     48  C   UNL A   1      41.020  31.878  31.848  1.00  0.00     0.029 A 
ATOM     49  N   UNL A   1      39.403  32.815  33.027  1.00  0.00    -0.354 N 
ATOM     50  C   UNL A   1      39.403  27.952  30.031  1.00  0.00     0.074 A 
ATOM     51  C   UNL A   1      38.168  28.254  29.356  1.00  0.00     0.031 C 
ATOM     52  C   UNL A   1      41.588  32.690  32.767  1.00  0.00     0.029 A 
ATOM     53  C   UNL A   1      40.570  33.070  33.736  1.00  0.00     0.049 A 
ATOM     54  H   UNL A   1      38.557  33.306  33.136  1.00  0.00     0.167 HD
ATOM     55  C   UNL A   1      40.647  27.684  29.527  1.00  0.00     0.037 A 
ATOM     56  C   UNL A   1      40.537  32.731  35.062  1.00  0.00     0.037 A 
ATOM     57  C   UNL A   1      41.676  28.240  30.427  1.00  0.00     0.049 A 
ATOM     58  C   UNL A   1      41.196  31.389  35.263  1.00  0.00     0.074 A 
ATOM     59  C   UNL A   1      42.573  29.291  30.316  1.00  0.00     0.029 A 
ATOM     60  N   UNL A   1      41.637  27.928  31.783  1.00  0.00    -0.354 N 
ATOM     61  N   UNL A   1      41.388  30.504  34.322  1.00  0.00    -0.248 NA
ATOM     62  C   UNL A   1      41.791  31.000  36.527  1.00  0.00     0.031 C 
ATOM     63  C   UNL A   1      43.099  29.569  31.613  1.00  0.00     0.029 A 
ATOM     64  C   UNL A   1      42.478  28.731  32.522  1.00  0.00     0.049 A 
ATOM     65  H   UNL A   1      41.076  27.217  32.167  1.00  0.00     0.167 HD
ATOM     66  C   UNL A   1      42.197  29.498  34.779  1.00  0.00     0.074 A 
ATOM     67  C   UNL A   1      42.418  29.865  36.170  1.00  0.00     0.031 C 
ATOM     68  C   UNL A   1      42.627  28.486  33.957  1.00  0.00     0.037 A 
BRANCH  55  69
ATOM     69  C   UNL A   1      40.956  27.234  28.107  1.00  0.00     0.057 A 
ATOM     70  C   UNL A   1      40.797  25.882  27.733  1.00  0.00     0.134 A 
ATOM     71  C   UNL A   1      41.353  28.069  27.044  1.00  0.00     0.134 A 
ATOM     72  F   UNL A   1      40.334  24.960  28.586  1.00  0.00    -0.206 F 
ATOM     73  C   UNL A   1      41.071  25.397  26.447  1.00  0.00     0.040 A 
ATOM     74  C   UNL A   1      41.654  27.593  25.757  1.00  0.00     0.040 A 
ATOM     75  F   UNL A   1      41.412  29.399  27.166  1.00  0.00    -0.206 F 
ATOM     76  C   UNL A   1      41.514  26.250  25.453  1.00  0.00     0.006 A 
ENDBRANCH  55  69
BRANCH  56  77
ATOM     77  C   UNL A   1      39.255  33.200  35.699  1.00  0.00     0.057 A 
ATOM     78  C   UNL A   1      38.362  32.193  36.128  1.00  0.00     0.134 A 
ATOM     79  C   UNL A   1      39.244  34.395  36.421  1.00  0.00     0.134 A 
ATOM     80  F   UNL A   1      38.267  31.045  35.439  1.00  0.00    -0.206 F 
ATOM     81  C   UNL A   1      37.692  32.268  37.354  1.00  0.00     0.040 A 
ATOM     82  C   UNL A   1      38.611  34.455  37.663  1.00  0.00     0.040 A 
ATOM     83  F   UNL A   1      40.006  35.435  36.052  1.00  0.00    -0.206 F 
ATOM     84  C   UNL A   1      37.884  33.376  38.164  1.00  0.00     0.006 A 
ENDBRANCH  56  77
BRANCH  68  85
ATOM     85  C   UNL A   1      43.289  27.171  34.355  1.00  0.00     0.057 A 
ATOM     86  C   UNL A   1      42.646  26.082  34.953  1.00  0.00     0.134 A 
ATOM     87  C   UNL A   1      44.653  26.917  34.035  1.00  0.00     0.134 A 
ATOM     88  F   UNL A   1      41.340  26.076  35.225  1.00  0.00    -0.206 F 
ATOM     89  C   UNL A   1      43.305  24.885  35.266  1.00  0.00     0.040 A 
ATOM     90  C   UNL A   1      45.294  25.698  34.260  1.00  0.00     0.040 A 
ATOM     91  F   UNL A   1      45.455  27.827  33.466  1.00  0.00    -0.206 F 
ATOM     92  C   UNL A   1      44.625  24.681  34.905  1.00  0.00     0.006 A 
ENDBRANCH  68  85
ENDBRANCH  42  43
ENDBRANCH  35  37
ENDBRANCH  34  35
ENDBRANCH  33  34
ENDBRANCH   1  33
TORSDOF 16
ENDMDL
MODEL 2
REMARK VINA RESULT:     -12.6      4.989     10.351
REMARK SMILES Cc1ccccc1C(=O)Nc1ccc(OCC(=O)OCCOC(=O)c2ccc(-c3c4nc(c(-c5c(F)cccc5F)c5ccc([nH]5)c(-c5c(F)cccc5F)c5nc(c(-c6c(F)cccc6F)c6ccc3[nH]6)C=C5)C=C4)cc2)c(-c2nc3ccccc3s2)c1
REMARK SMILES IDX 20 1 19 2 17 3 18 4 16 5 15 6 14 7 11 8 12 9 89 10 13 11
REMARK SMILES IDX 79 12 10 13 8 14 9 15 7 17 1 18 2 19 3 20 4 21 6 22 5 23
REMARK SMILES IDX 80 24 81 25 88 26 82 27 87 28 83 29 86 30 84 31 85 32 21 33
REMARK SMILES IDX 22 34 23 35 24 36 25 37 26 38 78 39 27 40 77 41 28 42 29 43
REMARK SMILES IDX 30 44 71 45 31 46 76 47 70 48 72 49 32 50 75 51 69 52 68 53
REMARK SMILES IDX 33 55 59 56 42 57 58 58 43 59 46 60 57 61 73 62 44 63 45 64
REMARK SMILES IDX 56 66 74 67 47 68 34 69 35 70 40 71 36 72 37 73 39 74 41 75
REMARK SMILES IDX 38 76 60 77 61 78 66 79 62 80 63 81 65 82 67 83 64 84 48 85
REMARK SMILES IDX 49 86 54 87 50 88 51 89 53 90 55 91 52 92
REMARK H PARENT 10 16 72 54 46 65
REMARK Flexibility Score: inf
ROOT
ATOM      1  C   UNL A   1      40.461  20.655  26.795  1.00  0.00     0.274 C 
ENDROOT
BRANCH   1   2
ATOM      2  O   UNL A   1      39.596  21.180  25.773  1.00  0.00    -0.460 OA
BRANCH   2   3
ATOM      3  C   UNL A   1      38.999  22.352  26.119  1.00  0.00     0.344 C 
ATOM      4  O   UNL A   1      39.378  23.053  27.055  1.00  0.00    -0.248 OA
BRANCH   3   5
ATOM      5  C   UNL A   1      37.780  22.724  25.254  1.00  0.00     0.352 C 
BRANCH   5   6
ATOM      6  O   UNL A   1      36.474  22.197  25.468  1.00  0.00    -0.481 OA
BRANCH   6   7
ATOM      7  C   UNL A   1      35.385  23.028  25.475  1.00  0.00     0.130 A 
ATOM      8  C   UNL A   1      33.135  24.604  26.046  1.00  0.00     0.042 A 
ATOM      9  C   UNL A   1      34.380  25.204  25.897  1.00  0.00     0.030 A 
ATOM     10  C   UNL A   1      32.987  23.266  25.714  1.00  0.00     0.041 A 
ATOM     11  C   UNL A   1      35.507  24.410  25.675  1.00  0.00     0.049 A 
ATOM     12  C   UNL A   1      34.092  22.469  25.323  1.00  0.00     0.055 A 
BRANCH   8  13
ATOM     13  N   UNL A   1      32.079  25.385  26.528  1.00  0.00    -0.322 N 
ATOM     14  C   UNL A   1      31.767  26.716  26.335  1.00  0.00     0.255 C 
ATOM     15  O   UNL A   1      30.979  27.237  27.130  1.00  0.00    -0.269 OA
ATOM     16  H   UNL A   1      31.447  24.899  27.106  1.00  0.00     0.170 HD
BRANCH  14  17
ATOM     17  C   UNL A   1      32.174  27.526  25.140  1.00  0.00     0.043 A 
ATOM     18  C   UNL A   1      34.073  28.803  26.297  1.00  0.00     0.045 C 
ATOM     19  C   UNL A   1      33.266  28.409  25.095  1.00  0.00    -0.038 A 
ATOM     20  C   UNL A   1      33.638  28.968  23.848  1.00  0.00     0.004 A 
ATOM     21  C   UNL A   1      32.968  28.673  22.668  1.00  0.00     0.000 A 
ATOM     22  C   UNL A   1      31.560  27.172  23.918  1.00  0.00     0.014 A 
ATOM     23  C   UNL A   1      31.943  27.745  22.699  1.00  0.00     0.001 A 
ENDBRANCH  14  17
ENDBRANCH   8  13
BRANCH  12  24
ATOM     24  C   UNL A   1      33.746  21.097  24.864  1.00  0.00     0.128 A 
ATOM     25  N   UNL A   1      34.445  20.043  25.243  1.00  0.00    -0.236 NA
ATOM     26  S   UNL A   1      32.362  20.682  23.918  1.00  0.00    -0.114 S 
ATOM     27  C   UNL A   1      34.092  18.926  24.527  1.00  0.00     0.082 A 
ATOM     28  C   UNL A   1      32.976  19.077  23.708  1.00  0.00     0.055 A 
ATOM     29  C   UNL A   1      34.795  17.705  24.528  1.00  0.00     0.030 A 
ATOM     30  C   UNL A   1      32.545  18.035  22.865  1.00  0.00     0.021 A 
ATOM     31  C   UNL A   1      34.413  16.686  23.655  1.00  0.00     0.002 A 
ATOM     32  C   UNL A   1      33.306  16.854  22.828  1.00  0.00     0.002 A 
ENDBRANCH  12  24
ENDBRANCH   6   7
ENDBRANCH   5   6
ENDBRANCH   3   5
ENDBRANCH   2   3
ENDBRANCH   1   2
BRANCH   1  33
ATOM     33  C   UNL A   1      41.695  19.971  26.209  1.00  0.00     0.275 C 
BRANCH  33  34
ATOM     34  O   UNL A   1      42.547  20.785  25.346  1.00  0.00    -0.458 OA
BRANCH  34  35
ATOM     35  C   UNL A   1      43.752  21.353  25.559  1.00  0.00     0.338 C 
ATOM     36  O   UNL A   1      44.828  20.845  25.275  1.00  0.00    -0.246 OA
BRANCH  35  37
ATOM     37  C   UNL A   1      43.687  22.607  26.261  1.00  0.00     0.060 A 
ATOM     38  C   UNL A   1      43.699  22.683  27.659  1.00  0.00     0.016 A 
ATOM     39  C   UNL A   1      43.725  23.715  25.438  1.00  0.00     0.016 A 
ATOM     40  C   UNL A   1      43.739  23.919  28.258  1.00  0.00     0.010 A 
ATOM     41  C   UNL A   1      44.071  24.881  26.012  1.00  0.00     0.010 A 
ATOM     42  C   UNL A   1      43.889  24.992  27.397  1.00  0.00    -0.014 A 
BRANCH  42  43
ATOM     43  C   UNL A   1      43.700  26.365  27.777  1.00  0.00     0.031 A 
ATOM     44  C   UNL A   1      42.357  26.895  27.549  1.00  0.00     0.074 A 
ATOM     45  C   UNL A   1      44.735  26.752  28.563  1.00  0.00     0.049 A 
ATOM     46  N   UNL A   1      42.065  28.114  27.263  1.00  0.00    -0.248 NA
ATOM     47  C   UNL A   1      41.178  26.012  27.468  1.00  0.00     0.031 C 
ATOM     48  C   UNL A   1      44.840  27.652  29.690  1.00  0.00     0.029 A 
ATOM     49  N   UNL A   1      46.036  26.243  28.477  1.00  0.00    -0.354 N 
ATOM     50  C   UNL A   1      40.740  28.213  27.638  1.00  0.00     0.074 A 
ATOM     51  C   UNL A   1      40.189  26.907  27.388  1.00  0.00     0.031 C 
ATOM     52  C   UNL A   1      46.147  27.874  29.955  1.00  0.00     0.029 A 
ATOM     53  C   UNL A   1      46.944  27.180  28.954  1.00  0.00     0.049 A 
ATOM     54  H   UNL A   1      46.272  25.353  28.129  1.00  0.00     0.167 HD
ATOM     55  C   UNL A   1      40.409  29.151  28.579  1.00  0.00     0.037 A 
ATOM     56  C   UNL A   1      47.747  27.756  28.006  1.00  0.00     0.037 A 
ATOM     57  C   UNL A   1      41.624  29.863  29.017  1.00  0.00     0.049 A 
ATOM     58  C   UNL A   1      47.191  29.103  27.615  1.00  0.00     0.074 A 
ATOM     59  C   UNL A   1      42.346  29.881  30.201  1.00  0.00     0.029 A 
ATOM     60  N   UNL A   1      42.465  30.428  28.063  1.00  0.00    -0.354 N 
ATOM     61  N   UNL A   1      45.957  29.485  27.809  1.00  0.00    -0.248 NA
ATOM     62  C   UNL A   1      48.026  30.159  27.078  1.00  0.00     0.031 C 
ATOM     63  C   UNL A   1      43.605  30.501  29.949  1.00  0.00     0.029 A 
ATOM     64  C   UNL A   1      43.676  30.805  28.601  1.00  0.00     0.049 A 
ATOM     65  H   UNL A   1      42.223  30.543  27.116  1.00  0.00     0.167 HD
ATOM     66  C   UNL A   1      45.832  30.822  27.543  1.00  0.00     0.074 A 
ATOM     67  C   UNL A   1      47.164  31.190  27.089  1.00  0.00     0.031 C 
ATOM     68  C   UNL A   1      44.654  31.494  27.757  1.00  0.00     0.037 A 
BRANCH  55  69
ATOM     69  C   UNL A   1      39.096  29.219  29.346  1.00  0.00     0.057 A 
ATOM     70  C   UNL A   1      37.928  29.712  28.724  1.00  0.00     0.134 A 
ATOM     71  C   UNL A   1      38.886  28.771  30.665  1.00  0.00     0.134 A 
ATOM     72  F   UNL A   1      37.915  30.094  27.442  1.00  0.00    -0.206 F 
ATOM     73  C   UNL A   1      36.690  29.811  29.372  1.00  0.00     0.040 A 
ATOM     74  C   UNL A   1      37.656  28.886  31.334  1.00  0.00     0.040 A 
ATOM     75  F   UNL A   1      39.834  28.136  31.362  1.00  0.00    -0.206 F 
ATOM     76  C   UNL A   1      36.550  29.409  30.688  1.00  0.00     0.006 A 
ENDBRANCH  55  69
BRANCH  56  77
ATOM     77  C   UNL A   1      48.297  26.711  27.071  1.00  0.00     0.057 A 
ATOM     78  C   UNL A   1      47.817  26.743  25.743  1.00  0.00     0.134 A 
ATOM     79  C   UNL A   1      49.600  26.243  27.254  1.00  0.00     0.134 A 
ATOM     80  F   UNL A   1      46.551  27.113  25.498  1.00  0.00    -0.206 F 
ATOM     81  C   UNL A   1      48.664  26.572  24.642  1.00  0.00     0.040 A 
ATOM     82  C   UNL A   1      50.456  26.114  26.159  1.00  0.00     0.040 A 
ATOM     83  F   UNL A   1      50.123  26.113  28.482  1.00  0.00    -0.206 F 
ATOM     84  C   UNL A   1      50.013  26.334  24.856  1.00  0.00     0.006 A 
ENDBRANCH  56  77
BRANCH  68  85
ATOM     85  C   UNL A   1      44.266  32.887  27.270  1.00  0.00     0.057 A 
ATOM     86  C   UNL A   1      44.026  33.248  25.940  1.00  0.00     0.134 A 
ATOM     87  C   UNL A   1      44.012  33.938  28.197  1.00  0.00     0.134 A 
ATOM     88  F   UNL A   1      44.093  32.377  24.933  1.00  0.00    -0.206 F 
ATOM     89  C   UNL A   1      43.640  34.541  25.559  1.00  0.00     0.040 A 
ATOM     90  C   UNL A   1      43.542  35.200  27.836  1.00  0.00     0.040 A 
ATOM     91  F   UNL A   1      44.187  33.808  29.519  1.00  0.00    -0.206 F 
ATOM     92  C   UNL A   1      43.378  35.517  26.505  1.00  0.00     0.006 A 
ENDBRANCH  68  85
ENDBRANCH  42  43
ENDBRANCH  35  37
ENDBRANCH  34  35
ENDBRANCH  33  34
ENDBRANCH   1  33
TORSDOF 16
ENDMDL
MODEL 3
REMARK VINA RESULT:     -12.5      4.774     10.304
REMARK SMILES Cc1ccccc1C(=O)Nc1ccc(OCC(=O)OCCOC(=O)c2ccc(-c3c4nc(c(-c5c(F)cccc5F)c5ccc([nH]5)c(-c5c(F)cccc5F)c5nc(c(-c6c(F)cccc6F)c6ccc3[nH]6)C=C5)C=C4)cc2)c(-c2nc3ccccc3s2)c1
REMARK SMILES IDX 20 1 19 2 17 3 18 4 16 5 15 6 14 7 11 8 12 9 89 10 13 11
REMARK SMILES IDX 79 12 10 13 8 14 9 15 7 17 1 18 2 19 3 20 4 21 6 22 5 23
REMARK SMILES IDX 80 24 81 25 88 26 82 27 87 28 83 29 86 30 84 31 85 32 21 33
REMARK SMILES IDX 22 34 23 35 24 36 25 37 26 38 78 39 27 40 77 41 28 42 29 43
REMARK SMILES IDX 30 44 71 45 31 46 76 47 70 48 72 49 32 50 75 51 69 52 68 53
REMARK SMILES IDX 33 55 59 56 42 57 58 58 43 59 46 60 57 61 73 62 44 63 45 64
REMARK SMILES IDX 56 66 74 67 47 68 34 69 35 70 40 71 36 72 37 73 39 74 41 75
REMARK SMILES IDX 38 76 60 77 61 78 66 79 62 80 63 81 65 82 67 83 64 84 48 85
REMARK SMILES IDX 49 86 54 87 50 88 51 89 53 90 55 91 52 92
REMARK H PARENT 10 16 72 54 46 65
REMARK Flexibility Score: inf
ROOT
ATOM      1  C   UNL A   1      40.427  21.012  26.899  1.00  0.00     0.274 C 
ENDROOT
BRANCH   1   2
ATOM      2  O   UNL A   1      39.775  21.919  25.992  1.00  0.00    -0.460 OA
BRANCH   2   3
ATOM      3  C   UNL A   1      38.528  21.516  25.628  1.00  0.00     0.344 C 
ATOM      4  O   UNL A   1      38.262  20.365  25.290  1.00  0.00    -0.248 OA
BRANCH   3   5
ATOM      5  C   UNL A   1      37.468  22.633  25.646  1.00  0.00     0.352 C 
BRANCH   5   6
ATOM      6  O   UNL A   1      36.401  22.720  24.706  1.00  0.00    -0.481 OA
BRANCH   6   7
ATOM      7  C   UNL A   1      35.287  23.465  24.990  1.00  0.00     0.130 A 
ATOM      8  C   UNL A   1      33.135  24.873  26.113  1.00  0.00     0.042 A 
ATOM      9  C   UNL A   1      34.255  25.565  25.663  1.00  0.00     0.030 A 
ATOM     10  C   UNL A   1      33.013  23.524  25.819  1.00  0.00     0.041 A 
ATOM     11  C   UNL A   1      35.350  24.855  25.163  1.00  0.00     0.049 A 
ATOM     12  C   UNL A   1      34.044  22.809  25.160  1.00  0.00     0.055 A 
BRANCH   8  13
ATOM     13  N   UNL A   1      32.176  25.578  26.847  1.00  0.00    -0.322 N 
ATOM     14  C   UNL A   1      31.514  26.761  26.584  1.00  0.00     0.255 C 
ATOM     15  O   UNL A   1      30.970  27.332  27.535  1.00  0.00    -0.269 OA
ATOM     16  H   UNL A   1      31.930  25.156  27.701  1.00  0.00     0.170 HD
BRANCH  14  17
ATOM     17  C   UNL A   1      31.257  27.312  25.213  1.00  0.00     0.043 A 
ATOM     18  C   UNL A   1      33.122  29.072  25.262  1.00  0.00     0.045 C 
ATOM     19  C   UNL A   1      32.033  28.298  24.580  1.00  0.00    -0.038 A 
ATOM     20  C   UNL A   1      31.780  28.591  23.217  1.00  0.00     0.004 A 
ATOM     21  C   UNL A   1      30.800  27.937  22.483  1.00  0.00     0.000 A 
ATOM     22  C   UNL A   1      30.326  26.598  24.427  1.00  0.00     0.014 A 
ATOM     23  C   UNL A   1      30.091  26.913  23.082  1.00  0.00     0.001 A 
ENDBRANCH  14  17
ENDBRANCH   8  13
BRANCH  12  24
ATOM     24  C   UNL A   1      33.700  21.408  24.793  1.00  0.00     0.128 A 
ATOM     25  N   UNL A   1      34.444  20.388  25.180  1.00  0.00    -0.236 NA
ATOM     26  S   UNL A   1      32.271  20.920  23.956  1.00  0.00    -0.114 S 
ATOM     27  C   UNL A   1      34.072  19.229  24.544  1.00  0.00     0.082 A 
ATOM     28  C   UNL A   1      32.906  19.317  23.789  1.00  0.00     0.055 A 
ATOM     29  C   UNL A   1      34.801  18.024  24.563  1.00  0.00     0.030 A 
ATOM     30  C   UNL A   1      32.448  18.226  23.027  1.00  0.00     0.021 A 
ATOM     31  C   UNL A   1      34.389  16.954  23.766  1.00  0.00     0.002 A 
ATOM     32  C   UNL A   1      33.231  17.059  23.002  1.00  0.00     0.002 A 
ENDBRANCH  12  24
ENDBRANCH   6   7
ENDBRANCH   5   6
ENDBRANCH   3   5
ENDBRANCH   2   3
ENDBRANCH   1   2
BRANCH   1  33
ATOM     33  C   UNL A   1      41.535  20.213  26.214  1.00  0.00     0.275 C 
BRANCH  33  34
ATOM     34  O   UNL A   1      42.472  20.968  25.386  1.00  0.00    -0.458 OA
BRANCH  34  35
ATOM     35  C   UNL A   1      43.655  21.547  25.676  1.00  0.00     0.338 C 
ATOM     36  O   UNL A   1      44.724  20.957  25.755  1.00  0.00    -0.246 OA
BRANCH  35  37
ATOM     37  C   UNL A   1      43.555  22.945  25.996  1.00  0.00     0.060 A 
ATOM     38  C   UNL A   1      43.483  23.936  25.009  1.00  0.00     0.016 A 
ATOM     39  C   UNL A   1      43.424  23.206  27.346  1.00  0.00     0.016 A 
ATOM     40  C   UNL A   1      43.284  25.241  25.389  1.00  0.00     0.010 A 
ATOM     41  C   UNL A   1      42.931  24.411  27.684  1.00  0.00     0.010 A 
ATOM     42  C   UNL A   1      43.049  25.439  26.738  1.00  0.00    -0.014 A 
BRANCH  42  43
ATOM     43  C   UNL A   1      43.069  26.722  27.383  1.00  0.00     0.031 A 
ATOM     44  C   UNL A   1      41.784  27.416  27.429  1.00  0.00     0.074 A 
ATOM     45  C   UNL A   1      44.221  26.845  28.088  1.00  0.00     0.049 A 
ATOM     46  N   UNL A   1      41.612  28.690  27.411  1.00  0.00    -0.248 NA
ATOM     47  C   UNL A   1      40.504  26.687  27.341  1.00  0.00     0.031 C 
ATOM     48  C   UNL A   1      44.555  27.492  29.336  1.00  0.00     0.029 A 
ATOM     49  N   UNL A   1      45.434  26.237  27.744  1.00  0.00    -0.354 N 
ATOM     50  C   UNL A   1      40.357  28.844  27.965  1.00  0.00     0.074 A 
ATOM     51  C   UNL A   1      39.628  27.672  27.553  1.00  0.00     0.031 C 
ATOM     52  C   UNL A   1      45.899  27.528  29.469  1.00  0.00     0.029 A 
ATOM     53  C   UNL A   1      46.495  26.969  28.263  1.00  0.00     0.049 A 
ATOM     54  H   UNL A   1      45.523  25.413  27.212  1.00  0.00     0.167 HD
ATOM     55  C   UNL A   1      40.244  29.607  29.095  1.00  0.00     0.037 A 
ATOM     56  C   UNL A   1      47.256  27.637  27.342  1.00  0.00     0.037 A 
ATOM     57  C   UNL A   1      41.576  30.098  29.497  1.00  0.00     0.049 A 
ATOM     58  C   UNL A   1      46.828  29.082  27.278  1.00  0.00     0.074 A 
ATOM     59  C   UNL A   1      42.417  29.812  30.561  1.00  0.00     0.029 A 
ATOM     60  N   UNL A   1      42.372  30.752  28.562  1.00  0.00    -0.354 N 
ATOM     61  N   UNL A   1      45.677  29.538  27.695  1.00  0.00    -0.248 NA
ATOM     62  C   UNL A   1      47.723  30.136  26.840  1.00  0.00     0.031 C 
ATOM     63  C   UNL A   1      43.708  30.342  30.267  1.00  0.00     0.029 A 
ATOM     64  C   UNL A   1      43.670  30.896  29.000  1.00  0.00     0.049 A 
ATOM     65  H   UNL A   1      42.046  31.074  27.691  1.00  0.00     0.167 HD
ATOM     66  C   UNL A   1      45.687  30.908  27.696  1.00  0.00     0.074 A 
ATOM     67  C   UNL A   1      46.997  31.225  27.150  1.00  0.00     0.031 C 
ATOM     68  C   UNL A   1      44.628  31.637  28.178  1.00  0.00     0.037 A 
BRANCH  55  69
ATOM     69  C   UNL A   1      39.039  29.653  30.023  1.00  0.00     0.057 A 
ATOM     70  C   UNL A   1      38.100  30.704  29.928  1.00  0.00     0.134 A 
ATOM     71  C   UNL A   1      38.702  28.682  30.987  1.00  0.00     0.134 A 
ATOM     72  F   UNL A   1      38.205  31.665  29.003  1.00  0.00    -0.206 F 
ATOM     73  C   UNL A   1      36.974  30.813  30.754  1.00  0.00     0.040 A 
ATOM     74  C   UNL A   1      37.589  28.792  31.839  1.00  0.00     0.040 A 
ATOM     75  F   UNL A   1      39.386  27.542  31.121  1.00  0.00    -0.206 F 
ATOM     76  C   UNL A   1      36.719  29.862  31.725  1.00  0.00     0.006 A 
ENDBRANCH  55  69
BRANCH  56  77
ATOM     77  C   UNL A   1      47.572  26.747  26.169  1.00  0.00     0.057 A 
ATOM     78  C   UNL A   1      47.009  27.120  24.928  1.00  0.00     0.134 A 
ATOM     79  C   UNL A   1      48.798  26.079  26.125  1.00  0.00     0.134 A 
ATOM     80  F   UNL A   1      45.801  27.701  24.889  1.00  0.00    -0.206 F 
ATOM     81  C   UNL A   1      47.741  27.070  23.736  1.00  0.00     0.040 A 
ATOM     82  C   UNL A   1      49.545  26.067  24.946  1.00  0.00     0.040 A 
ATOM     83  F   UNL A   1      49.381  25.625  27.244  1.00  0.00    -0.206 F 
ATOM     84  C   UNL A   1      49.049  26.612  23.762  1.00  0.00     0.006 A 
ENDBRANCH  56  77
BRANCH  68  85
ATOM     85  C   UNL A   1      44.362  33.129  28.006  1.00  0.00     0.057 A 
ATOM     86  C   UNL A   1      44.413  34.089  29.023  1.00  0.00     0.134 A 
ATOM     87  C   UNL A   1      44.131  33.684  26.715  1.00  0.00     0.134 A 
ATOM     88  F   UNL A   1      44.732  33.789  30.282  1.00  0.00    -0.206 F 
ATOM     89  C   UNL A   1      44.190  35.454  28.794  1.00  0.00     0.040 A 
ATOM     90  C   UNL A   1      43.996  35.050  26.464  1.00  0.00     0.040 A 
ATOM     91  F   UNL A   1      44.035  32.942  25.604  1.00  0.00    -0.206 F 
ATOM     92  C   UNL A   1      43.999  35.943  27.513  1.00  0.00     0.006 A 
ENDBRANCH  68  85
ENDBRANCH  42  43
ENDBRANCH  35  37
ENDBRANCH  34  35
ENDBRANCH  33  34
ENDBRANCH   1  33
TORSDOF 16
ENDMDL
