MODEL 1
REMARK VINA RESULT:     -10.9      0.000      0.000
REMARK SMILES C[C@H](O)C[C@@]1(C(=O)OCCOC(=O)c2ccc(-c3c4nc(c(-c5c(F)cccc5F)c5ccc([nH]5)c(-c5c(F)cccc5F)c5nc(c(-c6c(F)cccc6F)c6ccc3[nH]6)C=C5)C=C4)cc2)CCN(C(=O)OC(C)(C)C)C1
REMARK SMILES IDX 9 1 8 2 6 3 7 4 5 5 68 6 78 7 69 8 70 9 4 10 2 11 1 12 3 13
REMARK SMILES IDX 71 15 72 16 73 17 74 18 75 19 76 20 77 21 10 22 11 23 12 24
REMARK SMILES IDX 13 25 14 26 15 27 67 28 16 29 66 30 17 31 18 32 19 33 60 34
REMARK SMILES IDX 20 35 65 36 59 37 61 38 21 39 64 40 58 41 57 42 22 44 48 45
REMARK SMILES IDX 31 46 47 47 32 48 35 49 46 50 62 51 33 52 34 53 45 55 63 56
REMARK SMILES IDX 36 57 23 58 24 59 29 60 25 61 26 62 28 63 30 64 27 65 49 66
REMARK SMILES IDX 50 67 55 68 51 69 52 70 54 71 56 72 53 73 37 74 38 75 43 76
REMARK SMILES IDX 39 77 40 78 42 79 44 80 41 81
REMARK H PARENT 3 14 61 43 35 54
REMARK Flexibility Score: inf
ROOT
ATOM      1  C   UNL A   1      31.762  30.619  26.543  1.00  0.00     0.274 C 
ENDROOT
BRANCH   1   2
ATOM      2  O   UNL A   1      31.108  30.134  25.348  1.00  0.00    -0.462 OA
BRANCH   2   3
ATOM      3  C   UNL A   1      31.904  29.409  24.520  1.00  0.00     0.314 C 
ATOM      4  O   UNL A   1      33.077  29.685  24.294  1.00  0.00    -0.252 OA
BRANCH   3   5
ATOM      5  C   UNL A   1      31.186  28.226  23.859  1.00  0.00     0.090 C 
ATOM      6  C   UNL A   1      30.986  27.112  24.922  1.00  0.00     0.042 C 
ATOM      7  C   UNL A   1      32.204  27.596  22.889  1.00  0.00     0.142 C 
ATOM      8  C   UNL A   1      32.301  26.318  24.914  1.00  0.00     0.124 C 
ATOM      9  N   UNL A   1      32.762  26.443  23.549  1.00  0.00    -0.307 N 
BRANCH   5  10
ATOM     10  C   UNL A   1      29.914  28.509  23.005  1.00  0.00     0.052 C 
BRANCH  10  11
ATOM     11  C   UNL A   1      29.678  29.895  22.398  1.00  0.00     0.112 C 
ATOM     12  C   UNL A   1      28.237  30.039  21.914  1.00  0.00     0.038 C 
BRANCH  11  13
ATOM     13  O   UNL A   1      30.457  30.094  21.230  1.00  0.00    -0.393 OA
ATOM     14  H   UNL A   1      29.942  30.596  20.579  1.00  0.00     0.210 HD
ENDBRANCH  11  13
ENDBRANCH  10  11
ENDBRANCH   5  10
BRANCH   9  15
ATOM     15  C   UNL A   1      33.623  25.628  22.863  1.00  0.00     0.410 C 
ATOM     16  O   UNL A   1      33.690  25.648  21.639  1.00  0.00    -0.224 OA
BRANCH  15  17
ATOM     17  O   UNL A   1      34.362  24.824  23.669  1.00  0.00    -0.444 OA
BRANCH  17  18
ATOM     18  C   UNL A   1      34.178  23.385  23.584  1.00  0.00     0.106 C 
ATOM     19  C   UNL A   1      33.662  22.860  24.930  1.00  0.00     0.056 C 
ATOM     20  C   UNL A   1      33.273  22.948  22.419  1.00  0.00     0.056 C 
ATOM     21  C   UNL A   1      35.577  22.806  23.327  1.00  0.00     0.056 C 
ENDBRANCH  17  18
ENDBRANCH  15  17
ENDBRANCH   9  15
ENDBRANCH   3   5
ENDBRANCH   2   3
ENDBRANCH   1   2
BRANCH   1  22
ATOM     22  C   UNL A   1      31.403  32.093  26.782  1.00  0.00     0.275 C 
BRANCH  22  23
ATOM     23  O   UNL A   1      32.478  33.060  26.724  1.00  0.00    -0.458 OA
BRANCH  23  24
ATOM     24  C   UNL A   1      32.986  33.593  27.854  1.00  0.00     0.338 C 
ATOM     25  O   UNL A   1      32.583  34.578  28.452  1.00  0.00    -0.246 OA
BRANCH  24  26
ATOM     26  C   UNL A   1      34.217  32.879  28.258  1.00  0.00     0.060 A 
ATOM     27  C   UNL A   1      35.347  33.650  28.552  1.00  0.00     0.016 A 
ATOM     28  C   UNL A   1      34.259  31.490  28.411  1.00  0.00     0.016 A 
ATOM     29  C   UNL A   1      36.518  33.038  28.996  1.00  0.00     0.010 A 
ATOM     30  C   UNL A   1      35.410  30.887  28.931  1.00  0.00     0.010 A 
ATOM     31  C   UNL A   1      36.540  31.658  29.250  1.00  0.00    -0.014 A 
BRANCH  31  32
ATOM     32  C   UNL A   1      37.693  31.068  29.979  1.00  0.00     0.031 A 
ATOM     33  C   UNL A   1      37.959  31.383  31.422  1.00  0.00     0.074 A 
ATOM     34  C   UNL A   1      38.523  30.245  29.306  1.00  0.00     0.049 A 
ATOM     35  N   UNL A   1      38.944  30.978  32.184  1.00  0.00    -0.248 NA
ATOM     36  C   UNL A   1      37.002  32.271  32.095  1.00  0.00     0.031 C 
ATOM     37  C   UNL A   1      38.381  29.877  27.894  1.00  0.00     0.029 A 
ATOM     38  N   UNL A   1      39.644  29.565  29.712  1.00  0.00    -0.354 N 
ATOM     39  C   UNL A   1      38.737  31.573  33.422  1.00  0.00     0.074 A 
ATOM     40  C   UNL A   1      37.543  32.385  33.301  1.00  0.00     0.031 C 
ATOM     41  C   UNL A   1      39.352  29.013  27.562  1.00  0.00     0.029 A 
ATOM     42  C   UNL A   1      40.218  28.811  28.716  1.00  0.00     0.049 A 
ATOM     43  H   UNL A   1      40.001  29.613  30.627  1.00  0.00     0.167 HD
ATOM     44  C   UNL A   1      39.475  31.449  34.554  1.00  0.00     0.037 A 
ATOM     45  C   UNL A   1      41.329  28.052  28.723  1.00  0.00     0.037 A 
ATOM     46  C   UNL A   1      40.663  30.639  34.670  1.00  0.00     0.049 A 
ATOM     47  C   UNL A   1      42.132  27.945  29.986  1.00  0.00     0.074 A 
ATOM     48  C   UNL A   1      41.470  30.441  35.778  1.00  0.00     0.029 A 
ATOM     49  N   UNL A   1      41.215  29.893  33.639  1.00  0.00    -0.354 N 
ATOM     50  N   UNL A   1      41.912  28.500  31.154  1.00  0.00    -0.248 NA
ATOM     51  C   UNL A   1      43.339  27.109  29.932  1.00  0.00     0.031 C 
ATOM     52  C   UNL A   1      42.530  29.605  35.407  1.00  0.00     0.029 A 
ATOM     53  C   UNL A   1      42.359  29.245  34.081  1.00  0.00     0.049 A 
ATOM     54  H   UNL A   1      40.850  29.833  32.727  1.00  0.00     0.167 HD
ATOM     55  C   UNL A   1      42.939  28.065  31.979  1.00  0.00     0.074 A 
ATOM     56  C   UNL A   1      43.770  27.182  31.183  1.00  0.00     0.031 C 
ATOM     57  C   UNL A   1      43.176  28.370  33.278  1.00  0.00     0.037 A 
BRANCH  44  58
ATOM     58  C   UNL A   1      39.027  32.229  35.757  1.00  0.00     0.057 A 
ATOM     59  C   UNL A   1      39.391  33.568  35.950  1.00  0.00     0.134 A 
ATOM     60  C   UNL A   1      38.195  31.643  36.719  1.00  0.00     0.134 A 
ATOM     61  F   UNL A   1      40.194  34.187  35.071  1.00  0.00    -0.206 F 
ATOM     62  C   UNL A   1      38.967  34.287  37.069  1.00  0.00     0.040 A 
ATOM     63  C   UNL A   1      37.744  32.358  37.831  1.00  0.00     0.040 A 
ATOM     64  F   UNL A   1      37.800  30.367  36.593  1.00  0.00    -0.206 F 
ATOM     65  C   UNL A   1      38.137  33.683  38.011  1.00  0.00     0.006 A 
ENDBRANCH  44  58
BRANCH  45  66
ATOM     66  C   UNL A   1      41.746  27.335  27.492  1.00  0.00     0.057 A 
ATOM     67  C   UNL A   1      42.507  27.973  26.506  1.00  0.00     0.134 A 
ATOM     68  C   UNL A   1      41.395  25.997  27.273  1.00  0.00     0.134 A 
ATOM     69  F   UNL A   1      42.857  29.259  26.650  1.00  0.00    -0.206 F 
ATOM     70  C   UNL A   1      42.889  27.313  25.337  1.00  0.00     0.040 A 
ATOM     71  C   UNL A   1      41.795  25.317  26.122  1.00  0.00     0.040 A 
ATOM     72  F   UNL A   1      40.675  25.328  28.184  1.00  0.00    -0.206 F 
ATOM     73  C   UNL A   1      42.538  25.978  25.146  1.00  0.00     0.006 A 
ENDBRANCH  45  66
BRANCH  57  74
ATOM     74  C   UNL A   1      44.364  27.715  33.919  1.00  0.00     0.057 A 
ATOM     75  C   UNL A   1      44.273  26.461  34.537  1.00  0.00     0.134 A 
ATOM     76  C   UNL A   1      45.612  28.350  33.922  1.00  0.00     0.134 A 
ATOM     77  F   UNL A   1      43.103  25.809  34.584  1.00  0.00    -0.206 F 
ATOM     78  C   UNL A   1      45.376  25.877  35.165  1.00  0.00     0.040 A 
ATOM     79  C   UNL A   1      46.727  27.763  34.522  1.00  0.00     0.040 A 
ATOM     80  F   UNL A   1      45.767  29.549  33.341  1.00  0.00    -0.206 F 
ATOM     81  C   UNL A   1      46.609  26.528  35.154  1.00  0.00     0.006 A 
ENDBRANCH  57  74
ENDBRANCH  31  32
ENDBRANCH  24  26
ENDBRANCH  23  24
ENDBRANCH  22  23
ENDBRANCH   1  22
TORSDOF 17
ENDMDL
MODEL 2
REMARK VINA RESULT:     -10.8      1.775      3.526
REMARK SMILES C[C@H](O)C[C@@]1(C(=O)OCCOC(=O)c2ccc(-c3c4nc(c(-c5c(F)cccc5F)c5ccc([nH]5)c(-c5c(F)cccc5F)c5nc(c(-c6c(F)cccc6F)c6ccc3[nH]6)C=C5)C=C4)cc2)CCN(C(=O)OC(C)(C)C)C1
REMARK SMILES IDX 9 1 8 2 6 3 7 4 5 5 68 6 78 7 69 8 70 9 4 10 2 11 1 12 3 13
REMARK SMILES IDX 71 15 72 16 73 17 74 18 75 19 76 20 77 21 10 22 11 23 12 24
REMARK SMILES IDX 13 25 14 26 15 27 67 28 16 29 66 30 17 31 18 32 19 33 60 34
REMARK SMILES IDX 20 35 65 36 59 37 61 38 21 39 64 40 58 41 57 42 22 44 48 45
REMARK SMILES IDX 31 46 47 47 32 48 35 49 46 50 62 51 33 52 34 53 45 55 63 56
REMARK SMILES IDX 36 57 23 58 24 59 29 60 25 61 26 62 28 63 30 64 27 65 49 66
REMARK SMILES IDX 50 67 55 68 51 69 52 70 54 71 56 72 53 73 37 74 38 75 43 76
REMARK SMILES IDX 39 77 40 78 42 79 44 80 41 81
REMARK H PARENT 3 14 61 43 35 54
REMARK Flexibility Score: inf
ROOT
ATOM      1  C   UNL A   1      32.969  31.256  27.376  1.00  0.00     0.274 C 
ENDROOT
BRANCH   1   2
ATOM      2  O   UNL A   1      32.482  30.366  26.347  1.00  0.00    -0.462 OA
BRANCH   2   3
ATOM      3  C   UNL A   1      33.184  29.211  26.215  1.00  0.00     0.314 C 
ATOM      4  O   UNL A   1      34.379  29.111  26.469  1.00  0.00    -0.252 OA
BRANCH   3   5
ATOM      5  C   UNL A   1      32.348  28.042  25.682  1.00  0.00     0.090 C 
ATOM      6  C   UNL A   1      33.095  27.408  24.477  1.00  0.00     0.042 C 
ATOM      7  C   UNL A   1      31.104  28.670  25.024  1.00  0.00     0.142 C 
ATOM      8  C   UNL A   1      32.680  28.257  23.264  1.00  0.00     0.124 C 
ATOM      9  N   UNL A   1      31.344  28.695  23.602  1.00  0.00    -0.307 N 
BRANCH   5  10
ATOM     10  C   UNL A   1      31.800  26.993  26.696  1.00  0.00     0.052 C 
BRANCH  10  11
ATOM     11  C   UNL A   1      31.403  25.591  26.226  1.00  0.00     0.112 C 
ATOM     12  C   UNL A   1      29.932  25.550  25.819  1.00  0.00     0.038 C 
BRANCH  11  13
ATOM     13  O   UNL A   1      31.499  24.641  27.274  1.00  0.00    -0.393 OA
ATOM     14  H   UNL A   1      31.240  25.056  28.112  1.00  0.00     0.210 HD
ENDBRANCH  11  13
ENDBRANCH  10  11
ENDBRANCH   5  10
BRANCH   9  15
ATOM     15  C   UNL A   1      30.345  29.110  22.761  1.00  0.00     0.410 C 
ATOM     16  O   UNL A   1      30.181  28.602  21.657  1.00  0.00    -0.224 OA
BRANCH  15  17
ATOM     17  O   UNL A   1      29.592  30.115  23.273  1.00  0.00    -0.444 OA
BRANCH  17  18
ATOM     18  C   UNL A   1      28.210  30.247  22.842  1.00  0.00     0.106 C 
ATOM     19  C   UNL A   1      28.177  30.666  21.367  1.00  0.00     0.056 C 
ATOM     20  C   UNL A   1      27.365  28.986  23.093  1.00  0.00     0.056 C 
ATOM     21  C   UNL A   1      27.619  31.379  23.696  1.00  0.00     0.056 C 
ENDBRANCH  17  18
ENDBRANCH  15  17
ENDBRANCH   9  15
ENDBRANCH   3   5
ENDBRANCH   2   3
ENDBRANCH   1   2
BRANCH   1  22
ATOM     22  C   UNL A   1      32.234  32.602  27.306  1.00  0.00     0.275 C 
BRANCH  22  23
ATOM     23  O   UNL A   1      33.035  33.806  27.358  1.00  0.00    -0.458 OA
BRANCH  23  24
ATOM     24  C   UNL A   1      33.162  34.498  28.510  1.00  0.00     0.338 C 
ATOM     25  O   UNL A   1      32.467  35.424  28.895  1.00  0.00    -0.246 OA
BRANCH  24  26
ATOM     26  C   UNL A   1      34.365  34.059  29.250  1.00  0.00     0.060 A 
ATOM     27  C   UNL A   1      34.175  33.238  30.368  1.00  0.00     0.016 A 
ATOM     28  C   UNL A   1      35.658  34.382  28.833  1.00  0.00     0.016 A 
ATOM     29  C   UNL A   1      35.272  32.743  31.070  1.00  0.00     0.010 A 
ATOM     30  C   UNL A   1      36.758  33.820  29.492  1.00  0.00     0.010 A 
ATOM     31  C   UNL A   1      36.574  32.978  30.602  1.00  0.00    -0.014 A 
BRANCH  31  32
ATOM     32  C   UNL A   1      37.710  32.223  31.190  1.00  0.00     0.031 A 
ATOM     33  C   UNL A   1      38.228  32.521  32.567  1.00  0.00     0.074 A 
ATOM     34  C   UNL A   1      38.293  31.260  30.445  1.00  0.00     0.049 A 
ATOM     35  N   UNL A   1      39.236  31.977  33.202  1.00  0.00    -0.248 NA
ATOM     36  C   UNL A   1      37.532  33.569  33.325  1.00  0.00     0.031 C 
ATOM     37  C   UNL A   1      37.892  30.890  29.085  1.00  0.00     0.029 A 
ATOM     38  N   UNL A   1      39.338  30.416  30.723  1.00  0.00    -0.354 N 
ATOM     39  C   UNL A   1      39.307  32.625  34.429  1.00  0.00     0.074 A 
ATOM     40  C   UNL A   1      38.252  33.619  34.438  1.00  0.00     0.031 C 
ATOM     41  C   UNL A   1      38.655  29.872  28.661  1.00  0.00     0.029 A 
ATOM     42  C   UNL A   1      39.636  29.556  29.692  1.00  0.00     0.049 A 
ATOM     43  H   UNL A   1      39.826  30.424  31.576  1.00  0.00     0.167 HD
ATOM     44  C   UNL A   1      40.171  32.407  35.452  1.00  0.00     0.037 A 
ATOM     45  C   UNL A   1      40.601  28.626  29.578  1.00  0.00     0.037 A 
ATOM     46  C   UNL A   1      41.219  31.416  35.438  1.00  0.00     0.049 A 
ATOM     47  C   UNL A   1      41.550  28.416  30.721  1.00  0.00     0.074 A 
ATOM     48  C   UNL A   1      42.135  31.112  36.431  1.00  0.00     0.029 A 
ATOM     49  N   UNL A   1      41.491  30.567  34.375  1.00  0.00    -0.354 N 
ATOM     50  N   UNL A   1      41.592  29.024  31.882  1.00  0.00    -0.248 NA
ATOM     51  C   UNL A   1      42.588  27.393  30.539  1.00  0.00     0.031 C 
ATOM     52  C   UNL A   1      42.984  30.106  35.955  1.00  0.00     0.029 A 
ATOM     53  C   UNL A   1      42.569  29.750  34.683  1.00  0.00     0.049 A 
ATOM     54  H   UNL A   1      40.993  30.547  33.526  1.00  0.00     0.167 HD
ATOM     55  C   UNL A   1      42.645  28.445  32.576  1.00  0.00     0.074 A 
ATOM     56  C   UNL A   1      43.201  27.421  31.713  1.00  0.00     0.031 C 
ATOM     57  C   UNL A   1      43.112  28.736  33.814  1.00  0.00     0.037 A 
BRANCH  44  58
ATOM     58  C   UNL A   1      40.031  33.276  36.669  1.00  0.00     0.057 A 
ATOM     59  C   UNL A   1      40.750  34.469  36.815  1.00  0.00     0.134 A 
ATOM     60  C   UNL A   1      39.142  32.930  37.695  1.00  0.00     0.134 A 
ATOM     61  F   UNL A   1      41.626  34.854  35.873  1.00  0.00    -0.206 F 
ATOM     62  C   UNL A   1      40.611  35.273  37.948  1.00  0.00     0.040 A 
ATOM     63  C   UNL A   1      38.976  33.737  38.822  1.00  0.00     0.040 A 
ATOM     64  F   UNL A   1      38.414  31.805  37.617  1.00  0.00    -0.206 F 
ATOM     65  C   UNL A   1      39.717  34.910  38.954  1.00  0.00     0.006 A 
ENDBRANCH  44  58
BRANCH  45  66
ATOM     66  C   UNL A   1      40.717  27.823  28.335  1.00  0.00     0.057 A 
ATOM     67  C   UNL A   1      40.078  26.585  28.211  1.00  0.00     0.134 A 
ATOM     68  C   UNL A   1      41.467  28.275  27.242  1.00  0.00     0.134 A 
ATOM     69  F   UNL A   1      39.361  26.091  29.230  1.00  0.00    -0.206 F 
ATOM     70  C   UNL A   1      40.194  25.815  27.053  1.00  0.00     0.040 A 
ATOM     71  C   UNL A   1      41.569  27.529  26.068  1.00  0.00     0.040 A 
ATOM     72  F   UNL A   1      42.096  29.458  27.295  1.00  0.00    -0.206 F 
ATOM     73  C   UNL A   1      40.938  26.291  25.974  1.00  0.00     0.006 A 
ENDBRANCH  45  66
BRANCH  57  74
ATOM     74  C   UNL A   1      44.260  27.909  34.313  1.00  0.00     0.057 A 
ATOM     75  C   UNL A   1      45.592  28.300  34.122  1.00  0.00     0.134 A 
ATOM     76  C   UNL A   1      44.030  26.704  34.988  1.00  0.00     0.134 A 
ATOM     77  F   UNL A   1      45.881  29.435  33.468  1.00  0.00    -0.206 F 
ATOM     78  C   UNL A   1      46.655  27.505  34.557  1.00  0.00     0.040 A 
ATOM     79  C   UNL A   1      45.083  25.914  35.451  1.00  0.00     0.040 A 
ATOM     80  F   UNL A   1      42.778  26.276  35.208  1.00  0.00    -0.206 F 
ATOM     81  C   UNL A   1      46.401  26.310  35.227  1.00  0.00     0.006 A 
ENDBRANCH  57  74
ENDBRANCH  31  32
ENDBRANCH  24  26
ENDBRANCH  23  24
ENDBRANCH  22  23
ENDBRANCH   1  22
TORSDOF 17
ENDMDL
MODEL 3
REMARK VINA RESULT:     -10.6      1.625      3.663
REMARK SMILES C[C@H](O)C[C@@]1(C(=O)OCCOC(=O)c2ccc(-c3c4nc(c(-c5c(F)cccc5F)c5ccc([nH]5)c(-c5c(F)cccc5F)c5nc(c(-c6c(F)cccc6F)c6ccc3[nH]6)C=C5)C=C4)cc2)CCN(C(=O)OC(C)(C)C)C1
REMARK SMILES IDX 9 1 8 2 6 3 7 4 5 5 68 6 78 7 69 8 70 9 4 10 2 11 1 12 3 13
REMARK SMILES IDX 71 15 72 16 73 17 74 18 75 19 76 20 77 21 10 22 11 23 12 24
REMARK SMILES IDX 13 25 14 26 15 27 67 28 16 29 66 30 17 31 18 32 19 33 60 34
REMARK SMILES IDX 20 35 65 36 59 37 61 38 21 39 64 40 58 41 57 42 22 44 48 45
REMARK SMILES IDX 31 46 47 47 32 48 35 49 46 50 62 51 33 52 34 53 45 55 63 56
REMARK SMILES IDX 36 57 23 58 24 59 29 60 25 61 26 62 28 63 30 64 27 65 49 66
REMARK SMILES IDX 50 67 55 68 51 69 52 70 54 71 56 72 53 73 37 74 38 75 43 76
REMARK SMILES IDX 39 77 40 78 42 79 44 80 41 81
REMARK H PARENT 3 14 61 43 35 54
REMARK Flexibility Score: inf
ROOT
ATOM      1  C   UNL A   1      31.742  28.908  27.475  1.00  0.00     0.274 C 
ENDROOT
BRANCH   1   2
ATOM      2  O   UNL A   1      31.217  27.743  26.800  1.00  0.00    -0.462 OA
BRANCH   2   3
ATOM      3  C   UNL A   1      32.127  27.055  26.062  1.00  0.00     0.314 C 
ATOM      4  O   UNL A   1      33.299  26.911  26.393  1.00  0.00    -0.252 OA
BRANCH   3   5
ATOM      5  C   UNL A   1      31.561  26.501  24.749  1.00  0.00     0.090 C 
ATOM      6  C   UNL A   1      32.647  26.632  23.647  1.00  0.00     0.042 C 
ATOM      7  C   UNL A   1      30.483  27.502  24.291  1.00  0.00     0.142 C 
ATOM      8  C   UNL A   1      32.492  28.063  23.109  1.00  0.00     0.124 C 
ATOM      9  N   UNL A   1      31.082  28.336  23.279  1.00  0.00    -0.307 N 
BRANCH   5  10
ATOM     10  C   UNL A   1      30.858  25.110  24.769  1.00  0.00     0.052 C 
BRANCH  10  11
ATOM     11  C   UNL A   1      30.712  24.332  26.079  1.00  0.00     0.112 C 
ATOM     12  C   UNL A   1      30.766  22.827  25.828  1.00  0.00     0.038 C 
BRANCH  11  13
ATOM     13  O   UNL A   1      29.441  24.539  26.672  1.00  0.00    -0.393 OA
ATOM     14  H   UNL A   1      28.988  23.687  26.775  1.00  0.00     0.210 HD
ENDBRANCH  11  13
ENDBRANCH  10  11
ENDBRANCH   5  10
BRANCH   9  15
ATOM     15  C   UNL A   1      30.306  29.251  22.618  1.00  0.00     0.410 C 
ATOM     16  O   UNL A   1      30.423  29.444  21.413  1.00  0.00    -0.224 OA
BRANCH  15  17
ATOM     17  O   UNL A   1      29.429  29.897  23.427  1.00  0.00    -0.444 OA
BRANCH  17  18
ATOM     18  C   UNL A   1      28.101  30.205  22.919  1.00  0.00     0.106 C 
ATOM     19  C   UNL A   1      27.472  31.305  23.783  1.00  0.00     0.056 C 
ATOM     20  C   UNL A   1      28.085  30.575  21.426  1.00  0.00     0.056 C 
ATOM     21  C   UNL A   1      27.288  28.913  23.086  1.00  0.00     0.056 C 
ENDBRANCH  17  18
ENDBRANCH  15  17
ENDBRANCH   9  15
ENDBRANCH   3   5
ENDBRANCH   2   3
ENDBRANCH   1   2
BRANCH   1  22
ATOM     22  C   UNL A   1      31.787  30.103  26.514  1.00  0.00     0.275 C 
BRANCH  22  23
ATOM     23  O   UNL A   1      33.065  30.752  26.312  1.00  0.00    -0.458 OA
BRANCH  23  24
ATOM     24  C   UNL A   1      33.551  31.615  27.228  1.00  0.00     0.338 C 
ATOM     25  O   UNL A   1      33.084  32.698  27.542  1.00  0.00    -0.246 OA
BRANCH  24  26
ATOM     26  C   UNL A   1      34.839  31.130  27.769  1.00  0.00     0.060 A 
ATOM     27  C   UNL A   1      35.794  32.088  28.127  1.00  0.00     0.016 A 
ATOM     28  C   UNL A   1      35.095  29.773  27.986  1.00  0.00     0.016 A 
ATOM     29  C   UNL A   1      37.003  31.695  28.697  1.00  0.00     0.010 A 
ATOM     30  C   UNL A   1      36.276  29.387  28.631  1.00  0.00     0.010 A 
ATOM     31  C   UNL A   1      37.229  30.346  29.012  1.00  0.00    -0.014 A 
BRANCH  31  32
ATOM     32  C   UNL A   1      38.390  29.978  29.865  1.00  0.00     0.031 A 
ATOM     33  C   UNL A   1      38.540  30.502  31.263  1.00  0.00     0.074 A 
ATOM     34  C   UNL A   1      39.336  29.168  29.344  1.00  0.00     0.049 A 
ATOM     35  N   UNL A   1      39.514  30.304  32.116  1.00  0.00    -0.248 NA
ATOM     36  C   UNL A   1      37.462  31.363  31.768  1.00  0.00     0.031 C 
ATOM     37  C   UNL A   1      39.312  28.610  27.989  1.00  0.00     0.029 A 
ATOM     38  N   UNL A   1      40.492  28.668  29.887  1.00  0.00    -0.354 N 
ATOM     39  C   UNL A   1      39.178  31.028  33.253  1.00  0.00     0.074 A 
ATOM     40  C   UNL A   1      37.919  31.687  32.971  1.00  0.00     0.031 C 
ATOM     41  C   UNL A   1      40.381  27.818  27.820  1.00  0.00     0.029 A 
ATOM     42  C   UNL A   1      41.195  27.857  29.028  1.00  0.00     0.049 A 
ATOM     43  H   UNL A   1      40.789  28.871  30.803  1.00  0.00     0.167 HD
ATOM     44  C   UNL A   1      39.858  31.129  34.422  1.00  0.00     0.037 A 
ATOM     45  C   UNL A   1      42.373  27.228  29.185  1.00  0.00     0.037 A 
ATOM     46  C   UNL A   1      41.111  30.470  34.698  1.00  0.00     0.049 A 
ATOM     47  C   UNL A   1      43.108  27.369  30.485  1.00  0.00     0.074 A 
ATOM     48  C   UNL A   1      41.868  30.502  35.857  1.00  0.00     0.029 A 
ATOM     49  N   UNL A   1      41.793  29.660  33.801  1.00  0.00    -0.354 N 
ATOM     50  N   UNL A   1      42.767  28.042  31.558  1.00  0.00    -0.248 NA
ATOM     51  C   UNL A   1      44.392  26.664  30.598  1.00  0.00     0.031 C 
ATOM     52  C   UNL A   1      43.025  29.742  35.649  1.00  0.00     0.029 A 
ATOM     53  C   UNL A   1      42.968  29.199  34.377  1.00  0.00     0.049 A 
ATOM     54  H   UNL A   1      41.489  29.446  32.891  1.00  0.00     0.167 HD
ATOM     55  C   UNL A   1      43.783  27.827  32.479  1.00  0.00     0.074 A 
ATOM     56  C   UNL A   1      44.741  26.942  31.846  1.00  0.00     0.031 C 
ATOM     57  C   UNL A   1      43.913  28.319  33.735  1.00  0.00     0.037 A 
BRANCH  44  58
ATOM     58  C   UNL A   1      39.266  32.005  35.489  1.00  0.00     0.057 A 
ATOM     59  C   UNL A   1      38.375  31.506  36.448  1.00  0.00     0.134 A 
ATOM     60  C   UNL A   1      39.614  33.359  35.577  1.00  0.00     0.134 A 
ATOM     61  F   UNL A   1      37.990  30.221  36.415  1.00  0.00    -0.206 F 
ATOM     62  C   UNL A   1      37.831  32.327  37.438  1.00  0.00     0.040 A 
ATOM     63  C   UNL A   1      39.097  34.185  36.578  1.00  0.00     0.040 A 
ATOM     64  F   UNL A   1      40.470  33.902  34.697  1.00  0.00    -0.206 F 
ATOM     65  C   UNL A   1      38.197  33.670  37.508  1.00  0.00     0.006 A 
ENDBRANCH  44  58
BRANCH  45  66
ATOM     66  C   UNL A   1      42.930  26.407  28.081  1.00  0.00     0.057 A 
ATOM     67  C   UNL A   1      42.611  25.050  27.957  1.00  0.00     0.134 A 
ATOM     68  C   UNL A   1      43.791  26.959  27.124  1.00  0.00     0.134 A 
ATOM     69  F   UNL A   1      41.807  24.461  28.853  1.00  0.00    -0.206 F 
ATOM     70  C   UNL A   1      43.143  24.265  26.932  1.00  0.00     0.040 A 
ATOM     71  C   UNL A   1      44.306  26.193  26.078  1.00  0.00     0.040 A 
ATOM     72  F   UNL A   1      44.127  28.255  27.182  1.00  0.00    -0.206 F 
ATOM     73  C   UNL A   1      43.989  24.840  25.985  1.00  0.00     0.006 A 
ENDBRANCH  45  66
BRANCH  57  74
ATOM     74  C   UNL A   1      45.120  27.881  34.509  1.00  0.00     0.057 A 
ATOM     75  C   UNL A   1      46.318  28.607  34.487  1.00  0.00     0.134 A 
ATOM     76  C   UNL A   1      45.084  26.715  35.284  1.00  0.00     0.134 A 
ATOM     77  F   UNL A   1      46.423  29.723  33.751  1.00  0.00    -0.206 F 
ATOM     78  C   UNL A   1      47.448  28.170  35.181  1.00  0.00     0.040 A 
ATOM     79  C   UNL A   1      46.199  26.283  36.004  1.00  0.00     0.040 A 
ATOM     80  F   UNL A   1      43.966  25.977  35.353  1.00  0.00    -0.206 F 
ATOM     81  C   UNL A   1      47.388  27.006  35.946  1.00  0.00     0.006 A 
ENDBRANCH  57  74
ENDBRANCH  31  32
ENDBRANCH  24  26
ENDBRANCH  23  24
ENDBRANCH  22  23
ENDBRANCH   1  22
TORSDOF 17
ENDMDL
