MODEL 1
REMARK VINA RESULT:     -11.8      0.000      0.000
REMARK SMILES C[N@@H+]1CCN(C(=O)c2cc(-n3cccn3)ccc2Cl)C[C@H]1C(=O)OCCOC(=O)c1ccc(-c2c3nc(c(-c4c(F)cccc4F)c4ccc([nH]4)c(-c4c(F)cccc4F)c4nc(c(-c5c(F)cccc5F)c5ccc2[nH]5)C=C4)C=C3)cc1
REMARK SMILES IDX 25 1 24 2 22 3 23 4 21 5 1 6 2 7 3 8 4 10 20 11 5 12 6 13
REMARK SMILES IDX 7 14 8 15 9 16 18 17 10 18 17 19 19 20 16 21 11 22 12 23
REMARK SMILES IDX 15 24 13 25 14 26 26 27 27 28 28 29 29 30 30 31 31 32 83 33
REMARK SMILES IDX 32 34 82 35 33 36 34 37 35 38 76 39 36 40 81 41 75 42 77 43
REMARK SMILES IDX 37 44 80 45 74 46 73 47 38 49 64 50 47 51 63 52 48 53 51 54
REMARK SMILES IDX 62 55 78 56 49 57 50 58 61 60 79 61 52 62 39 63 40 64 45 65
REMARK SMILES IDX 41 66 42 67 44 68 46 69 43 70 65 71 66 72 71 73 67 74 68 75
REMARK SMILES IDX 70 76 72 77 69 78 53 79 54 80 59 81 55 82 56 83 58 84 60 85
REMARK SMILES IDX 57 86
REMARK H PARENT 2 9 77 48 51 59
REMARK Flexibility Score: inf
ROOT
ATOM      1  C   UNL A   1      34.782  30.081  27.851  1.00  0.00     0.274 C 
ENDROOT
BRANCH   1   2
ATOM      2  O   UNL A   1      34.111  28.923  27.303  1.00  0.00    -0.458 OA
BRANCH   2   3
ATOM      3  C   UNL A   1      32.842  29.140  26.870  1.00  0.00     0.366 C 
ATOM      4  O   UNL A   1      32.169  30.119  27.199  1.00  0.00    -0.245 OA
BRANCH   3   5
ATOM      5  C   UNL A   1      32.210  28.015  26.069  1.00  0.00     0.314 C 
ATOM      6  C   UNL A   1      31.051  29.328  24.320  1.00  0.00     0.333 C 
ATOM      7  N   UNL A   1      31.940  28.204  24.606  1.00  0.00    -0.323 N 
ATOM      8  C   UNL A   1      31.296  26.957  24.108  1.00  0.00     0.284 C 
ATOM      9  H   UNL A   1      32.828  28.404  24.145  1.00  0.00     0.348 HD
ATOM     10  C   UNL A   1      32.176  25.713  24.321  1.00  0.00     0.181 C 
ATOM     11  C   UNL A   1      33.173  26.830  26.271  1.00  0.00     0.197 C 
ATOM     12  N   UNL A   1      32.619  25.598  25.710  1.00  0.00    -0.326 N 
BRANCH  12  13
ATOM     13  C   UNL A   1      32.562  24.373  26.349  1.00  0.00     0.255 C 
ATOM     14  O   UNL A   1      31.772  24.102  27.248  1.00  0.00    -0.269 OA
BRANCH  13  15
ATOM     15  C   UNL A   1      33.478  23.301  25.919  1.00  0.00     0.060 A 
ATOM     16  C   UNL A   1      34.830  23.440  26.256  1.00  0.00     0.043 A 
ATOM     17  C   UNL A   1      33.050  22.239  25.115  1.00  0.00     0.053 A 
ATOM     18  C   UNL A   1      35.769  22.535  25.742  1.00  0.00     0.065 A 
ATOM     19  C   UNL A   1      33.983  21.308  24.654  1.00  0.00     0.023 A 
ATOM     20  Cl  UNL A   1      31.400  22.029  24.652  1.00  0.00    -0.083 Cl
ATOM     21  C   UNL A   1      35.342  21.463  24.945  1.00  0.00     0.030 A 
BRANCH  18  22
ATOM     22  N   UNL A   1      37.147  22.739  26.006  1.00  0.00    -0.241 N 
ATOM     23  C   UNL A   1      37.746  23.878  26.500  1.00  0.00     0.115 A 
ATOM     24  N   UNL A   1      38.054  21.751  25.803  1.00  0.00    -0.177 NA
ATOM     25  C   UNL A   1      39.091  23.614  26.598  1.00  0.00     0.042 A 
ATOM     26  C   UNL A   1      39.226  22.300  26.126  1.00  0.00     0.135 A 
ENDBRANCH  18  22
ENDBRANCH  13  15
ENDBRANCH  12  13
ENDBRANCH   3   5
ENDBRANCH   2   3
ENDBRANCH   1   2
BRANCH   1  27
ATOM     27  C   UNL A   1      35.999  29.761  28.725  1.00  0.00     0.275 C 
BRANCH  27  28
ATOM     28  O   UNL A   1      37.158  30.499  28.326  1.00  0.00    -0.458 OA
BRANCH  28  29
ATOM     29  C   UNL A   1      38.295  29.923  28.765  1.00  0.00     0.338 C 
ATOM     30  O   UNL A   1      38.945  30.247  29.746  1.00  0.00    -0.246 OA
BRANCH  29  31
ATOM     31  C   UNL A   1      38.811  28.913  27.846  1.00  0.00     0.060 A 
ATOM     32  C   UNL A   1      38.923  27.621  28.380  1.00  0.00     0.016 A 
ATOM     33  C   UNL A   1      39.667  29.391  26.856  1.00  0.00     0.016 A 
ATOM     34  C   UNL A   1      40.082  26.914  28.147  1.00  0.00     0.010 A 
ATOM     35  C   UNL A   1      40.824  28.684  26.625  1.00  0.00     0.010 A 
ATOM     36  C   UNL A   1      41.060  27.513  27.358  1.00  0.00    -0.014 A 
BRANCH  36  37
ATOM     37  C   UNL A   1      42.391  26.933  27.360  1.00  0.00     0.031 A 
ATOM     38  C   UNL A   1      43.213  27.217  28.562  1.00  0.00     0.074 A 
ATOM     39  C   UNL A   1      42.726  26.019  26.428  1.00  0.00     0.049 A 
ATOM     40  N   UNL A   1      44.447  27.594  28.640  1.00  0.00    -0.248 NA
ATOM     41  C   UNL A   1      42.529  27.117  29.863  1.00  0.00     0.031 C 
ATOM     42  C   UNL A   1      41.853  25.421  25.409  1.00  0.00     0.029 A 
ATOM     43  N   UNL A   1      43.870  25.296  26.314  1.00  0.00    -0.354 N 
ATOM     44  C   UNL A   1      44.740  27.637  30.002  1.00  0.00     0.074 A 
ATOM     45  C   UNL A   1      43.497  27.463  30.704  1.00  0.00     0.031 C 
ATOM     46  C   UNL A   1      42.410  24.267  24.982  1.00  0.00     0.029 A 
ATOM     47  C   UNL A   1      43.706  24.108  25.620  1.00  0.00     0.049 A 
ATOM     48  H   UNL A   1      44.733  25.586  26.689  1.00  0.00     0.167 HD
ATOM     49  C   UNL A   1      46.010  27.620  30.485  1.00  0.00     0.037 A 
ATOM     50  C   UNL A   1      44.516  23.024  25.687  1.00  0.00     0.037 A 
ATOM     51  C   UNL A   1      46.977  28.002  29.498  1.00  0.00     0.049 A 
ATOM     52  C   UNL A   1      45.800  23.447  26.304  1.00  0.00     0.074 A 
ATOM     53  C   UNL A   1      47.194  29.141  28.747  1.00  0.00     0.029 A 
ATOM     54  N   UNL A   1      47.745  27.025  28.917  1.00  0.00    -0.354 N 
ATOM     55  N   UNL A   1      46.675  24.230  25.737  1.00  0.00    -0.248 NA
ATOM     56  C   UNL A   1      45.918  23.328  27.752  1.00  0.00     0.031 C 
ATOM     57  C   UNL A   1      47.683  28.672  27.494  1.00  0.00     0.029 A 
ATOM     58  C   UNL A   1      47.743  27.281  27.570  1.00  0.00     0.049 A 
ATOM     59  H   UNL A   1      48.207  26.286  29.376  1.00  0.00     0.167 HD
ATOM     60  C   UNL A   1      47.190  25.001  26.771  1.00  0.00     0.074 A 
ATOM     61  C   UNL A   1      46.758  24.337  27.996  1.00  0.00     0.031 C 
ATOM     62  C   UNL A   1      47.679  26.258  26.553  1.00  0.00     0.037 A 
BRANCH  49  63
ATOM     63  C   UNL A   1      46.383  26.988  31.796  1.00  0.00     0.057 A 
ATOM     64  C   UNL A   1      46.092  25.636  32.034  1.00  0.00     0.134 A 
ATOM     65  C   UNL A   1      46.799  27.724  32.926  1.00  0.00     0.134 A 
ATOM     66  F   UNL A   1      45.643  24.846  31.046  1.00  0.00    -0.206 F 
ATOM     67  C   UNL A   1      46.186  25.065  33.307  1.00  0.00     0.040 A 
ATOM     68  C   UNL A   1      46.954  27.151  34.189  1.00  0.00     0.040 A 
ATOM     69  F   UNL A   1      46.984  29.051  32.882  1.00  0.00    -0.206 F 
ATOM     70  C   UNL A   1      46.623  25.821  34.389  1.00  0.00     0.006 A 
ENDBRANCH  49  63
BRANCH  50  71
ATOM     71  C   UNL A   1      44.116  21.602  25.569  1.00  0.00     0.057 A 
ATOM     72  C   UNL A   1      44.927  20.672  24.907  1.00  0.00     0.134 A 
ATOM     73  C   UNL A   1      43.032  21.068  26.291  1.00  0.00     0.134 A 
ATOM     74  F   UNL A   1      46.020  21.074  24.242  1.00  0.00    -0.206 F 
ATOM     75  C   UNL A   1      44.669  19.294  24.951  1.00  0.00     0.040 A 
ATOM     76  C   UNL A   1      42.752  19.699  26.329  1.00  0.00     0.040 A 
ATOM     77  F   UNL A   1      42.252  21.847  27.055  1.00  0.00    -0.206 F 
ATOM     78  C   UNL A   1      43.577  18.804  25.663  1.00  0.00     0.006 A 
ENDBRANCH  50  71
BRANCH  62  79
ATOM     79  C   UNL A   1      47.862  26.714  25.134  1.00  0.00     0.057 A 
ATOM     80  C   UNL A   1      46.899  27.455  24.435  1.00  0.00     0.134 A 
ATOM     81  C   UNL A   1      49.113  26.568  24.525  1.00  0.00     0.134 A 
ATOM     82  F   UNL A   1      45.715  27.746  24.986  1.00  0.00    -0.206 F 
ATOM     83  C   UNL A   1      47.152  27.987  23.167  1.00  0.00     0.040 A 
ATOM     84  C   UNL A   1      49.391  27.123  23.272  1.00  0.00     0.040 A 
ATOM     85  F   UNL A   1      50.108  25.931  25.162  1.00  0.00    -0.206 F 
ATOM     86  C   UNL A   1      48.405  27.827  22.585  1.00  0.00     0.006 A 
ENDBRANCH  62  79
ENDBRANCH  36  37
ENDBRANCH  29  31
ENDBRANCH  28  29
ENDBRANCH  27  28
ENDBRANCH   1  27
TORSDOF 14
ENDMDL
MODEL 2
REMARK VINA RESULT:     -11.8      3.080      7.558
REMARK SMILES C[N@@H+]1CCN(C(=O)c2cc(-n3cccn3)ccc2Cl)C[C@H]1C(=O)OCCOC(=O)c1ccc(-c2c3nc(c(-c4c(F)cccc4F)c4ccc([nH]4)c(-c4c(F)cccc4F)c4nc(c(-c5c(F)cccc5F)c5ccc2[nH]5)C=C4)C=C3)cc1
REMARK SMILES IDX 25 1 24 2 22 3 23 4 21 5 1 6 2 7 3 8 4 10 20 11 5 12 6 13
REMARK SMILES IDX 7 14 8 15 9 16 18 17 10 18 17 19 19 20 16 21 11 22 12 23
REMARK SMILES IDX 15 24 13 25 14 26 26 27 27 28 28 29 29 30 30 31 31 32 83 33
REMARK SMILES IDX 32 34 82 35 33 36 34 37 35 38 76 39 36 40 81 41 75 42 77 43
REMARK SMILES IDX 37 44 80 45 74 46 73 47 38 49 64 50 47 51 63 52 48 53 51 54
REMARK SMILES IDX 62 55 78 56 49 57 50 58 61 60 79 61 52 62 39 63 40 64 45 65
REMARK SMILES IDX 41 66 42 67 44 68 46 69 43 70 65 71 66 72 71 73 67 74 68 75
REMARK SMILES IDX 70 76 72 77 69 78 53 79 54 80 59 81 55 82 56 83 58 84 60 85
REMARK SMILES IDX 57 86
REMARK H PARENT 2 9 77 48 51 59
REMARK Flexibility Score: inf
ROOT
ATOM      1  C   UNL A   1      36.232  21.142  25.698  1.00  0.00     0.274 C 
ENDROOT
BRANCH   1   2
ATOM      2  O   UNL A   1      35.480  22.373  25.798  1.00  0.00    -0.458 OA
BRANCH   2   3
ATOM      3  C   UNL A   1      34.177  22.229  26.152  1.00  0.00     0.366 C 
ATOM      4  O   UNL A   1      33.785  21.406  26.983  1.00  0.00    -0.245 OA
BRANCH   3   5
ATOM      5  C   UNL A   1      33.174  23.034  25.345  1.00  0.00     0.314 C 
ATOM      6  C   UNL A   1      32.760  21.463  23.479  1.00  0.00     0.333 C 
ATOM      7  N   UNL A   1      32.162  22.325  24.495  1.00  0.00    -0.323 N 
ATOM      8  C   UNL A   1      31.349  23.367  23.809  1.00  0.00     0.284 C 
ATOM      9  H   UNL A   1      31.605  21.723  25.103  1.00  0.00     0.348 HD
ATOM     10  C   UNL A   1      30.635  24.305  24.799  1.00  0.00     0.181 C 
ATOM     11  C   UNL A   1      32.454  23.894  26.402  1.00  0.00     0.197 C 
ATOM     12  N   UNL A   1      31.569  24.873  25.770  1.00  0.00    -0.326 N 
BRANCH  12  13
ATOM     13  C   UNL A   1      31.505  26.220  26.076  1.00  0.00     0.255 C 
ATOM     14  O   UNL A   1      31.241  26.661  27.190  1.00  0.00    -0.269 OA
BRANCH  13  15
ATOM     15  C   UNL A   1      31.798  27.206  25.021  1.00  0.00     0.060 A 
ATOM     16  C   UNL A   1      30.739  28.012  24.584  1.00  0.00     0.043 A 
ATOM     17  C   UNL A   1      33.048  27.272  24.394  1.00  0.00     0.053 A 
ATOM     18  C   UNL A   1      30.919  28.855  23.479  1.00  0.00     0.065 A 
ATOM     19  C   UNL A   1      33.237  28.157  23.330  1.00  0.00     0.023 A 
ATOM     20  Cl  UNL A   1      34.383  26.289  24.876  1.00  0.00    -0.083 Cl
ATOM     21  C   UNL A   1      32.173  28.932  22.857  1.00  0.00     0.030 A 
BRANCH  18  22
ATOM     22  N   UNL A   1      29.816  29.594  22.981  1.00  0.00    -0.241 N 
ATOM     23  C   UNL A   1      29.215  30.692  23.559  1.00  0.00     0.115 A 
ATOM     24  N   UNL A   1      29.233  29.274  21.799  1.00  0.00    -0.177 NA
ATOM     25  C   UNL A   1      28.196  31.078  22.722  1.00  0.00     0.042 A 
ATOM     26  C   UNL A   1      28.235  30.150  21.670  1.00  0.00     0.135 A 
ENDBRANCH  18  22
ENDBRANCH  13  15
ENDBRANCH  12  13
ENDBRANCH   3   5
ENDBRANCH   2   3
ENDBRANCH   1   2
BRANCH   1  27
ATOM     27  C   UNL A   1      37.548  21.257  24.923  1.00  0.00     0.275 C 
BRANCH  27  28
ATOM     28  O   UNL A   1      38.661  21.513  25.784  1.00  0.00    -0.458 OA
BRANCH  28  29
ATOM     29  C   UNL A   1      39.549  20.498  25.772  1.00  0.00     0.338 C 
ATOM     30  O   UNL A   1      39.338  19.350  25.417  1.00  0.00    -0.246 OA
BRANCH  29  31
ATOM     31  C   UNL A   1      40.823  20.851  26.391  1.00  0.00     0.060 A 
ATOM     32  C   UNL A   1      40.828  20.838  27.793  1.00  0.00     0.016 A 
ATOM     33  C   UNL A   1      41.627  21.712  25.647  1.00  0.00     0.016 A 
ATOM     34  C   UNL A   1      41.410  21.895  28.456  1.00  0.00     0.010 A 
ATOM     35  C   UNL A   1      42.207  22.767  26.311  1.00  0.00     0.010 A 
ATOM     36  C   UNL A   1      41.995  22.900  27.690  1.00  0.00    -0.014 A 
BRANCH  36  37
ATOM     37  C   UNL A   1      42.326  24.153  28.343  1.00  0.00     0.031 A 
ATOM     38  C   UNL A   1      41.310  25.227  28.222  1.00  0.00     0.074 A 
ATOM     39  C   UNL A   1      43.379  24.215  29.182  1.00  0.00     0.049 A 
ATOM     40  N   UNL A   1      41.469  26.475  27.926  1.00  0.00    -0.248 NA
ATOM     41  C   UNL A   1      39.904  24.826  28.406  1.00  0.00     0.031 C 
ATOM     42  C   UNL A   1      44.231  23.105  29.629  1.00  0.00     0.029 A 
ATOM     43  N   UNL A   1      43.794  25.251  29.955  1.00  0.00    -0.354 N 
ATOM     44  C   UNL A   1      40.204  27.050  28.029  1.00  0.00     0.074 A 
ATOM     45  C   UNL A   1      39.267  25.972  28.198  1.00  0.00     0.031 C 
ATOM     46  C   UNL A   1      44.859  23.470  30.768  1.00  0.00     0.029 A 
ATOM     47  C   UNL A   1      44.530  24.855  31.060  1.00  0.00     0.049 A 
ATOM     48  H   UNL A   1      43.592  26.193  29.751  1.00  0.00     0.167 HD
ATOM     49  C   UNL A   1      40.009  28.387  28.165  1.00  0.00     0.037 A 
ATOM     50  C   UNL A   1      44.728  25.576  32.190  1.00  0.00     0.037 A 
ATOM     51  C   UNL A   1      41.146  29.153  27.747  1.00  0.00     0.049 A 
ATOM     52  C   UNL A   1      44.370  26.989  31.902  1.00  0.00     0.074 A 
ATOM     53  C   UNL A   1      41.832  29.294  26.556  1.00  0.00     0.029 A 
ATOM     54  N   UNL A   1      41.956  29.706  28.706  1.00  0.00    -0.354 N 
ATOM     55  N   UNL A   1      45.046  27.784  31.120  1.00  0.00    -0.248 NA
ATOM     56  C   UNL A   1      42.996  27.399  32.165  1.00  0.00     0.031 C 
ATOM     57  C   UNL A   1      43.195  29.473  26.930  1.00  0.00     0.029 A 
ATOM     58  C   UNL A   1      43.246  29.441  28.323  1.00  0.00     0.049 A 
ATOM     59  H   UNL A   1      41.668  30.196  29.511  1.00  0.00     0.167 HD
ATOM     60  C   UNL A   1      44.089  28.561  30.481  1.00  0.00     0.074 A 
ATOM     61  C   UNL A   1      42.857  28.345  31.234  1.00  0.00     0.031 C 
ATOM     62  C   UNL A   1      44.304  29.088  29.239  1.00  0.00     0.037 A 
BRANCH  49  63
ATOM     63  C   UNL A   1      38.864  28.977  28.939  1.00  0.00     0.057 A 
ATOM     64  C   UNL A   1      38.712  28.686  30.303  1.00  0.00     0.134 A 
ATOM     65  C   UNL A   1      37.767  29.628  28.335  1.00  0.00     0.134 A 
ATOM     66  F   UNL A   1      39.669  28.028  30.976  1.00  0.00    -0.206 F 
ATOM     67  C   UNL A   1      37.544  28.997  31.007  1.00  0.00     0.040 A 
ATOM     68  C   UNL A   1      36.622  29.997  29.041  1.00  0.00     0.040 A 
ATOM     69  F   UNL A   1      37.711  29.852  27.015  1.00  0.00    -0.206 F 
ATOM     70  C   UNL A   1      36.496  29.660  30.379  1.00  0.00     0.006 A 
ENDBRANCH  49  63
BRANCH  50  71
ATOM     71  C   UNL A   1      44.871  25.054  33.569  1.00  0.00     0.057 A 
ATOM     72  C   UNL A   1      43.757  24.640  34.309  1.00  0.00     0.134 A 
ATOM     73  C   UNL A   1      46.127  24.739  34.122  1.00  0.00     0.134 A 
ATOM     74  F   UNL A   1      42.517  24.838  33.839  1.00  0.00    -0.206 F 
ATOM     75  C   UNL A   1      43.883  23.966  35.532  1.00  0.00     0.040 A 
ATOM     76  C   UNL A   1      46.269  24.083  35.348  1.00  0.00     0.040 A 
ATOM     77  F   UNL A   1      47.264  24.983  33.454  1.00  0.00    -0.206 F 
ATOM     78  C   UNL A   1      45.142  23.685  36.055  1.00  0.00     0.006 A 
ENDBRANCH  50  71
BRANCH  62  79
ATOM     79  C   UNL A   1      45.688  29.004  28.662  1.00  0.00     0.057 A 
ATOM     80  C   UNL A   1      46.148  27.904  27.925  1.00  0.00     0.134 A 
ATOM     81  C   UNL A   1      46.509  30.137  28.685  1.00  0.00     0.134 A 
ATOM     82  F   UNL A   1      45.382  26.820  27.749  1.00  0.00    -0.206 F 
ATOM     83  C   UNL A   1      47.388  27.911  27.280  1.00  0.00     0.040 A 
ATOM     84  C   UNL A   1      47.736  30.170  28.016  1.00  0.00     0.040 A 
ATOM     85  F   UNL A   1      46.106  31.254  29.312  1.00  0.00    -0.206 F 
ATOM     86  C   UNL A   1      48.183  29.051  27.319  1.00  0.00     0.006 A 
ENDBRANCH  62  79
ENDBRANCH  36  37
ENDBRANCH  29  31
ENDBRANCH  28  29
ENDBRANCH  27  28
ENDBRANCH   1  27
TORSDOF 14
ENDMDL
MODEL 3
REMARK VINA RESULT:     -11.8      4.602      8.932
REMARK SMILES C[N@@H+]1CCN(C(=O)c2cc(-n3cccn3)ccc2Cl)C[C@H]1C(=O)OCCOC(=O)c1ccc(-c2c3nc(c(-c4c(F)cccc4F)c4ccc([nH]4)c(-c4c(F)cccc4F)c4nc(c(-c5c(F)cccc5F)c5ccc2[nH]5)C=C4)C=C3)cc1
REMARK SMILES IDX 25 1 24 2 22 3 23 4 21 5 1 6 2 7 3 8 4 10 20 11 5 12 6 13
REMARK SMILES IDX 7 14 8 15 9 16 18 17 10 18 17 19 19 20 16 21 11 22 12 23
REMARK SMILES IDX 15 24 13 25 14 26 26 27 27 28 28 29 29 30 30 31 31 32 83 33
REMARK SMILES IDX 32 34 82 35 33 36 34 37 35 38 76 39 36 40 81 41 75 42 77 43
REMARK SMILES IDX 37 44 80 45 74 46 73 47 38 49 64 50 47 51 63 52 48 53 51 54
REMARK SMILES IDX 62 55 78 56 49 57 50 58 61 60 79 61 52 62 39 63 40 64 45 65
REMARK SMILES IDX 41 66 42 67 44 68 46 69 43 70 65 71 66 72 71 73 67 74 68 75
REMARK SMILES IDX 70 76 72 77 69 78 53 79 54 80 59 81 55 82 56 83 58 84 60 85
REMARK SMILES IDX 57 86
REMARK H PARENT 2 9 77 48 51 59
REMARK Flexibility Score: inf
ROOT
ATOM      1  C   UNL A   1      32.027  29.637  26.920  1.00  0.00     0.274 C 
ENDROOT
BRANCH   1   2
ATOM      2  O   UNL A   1      31.730  28.915  25.702  1.00  0.00    -0.458 OA
BRANCH   2   3
ATOM      3  C   UNL A   1      32.784  28.266  25.141  1.00  0.00     0.366 C 
ATOM      4  O   UNL A   1      33.874  28.800  24.925  1.00  0.00    -0.245 OA
BRANCH   3   5
ATOM      5  C   UNL A   1      32.507  26.864  24.630  1.00  0.00     0.314 C 
ATOM      6  C   UNL A   1      31.171  27.394  22.615  1.00  0.00     0.333 C 
ATOM      7  N   UNL A   1      32.293  26.636  23.163  1.00  0.00    -0.323 N 
ATOM      8  C   UNL A   1      32.016  25.184  22.974  1.00  0.00     0.284 C 
ATOM      9  H   UNL A   1      33.131  26.948  22.670  1.00  0.00     0.348 HD
ATOM     10  C   UNL A   1      33.166  24.294  23.480  1.00  0.00     0.181 C 
ATOM     11  C   UNL A   1      33.723  26.048  25.111  1.00  0.00     0.197 C 
ATOM     12  N   UNL A   1      33.532  24.620  24.858  1.00  0.00    -0.326 N 
BRANCH  12  13
ATOM     13  C   UNL A   1      33.744  23.602  25.769  1.00  0.00     0.255 C 
ATOM     14  O   UNL A   1      33.219  23.551  26.877  1.00  0.00    -0.269 OA
BRANCH  13  15
ATOM     15  C   UNL A   1      34.630  22.484  25.398  1.00  0.00     0.060 A 
ATOM     16  C   UNL A   1      34.021  21.263  25.081  1.00  0.00     0.043 A 
ATOM     17  C   UNL A   1      36.023  22.590  25.462  1.00  0.00     0.053 A 
ATOM     18  C   UNL A   1      34.815  20.127  24.874  1.00  0.00     0.065 A 
ATOM     19  C   UNL A   1      36.810  21.466  25.198  1.00  0.00     0.023 A 
ATOM     20  Cl  UNL A   1      36.827  24.063  25.868  1.00  0.00    -0.083 Cl
ATOM     21  C   UNL A   1      36.212  20.232  24.926  1.00  0.00     0.030 A 
BRANCH  18  22
ATOM     22  N   UNL A   1      34.190  18.874  24.650  1.00  0.00    -0.241 N 
ATOM     23  C   UNL A   1      34.794  17.689  24.287  1.00  0.00     0.115 A 
ATOM     24  N   UNL A   1      32.852  18.718  24.810  1.00  0.00    -0.177 NA
ATOM     25  C   UNL A   1      33.801  16.744  24.192  1.00  0.00     0.042 A 
ATOM     26  C   UNL A   1      32.622  17.443  24.495  1.00  0.00     0.135 A 
ENDBRANCH  18  22
ENDBRANCH  13  15
ENDBRANCH  12  13
ENDBRANCH   3   5
ENDBRANCH   2   3
ENDBRANCH   1   2
BRANCH   1  27
ATOM     27  C   UNL A   1      32.065  31.160  26.768  1.00  0.00     0.275 C 
BRANCH  27  28
ATOM     28  O   UNL A   1      33.188  31.741  27.437  1.00  0.00    -0.458 OA
BRANCH  28  29
ATOM     29  C   UNL A   1      32.956  33.023  27.787  1.00  0.00     0.338 C 
ATOM     30  O   UNL A   1      32.036  33.727  27.404  1.00  0.00    -0.246 OA
BRANCH  29  31
ATOM     31  C   UNL A   1      34.032  33.595  28.590  1.00  0.00     0.060 A 
ATOM     32  C   UNL A   1      35.119  34.098  27.860  1.00  0.00     0.016 A 
ATOM     33  C   UNL A   1      34.173  33.055  29.867  1.00  0.00     0.016 A 
ATOM     34  C   UNL A   1      36.392  33.782  28.278  1.00  0.00     0.010 A 
ATOM     35  C   UNL A   1      35.445  32.740  30.282  1.00  0.00     0.010 A 
ATOM     36  C   UNL A   1      36.524  33.010  29.430  1.00  0.00    -0.014 A 
BRANCH  36  37
ATOM     37  C   UNL A   1      37.816  32.409  29.706  1.00  0.00     0.031 A 
ATOM     38  C   UNL A   1      37.993  31.017  29.226  1.00  0.00     0.074 A 
ATOM     39  C   UNL A   1      38.829  33.175  30.159  1.00  0.00     0.049 A 
ATOM     40  N   UNL A   1      38.487  29.994  29.843  1.00  0.00    -0.248 NA
ATOM     41  C   UNL A   1      37.487  30.720  27.874  1.00  0.00     0.031 C 
ATOM     42  C   UNL A   1      38.838  34.634  30.330  1.00  0.00     0.029 A 
ATOM     43  N   UNL A   1      40.124  32.832  30.385  1.00  0.00    -0.354 N 
ATOM     44  C   UNL A   1      38.491  28.959  28.910  1.00  0.00     0.074 A 
ATOM     45  C   UNL A   1      37.751  29.423  27.767  1.00  0.00     0.031 C 
ATOM     46  C   UNL A   1      40.119  35.060  30.364  1.00  0.00     0.029 A 
ATOM     47  C   UNL A   1      40.999  33.904  30.319  1.00  0.00     0.049 A 
ATOM     48  H   UNL A   1      40.413  31.911  30.576  1.00  0.00     0.167 HD
ATOM     49  C   UNL A   1      39.263  27.849  29.041  1.00  0.00     0.037 A 
ATOM     50  C   UNL A   1      42.334  33.834  30.100  1.00  0.00     0.037 A 
ATOM     51  C   UNL A   1      39.700  27.642  30.390  1.00  0.00     0.049 A 
ATOM     52  C   UNL A   1      42.765  32.432  30.334  1.00  0.00     0.074 A 
ATOM     53  C   UNL A   1      39.056  27.433  31.594  1.00  0.00     0.029 A 
ATOM     54  N   UNL A   1      41.000  27.942  30.714  1.00  0.00    -0.354 N 
ATOM     55  N   UNL A   1      42.793  31.846  31.499  1.00  0.00    -0.248 NA
ATOM     56  C   UNL A   1      42.771  31.533  29.187  1.00  0.00     0.031 C 
ATOM     57  C   UNL A   1      39.864  28.088  32.568  1.00  0.00     0.029 A 
ATOM     58  C   UNL A   1      40.952  28.642  31.893  1.00  0.00     0.049 A 
ATOM     59  H   UNL A   1      41.806  27.703  30.202  1.00  0.00     0.167 HD
ATOM     60  C   UNL A   1      42.421  30.531  31.249  1.00  0.00     0.074 A 
ATOM     61  C   UNL A   1      42.514  30.376  29.801  1.00  0.00     0.031 C 
ATOM     62  C   UNL A   1      41.802  29.768  32.199  1.00  0.00     0.037 A 
BRANCH  49  63
ATOM     63  C   UNL A   1      39.837  27.103  27.870  1.00  0.00     0.057 A 
ATOM     64  C   UNL A   1      39.658  25.716  27.764  1.00  0.00     0.134 A 
ATOM     65  C   UNL A   1      40.768  27.662  26.969  1.00  0.00     0.134 A 
ATOM     66  F   UNL A   1      38.833  25.063  28.597  1.00  0.00    -0.206 F 
ATOM     67  C   UNL A   1      40.371  24.939  26.844  1.00  0.00     0.040 A 
ATOM     68  C   UNL A   1      41.440  26.907  26.007  1.00  0.00     0.040 A 
ATOM     69  F   UNL A   1      41.141  28.948  27.038  1.00  0.00    -0.206 F 
ATOM     70  C   UNL A   1      41.261  25.535  25.958  1.00  0.00     0.006 A 
ENDBRANCH  49  63
BRANCH  50  71
ATOM     71  C   UNL A   1      43.173  34.818  29.377  1.00  0.00     0.057 A 
ATOM     72  C   UNL A   1      43.291  34.785  27.982  1.00  0.00     0.134 A 
ATOM     73  C   UNL A   1      43.709  35.954  30.012  1.00  0.00     0.134 A 
ATOM     74  F   UNL A   1      42.758  33.776  27.278  1.00  0.00    -0.206 F 
ATOM     75  C   UNL A   1      43.916  35.814  27.263  1.00  0.00     0.040 A 
ATOM     76  C   UNL A   1      44.350  36.979  29.310  1.00  0.00     0.040 A 
ATOM     77  F   UNL A   1      43.558  36.151  31.330  1.00  0.00    -0.206 F 
ATOM     78  C   UNL A   1      44.449  36.915  27.927  1.00  0.00     0.006 A 
ENDBRANCH  50  71
BRANCH  62  79
ATOM     79  C   UNL A   1      41.730  30.299  33.602  1.00  0.00     0.057 A 
ATOM     80  C   UNL A   1      40.698  31.133  34.055  1.00  0.00     0.134 A 
ATOM     81  C   UNL A   1      42.614  29.804  34.566  1.00  0.00     0.134 A 
ATOM     82  F   UNL A   1      39.737  31.560  33.227  1.00  0.00    -0.206 F 
ATOM     83  C   UNL A   1      40.578  31.496  35.400  1.00  0.00     0.040 A 
ATOM     84  C   UNL A   1      42.486  30.133  35.919  1.00  0.00     0.040 A 
ATOM     85  F   UNL A   1      43.586  28.946  34.219  1.00  0.00    -0.206 F 
ATOM     86  C   UNL A   1      41.471  30.989  36.338  1.00  0.00     0.006 A 
ENDBRANCH  62  79
ENDBRANCH  36  37
ENDBRANCH  29  31
ENDBRANCH  28  29
ENDBRANCH  27  28
ENDBRANCH   1  27
TORSDOF 14
ENDMDL
