MODEL 1
REMARK VINA RESULT:     -11.6      0.000      0.000
REMARK SMILES C[C@@H]1C(=O)NC(=O)CN1C(=O)NC1(CC(=O)OCCOC(=O)c2ccc(-c3c4nc(c(-c5c(F)cccc5F)c5ccc([nH]5)c(-c5c(F)cccc5F)c5nc(c(-c6c(F)cccc6F)c6ccc3[nH]6)C=C5)C=C4)cc2)CCC1
REMARK SMILES IDX 18 1 17 2 15 3 16 4 14 5 13 6 77 7 79 8 78 9 12 10 10 11
REMARK SMILES IDX 11 12 9 14 1 15 2 16 3 17 4 18 5 19 8 20 6 21 7 23 19 24
REMARK SMILES IDX 20 25 21 26 22 27 23 28 24 29 76 30 25 31 75 32 26 33 27 34
REMARK SMILES IDX 28 35 69 36 29 37 74 38 68 39 70 40 30 41 73 42 67 43 66 44
REMARK SMILES IDX 31 46 57 47 40 48 56 49 41 50 44 51 55 52 71 53 42 54 43 55
REMARK SMILES IDX 54 57 72 58 45 59 32 60 33 61 38 62 34 63 35 64 37 65 39 66
REMARK SMILES IDX 36 67 58 68 59 69 64 70 60 71 61 72 63 73 65 74 62 75 46 76
REMARK SMILES IDX 47 77 52 78 48 79 49 80 51 81 53 82 50 83
REMARK H PARENT 12 13 5 22 70 45 44 56
REMARK Flexibility Score: inf
ROOT
ATOM      1  C   UNL A   1      41.012  20.120  26.140  1.00  0.00     0.274 C 
ENDROOT
BRANCH   1   2
ATOM      2  O   UNL A   1      39.938  20.971  26.592  1.00  0.00    -0.462 OA
BRANCH   2   3
ATOM      3  C   UNL A   1      38.825  20.926  25.819  1.00  0.00     0.308 C 
ATOM      4  O   UNL A   1      38.453  19.941  25.206  1.00  0.00    -0.252 OA
BRANCH   3   5
ATOM      5  C   UNL A   1      38.136  22.254  25.699  1.00  0.00     0.151 C 
BRANCH   5   6
ATOM      6  C   UNL A   1      36.626  22.277  25.479  1.00  0.00     0.052 C 
ATOM      7  C   UNL A   1      36.145  21.856  24.043  1.00  0.00     0.029 C 
ATOM      8  C   UNL A   1      36.089  23.703  25.106  1.00  0.00     0.029 C 
ATOM      9  C   UNL A   1      36.266  23.326  23.618  1.00  0.00     0.005 C 
BRANCH   6  10
ATOM     10  N   UNL A   1      35.774  21.578  26.476  1.00  0.00    -0.332 N 
ATOM     11  C   UNL A   1      34.415  21.540  26.621  1.00  0.00     0.318 C 
ATOM     12  O   UNL A   1      33.938  21.457  27.749  1.00  0.00    -0.249 OA
ATOM     13  H   UNL A   1      36.272  21.055  27.146  1.00  0.00     0.165 HD
BRANCH  11  14
ATOM     14  N   UNL A   1      33.670  21.324  25.497  1.00  0.00    -0.304 N 
ATOM     15  C   UNL A   1      31.452  22.421  25.816  1.00  0.00     0.042 C 
ATOM     16  C   UNL A   1      32.764  22.368  25.028  1.00  0.00     0.174 C 
ATOM     17  C   UNL A   1      32.427  22.110  23.553  1.00  0.00     0.249 C 
ATOM     18  O   UNL A   1      32.164  23.021  22.769  1.00  0.00    -0.272 OA
ATOM     19  N   UNL A   1      32.239  20.794  23.196  1.00  0.00    -0.293 N 
ATOM     20  C   UNL A   1      33.188  19.955  25.311  1.00  0.00     0.222 C 
ATOM     21  C   UNL A   1      32.532  19.692  23.962  1.00  0.00     0.246 C 
ATOM     22  H   UNL A   1      31.858  20.626  22.305  1.00  0.00     0.173 HD
ATOM     23  O   UNL A   1      32.207  18.562  23.600  1.00  0.00    -0.273 OA
ENDBRANCH  11  14
ENDBRANCH   6  10
ENDBRANCH   5   6
ENDBRANCH   3   5
ENDBRANCH   2   3
ENDBRANCH   1   2
BRANCH   1  24
ATOM     24  C   UNL A   1      42.301  20.925  26.067  1.00  0.00     0.275 C 
BRANCH  24  25
ATOM     25  O   UNL A   1      42.108  22.197  25.412  1.00  0.00    -0.458 OA
BRANCH  25  26
ATOM     26  C   UNL A   1      43.073  23.098  25.745  1.00  0.00     0.338 C 
ATOM     27  O   UNL A   1      44.271  22.977  25.532  1.00  0.00    -0.246 OA
BRANCH  26  28
ATOM     28  C   UNL A   1      42.537  24.256  26.492  1.00  0.00     0.060 A 
ATOM     29  C   UNL A   1      43.081  25.529  26.354  1.00  0.00     0.016 A 
ATOM     30  C   UNL A   1      41.559  24.036  27.463  1.00  0.00     0.016 A 
ATOM     31  C   UNL A   1      42.658  26.589  27.167  1.00  0.00     0.010 A 
ATOM     32  C   UNL A   1      41.135  25.088  28.285  1.00  0.00     0.010 A 
ATOM     33  C   UNL A   1      41.695  26.372  28.159  1.00  0.00    -0.014 A 
BRANCH  33  34
ATOM     34  C   UNL A   1      41.394  27.415  29.176  1.00  0.00     0.031 A 
ATOM     35  C   UNL A   1      42.220  27.460  30.432  1.00  0.00     0.074 A 
ATOM     36  C   UNL A   1      40.435  28.341  28.993  1.00  0.00     0.049 A 
ATOM     37  N   UNL A   1      42.011  28.108  31.549  1.00  0.00    -0.248 NA
ATOM     38  C   UNL A   1      43.460  26.668  30.416  1.00  0.00     0.031 C 
ATOM     39  C   UNL A   1      39.650  28.519  27.776  1.00  0.00     0.029 A 
ATOM     40  N   UNL A   1      39.959  29.309  29.846  1.00  0.00    -0.354 N 
ATOM     41  C   UNL A   1      43.066  27.766  32.387  1.00  0.00     0.074 A 
ATOM     42  C   UNL A   1      43.924  26.870  31.641  1.00  0.00     0.031 C 
ATOM     43  C   UNL A   1      38.788  29.533  27.959  1.00  0.00     0.029 A 
ATOM     44  C   UNL A   1      38.903  30.023  29.331  1.00  0.00     0.049 A 
ATOM     45  H   UNL A   1      40.336  29.474  30.741  1.00  0.00     0.167 HD
ATOM     46  C   UNL A   1      43.287  28.150  33.666  1.00  0.00     0.037 A 
ATOM     47  C   UNL A   1      38.089  30.926  29.917  1.00  0.00     0.037 A 
ATOM     48  C   UNL A   1      42.443  29.061  34.395  1.00  0.00     0.049 A 
ATOM     49  C   UNL A   1      38.284  31.265  31.373  1.00  0.00     0.074 A 
ATOM     50  C   UNL A   1      42.546  29.470  35.713  1.00  0.00     0.029 A 
ATOM     51  N   UNL A   1      41.345  29.713  33.857  1.00  0.00    -0.354 N 
ATOM     52  N   UNL A   1      39.211  30.850  32.203  1.00  0.00    -0.248 NA
ATOM     53  C   UNL A   1      37.302  32.176  31.984  1.00  0.00     0.031 C 
ATOM     54  C   UNL A   1      41.486  30.342  35.984  1.00  0.00     0.029 A 
ATOM     55  C   UNL A   1      40.751  30.511  34.820  1.00  0.00     0.049 A 
ATOM     56  H   UNL A   1      41.032  29.624  32.928  1.00  0.00     0.167 HD
ATOM     57  C   UNL A   1      38.935  31.456  33.423  1.00  0.00     0.074 A 
ATOM     58  C   UNL A   1      37.761  32.281  33.224  1.00  0.00     0.031 C 
ATOM     59  C   UNL A   1      39.591  31.337  34.603  1.00  0.00     0.037 A 
BRANCH  46  60
ATOM     60  C   UNL A   1      44.445  27.516  34.379  1.00  0.00     0.057 A 
ATOM     61  C   UNL A   1      44.330  26.301  35.065  1.00  0.00     0.134 A 
ATOM     62  C   UNL A   1      45.695  28.147  34.385  1.00  0.00     0.134 A 
ATOM     63  F   UNL A   1      43.156  25.655  35.114  1.00  0.00    -0.206 F 
ATOM     64  C   UNL A   1      45.412  25.751  35.757  1.00  0.00     0.040 A 
ATOM     65  C   UNL A   1      46.790  27.595  35.052  1.00  0.00     0.040 A 
ATOM     66  F   UNL A   1      45.874  29.312  33.744  1.00  0.00    -0.206 F 
ATOM     67  C   UNL A   1      46.647  26.397  35.749  1.00  0.00     0.006 A 
ENDBRANCH  46  60
BRANCH  47  68
ATOM     68  C   UNL A   1      36.962  31.520  29.150  1.00  0.00     0.057 A 
ATOM     69  C   UNL A   1      36.999  32.847  28.703  1.00  0.00     0.134 A 
ATOM     70  C   UNL A   1      35.808  30.779  28.862  1.00  0.00     0.134 A 
ATOM     71  F   UNL A   1      38.057  33.622  28.978  1.00  0.00    -0.206 F 
ATOM     72  C   UNL A   1      35.931  33.414  28.003  1.00  0.00     0.040 A 
ATOM     73  C   UNL A   1      34.747  31.323  28.137  1.00  0.00     0.040 A 
ATOM     74  F   UNL A   1      35.702  29.507  29.273  1.00  0.00    -0.206 F 
ATOM     75  C   UNL A   1      34.805  32.647  27.709  1.00  0.00     0.006 A 
ENDBRANCH  47  68
BRANCH  59  76
ATOM     76  C   UNL A   1      39.084  32.143  35.763  1.00  0.00     0.057 A 
ATOM     77  C   UNL A   1      38.230  31.594  36.727  1.00  0.00     0.134 A 
ATOM     78  C   UNL A   1      39.505  33.465  35.949  1.00  0.00     0.134 A 
ATOM     79  F   UNL A   1      37.780  30.335  36.601  1.00  0.00    -0.206 F 
ATOM     80  C   UNL A   1      37.803  32.337  37.830  1.00  0.00     0.040 A 
ATOM     81  C   UNL A   1      39.103  34.211  37.058  1.00  0.00     0.040 A 
ATOM     82  F   UNL A   1      40.332  34.047  35.066  1.00  0.00    -0.206 F 
ATOM     83  C   UNL A   1      38.247  33.647  38.001  1.00  0.00     0.006 A 
ENDBRANCH  59  76
ENDBRANCH  33  34
ENDBRANCH  26  28
ENDBRANCH  25  26
ENDBRANCH  24  25
ENDBRANCH   1  24
TORSDOF 14
ENDMDL
MODEL 2
REMARK VINA RESULT:     -11.6      4.407      8.095
REMARK SMILES C[C@@H]1C(=O)NC(=O)CN1C(=O)NC1(CC(=O)OCCOC(=O)c2ccc(-c3c4nc(c(-c5c(F)cccc5F)c5ccc([nH]5)c(-c5c(F)cccc5F)c5nc(c(-c6c(F)cccc6F)c6ccc3[nH]6)C=C5)C=C4)cc2)CCC1
REMARK SMILES IDX 18 1 17 2 15 3 16 4 14 5 13 6 77 7 79 8 78 9 12 10 10 11
REMARK SMILES IDX 11 12 9 14 1 15 2 16 3 17 4 18 5 19 8 20 6 21 7 23 19 24
REMARK SMILES IDX 20 25 21 26 22 27 23 28 24 29 76 30 25 31 75 32 26 33 27 34
REMARK SMILES IDX 28 35 69 36 29 37 74 38 68 39 70 40 30 41 73 42 67 43 66 44
REMARK SMILES IDX 31 46 57 47 40 48 56 49 41 50 44 51 55 52 71 53 42 54 43 55
REMARK SMILES IDX 54 57 72 58 45 59 32 60 33 61 38 62 34 63 35 64 37 65 39 66
REMARK SMILES IDX 36 67 58 68 59 69 64 70 60 71 61 72 63 73 65 74 62 75 46 76
REMARK SMILES IDX 47 77 52 78 48 79 49 80 51 81 53 82 50 83
REMARK H PARENT 12 13 5 22 70 45 44 56
REMARK Flexibility Score: inf
ROOT
ATOM      1  C   UNL A   1      35.264  21.900  26.411  1.00  0.00     0.274 C 
ENDROOT
BRANCH   1   2
ATOM      2  O   UNL A   1      35.196  23.260  25.933  1.00  0.00    -0.462 OA
BRANCH   2   3
ATOM      3  C   UNL A   1      33.937  23.750  25.818  1.00  0.00     0.308 C 
ATOM      4  O   UNL A   1      33.017  23.463  26.564  1.00  0.00    -0.252 OA
BRANCH   3   5
ATOM      5  C   UNL A   1      33.748  24.613  24.605  1.00  0.00     0.151 C 
BRANCH   5   6
ATOM      6  C   UNL A   1      32.546  24.352  23.702  1.00  0.00     0.052 C 
ATOM      7  C   UNL A   1      32.427  22.888  23.140  1.00  0.00     0.029 C 
ATOM      8  C   UNL A   1      32.803  24.771  22.212  1.00  0.00     0.029 C 
ATOM      9  C   UNL A   1      33.279  23.326  21.940  1.00  0.00     0.005 C 
BRANCH   6  10
ATOM     10  N   UNL A   1      31.208  24.767  24.199  1.00  0.00    -0.332 N 
ATOM     11  C   UNL A   1      30.762  25.973  24.663  1.00  0.00     0.318 C 
ATOM     12  O   UNL A   1      29.907  25.994  25.544  1.00  0.00    -0.249 OA
ATOM     13  H   UNL A   1      30.530  24.053  24.195  1.00  0.00     0.165 HD
BRANCH  11  14
ATOM     14  N   UNL A   1      31.087  27.084  23.937  1.00  0.00    -0.304 N 
ATOM     15  C   UNL A   1      31.757  28.881  25.532  1.00  0.00     0.042 C 
ATOM     16  C   UNL A   1      32.174  27.944  24.396  1.00  0.00     0.174 C 
ATOM     17  C   UNL A   1      32.659  28.802  23.220  1.00  0.00     0.249 C 
ATOM     18  O   UNL A   1      33.822  29.194  23.127  1.00  0.00    -0.272 OA
ATOM     19  N   UNL A   1      31.683  29.281  22.376  1.00  0.00    -0.293 N 
ATOM     20  C   UNL A   1      29.964  27.783  23.313  1.00  0.00     0.222 C 
ATOM     21  C   UNL A   1      30.365  28.895  22.352  1.00  0.00     0.246 C 
ATOM     22  H   UNL A   1      31.955  29.967  21.726  1.00  0.00     0.173 HD
ATOM     23  O   UNL A   1      29.545  29.477  21.644  1.00  0.00    -0.273 OA
ENDBRANCH  11  14
ENDBRANCH   6  10
ENDBRANCH   5   6
ENDBRANCH   3   5
ENDBRANCH   2   3
ENDBRANCH   1   2
BRANCH   1  24
ATOM     24  C   UNL A   1      35.906  21.021  25.347  1.00  0.00     0.275 C 
BRANCH  24  25
ATOM     25  O   UNL A   1      37.077  21.637  24.770  1.00  0.00    -0.458 OA
BRANCH  25  26
ATOM     26  C   UNL A   1      38.217  21.292  25.429  1.00  0.00     0.338 C 
ATOM     27  O   UNL A   1      38.678  20.163  25.523  1.00  0.00    -0.246 OA
BRANCH  26  28
ATOM     28  C   UNL A   1      38.841  22.438  26.126  1.00  0.00     0.060 A 
ATOM     29  C   UNL A   1      38.380  23.739  25.948  1.00  0.00     0.016 A 
ATOM     30  C   UNL A   1      40.007  22.223  26.863  1.00  0.00     0.016 A 
ATOM     31  C   UNL A   1      39.063  24.830  26.501  1.00  0.00     0.010 A 
ATOM     32  C   UNL A   1      40.699  23.309  27.414  1.00  0.00     0.010 A 
ATOM     33  C   UNL A   1      40.245  24.626  27.222  1.00  0.00    -0.014 A 
BRANCH  33  34
ATOM     34  C   UNL A   1      41.104  25.772  27.624  1.00  0.00     0.031 A 
ATOM     35  C   UNL A   1      40.511  26.851  28.488  1.00  0.00     0.074 A 
ATOM     36  C   UNL A   1      42.401  25.856  27.274  1.00  0.00     0.049 A 
ATOM     37  N   UNL A   1      40.971  28.042  28.773  1.00  0.00    -0.248 NA
ATOM     38  C   UNL A   1      39.223  26.533  29.123  1.00  0.00     0.031 C 
ATOM     39  C   UNL A   1      43.155  24.827  26.566  1.00  0.00     0.029 A 
ATOM     40  N   UNL A   1      43.312  26.868  27.471  1.00  0.00    -0.354 N 
ATOM     41  C   UNL A   1      40.008  28.634  29.582  1.00  0.00     0.074 A 
ATOM     42  C   UNL A   1      38.949  27.663  29.758  1.00  0.00     0.031 C 
ATOM     43  C   UNL A   1      44.415  25.260  26.385  1.00  0.00     0.029 A 
ATOM     44  C   UNL A   1      44.534  26.626  26.891  1.00  0.00     0.049 A 
ATOM     45  H   UNL A   1      43.108  27.688  27.977  1.00  0.00     0.167 HD
ATOM     46  C   UNL A   1      40.001  29.879  30.113  1.00  0.00     0.037 A 
ATOM     47  C   UNL A   1      45.605  27.432  26.739  1.00  0.00     0.037 A 
ATOM     48  C   UNL A   1      41.068  30.832  29.955  1.00  0.00     0.049 A 
ATOM     49  C   UNL A   1      45.542  28.852  27.244  1.00  0.00     0.074 A 
ATOM     50  C   UNL A   1      41.135  32.140  30.403  1.00  0.00     0.029 A 
ATOM     51  N   UNL A   1      42.264  30.570  29.305  1.00  0.00    -0.354 N 
ATOM     52  N   UNL A   1      44.582  29.453  27.905  1.00  0.00    -0.248 NA
ATOM     53  C   UNL A   1      46.699  29.715  26.956  1.00  0.00     0.031 C 
ATOM     54  C   UNL A   1      42.357  32.682  29.991  1.00  0.00     0.029 A 
ATOM     55  C   UNL A   1      43.070  31.696  29.327  1.00  0.00     0.049 A 
ATOM     56  H   UNL A   1      42.506  29.712  28.890  1.00  0.00     0.167 HD
ATOM     57  C   UNL A   1      45.022  30.753  28.124  1.00  0.00     0.074 A 
ATOM     58  C   UNL A   1      46.343  30.852  27.538  1.00  0.00     0.031 C 
ATOM     59  C   UNL A   1      44.388  31.775  28.750  1.00  0.00     0.037 A 
BRANCH  46  60
ATOM     60  C   UNL A   1      38.760  30.304  30.843  1.00  0.00     0.057 A 
ATOM     61  C   UNL A   1      37.698  30.954  30.203  1.00  0.00     0.134 A 
ATOM     62  C   UNL A   1      38.639  30.064  32.218  1.00  0.00     0.134 A 
ATOM     63  F   UNL A   1      37.760  31.231  28.893  1.00  0.00    -0.206 F 
ATOM     64  C   UNL A   1      36.572  31.377  30.912  1.00  0.00     0.040 A 
ATOM     65  C   UNL A   1      37.508  30.460  32.932  1.00  0.00     0.040 A 
ATOM     66  F   UNL A   1      39.619  29.443  32.890  1.00  0.00    -0.206 F 
ATOM     67  C   UNL A   1      36.473  31.127  32.281  1.00  0.00     0.006 A 
ENDBRANCH  46  60
BRANCH  47  68
ATOM     68  C   UNL A   1      46.806  26.946  26.008  1.00  0.00     0.057 A 
ATOM     69  C   UNL A   1      46.971  27.174  24.636  1.00  0.00     0.134 A 
ATOM     70  C   UNL A   1      47.811  26.221  26.663  1.00  0.00     0.134 A 
ATOM     71  F   UNL A   1      46.028  27.828  23.943  1.00  0.00    -0.206 F 
ATOM     72  C   UNL A   1      48.087  26.697  23.944  1.00  0.00     0.040 A 
ATOM     73  C   UNL A   1      48.945  25.765  25.990  1.00  0.00     0.040 A 
ATOM     74  F   UNL A   1      47.708  25.956  27.974  1.00  0.00    -0.206 F 
ATOM     75  C   UNL A   1      49.083  25.999  24.624  1.00  0.00     0.006 A 
ENDBRANCH  47  68
BRANCH  59  76
ATOM     76  C   UNL A   1      45.123  33.077  28.871  1.00  0.00     0.057 A 
ATOM     77  C   UNL A   1      45.994  33.338  29.936  1.00  0.00     0.134 A 
ATOM     78  C   UNL A   1      45.004  34.057  27.877  1.00  0.00     0.134 A 
ATOM     79  F   UNL A   1      46.145  32.446  30.927  1.00  0.00    -0.206 F 
ATOM     80  C   UNL A   1      46.711  34.535  30.014  1.00  0.00     0.040 A 
ATOM     81  C   UNL A   1      45.731  35.247  27.933  1.00  0.00     0.040 A 
ATOM     82  F   UNL A   1      44.192  33.864  26.826  1.00  0.00    -0.206 F 
ATOM     83  C   UNL A   1      46.586  35.489  29.005  1.00  0.00     0.006 A 
ENDBRANCH  59  76
ENDBRANCH  33  34
ENDBRANCH  26  28
ENDBRANCH  25  26
ENDBRANCH  24  25
ENDBRANCH   1  24
TORSDOF 14
ENDMDL
MODEL 3
REMARK VINA RESULT:     -11.6      5.425     11.154
REMARK SMILES C[C@@H]1C(=O)NC(=O)CN1C(=O)NC1(CC(=O)OCCOC(=O)c2ccc(-c3c4nc(c(-c5c(F)cccc5F)c5ccc([nH]5)c(-c5c(F)cccc5F)c5nc(c(-c6c(F)cccc6F)c6ccc3[nH]6)C=C5)C=C4)cc2)CCC1
REMARK SMILES IDX 18 1 17 2 15 3 16 4 14 5 13 6 77 7 79 8 78 9 12 10 10 11
REMARK SMILES IDX 11 12 9 14 1 15 2 16 3 17 4 18 5 19 8 20 6 21 7 23 19 24
REMARK SMILES IDX 20 25 21 26 22 27 23 28 24 29 76 30 25 31 75 32 26 33 27 34
REMARK SMILES IDX 28 35 69 36 29 37 74 38 68 39 70 40 30 41 73 42 67 43 66 44
REMARK SMILES IDX 31 46 57 47 40 48 56 49 41 50 44 51 55 52 71 53 42 54 43 55
REMARK SMILES IDX 54 57 72 58 45 59 32 60 33 61 38 62 34 63 35 64 37 65 39 66
REMARK SMILES IDX 36 67 58 68 59 69 64 70 60 71 61 72 63 73 65 74 62 75 46 76
REMARK SMILES IDX 47 77 52 78 48 79 49 80 51 81 53 82 50 83
REMARK H PARENT 12 13 5 22 70 45 44 56
REMARK Flexibility Score: inf
ROOT
ATOM      1  C   UNL A   1      35.230  33.123  28.298  1.00  0.00     0.274 C 
ENDROOT
BRANCH   1   2
ATOM      2  O   UNL A   1      36.098  32.784  29.400  1.00  0.00    -0.462 OA
BRANCH   2   3
ATOM      3  C   UNL A   1      37.172  33.600  29.538  1.00  0.00     0.308 C 
ATOM      4  O   UNL A   1      38.141  33.591  28.800  1.00  0.00    -0.252 OA
BRANCH   3   5
ATOM      5  C   UNL A   1      37.105  34.460  30.767  1.00  0.00     0.151 C 
BRANCH   5   6
ATOM      6  C   UNL A   1      36.650  33.827  32.078  1.00  0.00     0.052 C 
ATOM      7  C   UNL A   1      36.933  34.674  33.372  1.00  0.00     0.029 C 
ATOM      8  C   UNL A   1      37.699  32.816  32.661  1.00  0.00     0.029 C 
ATOM      9  C   UNL A   1      38.301  33.985  33.472  1.00  0.00     0.005 C 
BRANCH   6  10
ATOM     10  N   UNL A   1      35.254  33.322  32.151  1.00  0.00    -0.332 N 
ATOM     11  C   UNL A   1      34.094  33.952  32.505  1.00  0.00     0.318 C 
ATOM     12  O   UNL A   1      33.217  33.309  33.075  1.00  0.00    -0.249 OA
ATOM     13  H   UNL A   1      35.147  32.375  31.904  1.00  0.00     0.165 HD
BRANCH  11  14
ATOM     14  N   UNL A   1      33.859  35.185  31.967  1.00  0.00    -0.304 N 
ATOM     15  C   UNL A   1      31.833  36.137  33.069  1.00  0.00     0.042 C 
ATOM     16  C   UNL A   1      33.339  36.250  32.820  1.00  0.00     0.174 C 
ATOM     17  C   UNL A   1      33.615  37.603  32.152  1.00  0.00     0.249 C 
ATOM     18  O   UNL A   1      33.793  38.633  32.800  1.00  0.00    -0.272 OA
ATOM     19  N   UNL A   1      33.456  37.647  30.785  1.00  0.00    -0.293 N 
ATOM     20  C   UNL A   1      33.357  35.192  30.593  1.00  0.00     0.222 C 
ATOM     21  C   UNL A   1      33.292  36.571  29.949  1.00  0.00     0.246 C 
ATOM     22  H   UNL A   1      33.459  38.537  30.367  1.00  0.00     0.173 HD
ATOM     23  O   UNL A   1      33.030  36.725  28.757  1.00  0.00    -0.273 OA
ENDBRANCH  11  14
ENDBRANCH   6  10
ENDBRANCH   5   6
ENDBRANCH   3   5
ENDBRANCH   2   3
ENDBRANCH   1   2
BRANCH   1  24
ATOM     24  C   UNL A   1      34.090  32.118  28.222  1.00  0.00     0.275 C 
BRANCH  24  25
ATOM     25  O   UNL A   1      34.281  31.162  27.158  1.00  0.00    -0.458 OA
BRANCH  25  26
ATOM     26  C   UNL A   1      34.559  29.916  27.629  1.00  0.00     0.338 C 
ATOM     27  O   UNL A   1      33.759  29.000  27.751  1.00  0.00    -0.246 OA
BRANCH  26  28
ATOM     28  C   UNL A   1      35.961  29.778  28.080  1.00  0.00     0.060 A 
ATOM     29  C   UNL A   1      37.031  29.995  27.216  1.00  0.00     0.016 A 
ATOM     30  C   UNL A   1      36.211  29.278  29.359  1.00  0.00     0.016 A 
ATOM     31  C   UNL A   1      38.347  29.728  27.613  1.00  0.00     0.010 A 
ATOM     32  C   UNL A   1      37.524  29.002  29.762  1.00  0.00     0.010 A 
ATOM     33  C   UNL A   1      38.604  29.205  28.885  1.00  0.00    -0.014 A 
BRANCH  33  34
ATOM     34  C   UNL A   1      39.957  28.704  29.249  1.00  0.00     0.031 A 
ATOM     35  C   UNL A   1      40.850  29.578  30.086  1.00  0.00     0.074 A 
ATOM     36  C   UNL A   1      40.393  27.483  28.886  1.00  0.00     0.049 A 
ATOM     37  N   UNL A   1      42.130  29.472  30.334  1.00  0.00    -0.248 NA
ATOM     38  C   UNL A   1      40.200  30.724  30.741  1.00  0.00     0.031 C 
ATOM     39  C   UNL A   1      39.598  26.469  28.201  1.00  0.00     0.029 A 
ATOM     40  N   UNL A   1      41.626  26.895  29.047  1.00  0.00    -0.354 N 
ATOM     41  C   UNL A   1      42.450  30.563  31.134  1.00  0.00     0.074 A 
ATOM     42  C   UNL A   1      41.226  31.305  31.345  1.00  0.00     0.031 C 
ATOM     43  C   UNL A   1      40.363  25.382  27.998  1.00  0.00     0.029 A 
ATOM     44  C   UNL A   1      41.721  25.654  28.465  1.00  0.00     0.049 A 
ATOM     45  H   UNL A   1      42.369  27.322  29.531  1.00  0.00     0.167 HD
ATOM     46  C   UNL A   1      43.658  30.921  31.630  1.00  0.00     0.037 A 
ATOM     47  C   UNL A   1      42.792  24.854  28.281  1.00  0.00     0.037 A 
ATOM     48  C   UNL A   1      44.868  30.166  31.436  1.00  0.00     0.049 A 
ATOM     49  C   UNL A   1      44.151  25.315  28.746  1.00  0.00     0.074 A 
ATOM     50  C   UNL A   1      46.154  30.471  31.846  1.00  0.00     0.029 A 
ATOM     51  N   UNL A   1      44.935  28.944  30.784  1.00  0.00    -0.354 N 
ATOM     52  N   UNL A   1      44.476  26.405  29.398  1.00  0.00    -0.248 NA
ATOM     53  C   UNL A   1      45.296  24.448  28.425  1.00  0.00     0.031 C 
ATOM     54  C   UNL A   1      47.007  29.451  31.409  1.00  0.00     0.029 A 
ATOM     55  C   UNL A   1      46.243  28.489  30.767  1.00  0.00     0.049 A 
ATOM     56  H   UNL A   1      44.168  28.471  30.391  1.00  0.00     0.167 HD
ATOM     57  C   UNL A   1      45.854  26.350  29.576  1.00  0.00     0.074 A 
ATOM     58  C   UNL A   1      46.304  25.110  28.977  1.00  0.00     0.031 C 
ATOM     59  C   UNL A   1      46.673  27.246  30.178  1.00  0.00     0.037 A 
BRANCH  46  60
ATOM     60  C   UNL A   1      43.737  32.232  32.357  1.00  0.00     0.057 A 
ATOM     61  C   UNL A   1      43.980  33.443  31.698  1.00  0.00     0.134 A 
ATOM     62  C   UNL A   1      43.577  32.272  33.748  1.00  0.00     0.134 A 
ATOM     63  F   UNL A   1      44.161  33.471  30.370  1.00  0.00    -0.206 F 
ATOM     64  C   UNL A   1      44.090  34.644  32.402  1.00  0.00     0.040 A 
ATOM     65  C   UNL A   1      43.661  33.469  34.460  1.00  0.00     0.040 A 
ATOM     66  F   UNL A   1      43.338  31.147  34.439  1.00  0.00    -0.206 F 
ATOM     67  C   UNL A   1      43.928  34.660  33.787  1.00  0.00     0.006 A 
ENDBRANCH  46  60
BRANCH  47  68
ATOM     68  C   UNL A   1      42.643  23.564  27.555  1.00  0.00     0.057 A 
ATOM     69  C   UNL A   1      42.345  22.374  28.229  1.00  0.00     0.134 A 
ATOM     70  C   UNL A   1      42.816  23.488  26.166  1.00  0.00     0.134 A 
ATOM     71  F   UNL A   1      42.204  22.371  29.562  1.00  0.00    -0.206 F 
ATOM     72  C   UNL A   1      42.227  21.158  27.552  1.00  0.00     0.040 A 
ATOM     73  C   UNL A   1      42.671  22.286  25.473  1.00  0.00     0.040 A 
ATOM     74  F   UNL A   1      43.117  24.588  25.460  1.00  0.00    -0.206 F 
ATOM     75  C   UNL A   1      42.380  21.114  26.167  1.00  0.00     0.006 A 
ENDBRANCH  47  68
BRANCH  59  76
ATOM     76  C   UNL A   1      48.133  26.909  30.256  1.00  0.00     0.057 A 
ATOM     77  C   UNL A   1      48.654  26.121  31.290  1.00  0.00     0.134 A 
ATOM     78  C   UNL A   1      49.014  27.326  29.252  1.00  0.00     0.134 A 
ATOM     79  F   UNL A   1      47.865  25.697  32.289  1.00  0.00    -0.206 F 
ATOM     80  C   UNL A   1      50.006  25.771  31.327  1.00  0.00     0.040 A 
ATOM     81  C   UNL A   1      50.363  26.966  29.267  1.00  0.00     0.040 A 
ATOM     82  F   UNL A   1      48.575  28.076  28.229  1.00  0.00    -0.206 F 
ATOM     83  C   UNL A   1      50.862  26.187  30.309  1.00  0.00     0.006 A 
ENDBRANCH  59  76
ENDBRANCH  33  34
ENDBRANCH  26  28
ENDBRANCH  25  26
ENDBRANCH  24  25
ENDBRANCH   1  24
TORSDOF 14
ENDMDL
