MODEL 1
REMARK VINA RESULT:     -11.9      0.000      0.000
REMARK SMILES Cc1cc(F)ccc1NC(=O)[C@H]1CC=CC[C@@H]1C(=O)OCCOC(=O)c1ccc(-c2c3nc(c(-c4c(F)cccc4F)c4ccc([nH]4)c(-c4c(F)cccc4F)c4nc(c(-c5c(F)cccc5F)c5ccc2[nH]5)C=C4)C=C3)cc1
REMARK SMILES IDX 21 1 20 2 18 3 19 4 17 5 12 6 13 7 14 8 16 9 15 10 10 11
REMARK SMILES IDX 9 12 11 14 8 15 1 16 2 17 3 18 4 19 7 20 5 21 6 22 22 23
REMARK SMILES IDX 23 24 24 25 25 26 26 27 27 28 79 29 28 30 78 31 29 32 30 33
REMARK SMILES IDX 31 34 72 35 32 36 77 37 71 38 73 39 33 40 76 41 70 42 69 43
REMARK SMILES IDX 34 45 60 46 43 47 59 48 44 49 47 50 58 51 74 52 45 53 46 54
REMARK SMILES IDX 57 56 75 57 48 58 35 59 36 60 41 61 37 62 38 63 40 64 42 65
REMARK SMILES IDX 39 66 61 67 62 68 67 69 63 70 64 71 66 72 68 73 65 74 49 75
REMARK SMILES IDX 50 76 55 77 51 78 52 79 54 80 56 81 53 82
REMARK H PARENT 9 13 73 44 47 55
REMARK Flexibility Score: inf
ROOT
ATOM      1  C   UNL A   1      35.155  21.320  24.817  1.00  0.00     0.274 C 
ENDROOT
BRANCH   1   2
ATOM      2  O   UNL A   1      34.982  22.547  25.562  1.00  0.00    -0.462 OA
BRANCH   2   3
ATOM      3  C   UNL A   1      34.105  22.555  26.602  1.00  0.00     0.310 C 
ATOM      4  O   UNL A   1      34.189  21.778  27.543  1.00  0.00    -0.252 OA
BRANCH   3   5
ATOM      5  C   UNL A   1      33.031  23.660  26.466  1.00  0.00     0.116 C 
ATOM      6  C   UNL A   1      31.605  23.076  26.436  1.00  0.00     0.097 C 
ATOM      7  C   UNL A   1      31.376  22.316  25.113  1.00  0.00     0.041 C 
ATOM      8  C   UNL A   1      31.717  23.173  23.934  1.00  0.00    -0.030 C 
ATOM      9  C   UNL A   1      33.357  24.525  25.242  1.00  0.00     0.043 C 
ATOM     10  C   UNL A   1      32.579  24.195  24.010  1.00  0.00    -0.030 C 
BRANCH   6  11
ATOM     11  C   UNL A   1      30.298  23.854  26.769  1.00  0.00     0.228 C 
ATOM     12  N   UNL A   1      29.838  25.073  26.392  1.00  0.00    -0.326 N 
ATOM     13  H   UNL A   1      29.047  25.330  26.919  1.00  0.00     0.169 HD
ATOM     14  O   UNL A   1      29.556  23.327  27.625  1.00  0.00    -0.274 OA
BRANCH  12  15
ATOM     15  C   UNL A   1      30.169  26.069  25.468  1.00  0.00     0.044 A 
ATOM     16  C   UNL A   1      31.403  27.414  27.257  1.00  0.00     0.047 C 
ATOM     17  C   UNL A   1      31.068  27.088  25.827  1.00  0.00    -0.025 A 
ATOM     18  C   UNL A   1      31.576  27.941  24.828  1.00  0.00     0.044 A 
ATOM     19  C   UNL A   1      31.087  27.867  23.534  1.00  0.00     0.123 A 
ATOM     20  C   UNL A   1      29.524  26.188  24.246  1.00  0.00     0.029 A 
ATOM     21  F   UNL A   1      31.604  28.646  22.577  1.00  0.00    -0.207 F 
ATOM     22  C   UNL A   1      30.008  27.050  23.254  1.00  0.00     0.041 A 
ENDBRANCH  12  15
ENDBRANCH   6  11
ENDBRANCH   3   5
ENDBRANCH   2   3
ENDBRANCH   1   2
BRANCH   1  23
ATOM     23  C   UNL A   1      36.532  20.667  24.994  1.00  0.00     0.275 C 
BRANCH  23  24
ATOM     24  O   UNL A   1      37.292  21.454  25.920  1.00  0.00    -0.458 OA
BRANCH  24  25
ATOM     25  C   UNL A   1      38.613  21.182  26.004  1.00  0.00     0.338 C 
ATOM     26  O   UNL A   1      39.184  20.142  25.748  1.00  0.00    -0.246 OA
BRANCH  25  27
ATOM     27  C   UNL A   1      39.265  22.411  26.472  1.00  0.00     0.060 A 
ATOM     28  C   UNL A   1      40.440  22.325  27.223  1.00  0.00     0.016 A 
ATOM     29  C   UNL A   1      38.720  23.646  26.127  1.00  0.00     0.016 A 
ATOM     30  C   UNL A   1      41.085  23.488  27.627  1.00  0.00     0.010 A 
ATOM     31  C   UNL A   1      39.394  24.811  26.495  1.00  0.00     0.010 A 
ATOM     32  C   UNL A   1      40.582  24.739  27.244  1.00  0.00    -0.014 A 
BRANCH  32  33
ATOM     33  C   UNL A   1      41.312  25.973  27.616  1.00  0.00     0.031 A 
ATOM     34  C   UNL A   1      40.630  27.031  28.429  1.00  0.00     0.074 A 
ATOM     35  C   UNL A   1      42.586  26.134  27.211  1.00  0.00     0.049 A 
ATOM     36  N   UNL A   1      41.056  28.223  28.761  1.00  0.00    -0.248 NA
ATOM     37  C   UNL A   1      39.284  26.711  28.932  1.00  0.00     0.031 C 
ATOM     38  C   UNL A   1      43.358  25.157  26.440  1.00  0.00     0.029 A 
ATOM     39  N   UNL A   1      43.457  27.177  27.393  1.00  0.00    -0.354 N 
ATOM     40  C   UNL A   1      40.024  28.806  29.483  1.00  0.00     0.074 A 
ATOM     41  C   UNL A   1      38.944  27.844  29.531  1.00  0.00     0.031 C 
ATOM     42  C   UNL A   1      44.594  25.639  26.233  1.00  0.00     0.029 A 
ATOM     43  C   UNL A   1      44.679  26.981  26.797  1.00  0.00     0.049 A 
ATOM     44  H   UNL A   1      43.228  27.990  27.900  1.00  0.00     0.167 HD
ATOM     45  C   UNL A   1      39.987  30.034  30.052  1.00  0.00     0.037 A 
ATOM     46  C   UNL A   1      45.738  27.803  26.693  1.00  0.00     0.037 A 
ATOM     47  C   UNL A   1      41.078  30.972  30.015  1.00  0.00     0.049 A 
ATOM     48  C   UNL A   1      45.655  29.175  27.297  1.00  0.00     0.074 A 
ATOM     49  C   UNL A   1      41.149  32.236  30.575  1.00  0.00     0.029 A 
ATOM     50  N   UNL A   1      42.292  30.746  29.382  1.00  0.00    -0.354 N 
ATOM     51  N   UNL A   1      44.670  29.722  27.969  1.00  0.00    -0.248 NA
ATOM     52  C   UNL A   1      46.823  30.048  27.121  1.00  0.00     0.031 C 
ATOM     53  C   UNL A   1      42.392  32.789  30.247  1.00  0.00     0.029 A 
ATOM     54  C   UNL A   1      43.112  31.854  29.522  1.00  0.00     0.049 A 
ATOM     55  H   UNL A   1      42.535  29.920  28.906  1.00  0.00     0.167 HD
ATOM     56  C   UNL A   1      45.103  30.995  28.309  1.00  0.00     0.074 A 
ATOM     57  C   UNL A   1      46.447  31.133  27.784  1.00  0.00     0.031 C 
ATOM     58  C   UNL A   1      44.447  31.965  28.991  1.00  0.00     0.037 A 
BRANCH  45  59
ATOM     59  C   UNL A   1      38.713  30.442  30.731  1.00  0.00     0.057 A 
ATOM     60  C   UNL A   1      37.685  31.105  30.049  1.00  0.00     0.134 A 
ATOM     61  C   UNL A   1      38.504  30.146  32.084  1.00  0.00     0.134 A 
ATOM     62  F   UNL A   1      37.827  31.433  28.755  1.00  0.00    -0.206 F 
ATOM     63  C   UNL A   1      36.504  31.480  30.694  1.00  0.00     0.040 A 
ATOM     64  C   UNL A   1      37.319  30.495  32.734  1.00  0.00     0.040 A 
ATOM     65  F   UNL A   1      39.447  29.510  32.796  1.00  0.00    -0.206 F 
ATOM     66  C   UNL A   1      36.317  31.169  32.040  1.00  0.00     0.006 A 
ENDBRANCH  45  59
BRANCH  46  67
ATOM     67  C   UNL A   1      46.954  27.358  25.967  1.00  0.00     0.057 A 
ATOM     68  C   UNL A   1      47.078  27.532  24.585  1.00  0.00     0.134 A 
ATOM     69  C   UNL A   1      48.025  26.754  26.640  1.00  0.00     0.134 A 
ATOM     70  F   UNL A   1      46.078  28.084  23.881  1.00  0.00    -0.206 F 
ATOM     71  C   UNL A   1      48.219  27.116  23.895  1.00  0.00     0.040 A 
ATOM     72  C   UNL A   1      49.181  26.357  25.967  1.00  0.00     0.040 A 
ATOM     73  F   UNL A   1      47.969  26.561  27.966  1.00  0.00    -0.206 F 
ATOM     74  C   UNL A   1      49.277  26.533  24.589  1.00  0.00     0.006 A 
ENDBRANCH  46  67
BRANCH  58  75
ATOM     75  C   UNL A   1      45.191  33.245  29.232  1.00  0.00     0.057 A 
ATOM     76  C   UNL A   1      45.095  34.329  28.352  1.00  0.00     0.134 A 
ATOM     77  C   UNL A   1      45.990  33.400  30.372  1.00  0.00     0.134 A 
ATOM     78  F   UNL A   1      44.358  34.235  27.234  1.00  0.00    -0.206 F 
ATOM     79  C   UNL A   1      45.786  35.519  28.586  1.00  0.00     0.040 A 
ATOM     80  C   UNL A   1      46.666  34.592  30.629  1.00  0.00     0.040 A 
ATOM     81  F   UNL A   1      46.116  32.400  31.256  1.00  0.00    -0.206 F 
ATOM     82  C   UNL A   1      46.569  35.654  29.732  1.00  0.00     0.006 A 
ENDBRANCH  58  75
ENDBRANCH  32  33
ENDBRANCH  25  27
ENDBRANCH  24  25
ENDBRANCH  23  24
ENDBRANCH   1  23
TORSDOF 13
ENDMDL
MODEL 2
REMARK VINA RESULT:     -11.7      3.925      8.600
REMARK SMILES Cc1cc(F)ccc1NC(=O)[C@H]1CC=CC[C@@H]1C(=O)OCCOC(=O)c1ccc(-c2c3nc(c(-c4c(F)cccc4F)c4ccc([nH]4)c(-c4c(F)cccc4F)c4nc(c(-c5c(F)cccc5F)c5ccc2[nH]5)C=C4)C=C3)cc1
REMARK SMILES IDX 21 1 20 2 18 3 19 4 17 5 12 6 13 7 14 8 16 9 15 10 10 11
REMARK SMILES IDX 9 12 11 14 8 15 1 16 2 17 3 18 4 19 7 20 5 21 6 22 22 23
REMARK SMILES IDX 23 24 24 25 25 26 26 27 27 28 79 29 28 30 78 31 29 32 30 33
REMARK SMILES IDX 31 34 72 35 32 36 77 37 71 38 73 39 33 40 76 41 70 42 69 43
REMARK SMILES IDX 34 45 60 46 43 47 59 48 44 49 47 50 58 51 74 52 45 53 46 54
REMARK SMILES IDX 57 56 75 57 48 58 35 59 36 60 41 61 37 62 38 63 40 64 42 65
REMARK SMILES IDX 39 66 61 67 62 68 67 69 63 70 64 71 66 72 68 73 65 74 49 75
REMARK SMILES IDX 50 76 55 77 51 78 52 79 54 80 56 81 53 82
REMARK H PARENT 9 13 73 44 47 55
REMARK Flexibility Score: inf
ROOT
ATOM      1  C   UNL A   1      31.155  29.492  24.163  1.00  0.00     0.274 C 
ENDROOT
BRANCH   1   2
ATOM      2  O   UNL A   1      31.453  28.172  23.652  1.00  0.00    -0.462 OA
BRANCH   2   3
ATOM      3  C   UNL A   1      30.622  27.147  23.984  1.00  0.00     0.310 C 
ATOM      4  O   UNL A   1      29.404  27.258  23.989  1.00  0.00    -0.252 OA
BRANCH   3   5
ATOM      5  C   UNL A   1      31.390  25.846  24.319  1.00  0.00     0.116 C 
ATOM      6  C   UNL A   1      31.298  25.493  25.816  1.00  0.00     0.097 C 
ATOM      7  C   UNL A   1      32.114  26.506  26.647  1.00  0.00     0.041 C 
ATOM      8  C   UNL A   1      33.512  26.627  26.125  1.00  0.00    -0.030 C 
ATOM      9  C   UNL A   1      32.833  25.972  23.815  1.00  0.00     0.043 C 
ATOM     10  C   UNL A   1      33.836  26.342  24.857  1.00  0.00    -0.030 C 
BRANCH   6  11
ATOM     11  C   UNL A   1      31.527  24.081  26.433  1.00  0.00     0.228 C 
ATOM     12  N   UNL A   1      32.435  23.108  26.176  1.00  0.00    -0.326 N 
ATOM     13  H   UNL A   1      32.194  22.271  26.635  1.00  0.00     0.169 HD
ATOM     14  O   UNL A   1      30.663  23.700  27.251  1.00  0.00    -0.274 OA
BRANCH  12  15
ATOM     15  C   UNL A   1      33.618  22.956  25.446  1.00  0.00     0.044 A 
ATOM     16  C   UNL A   1      32.362  21.849  23.515  1.00  0.00     0.047 C 
ATOM     17  C   UNL A   1      33.565  22.530  24.107  1.00  0.00    -0.025 A 
ATOM     18  C   UNL A   1      34.726  22.608  23.314  1.00  0.00     0.044 A 
ATOM     19  C   UNL A   1      35.936  22.965  23.884  1.00  0.00     0.123 A 
ATOM     20  C   UNL A   1      34.869  23.057  26.034  1.00  0.00     0.029 A 
ATOM     21  F   UNL A   1      37.028  23.084  23.119  1.00  0.00    -0.207 F 
ATOM     22  C   UNL A   1      36.032  23.113  25.255  1.00  0.00     0.041 A 
ENDBRANCH  12  15
ENDBRANCH   6  11
ENDBRANCH   3   5
ENDBRANCH   2   3
ENDBRANCH   1   2
BRANCH   1  23
ATOM     23  C   UNL A   1      31.438  29.664  25.661  1.00  0.00     0.275 C 
BRANCH  23  24
ATOM     24  O   UNL A   1      32.750  30.221  25.813  1.00  0.00    -0.458 OA
BRANCH  24  25
ATOM     25  C   UNL A   1      32.900  31.164  26.770  1.00  0.00     0.338 C 
ATOM     26  O   UNL A   1      32.148  32.073  27.052  1.00  0.00    -0.246 OA
BRANCH  25  27
ATOM     27  C   UNL A   1      34.177  30.886  27.437  1.00  0.00     0.060 A 
ATOM     28  C   UNL A   1      35.038  31.942  27.749  1.00  0.00     0.016 A 
ATOM     29  C   UNL A   1      34.494  29.573  27.784  1.00  0.00     0.016 A 
ATOM     30  C   UNL A   1      36.225  31.685  28.423  1.00  0.00     0.010 A 
ATOM     31  C   UNL A   1      35.665  29.326  28.500  1.00  0.00     0.010 A 
ATOM     32  C   UNL A   1      36.536  30.380  28.827  1.00  0.00    -0.014 A 
BRANCH  32  33
ATOM     33  C   UNL A   1      37.768  30.123  29.608  1.00  0.00     0.031 A 
ATOM     34  C   UNL A   1      38.861  29.278  29.027  1.00  0.00     0.074 A 
ATOM     35  C   UNL A   1      37.890  30.649  30.841  1.00  0.00     0.049 A 
ATOM     36  N   UNL A   1      39.960  28.846  29.590  1.00  0.00    -0.248 NA
ATOM     37  C   UNL A   1      38.693  28.853  27.627  1.00  0.00     0.031 C 
ATOM     38  C   UNL A   1      36.902  31.510  31.495  1.00  0.00     0.029 A 
ATOM     39  N   UNL A   1      38.897  30.538  31.765  1.00  0.00    -0.354 N 
ATOM     40  C   UNL A   1      40.600  28.077  28.628  1.00  0.00     0.074 A 
ATOM     41  C   UNL A   1      39.761  28.088  27.449  1.00  0.00     0.031 C 
ATOM     42  C   UNL A   1      37.361  31.866  32.705  1.00  0.00     0.029 A 
ATOM     43  C   UNL A   1      38.641  31.207  32.937  1.00  0.00     0.049 A 
ATOM     44  H   UNL A   1      39.724  30.028  31.604  1.00  0.00     0.167 HD
ATOM     45  C   UNL A   1      41.781  27.423  28.725  1.00  0.00     0.037 A 
ATOM     46  C   UNL A   1      39.346  31.258  34.082  1.00  0.00     0.037 A 
ATOM     47  C   UNL A   1      42.617  27.439  29.897  1.00  0.00     0.049 A 
ATOM     48  C   UNL A   1      40.632  30.489  34.177  1.00  0.00     0.074 A 
ATOM     49  C   UNL A   1      43.842  26.823  30.093  1.00  0.00     0.029 A 
ATOM     50  N   UNL A   1      42.313  28.108  31.074  1.00  0.00    -0.354 N 
ATOM     51  N   UNL A   1      41.224  29.755  33.266  1.00  0.00    -0.248 NA
ATOM     52  C   UNL A   1      41.344  30.545  35.461  1.00  0.00     0.031 C 
ATOM     53  C   UNL A   1      44.259  27.090  31.402  1.00  0.00     0.029 A 
ATOM     54  C   UNL A   1      43.317  27.907  32.006  1.00  0.00     0.049 A 
ATOM     55  H   UNL A   1      41.504  28.648  31.222  1.00  0.00     0.167 HD
ATOM     56  C   UNL A   1      42.383  29.275  33.857  1.00  0.00     0.074 A 
ATOM     57  C   UNL A   1      42.420  29.815  35.202  1.00  0.00     0.031 C 
ATOM     58  C   UNL A   1      43.331  28.457  33.337  1.00  0.00     0.037 A 
BRANCH  45  59
ATOM     59  C   UNL A   1      42.219  26.608  27.543  1.00  0.00     0.057 A 
ATOM     60  C   UNL A   1      42.987  27.153  26.507  1.00  0.00     0.134 A 
ATOM     61  C   UNL A   1      41.883  25.251  27.454  1.00  0.00     0.134 A 
ATOM     62  F   UNL A   1      43.329  28.450  26.522  1.00  0.00    -0.206 F 
ATOM     63  C   UNL A   1      43.387  26.383  25.412  1.00  0.00     0.040 A 
ATOM     64  C   UNL A   1      42.297  24.465  26.376  1.00  0.00     0.040 A 
ATOM     65  F   UNL A   1      41.151  24.665  28.414  1.00  0.00    -0.206 F 
ATOM     66  C   UNL A   1      43.046  25.033  25.348  1.00  0.00     0.006 A 
ENDBRANCH  45  59
BRANCH  46  67
ATOM     67  C   UNL A   1      38.837  32.044  35.233  1.00  0.00     0.057 A 
ATOM     68  C   UNL A   1      39.014  33.430  35.299  1.00  0.00     0.134 A 
ATOM     69  C   UNL A   1      38.153  31.430  36.291  1.00  0.00     0.134 A 
ATOM     70  F   UNL A   1      39.678  34.073  34.328  1.00  0.00    -0.206 F 
ATOM     71  C   UNL A   1      38.538  34.178  36.379  1.00  0.00     0.040 A 
ATOM     72  C   UNL A   1      37.650  32.167  37.363  1.00  0.00     0.040 A 
ATOM     73  F   UNL A   1      37.949  30.104  36.286  1.00  0.00    -0.206 F 
ATOM     74  C   UNL A   1      37.847  33.546  37.411  1.00  0.00     0.006 A 
ENDBRANCH  46  67
BRANCH  58  75
ATOM     75  C   UNL A   1      44.498  28.128  34.219  1.00  0.00     0.057 A 
ATOM     76  C   UNL A   1      44.489  27.015  35.067  1.00  0.00     0.134 A 
ATOM     77  C   UNL A   1      45.653  28.920  34.197  1.00  0.00     0.134 A 
ATOM     78  F   UNL A   1      43.406  26.227  35.145  1.00  0.00    -0.206 F 
ATOM     79  C   UNL A   1      45.582  26.711  35.880  1.00  0.00     0.040 A 
ATOM     80  C   UNL A   1      46.761  28.613  34.986  1.00  0.00     0.040 A 
ATOM     81  F   UNL A   1      45.725  29.996  33.400  1.00  0.00    -0.206 F 
ATOM     82  C   UNL A   1      46.725  27.509  35.835  1.00  0.00     0.006 A 
ENDBRANCH  58  75
ENDBRANCH  32  33
ENDBRANCH  25  27
ENDBRANCH  24  25
ENDBRANCH  23  24
ENDBRANCH   1  23
TORSDOF 13
ENDMDL
MODEL 3
REMARK VINA RESULT:     -11.6      1.326      1.956
REMARK SMILES Cc1cc(F)ccc1NC(=O)[C@H]1CC=CC[C@@H]1C(=O)OCCOC(=O)c1ccc(-c2c3nc(c(-c4c(F)cccc4F)c4ccc([nH]4)c(-c4c(F)cccc4F)c4nc(c(-c5c(F)cccc5F)c5ccc2[nH]5)C=C4)C=C3)cc1
REMARK SMILES IDX 21 1 20 2 18 3 19 4 17 5 12 6 13 7 14 8 16 9 15 10 10 11
REMARK SMILES IDX 9 12 11 14 8 15 1 16 2 17 3 18 4 19 7 20 5 21 6 22 22 23
REMARK SMILES IDX 23 24 24 25 25 26 26 27 27 28 79 29 28 30 78 31 29 32 30 33
REMARK SMILES IDX 31 34 72 35 32 36 77 37 71 38 73 39 33 40 76 41 70 42 69 43
REMARK SMILES IDX 34 45 60 46 43 47 59 48 44 49 47 50 58 51 74 52 45 53 46 54
REMARK SMILES IDX 57 56 75 57 48 58 35 59 36 60 41 61 37 62 38 63 40 64 42 65
REMARK SMILES IDX 39 66 61 67 62 68 67 69 63 70 64 71 66 72 68 73 65 74 49 75
REMARK SMILES IDX 50 76 55 77 51 78 52 79 54 80 56 81 53 82
REMARK H PARENT 9 13 73 44 47 55
REMARK Flexibility Score: inf
ROOT
ATOM      1  C   UNL A   1      35.340  20.121  25.075  1.00  0.00     0.274 C 
ENDROOT
BRANCH   1   2
ATOM      2  O   UNL A   1      34.345  21.101  25.451  1.00  0.00    -0.462 OA
BRANCH   2   3
ATOM      3  C   UNL A   1      33.334  21.364  24.580  1.00  0.00     0.310 C 
ATOM      4  O   UNL A   1      32.707  20.483  24.009  1.00  0.00    -0.252 OA
BRANCH   3   5
ATOM      5  C   UNL A   1      33.063  22.879  24.425  1.00  0.00     0.116 C 
ATOM      6  C   UNL A   1      33.613  23.430  23.095  1.00  0.00     0.097 C 
ATOM      7  C   UNL A   1      35.156  23.436  23.126  1.00  0.00     0.041 C 
ATOM      8  C   UNL A   1      35.667  24.141  24.344  1.00  0.00    -0.030 C 
ATOM      9  C   UNL A   1      33.610  23.613  25.656  1.00  0.00     0.043 C 
ATOM     10  C   UNL A   1      34.946  24.254  25.467  1.00  0.00    -0.030 C 
BRANCH   6  11
ATOM     11  C   UNL A   1      33.147  24.739  22.392  1.00  0.00     0.228 C 
ATOM     12  N   UNL A   1      32.623  25.896  22.868  1.00  0.00    -0.326 N 
ATOM     13  H   UNL A   1      32.284  26.457  22.133  1.00  0.00     0.169 HD
ATOM     14  O   UNL A   1      33.148  24.713  21.143  1.00  0.00    -0.274 OA
BRANCH  12  15
ATOM     15  C   UNL A   1      32.428  26.517  24.104  1.00  0.00     0.044 A 
ATOM     16  C   UNL A   1      29.900  26.170  23.955  1.00  0.00     0.047 C 
ATOM     17  C   UNL A   1      31.160  26.485  24.713  1.00  0.00    -0.025 A 
ATOM     18  C   UNL A   1      31.029  26.900  26.052  1.00  0.00     0.044 A 
ATOM     19  C   UNL A   1      32.107  27.465  26.715  1.00  0.00     0.123 A 
ATOM     20  C   UNL A   1      33.400  27.309  24.696  1.00  0.00     0.029 A 
ATOM     21  F   UNL A   1      31.993  27.816  28.001  1.00  0.00    -0.207 F 
ATOM     22  C   UNL A   1      33.269  27.746  26.021  1.00  0.00     0.041 A 
ENDBRANCH  12  15
ENDBRANCH   6  11
ENDBRANCH   3   5
ENDBRANCH   2   3
ENDBRANCH   1   2
BRANCH   1  23
ATOM     23  C   UNL A   1      36.678  20.724  24.626  1.00  0.00     0.275 C 
BRANCH  23  24
ATOM     24  O   UNL A   1      37.318  21.307  25.768  1.00  0.00    -0.458 OA
BRANCH  24  25
ATOM     25  C   UNL A   1      38.626  21.017  25.942  1.00  0.00     0.338 C 
ATOM     26  O   UNL A   1      39.193  19.960  25.752  1.00  0.00    -0.246 OA
BRANCH  25  27
ATOM     27  C   UNL A   1      39.270  22.247  26.416  1.00  0.00     0.060 A 
ATOM     28  C   UNL A   1      40.417  22.165  27.210  1.00  0.00     0.016 A 
ATOM     29  C   UNL A   1      38.747  23.481  26.032  1.00  0.00     0.016 A 
ATOM     30  C   UNL A   1      41.055  23.329  27.619  1.00  0.00     0.010 A 
ATOM     31  C   UNL A   1      39.417  24.647  26.407  1.00  0.00     0.010 A 
ATOM     32  C   UNL A   1      40.576  24.578  27.200  1.00  0.00    -0.014 A 
BRANCH  32  33
ATOM     33  C   UNL A   1      41.301  25.812  27.580  1.00  0.00     0.031 A 
ATOM     34  C   UNL A   1      40.614  26.865  28.397  1.00  0.00     0.074 A 
ATOM     35  C   UNL A   1      42.575  25.980  27.179  1.00  0.00     0.049 A 
ATOM     36  N   UNL A   1      41.036  28.055  28.736  1.00  0.00    -0.248 NA
ATOM     37  C   UNL A   1      39.268  26.537  28.896  1.00  0.00     0.031 C 
ATOM     38  C   UNL A   1      43.352  25.009  26.405  1.00  0.00     0.029 A 
ATOM     39  N   UNL A   1      43.442  27.025  27.368  1.00  0.00    -0.354 N 
ATOM     40  C   UNL A   1      40.000  28.632  29.459  1.00  0.00     0.074 A 
ATOM     41  C   UNL A   1      38.923  27.665  29.499  1.00  0.00     0.031 C 
ATOM     42  C   UNL A   1      44.587  25.496  26.202  1.00  0.00     0.029 A 
ATOM     43  C   UNL A   1      44.666  26.835  26.774  1.00  0.00     0.049 A 
ATOM     44  H   UNL A   1      43.210  27.834  27.878  1.00  0.00     0.167 HD
ATOM     45  C   UNL A   1      39.957  29.856  30.034  1.00  0.00     0.037 A 
ATOM     46  C   UNL A   1      45.723  27.661  26.676  1.00  0.00     0.037 A 
ATOM     47  C   UNL A   1      41.046  30.799  30.004  1.00  0.00     0.049 A 
ATOM     48  C   UNL A   1      45.634  29.030  27.287  1.00  0.00     0.074 A 
ATOM     49  C   UNL A   1      41.111  32.060  30.571  1.00  0.00     0.029 A 
ATOM     50  N   UNL A   1      42.262  30.580  29.373  1.00  0.00    -0.354 N 
ATOM     51  N   UNL A   1      44.646  29.571  27.959  1.00  0.00    -0.248 NA
ATOM     52  C   UNL A   1      46.799  29.908  27.118  1.00  0.00     0.031 C 
ATOM     53  C   UNL A   1      42.353  32.618  30.249  1.00  0.00     0.029 A 
ATOM     54  C   UNL A   1      43.078  31.689  29.520  1.00  0.00     0.049 A 
ATOM     55  H   UNL A   1      42.508  29.757  28.893  1.00  0.00     0.167 HD
ATOM     56  C   UNL A   1      45.074  30.843  28.307  1.00  0.00     0.074 A 
ATOM     57  C   UNL A   1      46.419  30.988  27.786  1.00  0.00     0.031 C 
ATOM     58  C   UNL A   1      44.414  31.807  28.993  1.00  0.00     0.037 A 
BRANCH  45  59
ATOM     59  C   UNL A   1      38.680  30.256  30.712  1.00  0.00     0.057 A 
ATOM     60  C   UNL A   1      37.661  30.940  30.038  1.00  0.00     0.134 A 
ATOM     61  C   UNL A   1      38.460  29.933  32.057  1.00  0.00     0.134 A 
ATOM     62  F   UNL A   1      37.815  31.295  28.753  1.00  0.00    -0.206 F 
ATOM     63  C   UNL A   1      36.478  31.308  30.682  1.00  0.00     0.040 A 
ATOM     64  C   UNL A   1      37.272  30.274  32.706  1.00  0.00     0.040 A 
ATOM     65  F   UNL A   1      39.395  29.276  32.762  1.00  0.00    -0.206 F 
ATOM     66  C   UNL A   1      36.279  30.969  32.019  1.00  0.00     0.006 A 
ENDBRANCH  45  59
BRANCH  46  67
ATOM     67  C   UNL A   1      46.942  27.224  25.950  1.00  0.00     0.057 A 
ATOM     68  C   UNL A   1      47.083  27.436  24.575  1.00  0.00     0.134 A 
ATOM     69  C   UNL A   1      48.000  26.590  26.617  1.00  0.00     0.134 A 
ATOM     70  F   UNL A   1      46.096  28.018  23.877  1.00  0.00    -0.206 F 
ATOM     71  C   UNL A   1      48.226  27.027  23.885  1.00  0.00     0.040 A 
ATOM     72  C   UNL A   1      49.158  26.200  25.945  1.00  0.00     0.040 A 
ATOM     73  F   UNL A   1      47.927  26.360  27.936  1.00  0.00    -0.206 F 
ATOM     74  C   UNL A   1      49.271  26.413  24.573  1.00  0.00     0.006 A 
ENDBRANCH  46  67
BRANCH  58  75
ATOM     75  C   UNL A   1      45.153  33.088  29.242  1.00  0.00     0.057 A 
ATOM     76  C   UNL A   1      45.051  34.179  28.370  1.00  0.00     0.134 A 
ATOM     77  C   UNL A   1      45.953  33.238  30.381  1.00  0.00     0.134 A 
ATOM     78  F   UNL A   1      44.312  34.090  27.253  1.00  0.00    -0.206 F 
ATOM     79  C   UNL A   1      45.737  35.369  28.612  1.00  0.00     0.040 A 
ATOM     80  C   UNL A   1      46.625  34.431  30.647  1.00  0.00     0.040 A 
ATOM     81  F   UNL A   1      46.086  32.232  31.258  1.00  0.00    -0.206 F 
ATOM     82  C   UNL A   1      46.522  35.499  29.758  1.00  0.00     0.006 A 
ENDBRANCH  58  75
ENDBRANCH  32  33
ENDBRANCH  25  27
ENDBRANCH  24  25
ENDBRANCH  23  24
ENDBRANCH   1  23
TORSDOF 13
ENDMDL
