MODEL 1
REMARK VINA RESULT:     -11.0      0.000      0.000
REMARK SMILES O=C(Cc1csc(NC(=O)[C@H]2CC(=O)N(C3CC3)C2)n1)OCCOC(=O)c1ccc(-c2c3nc(c(-c4c(F)cccc4F)c4ccc([nH]4)c(-c4c(F)cccc4F)c4nc(c(-c5c(F)cccc5F)c5ccc2[nH]5)C=C4)C=C3)cc1
REMARK SMILES IDX 22 1 21 2 2 3 1 4 3 5 4 6 5 7 20 8 6 9 7 10 8 11 9 12 10 14
REMARK SMILES IDX 11 15 12 16 19 17 13 18 15 19 14 20 16 21 17 22 18 23 23 24
REMARK SMILES IDX 24 25 25 26 26 27 27 28 28 29 80 30 29 31 79 32 30 33 31 34
REMARK SMILES IDX 32 35 73 36 33 37 78 38 72 39 74 40 34 41 77 42 71 43 70 44
REMARK SMILES IDX 35 46 61 47 44 48 60 49 45 50 48 51 59 52 75 53 46 54 47 55
REMARK SMILES IDX 58 57 76 58 49 59 36 60 37 61 42 62 38 63 39 64 41 65 43 66
REMARK SMILES IDX 40 67 62 68 63 69 68 70 64 71 65 72 67 73 69 74 66 75 50 76
REMARK SMILES IDX 51 77 56 78 52 79 53 80 55 81 57 82 54 83
REMARK H PARENT 8 13 74 45 48 56
REMARK Flexibility Score: inf
ROOT
ATOM      1  C   UNL A   1      31.866  31.098  26.397  1.00  0.00     0.274 C 
ENDROOT
BRANCH   1   2
ATOM      2  O   UNL A   1      31.554  30.000  27.285  1.00  0.00    -0.462 OA
BRANCH   2   3
ATOM      3  C   UNL A   1      31.866  28.695  27.081  1.00  0.00     0.312 C 
ATOM      4  O   UNL A   1      31.436  27.833  27.845  1.00  0.00    -0.252 OA
BRANCH   3   5
ATOM      5  C   UNL A   1      32.771  28.335  25.933  1.00  0.00     0.179 C 
BRANCH   5   6
ATOM      6  C   UNL A   1      32.071  27.905  24.692  1.00  0.00     0.065 A 
ATOM      7  C   UNL A   1      30.707  27.821  24.483  1.00  0.00     0.093 A 
ATOM      8  N   UNL A   1      32.837  27.621  23.560  1.00  0.00    -0.224 NA
ATOM      9  S   UNL A   1      30.409  27.706  22.810  1.00  0.00    -0.105 S 
ATOM     10  C   UNL A   1      32.044  27.271  22.577  1.00  0.00     0.189 A 
BRANCH  10  11
ATOM     11  N   UNL A   1      32.488  26.678  21.424  1.00  0.00    -0.302 N 
ATOM     12  C   UNL A   1      32.814  25.366  21.191  1.00  0.00     0.231 C 
ATOM     13  H   UNL A   1      32.586  27.280  20.651  1.00  0.00     0.172 HD
ATOM     14  O   UNL A   1      33.169  25.035  20.058  1.00  0.00    -0.274 OA
BRANCH  12  15
ATOM     15  C   UNL A   1      32.809  24.365  22.324  1.00  0.00     0.107 C 
ATOM     16  C   UNL A   1      32.660  22.883  21.992  1.00  0.00     0.115 C 
ATOM     17  C   UNL A   1      34.140  24.348  23.056  1.00  0.00     0.133 C 
ATOM     18  C   UNL A   1      33.157  22.257  23.289  1.00  0.00     0.223 C 
ATOM     19  N   UNL A   1      34.004  23.194  23.896  1.00  0.00    -0.339 N 
ATOM     20  O   UNL A   1      32.835  21.153  23.693  1.00  0.00    -0.275 OA
BRANCH  19  21
ATOM     21  C   UNL A   1      34.574  23.182  25.206  1.00  0.00     0.085 C 
ATOM     22  C   UNL A   1      35.827  23.899  25.609  1.00  0.00     0.027 C 
ATOM     23  C   UNL A   1      34.492  24.392  26.091  1.00  0.00     0.027 C 
ENDBRANCH  19  21
ENDBRANCH  12  15
ENDBRANCH  10  11
ENDBRANCH   5   6
ENDBRANCH   3   5
ENDBRANCH   2   3
ENDBRANCH   1   2
BRANCH   1  24
ATOM     24  C   UNL A   1      31.598  32.455  27.039  1.00  0.00     0.275 C 
BRANCH  24  25
ATOM     25  O   UNL A   1      32.761  33.286  26.875  1.00  0.00    -0.458 OA
BRANCH  25  26
ATOM     26  C   UNL A   1      33.175  33.934  27.994  1.00  0.00     0.338 C 
ATOM     27  O   UNL A   1      32.571  34.793  28.597  1.00  0.00    -0.246 OA
BRANCH  26  28
ATOM     28  C   UNL A   1      34.397  33.267  28.510  1.00  0.00     0.060 A 
ATOM     29  C   UNL A   1      34.250  31.978  29.038  1.00  0.00     0.016 A 
ATOM     30  C   UNL A   1      35.667  33.848  28.418  1.00  0.00     0.016 A 
ATOM     31  C   UNL A   1      35.366  31.278  29.497  1.00  0.00     0.010 A 
ATOM     32  C   UNL A   1      36.784  33.148  28.883  1.00  0.00     0.010 A 
ATOM     33  C   UNL A   1      36.636  31.869  29.443  1.00  0.00    -0.014 A 
BRANCH  33  34
ATOM     34  C   UNL A   1      37.788  31.199  30.088  1.00  0.00     0.031 A 
ATOM     35  C   UNL A   1      38.102  31.517  31.522  1.00  0.00     0.074 A 
ATOM     36  C   UNL A   1      38.541  30.314  29.410  1.00  0.00     0.049 A 
ATOM     37  N   UNL A   1      39.058  31.052  32.283  1.00  0.00    -0.248 NA
ATOM     38  C   UNL A   1      37.220  32.490  32.186  1.00  0.00     0.031 C 
ATOM     39  C   UNL A   1      38.332  29.909  28.021  1.00  0.00     0.029 A 
ATOM     40  N   UNL A   1      39.645  29.602  29.807  1.00  0.00    -0.354 N 
ATOM     41  C   UNL A   1      38.888  31.666  33.517  1.00  0.00     0.074 A 
ATOM     42  C   UNL A   1      37.759  32.563  33.395  1.00  0.00     0.031 C 
ATOM     43  C   UNL A   1      39.289  29.028  27.677  1.00  0.00     0.029 A 
ATOM     44  C   UNL A   1      40.186  28.825  28.814  1.00  0.00     0.049 A 
ATOM     45  H   UNL A   1      40.014  29.645  30.719  1.00  0.00     0.167 HD
ATOM     46  C   UNL A   1      39.600  31.489  34.654  1.00  0.00     0.037 A 
ATOM     47  C   UNL A   1      41.288  28.049  28.820  1.00  0.00     0.037 A 
ATOM     48  C   UNL A   1      40.725  30.604  34.781  1.00  0.00     0.049 A 
ATOM     49  C   UNL A   1      42.106  27.928  30.079  1.00  0.00     0.074 A 
ATOM     50  C   UNL A   1      41.485  30.332  35.905  1.00  0.00     0.029 A 
ATOM     51  N   UNL A   1      41.261  29.857  33.745  1.00  0.00    -0.354 N 
ATOM     52  N   UNL A   1      41.899  28.466  31.257  1.00  0.00    -0.248 NA
ATOM     53  C   UNL A   1      43.314  27.091  30.008  1.00  0.00     0.031 C 
ATOM     54  C   UNL A   1      42.511  29.455  35.538  1.00  0.00     0.029 A 
ATOM     55  C   UNL A   1      42.362  29.149  34.195  1.00  0.00     0.049 A 
ATOM     56  H   UNL A   1      40.910  29.832  32.825  1.00  0.00     0.167 HD
ATOM     57  C   UNL A   1      42.930  28.009  32.071  1.00  0.00     0.074 A 
ATOM     58  C   UNL A   1      43.755  27.143  31.258  1.00  0.00     0.031 C 
ATOM     59  C   UNL A   1      43.170  28.283  33.376  1.00  0.00     0.037 A 
BRANCH  46  60
ATOM     60  C   UNL A   1      39.186  32.280  35.857  1.00  0.00     0.057 A 
ATOM     61  C   UNL A   1      38.317  31.752  36.819  1.00  0.00     0.134 A 
ATOM     62  C   UNL A   1      39.702  33.563  36.079  1.00  0.00     0.134 A 
ATOM     63  F   UNL A   1      37.778  30.534  36.654  1.00  0.00    -0.206 F 
ATOM     64  C   UNL A   1      37.967  32.478  37.959  1.00  0.00     0.040 A 
ATOM     65  C   UNL A   1      39.375  34.289  37.224  1.00  0.00     0.040 A 
ATOM     66  F   UNL A   1      40.540  34.123  35.193  1.00  0.00    -0.206 F 
ATOM     67  C   UNL A   1      38.503  33.748  38.167  1.00  0.00     0.006 A 
ENDBRANCH  46  60
BRANCH  47  68
ATOM     68  C   UNL A   1      41.707  27.331  27.590  1.00  0.00     0.057 A 
ATOM     69  C   UNL A   1      42.447  27.973  26.591  1.00  0.00     0.134 A 
ATOM     70  C   UNL A   1      41.327  26.004  27.360  1.00  0.00     0.134 A 
ATOM     71  F   UNL A   1      42.818  29.252  26.744  1.00  0.00    -0.206 F 
ATOM     72  C   UNL A   1      42.774  27.329  25.397  1.00  0.00     0.040 A 
ATOM     73  C   UNL A   1      41.667  25.339  26.181  1.00  0.00     0.040 A 
ATOM     74  F   UNL A   1      40.615  25.334  28.279  1.00  0.00    -0.206 F 
ATOM     75  C   UNL A   1      42.385  26.007  25.191  1.00  0.00     0.006 A 
ENDBRANCH  47  68
BRANCH  59  76
ATOM     76  C   UNL A   1      44.357  27.622  34.014  1.00  0.00     0.057 A 
ATOM     77  C   UNL A   1      45.603  28.254  34.086  1.00  0.00     0.134 A 
ATOM     78  C   UNL A   1      44.237  26.356  34.603  1.00  0.00     0.134 A 
ATOM     79  F   UNL A   1      45.786  29.462  33.531  1.00  0.00    -0.206 F 
ATOM     80  C   UNL A   1      46.696  27.645  34.706  1.00  0.00     0.040 A 
ATOM     81  C   UNL A   1      45.315  25.746  35.247  1.00  0.00     0.040 A 
ATOM     82  F   UNL A   1      43.067  25.700  34.577  1.00  0.00    -0.206 F 
ATOM     83  C   UNL A   1      46.550  26.390  35.295  1.00  0.00     0.006 A 
ENDBRANCH  59  76
ENDBRANCH  33  34
ENDBRANCH  26  28
ENDBRANCH  25  26
ENDBRANCH  24  25
ENDBRANCH   1  24
TORSDOF 15
ENDMDL
MODEL 2
REMARK VINA RESULT:     -11.0      1.432      6.487
REMARK SMILES O=C(Cc1csc(NC(=O)[C@H]2CC(=O)N(C3CC3)C2)n1)OCCOC(=O)c1ccc(-c2c3nc(c(-c4c(F)cccc4F)c4ccc([nH]4)c(-c4c(F)cccc4F)c4nc(c(-c5c(F)cccc5F)c5ccc2[nH]5)C=C4)C=C3)cc1
REMARK SMILES IDX 22 1 21 2 2 3 1 4 3 5 4 6 5 7 20 8 6 9 7 10 8 11 9 12 10 14
REMARK SMILES IDX 11 15 12 16 19 17 13 18 15 19 14 20 16 21 17 22 18 23 23 24
REMARK SMILES IDX 24 25 25 26 26 27 27 28 28 29 80 30 29 31 79 32 30 33 31 34
REMARK SMILES IDX 32 35 73 36 33 37 78 38 72 39 74 40 34 41 77 42 71 43 70 44
REMARK SMILES IDX 35 46 61 47 44 48 60 49 45 50 48 51 59 52 75 53 46 54 47 55
REMARK SMILES IDX 58 57 76 58 49 59 36 60 37 61 42 62 38 63 39 64 41 65 43 66
REMARK SMILES IDX 40 67 62 68 63 69 68 70 64 71 65 72 67 73 69 74 66 75 50 76
REMARK SMILES IDX 51 77 56 78 52 79 53 80 55 81 57 82 54 83
REMARK H PARENT 8 13 74 45 48 56
REMARK Flexibility Score: inf
ROOT
ATOM      1  C   UNL A   1      31.305  31.301  26.250  1.00  0.00     0.274 C 
ENDROOT
BRANCH   1   2
ATOM      2  O   UNL A   1      31.948  30.286  27.056  1.00  0.00    -0.462 OA
BRANCH   2   3
ATOM      3  C   UNL A   1      32.716  29.268  26.592  1.00  0.00     0.312 C 
ATOM      4  O   UNL A   1      33.559  28.751  27.324  1.00  0.00    -0.252 OA
BRANCH   3   5
ATOM      5  C   UNL A   1      32.541  28.816  25.167  1.00  0.00     0.179 C 
BRANCH   5   6
ATOM      6  C   UNL A   1      31.477  27.797  24.957  1.00  0.00     0.065 A 
ATOM      7  C   UNL A   1      30.612  27.697  23.884  1.00  0.00     0.093 A 
ATOM      8  N   UNL A   1      31.354  26.761  25.884  1.00  0.00    -0.224 NA
ATOM      9  S   UNL A   1      29.896  26.152  23.892  1.00  0.00    -0.105 S 
ATOM     10  C   UNL A   1      30.374  25.970  25.521  1.00  0.00     0.189 A 
BRANCH  10  11
ATOM     11  N   UNL A   1      29.826  25.021  26.345  1.00  0.00    -0.302 N 
ATOM     12  C   UNL A   1      30.400  23.893  26.874  1.00  0.00     0.231 C 
ATOM     13  H   UNL A   1      28.885  25.171  26.593  1.00  0.00     0.172 HD
ATOM     14  O   UNL A   1      29.729  23.182  27.624  1.00  0.00    -0.274 OA
BRANCH  12  15
ATOM     15  C   UNL A   1      31.805  23.496  26.483  1.00  0.00     0.107 C 
ATOM     16  C   UNL A   1      32.592  22.575  27.411  1.00  0.00     0.115 C 
ATOM     17  C   UNL A   1      31.813  22.669  25.208  1.00  0.00     0.133 C 
ATOM     18  C   UNL A   1      33.679  22.088  26.462  1.00  0.00     0.223 C 
ATOM     19  N   UNL A   1      33.169  22.204  25.162  1.00  0.00    -0.339 N 
ATOM     20  O   UNL A   1      34.780  21.697  26.812  1.00  0.00    -0.275 OA
BRANCH  19  21
ATOM     21  C   UNL A   1      33.842  22.063  23.911  1.00  0.00     0.085 C 
ATOM     22  C   UNL A   1      33.649  22.954  22.720  1.00  0.00     0.027 C 
ATOM     23  C   UNL A   1      34.927  23.020  23.509  1.00  0.00     0.027 C 
ENDBRANCH  19  21
ENDBRANCH  12  15
ENDBRANCH  10  11
ENDBRANCH   5   6
ENDBRANCH   3   5
ENDBRANCH   2   3
ENDBRANCH   1   2
BRANCH   1  24
ATOM     24  C   UNL A   1      31.409  32.688  26.875  1.00  0.00     0.275 C 
BRANCH  24  25
ATOM     25  O   UNL A   1      32.790  33.092  26.886  1.00  0.00    -0.458 OA
BRANCH  25  26
ATOM     26  C   UNL A   1      33.161  33.868  27.936  1.00  0.00     0.338 C 
ATOM     27  O   UNL A   1      32.528  34.779  28.420  1.00  0.00    -0.246 OA
BRANCH  26  28
ATOM     28  C   UNL A   1      34.375  33.283  28.559  1.00  0.00     0.060 A 
ATOM     29  C   UNL A   1      34.298  31.953  28.992  1.00  0.00     0.016 A 
ATOM     30  C   UNL A   1      35.583  33.984  28.656  1.00  0.00     0.016 A 
ATOM     31  C   UNL A   1      35.417  31.330  29.544  1.00  0.00     0.010 A 
ATOM     32  C   UNL A   1      36.702  33.360  29.214  1.00  0.00     0.010 A 
ATOM     33  C   UNL A   1      36.618  32.038  29.679  1.00  0.00    -0.014 A 
BRANCH  33  34
ATOM     34  C   UNL A   1      37.749  31.435  30.422  1.00  0.00     0.031 A 
ATOM     35  C   UNL A   1      38.605  30.411  29.733  1.00  0.00     0.074 A 
ATOM     36  C   UNL A   1      38.017  31.800  31.688  1.00  0.00     0.049 A 
ATOM     37  N   UNL A   1      39.640  29.755  30.189  1.00  0.00    -0.248 NA
ATOM     38  C   UNL A   1      38.242  30.079  28.346  1.00  0.00     0.031 C 
ATOM     39  C   UNL A   1      37.273  32.792  32.462  1.00  0.00     0.029 A 
ATOM     40  N   UNL A   1      38.993  31.363  32.549  1.00  0.00    -0.354 N 
ATOM     41  C   UNL A   1      40.061  28.943  29.144  1.00  0.00     0.074 A 
ATOM     42  C   UNL A   1      39.148  29.161  28.042  1.00  0.00     0.031 C 
ATOM     43  C   UNL A   1      37.812  32.879  33.691  1.00  0.00     0.029 A 
ATOM     44  C   UNL A   1      38.924  31.934  33.796  1.00  0.00     0.049 A 
ATOM     45  H   UNL A   1      39.677  30.702  32.297  1.00  0.00     0.167 HD
ATOM     46  C   UNL A   1      41.119  28.102  29.100  1.00  0.00     0.037 A 
ATOM     47  C   UNL A   1      39.666  31.708  34.897  1.00  0.00     0.037 A 
ATOM     48  C   UNL A   1      42.026  27.877  30.193  1.00  0.00     0.049 A 
ATOM     49  C   UNL A   1      40.793  30.710  34.843  1.00  0.00     0.074 A 
ATOM     50  C   UNL A   1      43.149  27.070  30.228  1.00  0.00     0.029 A 
ATOM     51  N   UNL A   1      41.905  28.451  31.448  1.00  0.00    -0.354 N 
ATOM     52  N   UNL A   1      41.219  29.994  33.831  1.00  0.00    -0.248 NA
ATOM     53  C   UNL A   1      41.543  30.488  36.090  1.00  0.00     0.031 C 
ATOM     54  C   UNL A   1      43.683  27.119  31.520  1.00  0.00     0.029 A 
ATOM     55  C   UNL A   1      42.915  27.991  32.275  1.00  0.00     0.049 A 
ATOM     56  H   UNL A   1      41.206  29.092  31.712  1.00  0.00     0.167 HD
ATOM     57  C   UNL A   1      42.300  29.263  34.309  1.00  0.00     0.074 A 
ATOM     58  C   UNL A   1      42.474  29.629  35.698  1.00  0.00     0.031 C 
ATOM     59  C   UNL A   1      43.081  28.369  33.654  1.00  0.00     0.037 A 
BRANCH  46  60
ATOM     60  C   UNL A   1      41.351  27.349  27.826  1.00  0.00     0.057 A 
ATOM     61  C   UNL A   1      40.802  26.079  27.614  1.00  0.00     0.134 A 
ATOM     62  C   UNL A   1      42.087  27.923  26.782  1.00  0.00     0.134 A 
ATOM     63  F   UNL A   1      40.100  25.471  28.583  1.00  0.00    -0.206 F 
ATOM     64  C   UNL A   1      40.986  25.399  26.410  1.00  0.00     0.040 A 
ATOM     65  C   UNL A   1      42.261  27.262  25.567  1.00  0.00     0.040 A 
ATOM     66  F   UNL A   1      42.638  29.138  26.925  1.00  0.00    -0.206 F 
ATOM     67  C   UNL A   1      41.711  25.994  25.378  1.00  0.00     0.006 A 
ENDBRANCH  46  60
BRANCH  47  68
ATOM     68  C   UNL A   1      39.367  32.424  36.163  1.00  0.00     0.057 A 
ATOM     69  C   UNL A   1      38.418  31.933  37.067  1.00  0.00     0.134 A 
ATOM     70  C   UNL A   1      39.982  33.643  36.470  1.00  0.00     0.134 A 
ATOM     71  F   UNL A   1      37.778  30.783  36.814  1.00  0.00    -0.206 F 
ATOM     72  C   UNL A   1      38.073  32.642  38.219  1.00  0.00     0.040 A 
ATOM     73  C   UNL A   1      39.664  34.351  37.630  1.00  0.00     0.040 A 
ATOM     74  F   UNL A   1      40.899  34.167  35.642  1.00  0.00    -0.206 F 
ATOM     75  C   UNL A   1      38.699  33.854  38.503  1.00  0.00     0.006 A 
ENDBRANCH  47  68
BRANCH  59  76
ATOM     76  C   UNL A   1      44.208  27.742  34.423  1.00  0.00     0.057 A 
ATOM     77  C   UNL A   1      45.450  28.374  34.556  1.00  0.00     0.134 A 
ATOM     78  C   UNL A   1      44.031  26.515  35.075  1.00  0.00     0.134 A 
ATOM     79  F   UNL A   1      45.686  29.545  33.945  1.00  0.00    -0.206 F 
ATOM     80  C   UNL A   1      46.485  27.799  35.295  1.00  0.00     0.040 A 
ATOM     81  C   UNL A   1      45.050  25.941  35.838  1.00  0.00     0.040 A 
ATOM     82  F   UNL A   1      42.861  25.862  34.996  1.00  0.00    -0.206 F 
ATOM     83  C   UNL A   1      46.283  26.583  35.945  1.00  0.00     0.006 A 
ENDBRANCH  59  76
ENDBRANCH  33  34
ENDBRANCH  26  28
ENDBRANCH  25  26
ENDBRANCH  24  25
ENDBRANCH   1  24
TORSDOF 15
ENDMDL
MODEL 3
REMARK VINA RESULT:     -10.9      4.573      8.728
REMARK SMILES O=C(Cc1csc(NC(=O)[C@H]2CC(=O)N(C3CC3)C2)n1)OCCOC(=O)c1ccc(-c2c3nc(c(-c4c(F)cccc4F)c4ccc([nH]4)c(-c4c(F)cccc4F)c4nc(c(-c5c(F)cccc5F)c5ccc2[nH]5)C=C4)C=C3)cc1
REMARK SMILES IDX 22 1 21 2 2 3 1 4 3 5 4 6 5 7 20 8 6 9 7 10 8 11 9 12 10 14
REMARK SMILES IDX 11 15 12 16 19 17 13 18 15 19 14 20 16 21 17 22 18 23 23 24
REMARK SMILES IDX 24 25 25 26 26 27 27 28 28 29 80 30 29 31 79 32 30 33 31 34
REMARK SMILES IDX 32 35 73 36 33 37 78 38 72 39 74 40 34 41 77 42 71 43 70 44
REMARK SMILES IDX 35 46 61 47 44 48 60 49 45 50 48 51 59 52 75 53 46 54 47 55
REMARK SMILES IDX 58 57 76 58 49 59 36 60 37 61 42 62 38 63 39 64 41 65 43 66
REMARK SMILES IDX 40 67 62 68 63 69 68 70 64 71 65 72 67 73 69 74 66 75 50 76
REMARK SMILES IDX 51 77 56 78 52 79 53 80 55 81 57 82 54 83
REMARK H PARENT 8 13 74 45 48 56
REMARK Flexibility Score: inf
ROOT
ATOM      1  C   UNL A   1      38.314  20.123  24.977  1.00  0.00     0.274 C 
ENDROOT
BRANCH   1   2
ATOM      2  O   UNL A   1      37.503  21.156  25.582  1.00  0.00    -0.462 OA
BRANCH   2   3
ATOM      3  C   UNL A   1      37.861  22.454  25.750  1.00  0.00     0.312 C 
ATOM      4  O   UNL A   1      38.828  22.739  26.456  1.00  0.00    -0.252 OA
BRANCH   3   5
ATOM      5  C   UNL A   1      37.036  23.528  25.092  1.00  0.00     0.179 C 
BRANCH   5   6
ATOM      6  C   UNL A   1      35.607  23.176  24.872  1.00  0.00     0.065 A 
ATOM      7  C   UNL A   1      34.998  22.848  23.676  1.00  0.00     0.093 A 
ATOM      8  N   UNL A   1      34.767  23.078  25.983  1.00  0.00    -0.224 NA
ATOM      9  S   UNL A   1      33.494  22.119  24.002  1.00  0.00    -0.105 S 
ATOM     10  C   UNL A   1      33.561  22.754  25.586  1.00  0.00     0.189 A 
BRANCH  10  11
ATOM     11  N   UNL A   1      32.454  22.838  26.389  1.00  0.00    -0.302 N 
ATOM     12  C   UNL A   1      31.514  23.834  26.470  1.00  0.00     0.231 C 
ATOM     13  H   UNL A   1      32.312  22.075  26.995  1.00  0.00     0.172 HD
ATOM     14  O   UNL A   1      30.569  23.696  27.250  1.00  0.00    -0.274 OA
BRANCH  12  15
ATOM     15  C   UNL A   1      31.678  25.107  25.671  1.00  0.00     0.107 C 
ATOM     16  C   UNL A   1      30.427  25.854  25.218  1.00  0.00     0.115 C 
ATOM     17  C   UNL A   1      32.362  26.191  26.488  1.00  0.00     0.133 C 
ATOM     18  C   UNL A   1      31.021  27.219  24.894  1.00  0.00     0.223 C 
ATOM     19  N   UNL A   1      32.192  27.344  25.653  1.00  0.00    -0.339 N 
ATOM     20  O   UNL A   1      30.543  28.013  24.102  1.00  0.00    -0.275 OA
BRANCH  19  21
ATOM     21  C   UNL A   1      33.214  28.340  25.581  1.00  0.00     0.085 C 
ATOM     22  C   UNL A   1      33.112  29.727  26.141  1.00  0.00     0.027 C 
ATOM     23  C   UNL A   1      34.009  28.716  26.798  1.00  0.00     0.027 C 
ENDBRANCH  19  21
ENDBRANCH  12  15
ENDBRANCH  10  11
ENDBRANCH   5   6
ENDBRANCH   3   5
ENDBRANCH   2   3
ENDBRANCH   1   2
BRANCH   1  24
ATOM     24  C   UNL A   1      39.271  19.480  25.975  1.00  0.00     0.275 C 
BRANCH  24  25
ATOM     25  O   UNL A   1      40.506  19.170  25.305  1.00  0.00    -0.458 OA
BRANCH  25  26
ATOM     26  C   UNL A   1      41.602  19.113  26.103  1.00  0.00     0.338 C 
ATOM     27  O   UNL A   1      42.287  18.138  26.322  1.00  0.00    -0.246 OA
BRANCH  26  28
ATOM     28  C   UNL A   1      41.980  20.493  26.498  1.00  0.00     0.060 A 
ATOM     29  C   UNL A   1      42.215  21.414  25.470  1.00  0.00     0.016 A 
ATOM     30  C   UNL A   1      42.036  20.903  27.836  1.00  0.00     0.016 A 
ATOM     31  C   UNL A   1      42.528  22.739  25.774  1.00  0.00     0.010 A 
ATOM     32  C   UNL A   1      42.356  22.230  28.139  1.00  0.00     0.010 A 
ATOM     33  C   UNL A   1      42.623  23.148  27.111  1.00  0.00    -0.014 A 
BRANCH  33  34
ATOM     34  C   UNL A   1      43.125  24.503  27.433  1.00  0.00     0.031 A 
ATOM     35  C   UNL A   1      42.141  25.566  27.829  1.00  0.00     0.074 A 
ATOM     36  C   UNL A   1      44.440  24.783  27.381  1.00  0.00     0.049 A 
ATOM     37  N   UNL A   1      42.356  26.815  28.151  1.00  0.00    -0.248 NA
ATOM     38  C   UNL A   1      40.725  25.167  27.866  1.00  0.00     0.031 C 
ATOM     39  C   UNL A   1      45.497  23.838  27.026  1.00  0.00     0.029 A 
ATOM     40  N   UNL A   1      45.106  25.959  27.624  1.00  0.00    -0.354 N 
ATOM     41  C   UNL A   1      41.106  27.349  28.439  1.00  0.00     0.074 A 
ATOM     42  C   UNL A   1      40.134  26.300  28.220  1.00  0.00     0.031 C 
ATOM     43  C   UNL A   1      46.681  24.476  27.061  1.00  0.00     0.029 A 
ATOM     44  C   UNL A   1      46.461  25.877  27.420  1.00  0.00     0.049 A 
ATOM     45  H   UNL A   1      44.655  26.783  27.916  1.00  0.00     0.167 HD
ATOM     46  C   UNL A   1      40.797  28.597  28.860  1.00  0.00     0.037 A 
ATOM     47  C   UNL A   1      47.412  26.828  27.500  1.00  0.00     0.037 A 
ATOM     48  C   UNL A   1      41.757  29.645  29.074  1.00  0.00     0.049 A 
ATOM     49  C   UNL A   1      47.029  28.230  27.900  1.00  0.00     0.074 A 
ATOM     50  C   UNL A   1      41.540  30.931  29.536  1.00  0.00     0.029 A 
ATOM     51  N   UNL A   1      43.116  29.531  28.828  1.00  0.00    -0.354 N 
ATOM     52  N   UNL A   1      45.853  28.706  28.229  1.00  0.00    -0.248 NA
ATOM     53  C   UNL A   1      48.110  29.227  27.938  1.00  0.00     0.031 C 
ATOM     54  C   UNL A   1      42.762  31.612  29.525  1.00  0.00     0.029 A 
ATOM     55  C   UNL A   1      43.745  30.735  29.097  1.00  0.00     0.049 A 
ATOM     56  H   UNL A   1      43.567  28.716  28.509  1.00  0.00     0.167 HD
ATOM     57  C   UNL A   1      46.058  30.045  28.541  1.00  0.00     0.074 A 
ATOM     58  C   UNL A   1      47.471  30.305  28.372  1.00  0.00     0.031 C 
ATOM     59  C   UNL A   1      45.154  30.977  28.932  1.00  0.00     0.037 A 
BRANCH  46  60
ATOM     60  C   UNL A   1      39.353  28.902  29.110  1.00  0.00     0.057 A 
ATOM     61  C   UNL A   1      38.762  28.687  30.361  1.00  0.00     0.134 A 
ATOM     62  C   UNL A   1      38.558  29.465  28.103  1.00  0.00     0.134 A 
ATOM     63  F   UNL A   1      39.469  28.138  31.361  1.00  0.00    -0.206 F 
ATOM     64  C   UNL A   1      37.427  29.012  30.600  1.00  0.00     0.040 A 
ATOM     65  C   UNL A   1      37.227  29.811  28.336  1.00  0.00     0.040 A 
ATOM     66  F   UNL A   1      39.066  29.695  26.883  1.00  0.00    -0.206 F 
ATOM     67  C   UNL A   1      36.657  29.583  29.588  1.00  0.00     0.006 A 
ENDBRANCH  46  60
BRANCH  47  68
ATOM     68  C   UNL A   1      48.825  26.506  27.181  1.00  0.00     0.057 A 
ATOM     69  C   UNL A   1      49.302  26.556  25.866  1.00  0.00     0.134 A 
ATOM     70  C   UNL A   1      49.715  26.086  28.176  1.00  0.00     0.134 A 
ATOM     71  F   UNL A   1      48.487  26.926  24.868  1.00  0.00    -0.206 F 
ATOM     72  C   UNL A   1      50.607  26.176  25.548  1.00  0.00     0.040 A 
ATOM     73  C   UNL A   1      51.030  25.726  27.876  1.00  0.00     0.040 A 
ATOM     74  F   UNL A   1      49.319  26.016  29.456  1.00  0.00    -0.206 F 
ATOM     75  C   UNL A   1      51.475  25.761  26.556  1.00  0.00     0.006 A 
ENDBRANCH  47  68
BRANCH  59  76
ATOM     76  C   UNL A   1      45.669  32.356  29.230  1.00  0.00     0.057 A 
ATOM     77  C   UNL A   1      46.154  32.704  30.496  1.00  0.00     0.134 A 
ATOM     78  C   UNL A   1      45.721  33.330  28.225  1.00  0.00     0.134 A 
ATOM     79  F   UNL A   1      46.119  31.819  31.504  1.00  0.00    -0.206 F 
ATOM     80  C   UNL A   1      46.657  33.979  30.758  1.00  0.00     0.040 A 
ATOM     81  C   UNL A   1      46.244  34.602  28.468  1.00  0.00     0.040 A 
ATOM     82  F   UNL A   1      45.281  33.058  26.986  1.00  0.00    -0.206 F 
ATOM     83  C   UNL A   1      46.709  34.930  29.740  1.00  0.00     0.006 A 
ENDBRANCH  59  76
ENDBRANCH  33  34
ENDBRANCH  26  28
ENDBRANCH  25  26
ENDBRANCH  24  25
ENDBRANCH   1  24
TORSDOF 15
ENDMDL
