MODEL 1
REMARK VINA RESULT:     -12.4      0.000      0.000
REMARK SMILES O=C(OCCOC(=O)c1cc(NC(=S)NC(=O)c2ccccc2Cl)c(Cl)cc1Cl)c1ccc(-c2c3nc(c(-c4c(F)cccc4F)c4ccc([nH]4)c(-c4c(F)cccc4F)c4nc(c(-c5c(F)cccc5F)c5ccc2[nH]5)C=C4)C=C3)cc1
REMARK SMILES IDX 5 1 4 2 3 3 2 4 1 5 30 6 31 7 83 8 32 9 82 10 33 11 34 12
REMARK SMILES IDX 35 13 76 14 36 15 81 16 75 17 77 18 37 19 80 20 74 21 73 22
REMARK SMILES IDX 38 24 64 25 47 26 63 27 48 28 51 29 62 30 78 31 49 32 50 33
REMARK SMILES IDX 61 35 79 36 52 37 39 38 40 39 45 40 41 41 42 42 44 43 46 44
REMARK SMILES IDX 43 45 65 46 66 47 71 48 67 49 68 50 70 51 72 52 69 53 53 54
REMARK SMILES IDX 54 55 59 56 55 57 56 58 58 59 60 60 57 61 6 62 7 63 8 64
REMARK SMILES IDX 9 65 10 66 28 67 11 68 27 69 29 70 25 71 26 72 12 73 13 75
REMARK SMILES IDX 14 76 15 77 16 78 17 80 18 81 19 82 23 83 20 84 22 85 24 86
REMARK SMILES IDX 21 87
REMARK H PARENT 77 23 51 34 12 74 15 79
REMARK Flexibility Score: inf
ROOT
ATOM      1  C   UNL A   1      31.381  32.081  26.921  1.00  0.00     0.275 C 
ENDROOT
BRANCH   1   2
ATOM      2  C   UNL A   1      32.493  33.123  27.096  1.00  0.00     0.275 C 
BRANCH   2   3
ATOM      3  O   UNL A   1      32.296  34.166  28.061  1.00  0.00    -0.458 OA
BRANCH   3   4
ATOM      4  C   UNL A   1      33.235  34.568  28.943  1.00  0.00     0.338 C 
ATOM      5  O   UNL A   1      33.027  35.547  29.656  1.00  0.00    -0.246 OA
BRANCH   4   6
ATOM      6  C   UNL A   1      34.501  33.781  29.118  1.00  0.00     0.060 A 
ATOM      7  C   UNL A   1      35.765  34.087  28.596  1.00  0.00     0.016 A 
ATOM      8  C   UNL A   1      34.391  32.633  29.905  1.00  0.00     0.016 A 
ATOM      9  C   UNL A   1      36.920  33.367  28.987  1.00  0.00     0.010 A 
ATOM     10  C   UNL A   1      35.532  31.920  30.284  1.00  0.00     0.010 A 
ATOM     11  C   UNL A   1      36.829  32.308  29.893  1.00  0.00    -0.014 A 
BRANCH  11  12
ATOM     12  C   UNL A   1      38.009  31.538  30.417  1.00  0.00     0.031 A 
ATOM     13  C   UNL A   1      38.555  31.934  31.766  1.00  0.00     0.074 A 
ATOM     14  C   UNL A   1      38.683  30.589  29.717  1.00  0.00     0.049 A 
ATOM     15  N   UNL A   1      39.569  31.434  32.426  1.00  0.00    -0.248 NA
ATOM     16  C   UNL A   1      37.883  33.050  32.463  1.00  0.00     0.031 C 
ATOM     17  C   UNL A   1      38.336  30.048  28.407  1.00  0.00     0.029 A 
ATOM     18  N   UNL A   1      39.856  29.919  30.014  1.00  0.00    -0.354 N 
ATOM     19  C   UNL A   1      39.578  32.112  33.633  1.00  0.00     0.074 A 
ATOM     20  C   UNL A   1      38.659  33.218  33.516  1.00  0.00     0.031 C 
ATOM     21  C   UNL A   1      39.315  29.237  27.960  1.00  0.00     0.029 A 
ATOM     22  C   UNL A   1      40.326  29.111  28.996  1.00  0.00     0.049 A 
ATOM     23  H   UNL A   1      40.318  30.010  30.878  1.00  0.00     0.167 HD
ATOM     24  C   UNL A   1      40.151  31.754  34.802  1.00  0.00     0.037 A 
ATOM     25  C   UNL A   1      41.412  28.312  28.925  1.00  0.00     0.037 A 
ATOM     26  C   UNL A   1      41.064  30.665  34.950  1.00  0.00     0.049 A 
ATOM     27  C   UNL A   1      42.198  28.047  30.180  1.00  0.00     0.074 A 
ATOM     28  C   UNL A   1      41.684  30.203  36.094  1.00  0.00     0.029 A 
ATOM     29  N   UNL A   1      41.507  29.877  33.900  1.00  0.00    -0.354 N 
ATOM     30  N   UNL A   1      42.052  28.570  31.371  1.00  0.00    -0.248 NA
ATOM     31  C   UNL A   1      43.227  26.998  30.103  1.00  0.00     0.031 C 
ATOM     32  C   UNL A   1      42.547  29.165  35.727  1.00  0.00     0.029 A 
ATOM     33  C   UNL A   1      42.423  28.952  34.364  1.00  0.00     0.049 A 
ATOM     34  H   UNL A   1      41.213  29.963  32.965  1.00  0.00     0.167 HD
ATOM     35  C   UNL A   1      42.909  27.859  32.200  1.00  0.00     0.074 A 
ATOM     36  C   UNL A   1      43.587  26.885  31.373  1.00  0.00     0.031 C 
ATOM     37  C   UNL A   1      43.089  27.983  33.536  1.00  0.00     0.037 A 
BRANCH  24  38
ATOM     38  C   UNL A   1      39.682  32.514  36.003  1.00  0.00     0.057 A 
ATOM     39  C   UNL A   1      38.520  32.115  36.687  1.00  0.00     0.134 A 
ATOM     40  C   UNL A   1      40.308  33.690  36.414  1.00  0.00     0.134 A 
ATOM     41  F   UNL A   1      37.854  31.011  36.312  1.00  0.00    -0.206 F 
ATOM     42  C   UNL A   1      37.969  32.892  37.703  1.00  0.00     0.040 A 
ATOM     43  C   UNL A   1      39.781  34.460  37.451  1.00  0.00     0.040 A 
ATOM     44  F   UNL A   1      41.412  34.128  35.793  1.00  0.00    -0.206 F 
ATOM     45  C   UNL A   1      38.601  34.071  38.086  1.00  0.00     0.006 A 
ENDBRANCH  24  38
BRANCH  25  46
ATOM     46  C   UNL A   1      41.807  27.583  27.687  1.00  0.00     0.057 A 
ATOM     47  C   UNL A   1      42.545  28.205  26.672  1.00  0.00     0.134 A 
ATOM     48  C   UNL A   1      41.274  26.320  27.411  1.00  0.00     0.134 A 
ATOM     49  F   UNL A   1      43.024  29.444  26.852  1.00  0.00    -0.206 F 
ATOM     50  C   UNL A   1      42.724  27.606  25.421  1.00  0.00     0.040 A 
ATOM     51  C   UNL A   1      41.436  25.715  26.160  1.00  0.00     0.040 A 
ATOM     52  F   UNL A   1      40.554  25.672  28.339  1.00  0.00    -0.206 F 
ATOM     53  C   UNL A   1      42.166  26.357  25.161  1.00  0.00     0.006 A 
ENDBRANCH  25  46
BRANCH  37  54
ATOM     54  C   UNL A   1      44.015  27.011  34.200  1.00  0.00     0.057 A 
ATOM     55  C   UNL A   1      43.565  25.795  34.725  1.00  0.00     0.134 A 
ATOM     56  C   UNL A   1      45.387  27.286  34.274  1.00  0.00     0.134 A 
ATOM     57  F   UNL A   1      42.260  25.484  34.702  1.00  0.00    -0.206 F 
ATOM     58  C   UNL A   1      44.446  24.891  35.319  1.00  0.00     0.040 A 
ATOM     59  C   UNL A   1      46.281  26.375  34.835  1.00  0.00     0.040 A 
ATOM     60  F   UNL A   1      45.882  28.433  33.787  1.00  0.00    -0.206 F 
ATOM     61  C   UNL A   1      45.810  25.176  35.364  1.00  0.00     0.006 A 
ENDBRANCH  37  54
ENDBRANCH  11  12
ENDBRANCH   4   6
ENDBRANCH   3   4
ENDBRANCH   2   3
ENDBRANCH   1   2
BRANCH   1  62
ATOM     62  O   UNL A   1      31.526  31.209  25.785  1.00  0.00    -0.458 OA
BRANCH  62  63
ATOM     63  C   UNL A   1      31.759  29.905  26.115  1.00  0.00     0.339 C 
ATOM     64  O   UNL A   1      31.694  29.469  27.259  1.00  0.00    -0.246 OA
BRANCH  63  65
ATOM     65  C   UNL A   1      32.297  28.967  25.003  1.00  0.00     0.080 A 
ATOM     66  C   UNL A   1      33.795  27.611  24.839  1.00  0.00     0.045 A 
ATOM     67  C   UNL A   1      31.059  28.894  23.674  1.00  0.00     0.057 A 
ATOM     68  C   UNL A   1      33.837  26.401  23.651  1.00  0.00     0.060 A 
ATOM     69  C   UNL A   1      31.256  27.655  22.397  1.00  0.00     0.044 A 
ATOM     70  Cl  UNL A   1      29.752  29.999  23.562  1.00  0.00    -0.083 Cl
ATOM     71  C   UNL A   1      32.597  26.454  22.410  1.00  0.00     0.066 A 
ATOM     72  Cl  UNL A   1      32.579  25.210  21.218  1.00  0.00    -0.082 Cl
BRANCH  68  73
ATOM     73  N   UNL A   1      34.429  25.242  24.210  1.00  0.00    -0.331 N 
ATOM     74  H   UNL A   1      34.822  25.373  25.103  1.00  0.00     0.169 HD
BRANCH  73  75
ATOM     75  C   UNL A   1      34.547  23.958  23.714  1.00  0.00     0.177 C 
ATOM     76  S   UNL A   1      36.099  23.315  23.697  1.00  0.00    -0.040 S 
BRANCH  75  77
ATOM     77  N   UNL A   1      33.555  23.087  23.163  1.00  0.00    -0.299 N 
ATOM     78  C   UNL A   1      32.487  22.057  23.261  1.00  0.00     0.258 C 
ATOM     79  H   UNL A   1      33.607  23.269  22.197  1.00  0.00     0.172 HD
ATOM     80  O   UNL A   1      32.195  21.369  22.286  1.00  0.00    -0.269 OA
BRANCH  78  81
ATOM     81  C   UNL A   1      31.837  21.739  24.594  1.00  0.00     0.058 A 
ATOM     82  C   UNL A   1      32.920  20.622  25.510  1.00  0.00     0.015 A 
ATOM     83  C   UNL A   1      31.314  23.277  25.222  1.00  0.00     0.053 A 
ATOM     84  C   UNL A   1      33.758  21.092  27.013  1.00  0.00     0.001 A 
ATOM     85  C   UNL A   1      32.073  23.875  26.703  1.00  0.00     0.021 A 
ATOM     86  Cl  UNL A   1      30.356  24.354  24.288  1.00  0.00    -0.083 Cl
ATOM     87  C   UNL A   1      33.450  22.734  27.664  1.00  0.00     0.002 A 
ENDBRANCH  78  81
ENDBRANCH  75  77
ENDBRANCH  73  75
ENDBRANCH  68  73
ENDBRANCH  63  65
ENDBRANCH  62  63
ENDBRANCH   1  62
TORSDOF 15
ENDMDL
MODEL 2
REMARK VINA RESULT:     -12.1      1.208      1.948
REMARK SMILES O=C(OCCOC(=O)c1cc(NC(=S)NC(=O)c2ccccc2Cl)c(Cl)cc1Cl)c1ccc(-c2c3nc(c(-c4c(F)cccc4F)c4ccc([nH]4)c(-c4c(F)cccc4F)c4nc(c(-c5c(F)cccc5F)c5ccc2[nH]5)C=C4)C=C3)cc1
REMARK SMILES IDX 5 1 4 2 3 3 2 4 1 5 30 6 31 7 83 8 32 9 82 10 33 11 34 12
REMARK SMILES IDX 35 13 76 14 36 15 81 16 75 17 77 18 37 19 80 20 74 21 73 22
REMARK SMILES IDX 38 24 64 25 47 26 63 27 48 28 51 29 62 30 78 31 49 32 50 33
REMARK SMILES IDX 61 35 79 36 52 37 39 38 40 39 45 40 41 41 42 42 44 43 46 44
REMARK SMILES IDX 43 45 65 46 66 47 71 48 67 49 68 50 70 51 72 52 69 53 53 54
REMARK SMILES IDX 54 55 59 56 55 57 56 58 58 59 60 60 57 61 6 62 7 63 8 64
REMARK SMILES IDX 9 65 10 66 28 67 11 68 27 69 29 70 25 71 26 72 12 73 13 75
REMARK SMILES IDX 14 76 15 77 16 78 17 80 18 81 19 82 23 83 20 84 22 85 24 86
REMARK SMILES IDX 21 87
REMARK H PARENT 77 23 51 34 12 74 15 79
REMARK Flexibility Score: inf
ROOT
ATOM      1  C   UNL A   1      32.065  31.212  27.017  1.00  0.00     0.275 C 
ENDROOT
BRANCH   1   2
ATOM      2  C   UNL A   1      32.929  32.479  26.999  1.00  0.00     0.275 C 
BRANCH   2   3
ATOM      3  O   UNL A   1      32.420  33.653  27.647  1.00  0.00    -0.458 OA
BRANCH   3   4
ATOM      4  C   UNL A   1      33.120  34.395  28.531  1.00  0.00     0.338 C 
ATOM      5  O   UNL A   1      32.787  35.556  28.756  1.00  0.00    -0.246 OA
BRANCH   4   6
ATOM      6  C   UNL A   1      34.255  33.787  29.302  1.00  0.00     0.060 A 
ATOM      7  C   UNL A   1      34.167  33.026  30.476  1.00  0.00     0.016 A 
ATOM      8  C   UNL A   1      35.526  33.997  28.766  1.00  0.00     0.016 A 
ATOM      9  C   UNL A   1      35.293  32.351  31.004  1.00  0.00     0.010 A 
ATOM     10  C   UNL A   1      36.638  33.334  29.293  1.00  0.00     0.010 A 
ATOM     11  C   UNL A   1      36.539  32.442  30.379  1.00  0.00    -0.014 A 
BRANCH  11  12
ATOM     12  C   UNL A   1      37.768  31.702  30.829  1.00  0.00     0.031 A 
ATOM     13  C   UNL A   1      38.402  32.131  32.130  1.00  0.00     0.074 A 
ATOM     14  C   UNL A   1      38.407  30.751  30.099  1.00  0.00     0.049 A 
ATOM     15  N   UNL A   1      39.469  31.660  32.723  1.00  0.00    -0.248 NA
ATOM     16  C   UNL A   1      37.762  33.247  32.854  1.00  0.00     0.031 C 
ATOM     17  C   UNL A   1      37.977  30.182  28.826  1.00  0.00     0.029 A 
ATOM     18  N   UNL A   1      39.610  30.107  30.322  1.00  0.00    -0.354 N 
ATOM     19  C   UNL A   1      39.552  32.359  33.914  1.00  0.00     0.074 A 
ATOM     20  C   UNL A   1      38.608  33.448  33.846  1.00  0.00     0.031 C 
ATOM     21  C   UNL A   1      38.936  29.379  28.324  1.00  0.00     0.029 A 
ATOM     22  C   UNL A   1      40.021  29.288  29.287  1.00  0.00     0.049 A 
ATOM     23  H   UNL A   1      40.131  30.221  31.149  1.00  0.00     0.167 HD
ATOM     24  C   UNL A   1      40.214  32.032  35.045  1.00  0.00     0.037 A 
ATOM     25  C   UNL A   1      41.113  28.507  29.151  1.00  0.00     0.037 A 
ATOM     26  C   UNL A   1      41.155  30.961  35.145  1.00  0.00     0.049 A 
ATOM     27  C   UNL A   1      41.991  28.277  30.350  1.00  0.00     0.074 A 
ATOM     28  C   UNL A   1      41.863  30.531  36.249  1.00  0.00     0.029 A 
ATOM     29  N   UNL A   1      41.535  30.162  34.080  1.00  0.00    -0.354 N 
ATOM     30  N   UNL A   1      41.922  28.820  31.540  1.00  0.00    -0.248 NA
ATOM     31  C   UNL A   1      43.031  27.245  30.217  1.00  0.00     0.031 C 
ATOM     32  C   UNL A   1      42.716  29.501  35.839  1.00  0.00     0.029 A 
ATOM     33  C   UNL A   1      42.499  29.261  34.492  1.00  0.00     0.049 A 
ATOM     34  H   UNL A   1      41.174  30.227  33.166  1.00  0.00     0.167 HD
ATOM     35  C   UNL A   1      42.848  28.138  32.317  1.00  0.00     0.074 A 
ATOM     36  C   UNL A   1      43.483  27.160  31.460  1.00  0.00     0.031 C 
ATOM     37  C   UNL A   1      43.121  28.288  33.635  1.00  0.00     0.037 A 
BRANCH  24  38
ATOM     38  C   UNL A   1      39.818  32.805  36.264  1.00  0.00     0.057 A 
ATOM     39  C   UNL A   1      38.690  32.425  37.012  1.00  0.00     0.134 A 
ATOM     40  C   UNL A   1      40.480  33.976  36.633  1.00  0.00     0.134 A 
ATOM     41  F   UNL A   1      37.991  31.327  36.679  1.00  0.00    -0.206 F 
ATOM     42  C   UNL A   1      38.202  33.215  38.049  1.00  0.00     0.040 A 
ATOM     43  C   UNL A   1      40.018  34.759  37.691  1.00  0.00     0.040 A 
ATOM     44  F   UNL A   1      41.554  34.396  35.951  1.00  0.00    -0.206 F 
ATOM     45  C   UNL A   1      38.869  34.389  38.391  1.00  0.00     0.006 A 
ENDBRANCH  24  38
BRANCH  25  46
ATOM     46  C   UNL A   1      41.432  27.762  27.900  1.00  0.00     0.057 A 
ATOM     47  C   UNL A   1      42.115  28.369  26.838  1.00  0.00     0.134 A 
ATOM     48  C   UNL A   1      40.874  26.501  27.668  1.00  0.00     0.134 A 
ATOM     49  F   UNL A   1      42.612  29.606  26.978  1.00  0.00    -0.206 F 
ATOM     50  C   UNL A   1      42.218  27.756  25.585  1.00  0.00     0.040 A 
ATOM     51  C   UNL A   1      40.961  25.883  26.416  1.00  0.00     0.040 A 
ATOM     52  F   UNL A   1      40.204  25.868  28.642  1.00  0.00    -0.206 F 
ATOM     53  C   UNL A   1      41.637  26.509  25.370  1.00  0.00     0.006 A 
ENDBRANCH  25  46
BRANCH  37  54
ATOM     54  C   UNL A   1      44.110  27.345  34.246  1.00  0.00     0.057 A 
ATOM     55  C   UNL A   1      45.473  27.650  34.334  1.00  0.00     0.134 A 
ATOM     56  C   UNL A   1      43.677  26.130  34.793  1.00  0.00     0.134 A 
ATOM     57  F   UNL A   1      45.950  28.790  33.811  1.00  0.00    -0.206 F 
ATOM     58  C   UNL A   1      46.376  26.770  34.929  1.00  0.00     0.040 A 
ATOM     59  C   UNL A   1      44.566  25.258  35.420  1.00  0.00     0.040 A 
ATOM     60  F   UNL A   1      42.383  25.780  34.744  1.00  0.00    -0.206 F 
ATOM     61  C   UNL A   1      45.921  25.575  35.484  1.00  0.00     0.006 A 
ENDBRANCH  37  54
ENDBRANCH  11  12
ENDBRANCH   4   6
ENDBRANCH   3   4
ENDBRANCH   2   3
ENDBRANCH   1   2
BRANCH   1  62
ATOM     62  O   UNL A   1      32.753  30.001  27.383  1.00  0.00    -0.458 OA
BRANCH  62  63
ATOM     63  C   UNL A   1      32.121  28.862  26.977  1.00  0.00     0.339 C 
ATOM     64  O   UNL A   1      31.247  28.298  27.626  1.00  0.00    -0.246 OA
BRANCH  63  65
ATOM     65  C   UNL A   1      32.659  28.155  25.705  1.00  0.00     0.080 A 
ATOM     66  C   UNL A   1      33.885  26.587  25.317  1.00  0.00     0.045 A 
ATOM     67  C   UNL A   1      31.677  28.719  24.284  1.00  0.00     0.057 A 
ATOM     68  C   UNL A   1      33.905  25.758  23.838  1.00  0.00     0.060 A 
ATOM     69  C   UNL A   1      31.858  27.852  22.728  1.00  0.00     0.044 A 
ATOM     70  Cl  UNL A   1      30.637  30.081  24.356  1.00  0.00    -0.083 Cl
ATOM     71  C   UNL A   1      32.930  26.419  22.537  1.00  0.00     0.066 A 
ATOM     72  Cl  UNL A   1      32.887  25.572  21.036  1.00  0.00    -0.082 Cl
BRANCH  68  73
ATOM     73  N   UNL A   1      34.166  24.390  24.092  1.00  0.00    -0.331 N 
ATOM     74  H   UNL A   1      33.871  23.777  23.380  1.00  0.00     0.169 HD
BRANCH  73  75
ATOM     75  C   UNL A   1      34.766  23.768  25.171  1.00  0.00     0.177 C 
ATOM     76  S   UNL A   1      36.440  23.644  25.114  1.00  0.00    -0.040 S 
BRANCH  75  77
ATOM     77  N   UNL A   1      34.181  23.166  26.329  1.00  0.00    -0.299 N 
ATOM     78  C   UNL A   1      33.042  22.616  27.111  1.00  0.00     0.258 C 
ATOM     79  H   UNL A   1      34.947  23.053  26.936  1.00  0.00     0.172 HD
ATOM     80  O   UNL A   1      33.107  22.540  28.335  1.00  0.00    -0.269 OA
BRANCH  78  81
ATOM     81  C   UNL A   1      31.730  22.271  26.431  1.00  0.00     0.058 A 
ATOM     82  C   UNL A   1      30.849  23.805  26.070  1.00  0.00     0.015 A 
ATOM     83  C   UNL A   1      32.147  21.108  25.203  1.00  0.00     0.053 A 
ATOM     84  C   UNL A   1      30.555  24.393  24.412  1.00  0.00     0.001 A 
ATOM     85  C   UNL A   1      31.921  21.564  23.511  1.00  0.00     0.021 A 
ATOM     86  Cl  UNL A   1      33.064  19.701  25.569  1.00  0.00    -0.083 Cl
ATOM     87  C   UNL A   1      31.113  23.369  23.050  1.00  0.00     0.002 A 
ENDBRANCH  78  81
ENDBRANCH  75  77
ENDBRANCH  73  75
ENDBRANCH  68  73
ENDBRANCH  63  65
ENDBRANCH  62  63
ENDBRANCH   1  62
TORSDOF 15
ENDMDL
MODEL 3
REMARK VINA RESULT:     -12.0      1.254      2.145
REMARK SMILES O=C(OCCOC(=O)c1cc(NC(=S)NC(=O)c2ccccc2Cl)c(Cl)cc1Cl)c1ccc(-c2c3nc(c(-c4c(F)cccc4F)c4ccc([nH]4)c(-c4c(F)cccc4F)c4nc(c(-c5c(F)cccc5F)c5ccc2[nH]5)C=C4)C=C3)cc1
REMARK SMILES IDX 5 1 4 2 3 3 2 4 1 5 30 6 31 7 83 8 32 9 82 10 33 11 34 12
REMARK SMILES IDX 35 13 76 14 36 15 81 16 75 17 77 18 37 19 80 20 74 21 73 22
REMARK SMILES IDX 38 24 64 25 47 26 63 27 48 28 51 29 62 30 78 31 49 32 50 33
REMARK SMILES IDX 61 35 79 36 52 37 39 38 40 39 45 40 41 41 42 42 44 43 46 44
REMARK SMILES IDX 43 45 65 46 66 47 71 48 67 49 68 50 70 51 72 52 69 53 53 54
REMARK SMILES IDX 54 55 59 56 55 57 56 58 58 59 60 60 57 61 6 62 7 63 8 64
REMARK SMILES IDX 9 65 10 66 28 67 11 68 27 69 29 70 25 71 26 72 12 73 13 75
REMARK SMILES IDX 14 76 15 77 16 78 17 80 18 81 19 82 23 83 20 84 22 85 24 86
REMARK SMILES IDX 21 87
REMARK H PARENT 77 23 51 34 12 74 15 79
REMARK Flexibility Score: inf
ROOT
ATOM      1  C   UNL A   1      31.327  32.094  26.875  1.00  0.00     0.275 C 
ENDROOT
BRANCH   1   2
ATOM      2  C   UNL A   1      32.565  32.899  27.286  1.00  0.00     0.275 C 
BRANCH   2   3
ATOM      3  O   UNL A   1      32.388  34.277  27.644  1.00  0.00    -0.458 OA
BRANCH   3   4
ATOM      4  C   UNL A   1      32.982  34.869  28.701  1.00  0.00     0.338 C 
ATOM      5  O   UNL A   1      32.547  35.933  29.134  1.00  0.00    -0.246 OA
BRANCH   4   6
ATOM      6  C   UNL A   1      34.125  34.195  29.405  1.00  0.00     0.060 A 
ATOM      7  C   UNL A   1      34.058  33.414  30.567  1.00  0.00     0.016 A 
ATOM      8  C   UNL A   1      35.377  34.361  28.812  1.00  0.00     0.016 A 
ATOM      9  C   UNL A   1      35.178  32.679  31.027  1.00  0.00     0.010 A 
ATOM     10  C   UNL A   1      36.482  33.639  29.273  1.00  0.00     0.010 A 
ATOM     11  C   UNL A   1      36.395  32.729  30.345  1.00  0.00    -0.014 A 
BRANCH  11  12
ATOM     12  C   UNL A   1      37.610  31.927  30.720  1.00  0.00     0.031 A 
ATOM     13  C   UNL A   1      38.301  32.276  32.016  1.00  0.00     0.074 A 
ATOM     14  C   UNL A   1      38.189  30.988  29.929  1.00  0.00     0.049 A 
ATOM     15  N   UNL A   1      39.369  31.741  32.552  1.00  0.00    -0.248 NA
ATOM     16  C   UNL A   1      37.726  33.380  32.808  1.00  0.00     0.031 C 
ATOM     17  C   UNL A   1      37.698  30.491  28.648  1.00  0.00     0.029 A 
ATOM     18  N   UNL A   1      39.375  30.292  30.082  1.00  0.00    -0.354 N 
ATOM     19  C   UNL A   1      39.516  32.384  33.769  1.00  0.00     0.074 A 
ATOM     20  C   UNL A   1      38.611  33.507  33.779  1.00  0.00     0.031 C 
ATOM     21  C   UNL A   1      38.610  29.678  28.079  1.00  0.00     0.029 A 
ATOM     22  C   UNL A   1      39.721  29.506  29.000  1.00  0.00     0.049 A 
ATOM     23  H   UNL A   1      39.926  30.351  30.896  1.00  0.00     0.167 HD
ATOM     24  C   UNL A   1      40.201  31.983  34.861  1.00  0.00     0.037 A 
ATOM     25  C   UNL A   1      40.779  28.693  28.793  1.00  0.00     0.037 A 
ATOM     26  C   UNL A   1      41.105  30.876  34.883  1.00  0.00     0.049 A 
ATOM     27  C   UNL A   1      41.686  28.380  29.952  1.00  0.00     0.074 A 
ATOM     28  C   UNL A   1      41.832  30.373  35.943  1.00  0.00     0.029 A 
ATOM     29  N   UNL A   1      41.421  30.112  33.772  1.00  0.00    -0.354 N 
ATOM     30  N   UNL A   1      41.675  28.871  31.165  1.00  0.00    -0.248 NA
ATOM     31  C   UNL A   1      42.683  27.318  29.739  1.00  0.00     0.031 C 
ATOM     32  C   UNL A   1      42.633  29.332  35.460  1.00  0.00     0.029 A 
ATOM     33  C   UNL A   1      42.364  29.161  34.112  1.00  0.00     0.049 A 
ATOM     34  H   UNL A   1      41.033  30.230  32.875  1.00  0.00     0.167 HD
ATOM     35  C   UNL A   1      42.601  28.123  31.880  1.00  0.00     0.074 A 
ATOM     36  C   UNL A   1      43.171  27.162  30.960  1.00  0.00     0.031 C 
ATOM     37  C   UNL A   1      42.922  28.205  33.193  1.00  0.00     0.037 A 
BRANCH  24  38
ATOM     38  C   UNL A   1      39.874  32.715  36.125  1.00  0.00     0.057 A 
ATOM     39  C   UNL A   1      38.760  32.339  36.896  1.00  0.00     0.134 A 
ATOM     40  C   UNL A   1      40.587  33.848  36.519  1.00  0.00     0.134 A 
ATOM     41  F   UNL A   1      38.015  31.279  36.544  1.00  0.00    -0.206 F 
ATOM     42  C   UNL A   1      38.336  33.099  37.983  1.00  0.00     0.040 A 
ATOM     43  C   UNL A   1      40.188  34.599  37.625  1.00  0.00     0.040 A 
ATOM     44  F   UNL A   1      41.650  34.263  35.816  1.00  0.00    -0.206 F 
ATOM     45  C   UNL A   1      39.052  34.235  38.349  1.00  0.00     0.006 A 
ENDBRANCH  24  38
BRANCH  25  46
ATOM     46  C   UNL A   1      41.029  27.994  27.502  1.00  0.00     0.057 A 
ATOM     47  C   UNL A   1      40.561  26.694  27.267  1.00  0.00     0.134 A 
ATOM     48  C   UNL A   1      41.918  28.534  26.567  1.00  0.00     0.134 A 
ATOM     49  F   UNL A   1      39.761  26.097  28.161  1.00  0.00    -0.206 F 
ATOM     50  C   UNL A   1      40.980  25.951  26.159  1.00  0.00     0.040 A 
ATOM     51  C   UNL A   1      42.353  27.796  25.460  1.00  0.00     0.040 A 
ATOM     52  F   UNL A   1      42.407  29.772  26.734  1.00  0.00    -0.206 F 
ATOM     53  C   UNL A   1      41.882  26.502  25.252  1.00  0.00     0.006 A 
ENDBRANCH  25  46
BRANCH  37  54
ATOM     54  C   UNL A   1      43.894  27.201  33.729  1.00  0.00     0.057 A 
ATOM     55  C   UNL A   1      45.278  27.360  33.594  1.00  0.00     0.134 A 
ATOM     56  C   UNL A   1      43.433  26.079  34.430  1.00  0.00     0.134 A 
ATOM     57  F   UNL A   1      45.780  28.404  32.917  1.00  0.00    -0.206 F 
ATOM     58  C   UNL A   1      46.170  26.427  34.121  1.00  0.00     0.040 A 
ATOM     59  C   UNL A   1      44.317  25.158  34.990  1.00  0.00     0.040 A 
ATOM     60  F   UNL A   1      42.118  25.870  34.596  1.00  0.00    -0.206 F 
ATOM     61  C   UNL A   1      45.690  25.328  34.831  1.00  0.00     0.006 A 
ENDBRANCH  37  54
ENDBRANCH  11  12
ENDBRANCH   4   6
ENDBRANCH   3   4
ENDBRANCH   2   3
ENDBRANCH   1   2
BRANCH   1  62
ATOM     62  O   UNL A   1      31.509  31.215  25.749  1.00  0.00    -0.458 OA
BRANCH  62  63
ATOM     63  C   UNL A   1      31.729  29.913  26.092  1.00  0.00     0.339 C 
ATOM     64  O   UNL A   1      31.692  29.496  27.245  1.00  0.00    -0.246 OA
BRANCH  63  65
ATOM     65  C   UNL A   1      32.215  28.948  24.980  1.00  0.00     0.080 A 
ATOM     66  C   UNL A   1      33.658  27.535  24.804  1.00  0.00     0.045 A 
ATOM     67  C   UNL A   1      30.957  28.913  23.669  1.00  0.00     0.057 A 
ATOM     68  C   UNL A   1      33.637  26.316  23.625  1.00  0.00     0.060 A 
ATOM     69  C   UNL A   1      31.088  27.659  22.398  1.00  0.00     0.044 A 
ATOM     70  Cl  UNL A   1      29.690  30.066  23.567  1.00  0.00    -0.083 Cl
ATOM     71  C   UNL A   1      32.382  26.409  22.400  1.00  0.00     0.066 A 
ATOM     72  Cl  UNL A   1      32.300  25.158  21.218  1.00  0.00    -0.082 Cl
BRANCH  68  73
ATOM     73  N   UNL A   1      34.192  25.139  24.183  1.00  0.00    -0.331 N 
ATOM     74  H   UNL A   1      35.176  25.097  24.153  1.00  0.00     0.169 HD
BRANCH  73  75
ATOM     75  C   UNL A   1      33.588  24.041  24.763  1.00  0.00     0.177 C 
ATOM     76  S   UNL A   1      33.389  24.103  26.430  1.00  0.00    -0.040 S 
BRANCH  75  77
ATOM     77  N   UNL A   1      33.134  22.820  24.173  1.00  0.00    -0.299 N 
ATOM     78  C   UNL A   1      33.070  21.338  24.063  1.00  0.00     0.258 C 
ATOM     79  H   UNL A   1      32.545  23.126  23.446  1.00  0.00     0.172 HD
ATOM     80  O   UNL A   1      32.734  20.806  23.009  1.00  0.00    -0.269 OA
BRANCH  78  81
ATOM     81  C   UNL A   1      33.551  20.456  25.200  1.00  0.00     0.058 A 
ATOM     82  C   UNL A   1      32.450  19.029  25.325  1.00  0.00     0.015 A 
ATOM     83  C   UNL A   1      35.269  20.306  24.963  1.00  0.00     0.053 A 
ATOM     84  C   UNL A   1      32.970  17.362  24.963  1.00  0.00     0.001 A 
ATOM     85  C   UNL A   1      35.924  18.709  24.582  1.00  0.00     0.021 A 
ATOM     86  Cl  UNL A   1      36.275  21.685  24.760  1.00  0.00    -0.083 Cl
ATOM     87  C   UNL A   1      34.686  17.100  24.515  1.00  0.00     0.002 A 
ENDBRANCH  78  81
ENDBRANCH  75  77
ENDBRANCH  73  75
ENDBRANCH  68  73
ENDBRANCH  63  65
ENDBRANCH  62  63
ENDBRANCH   1  62
TORSDOF 15
ENDMDL
