MODEL 1
REMARK VINA RESULT:     -12.0      0.000      0.000
REMARK SMILES Cc1cc2c(c(C)c1Cl)C=C(C(=O)OCCOC(=O)c1ccc(-c3c4nc(c(-c5c(F)cccc5F)c5ccc([nH]5)c(-c5c(F)cccc5F)c5nc(c(-c6c(F)cccc6F)c6ccc3[nH]6)C=C5)C=C4)cc1)[C@@H](C(F)(F)F)O2
REMARK SMILES IDX 16 1 15 2 14 3 12 4 13 5 11 6 1 7 2 8 3 9 8 10 4 11 6 12
REMARK SMILES IDX 9 13 5 14 79 15 7 16 10 17 74 18 75 19 76 20 77 21 78 22
REMARK SMILES IDX 17 23 18 24 19 25 20 26 21 27 73 28 22 29 72 30 23 31 24 32
REMARK SMILES IDX 25 33 66 34 26 35 71 36 65 37 67 38 27 39 70 40 64 41 63 42
REMARK SMILES IDX 28 44 54 45 37 46 53 47 38 48 41 49 52 50 68 51 39 52 40 53
REMARK SMILES IDX 51 55 69 56 42 57 29 58 30 59 35 60 31 61 32 62 34 63 36 64
REMARK SMILES IDX 33 65 55 66 56 67 61 68 57 69 58 70 60 71 62 72 59 73 43 74
REMARK SMILES IDX 44 75 49 76 45 77 46 78 48 79 50 80 47 81
REMARK H PARENT 67 43 41 54
REMARK Flexibility Score: inf
ROOT
ATOM      1  C   UNL A   1      31.792  30.093  25.551  1.00  0.00     0.275 C 
ENDROOT
BRANCH   1   2
ATOM      2  C   UNL A   1      31.435  28.636  25.258  1.00  0.00     0.275 C 
BRANCH   2   3
ATOM      3  O   UNL A   1      32.489  27.744  25.685  1.00  0.00    -0.459 OA
BRANCH   3   4
ATOM      4  C   UNL A   1      33.223  27.191  24.694  1.00  0.00     0.338 C 
ATOM      5  O   UNL A   1      33.828  27.783  23.813  1.00  0.00    -0.246 OA
BRANCH   4   6
ATOM      6  C   UNL A   1      33.225  25.719  24.812  1.00  0.00     0.087 C 
ATOM      7  C   UNL A   1      34.413  19.342  24.625  1.00  0.00     0.046 C 
ATOM      8  C   UNL A   1      34.461  20.839  24.781  1.00  0.00    -0.028 A 
ATOM      9  C   UNL A   1      33.263  21.564  24.719  1.00  0.00     0.052 A 
ATOM     10  C   UNL A   1      35.675  21.533  24.948  1.00  0.00     0.047 A 
ATOM     11  C   UNL A   1      33.264  22.954  24.803  1.00  0.00     0.128 A 
ATOM     12  C   UNL A   1      35.694  22.942  25.055  1.00  0.00    -0.021 A 
ATOM     13  Cl  UNL A   1      37.153  20.620  25.001  1.00  0.00    -0.084 Cl
ATOM     14  C   UNL A   1      34.466  23.650  24.961  1.00  0.00     0.022 A 
ATOM     15  O   UNL A   1      32.031  23.544  24.739  1.00  0.00    -0.475 OA
ATOM     16  C   UNL A   1      36.985  23.699  25.269  1.00  0.00     0.047 C 
ATOM     17  C   UNL A   1      34.402  25.109  24.986  1.00  0.00     0.027 C 
ATOM     18  C   UNL A   1      31.940  24.984  24.591  1.00  0.00     0.316 C 
BRANCH  18  19
ATOM     19  C   UNL A   1      31.337  25.310  23.215  1.00  0.00     0.430 C 
ATOM     20  F   UNL A   1      32.301  25.489  22.281  1.00  0.00    -0.167 F 
ATOM     21  F   UNL A   1      30.549  24.302  22.767  1.00  0.00    -0.167 F 
ATOM     22  F   UNL A   1      30.581  26.432  23.240  1.00  0.00    -0.167 F 
ENDBRANCH  18  19
ENDBRANCH   4   6
ENDBRANCH   3   4
ENDBRANCH   2   3
ENDBRANCH   1   2
BRANCH   1  23
ATOM     23  O   UNL A   1      32.236  30.225  26.913  1.00  0.00    -0.458 OA
BRANCH  23  24
ATOM     24  C   UNL A   1      32.882  31.377  27.206  1.00  0.00     0.338 C 
ATOM     25  O   UNL A   1      32.423  32.506  27.210  1.00  0.00    -0.246 OA
BRANCH  24  26
ATOM     26  C   UNL A   1      34.266  31.089  27.616  1.00  0.00     0.060 A 
ATOM     27  C   UNL A   1      34.650  29.767  27.806  1.00  0.00     0.016 A 
ATOM     28  C   UNL A   1      35.120  32.120  28.002  1.00  0.00     0.016 A 
ATOM     29  C   UNL A   1      35.804  29.475  28.527  1.00  0.00     0.010 A 
ATOM     30  C   UNL A   1      36.351  31.814  28.600  1.00  0.00     0.010 A 
ATOM     31  C   UNL A   1      36.684  30.489  28.932  1.00  0.00    -0.014 A 
BRANCH  31  32
ATOM     32  C   UNL A   1      37.901  30.162  29.741  1.00  0.00     0.031 A 
ATOM     33  C   UNL A   1      39.024  29.342  29.143  1.00  0.00     0.074 A 
ATOM     34  C   UNL A   1      38.047  30.632  30.999  1.00  0.00     0.049 A 
ATOM     35  N   UNL A   1      40.049  28.784  29.737  1.00  0.00    -0.248 NA
ATOM     36  C   UNL A   1      38.981  29.105  27.690  1.00  0.00     0.031 C 
ATOM     37  C   UNL A   1      37.092  31.489  31.705  1.00  0.00     0.029 A 
ATOM     38  N   UNL A   1      39.069  30.472  31.907  1.00  0.00    -0.354 N 
ATOM     39  C   UNL A   1      40.726  28.076  28.750  1.00  0.00     0.074 A 
ATOM     40  C   UNL A   1      39.999  28.273  27.516  1.00  0.00     0.031 C 
ATOM     41  C   UNL A   1      37.603  31.843  32.892  1.00  0.00     0.029 A 
ATOM     42  C   UNL A   1      38.859  31.132  33.096  1.00  0.00     0.049 A 
ATOM     43  H   UNL A   1      39.873  29.935  31.723  1.00  0.00     0.167 HD
ATOM     44  C   UNL A   1      41.852  27.329  28.863  1.00  0.00     0.037 A 
ATOM     45  C   UNL A   1      39.558  31.129  34.248  1.00  0.00     0.037 A 
ATOM     46  C   UNL A   1      42.624  27.203  30.072  1.00  0.00     0.049 A 
ATOM     47  C   UNL A   1      40.776  30.260  34.364  1.00  0.00     0.074 A 
ATOM     48  C   UNL A   1      43.784  26.475  30.280  1.00  0.00     0.029 A 
ATOM     49  N   UNL A   1      42.337  27.843  31.267  1.00  0.00    -0.354 N 
ATOM     50  N   UNL A   1      41.344  29.513  33.451  1.00  0.00    -0.248 NA
ATOM     51  C   UNL A   1      41.428  30.204  35.680  1.00  0.00     0.031 C 
ATOM     52  C   UNL A   1      44.177  26.645  31.610  1.00  0.00     0.029 A 
ATOM     53  C   UNL A   1      43.289  27.515  32.219  1.00  0.00     0.049 A 
ATOM     54  H   UNL A   1      41.568  28.441  31.417  1.00  0.00     0.167 HD
ATOM     55  C   UNL A   1      42.421  28.901  34.079  1.00  0.00     0.074 A 
ATOM     56  C   UNL A   1      42.443  29.385  35.443  1.00  0.00     0.031 C 
ATOM     57  C   UNL A   1      43.304  28.007  33.571  1.00  0.00     0.037 A 
BRANCH  44  58
ATOM     58  C   UNL A   1      42.322  26.566  27.658  1.00  0.00     0.057 A 
ATOM     59  C   UNL A   1      41.896  25.261  27.385  1.00  0.00     0.134 A 
ATOM     60  C   UNL A   1      43.146  27.186  26.708  1.00  0.00     0.134 A 
ATOM     61  F   UNL A   1      41.115  24.605  28.257  1.00  0.00    -0.206 F 
ATOM     62  C   UNL A   1      42.277  24.599  26.215  1.00  0.00     0.040 A 
ATOM     63  C   UNL A   1      43.513  26.545  25.523  1.00  0.00     0.040 A 
ATOM     64  F   UNL A   1      43.584  28.441  26.902  1.00  0.00    -0.206 F 
ATOM     65  C   UNL A   1      43.078  25.245  25.276  1.00  0.00     0.006 A 
ENDBRANCH  44  58
BRANCH  45  66
ATOM     66  C   UNL A   1      39.081  31.931  35.405  1.00  0.00     0.057 A 
ATOM     67  C   UNL A   1      39.410  33.286  35.530  1.00  0.00     0.134 A 
ATOM     68  C   UNL A   1      38.272  31.372  36.402  1.00  0.00     0.134 A 
ATOM     69  F   UNL A   1      40.206  33.874  34.625  1.00  0.00    -0.206 F 
ATOM     70  C   UNL A   1      38.951  34.054  36.602  1.00  0.00     0.040 A 
ATOM     71  C   UNL A   1      37.778  32.135  37.461  1.00  0.00     0.040 A 
ATOM     72  F   UNL A   1      37.922  30.078  36.344  1.00  0.00    -0.206 F 
ATOM     73  C   UNL A   1      38.122  33.480  37.565  1.00  0.00     0.006 A 
ENDBRANCH  45  66
BRANCH  57  74
ATOM     74  C   UNL A   1      44.381  27.506  34.484  1.00  0.00     0.057 A 
ATOM     75  C   UNL A   1      44.227  26.327  35.225  1.00  0.00     0.134 A 
ATOM     76  C   UNL A   1      45.608  28.175  34.578  1.00  0.00     0.134 A 
ATOM     77  F   UNL A   1      43.070  25.648  35.188  1.00  0.00    -0.206 F 
ATOM     78  C   UNL A   1      45.250  25.838  36.036  1.00  0.00     0.040 A 
ATOM     79  C   UNL A   1      46.648  27.682  35.366  1.00  0.00     0.040 A 
ATOM     80  F   UNL A   1      45.822  29.305  33.887  1.00  0.00    -0.206 F 
ATOM     81  C   UNL A   1      46.469  26.511  36.101  1.00  0.00     0.006 A 
ENDBRANCH  57  74
ENDBRANCH  31  32
ENDBRANCH  24  26
ENDBRANCH  23  24
ENDBRANCH   1  23
TORSDOF 12
ENDMDL
MODEL 2
REMARK VINA RESULT:     -12.0      3.971      8.787
REMARK SMILES Cc1cc2c(c(C)c1Cl)C=C(C(=O)OCCOC(=O)c1ccc(-c3c4nc(c(-c5c(F)cccc5F)c5ccc([nH]5)c(-c5c(F)cccc5F)c5nc(c(-c6c(F)cccc6F)c6ccc3[nH]6)C=C5)C=C4)cc1)[C@@H](C(F)(F)F)O2
REMARK SMILES IDX 16 1 15 2 14 3 12 4 13 5 11 6 1 7 2 8 3 9 8 10 4 11 6 12
REMARK SMILES IDX 9 13 5 14 79 15 7 16 10 17 74 18 75 19 76 20 77 21 78 22
REMARK SMILES IDX 17 23 18 24 19 25 20 26 21 27 73 28 22 29 72 30 23 31 24 32
REMARK SMILES IDX 25 33 66 34 26 35 71 36 65 37 67 38 27 39 70 40 64 41 63 42
REMARK SMILES IDX 28 44 54 45 37 46 53 47 38 48 41 49 52 50 68 51 39 52 40 53
REMARK SMILES IDX 51 55 69 56 42 57 29 58 30 59 35 60 31 61 32 62 34 63 36 64
REMARK SMILES IDX 33 65 55 66 56 67 61 68 57 69 58 70 60 71 62 72 59 73 43 74
REMARK SMILES IDX 44 75 49 76 45 77 46 78 48 79 50 80 47 81
REMARK H PARENT 67 43 41 54
REMARK Flexibility Score: inf
ROOT
ATOM      1  C   UNL A   1      36.027  20.713  25.001  1.00  0.00     0.275 C 
ENDROOT
BRANCH   1   2
ATOM      2  C   UNL A   1      34.728  21.429  24.634  1.00  0.00     0.275 C 
BRANCH   2   3
ATOM      3  O   UNL A   1      34.876  22.863  24.733  1.00  0.00    -0.459 OA
BRANCH   3   4
ATOM      4  C   UNL A   1      34.094  23.469  25.654  1.00  0.00     0.338 C 
ATOM      5  O   UNL A   1      33.968  23.154  26.828  1.00  0.00    -0.246 OA
BRANCH   4   6
ATOM      6  C   UNL A   1      33.390  24.620  25.057  1.00  0.00     0.087 C 
ATOM      7  C   UNL A   1      30.080  30.046  23.744  1.00  0.00     0.046 C 
ATOM      8  C   UNL A   1      31.029  28.994  24.252  1.00  0.00    -0.028 A 
ATOM      9  C   UNL A   1      31.067  27.749  23.610  1.00  0.00     0.052 A 
ATOM     10  C   UNL A   1      31.852  29.211  25.374  1.00  0.00     0.047 A 
ATOM     11  C   UNL A   1      31.890  26.727  24.078  1.00  0.00     0.128 A 
ATOM     12  C   UNL A   1      32.709  28.194  25.852  1.00  0.00    -0.021 A 
ATOM     13  Cl  UNL A   1      31.778  30.755  26.172  1.00  0.00    -0.084 Cl
ATOM     14  C   UNL A   1      32.703  26.934  25.197  1.00  0.00     0.022 A 
ATOM     15  O   UNL A   1      31.842  25.564  23.360  1.00  0.00    -0.475 OA
ATOM     16  C   UNL A   1      33.622  28.424  27.034  1.00  0.00     0.047 C 
ATOM     17  C   UNL A   1      33.499  25.805  25.668  1.00  0.00     0.027 C 
ATOM     18  C   UNL A   1      32.483  24.375  23.891  1.00  0.00     0.316 C 
BRANCH  18  19
ATOM     19  C   UNL A   1      31.406  23.332  24.228  1.00  0.00     0.430 C 
ATOM     20  F   UNL A   1      30.278  23.534  23.507  1.00  0.00    -0.167 F 
ATOM     21  F   UNL A   1      31.825  22.075  23.943  1.00  0.00    -0.167 F 
ATOM     22  F   UNL A   1      31.062  23.356  25.536  1.00  0.00    -0.167 F 
ENDBRANCH  18  19
ENDBRANCH   4   6
ENDBRANCH   3   4
ENDBRANCH   2   3
ENDBRANCH   1   2
BRANCH   1  23
ATOM     23  O   UNL A   1      37.138  21.619  24.884  1.00  0.00    -0.458 OA
BRANCH  23  24
ATOM     24  C   UNL A   1      38.287  21.213  25.470  1.00  0.00     0.338 C 
ATOM     25  O   UNL A   1      38.825  20.123  25.377  1.00  0.00    -0.246 OA
BRANCH  24  26
ATOM     26  C   UNL A   1      38.890  22.325  26.223  1.00  0.00     0.060 A 
ATOM     27  C   UNL A   1      38.330  23.592  26.114  1.00  0.00     0.016 A 
ATOM     28  C   UNL A   1      40.111  22.162  26.872  1.00  0.00     0.016 A 
ATOM     29  C   UNL A   1      39.061  24.711  26.501  1.00  0.00     0.010 A 
ATOM     30  C   UNL A   1      40.778  23.282  27.389  1.00  0.00     0.010 A 
ATOM     31  C   UNL A   1      40.295  24.582  27.155  1.00  0.00    -0.014 A 
BRANCH  31  32
ATOM     32  C   UNL A   1      41.089  25.796  27.530  1.00  0.00     0.031 A 
ATOM     33  C   UNL A   1      40.487  26.862  28.420  1.00  0.00     0.074 A 
ATOM     34  C   UNL A   1      42.370  25.942  27.127  1.00  0.00     0.049 A 
ATOM     35  N   UNL A   1      40.928  28.066  28.683  1.00  0.00    -0.248 NA
ATOM     36  C   UNL A   1      39.215  26.538  29.089  1.00  0.00     0.031 C 
ATOM     37  C   UNL A   1      43.124  24.980  26.320  1.00  0.00     0.029 A 
ATOM     38  N   UNL A   1      43.277  26.950  27.359  1.00  0.00    -0.354 N 
ATOM     39  C   UNL A   1      39.960  28.664  29.483  1.00  0.00     0.074 A 
ATOM     40  C   UNL A   1      38.905  27.691  29.665  1.00  0.00     0.031 C 
ATOM     41  C   UNL A   1      44.390  25.400  26.194  1.00  0.00     0.029 A 
ATOM     42  C   UNL A   1      44.509  26.725  26.790  1.00  0.00     0.049 A 
ATOM     43  H   UNL A   1      43.064  27.756  27.882  1.00  0.00     0.167 HD
ATOM     44  C   UNL A   1      39.951  29.910  30.017  1.00  0.00     0.037 A 
ATOM     45  C   UNL A   1      45.601  27.509  26.699  1.00  0.00     0.037 A 
ATOM     46  C   UNL A   1      41.039  30.848  29.907  1.00  0.00     0.049 A 
ATOM     47  C   UNL A   1      45.553  28.901  27.258  1.00  0.00     0.074 A 
ATOM     48  C   UNL A   1      41.124  32.131  30.422  1.00  0.00     0.029 A 
ATOM     49  N   UNL A   1      42.242  30.595  29.268  1.00  0.00    -0.354 N 
ATOM     50  N   UNL A   1      44.588  29.489  27.921  1.00  0.00    -0.248 NA
ATOM     51  C   UNL A   1      46.728  29.751  27.024  1.00  0.00     0.031 C 
ATOM     52  C   UNL A   1      42.363  32.667  30.062  1.00  0.00     0.029 A 
ATOM     53  C   UNL A   1      43.069  31.702  29.363  1.00  0.00     0.049 A 
ATOM     54  H   UNL A   1      42.474  29.752  28.812  1.00  0.00     0.167 HD
ATOM     55  C   UNL A   1      45.040  30.775  28.185  1.00  0.00     0.074 A 
ATOM     56  C   UNL A   1      46.376  30.873  27.636  1.00  0.00     0.031 C 
ATOM     57  C   UNL A   1      44.397  31.787  28.817  1.00  0.00     0.037 A 
BRANCH  44  58
ATOM     58  C   UNL A   1      38.723  30.358  30.757  1.00  0.00     0.057 A 
ATOM     59  C   UNL A   1      37.652  30.992  30.117  1.00  0.00     0.134 A 
ATOM     60  C   UNL A   1      38.575  30.064  32.120  1.00  0.00     0.134 A 
ATOM     61  F   UNL A   1      37.732  31.312  28.816  1.00  0.00    -0.206 F 
ATOM     62  C   UNL A   1      36.483  31.324  30.806  1.00  0.00     0.040 A 
ATOM     63  C   UNL A   1      37.403  30.367  32.814  1.00  0.00     0.040 A 
ATOM     64  F   UNL A   1      39.560  29.448  32.794  1.00  0.00    -0.206 F 
ATOM     65  C   UNL A   1      36.352  31.001  32.155  1.00  0.00     0.006 A 
ENDBRANCH  44  58
BRANCH  45  66
ATOM     66  C   UNL A   1      46.812  27.013  25.994  1.00  0.00     0.057 A 
ATOM     67  C   UNL A   1      46.983  27.218  24.620  1.00  0.00     0.134 A 
ATOM     68  C   UNL A   1      47.834  26.339  26.675  1.00  0.00     0.134 A 
ATOM     69  F   UNL A   1      46.028  27.829  23.904  1.00  0.00    -0.206 F 
ATOM     70  C   UNL A   1      48.125  26.773  23.951  1.00  0.00     0.040 A 
ATOM     71  C   UNL A   1      48.997  25.920  26.027  1.00  0.00     0.040 A 
ATOM     72  F   UNL A   1      47.732  26.108  27.993  1.00  0.00    -0.206 F 
ATOM     73  C   UNL A   1      49.142  26.133  24.659  1.00  0.00     0.006 A 
ENDBRANCH  45  66
BRANCH  57  74
ATOM     74  C   UNL A   1      45.133  33.084  28.968  1.00  0.00     0.057 A 
ATOM     75  C   UNL A   1      45.988  33.322  30.052  1.00  0.00     0.134 A 
ATOM     76  C   UNL A   1      45.034  34.081  27.989  1.00  0.00     0.134 A 
ATOM     77  F   UNL A   1      46.116  32.411  31.029  1.00  0.00    -0.206 F 
ATOM     78  C   UNL A   1      46.708  34.510  30.163  1.00  0.00     0.040 A 
ATOM     79  C   UNL A   1      45.768  35.263  28.076  1.00  0.00     0.040 A 
ATOM     80  F   UNL A   1      44.238  33.910  26.922  1.00  0.00    -0.206 F 
ATOM     81  C   UNL A   1      46.606  35.482  29.168  1.00  0.00     0.006 A 
ENDBRANCH  57  74
ENDBRANCH  31  32
ENDBRANCH  24  26
ENDBRANCH  23  24
ENDBRANCH   1  23
TORSDOF 12
ENDMDL
MODEL 3
REMARK VINA RESULT:     -12.0      3.990      8.856
REMARK SMILES Cc1cc2c(c(C)c1Cl)C=C(C(=O)OCCOC(=O)c1ccc(-c3c4nc(c(-c5c(F)cccc5F)c5ccc([nH]5)c(-c5c(F)cccc5F)c5nc(c(-c6c(F)cccc6F)c6ccc3[nH]6)C=C5)C=C4)cc1)[C@@H](C(F)(F)F)O2
REMARK SMILES IDX 16 1 15 2 14 3 12 4 13 5 11 6 1 7 2 8 3 9 8 10 4 11 6 12
REMARK SMILES IDX 9 13 5 14 79 15 7 16 10 17 74 18 75 19 76 20 77 21 78 22
REMARK SMILES IDX 17 23 18 24 19 25 20 26 21 27 73 28 22 29 72 30 23 31 24 32
REMARK SMILES IDX 25 33 66 34 26 35 71 36 65 37 67 38 27 39 70 40 64 41 63 42
REMARK SMILES IDX 28 44 54 45 37 46 53 47 38 48 41 49 52 50 68 51 39 52 40 53
REMARK SMILES IDX 51 55 69 56 42 57 29 58 30 59 35 60 31 61 32 62 34 63 36 64
REMARK SMILES IDX 33 65 55 66 56 67 61 68 57 69 58 70 60 71 62 72 59 73 43 74
REMARK SMILES IDX 44 75 49 76 45 77 46 78 48 79 50 80 47 81
REMARK H PARENT 67 43 41 54
REMARK Flexibility Score: inf
ROOT
ATOM      1  C   UNL A   1      36.168  21.000  25.351  1.00  0.00     0.275 C 
ENDROOT
BRANCH   1   2
ATOM      2  C   UNL A   1      35.009  21.704  24.646  1.00  0.00     0.275 C 
BRANCH   2   3
ATOM      3  O   UNL A   1      35.065  23.133  24.848  1.00  0.00    -0.459 OA
BRANCH   3   4
ATOM      4  C   UNL A   1      34.170  23.633  25.731  1.00  0.00     0.338 C 
ATOM      5  O   UNL A   1      33.965  23.237  26.868  1.00  0.00    -0.246 OA
BRANCH   4   6
ATOM      6  C   UNL A   1      33.449  24.778  25.143  1.00  0.00     0.087 C 
ATOM      7  C   UNL A   1      30.066  30.169  23.872  1.00  0.00     0.046 C 
ATOM      8  C   UNL A   1      31.031  29.127  24.370  1.00  0.00    -0.028 A 
ATOM      9  C   UNL A   1      31.079  27.884  23.723  1.00  0.00     0.052 A 
ATOM     10  C   UNL A   1      31.859  29.350  25.487  1.00  0.00     0.047 A 
ATOM     11  C   UNL A   1      31.917  26.870  24.182  1.00  0.00     0.128 A 
ATOM     12  C   UNL A   1      32.731  28.341  25.956  1.00  0.00    -0.021 A 
ATOM     13  Cl  UNL A   1      31.772  30.889  26.291  1.00  0.00    -0.084 Cl
ATOM     14  C   UNL A   1      32.736  27.083  25.296  1.00  0.00     0.022 A 
ATOM     15  O   UNL A   1      31.878  25.709  23.460  1.00  0.00    -0.475 OA
ATOM     16  C   UNL A   1      33.650  28.577  27.133  1.00  0.00     0.047 C 
ATOM     17  C   UNL A   1      33.548  25.961  25.758  1.00  0.00     0.027 C 
ATOM     18  C   UNL A   1      32.537  24.526  23.983  1.00  0.00     0.316 C 
BRANCH  18  19
ATOM     19  C   UNL A   1      31.474  23.469  24.323  1.00  0.00     0.430 C 
ATOM     20  F   UNL A   1      31.920  22.218  24.064  1.00  0.00    -0.167 F 
ATOM     21  F   UNL A   1      31.147  23.498  25.638  1.00  0.00    -0.167 F 
ATOM     22  F   UNL A   1      30.332  23.649  23.620  1.00  0.00    -0.167 F 
ENDBRANCH  18  19
ENDBRANCH   4   6
ENDBRANCH   3   4
ENDBRANCH   2   3
ENDBRANCH   1   2
BRANCH   1  23
ATOM     23  O   UNL A   1      37.419  21.575  24.933  1.00  0.00    -0.458 OA
BRANCH  23  24
ATOM     24  C   UNL A   1      38.500  21.206  25.657  1.00  0.00     0.338 C 
ATOM     25  O   UNL A   1      39.025  20.107  25.702  1.00  0.00    -0.246 OA
BRANCH  24  26
ATOM     26  C   UNL A   1      39.050  22.370  26.371  1.00  0.00     0.060 A 
ATOM     27  C   UNL A   1      38.506  23.625  26.130  1.00  0.00     0.016 A 
ATOM     28  C   UNL A   1      40.218  22.254  27.121  1.00  0.00     0.016 A 
ATOM     29  C   UNL A   1      39.211  24.769  26.491  1.00  0.00     0.010 A 
ATOM     30  C   UNL A   1      40.849  23.409  27.606  1.00  0.00     0.010 A 
ATOM     31  C   UNL A   1      40.391  24.689  27.243  1.00  0.00    -0.014 A 
BRANCH  31  32
ATOM     32  C   UNL A   1      41.159  25.926  27.591  1.00  0.00     0.031 A 
ATOM     33  C   UNL A   1      40.541  26.993  28.468  1.00  0.00     0.074 A 
ATOM     34  C   UNL A   1      42.433  26.095  27.172  1.00  0.00     0.049 A 
ATOM     35  N   UNL A   1      40.956  28.212  28.706  1.00  0.00    -0.248 NA
ATOM     36  C   UNL A   1      39.284  26.652  29.155  1.00  0.00     0.031 C 
ATOM     37  C   UNL A   1      43.202  25.137  26.375  1.00  0.00     0.029 A 
ATOM     38  N   UNL A   1      43.319  27.128  27.378  1.00  0.00    -0.354 N 
ATOM     39  C   UNL A   1      39.983  28.801  29.505  1.00  0.00     0.074 A 
ATOM     40  C   UNL A   1      38.953  27.807  29.715  1.00  0.00     0.031 C 
ATOM     41  C   UNL A   1      44.456  25.585  26.228  1.00  0.00     0.029 A 
ATOM     42  C   UNL A   1      44.550  26.922  26.801  1.00  0.00     0.049 A 
ATOM     43  H   UNL A   1      43.092  27.938  27.890  1.00  0.00     0.167 HD
ATOM     44  C   UNL A   1      39.949  30.055  30.018  1.00  0.00     0.037 A 
ATOM     45  C   UNL A   1      45.623  27.730  26.686  1.00  0.00     0.037 A 
ATOM     46  C   UNL A   1      41.014  31.016  29.881  1.00  0.00     0.049 A 
ATOM     47  C   UNL A   1      45.547  29.129  27.221  1.00  0.00     0.074 A 
ATOM     48  C   UNL A   1      41.074  32.310  30.374  1.00  0.00     0.029 A 
ATOM     49  N   UNL A   1      42.217  30.780  29.235  1.00  0.00    -0.354 N 
ATOM     50  N   UNL A   1      44.575  29.706  27.884  1.00  0.00    -0.248 NA
ATOM     51  C   UNL A   1      46.700  30.002  26.961  1.00  0.00     0.031 C 
ATOM     52  C   UNL A   1      42.297  32.868  29.993  1.00  0.00     0.029 A 
ATOM     53  C   UNL A   1      43.018  31.908  29.303  1.00  0.00     0.049 A 
ATOM     54  H   UNL A   1      42.464  29.936  28.791  1.00  0.00     0.167 HD
ATOM     55  C   UNL A   1      45.000  31.006  28.122  1.00  0.00     0.074 A 
ATOM     56  C   UNL A   1      46.327  31.126  27.558  1.00  0.00     0.031 C 
ATOM     57  C   UNL A   1      44.339  32.014  28.743  1.00  0.00     0.037 A 
BRANCH  44  58
ATOM     58  C   UNL A   1      38.719  30.487  30.762  1.00  0.00     0.057 A 
ATOM     59  C   UNL A   1      37.626  31.082  30.122  1.00  0.00     0.134 A 
ATOM     60  C   UNL A   1      38.592  30.217  32.133  1.00  0.00     0.134 A 
ATOM     61  F   UNL A   1      37.684  31.378  28.814  1.00  0.00    -0.206 F 
ATOM     62  C   UNL A   1      36.456  31.399  30.817  1.00  0.00     0.040 A 
ATOM     63  C   UNL A   1      37.420  30.505  32.833  1.00  0.00     0.040 A 
ATOM     64  F   UNL A   1      39.599  29.639  32.808  1.00  0.00    -0.206 F 
ATOM     65  C   UNL A   1      36.347  31.099  32.173  1.00  0.00     0.006 A 
ENDBRANCH  44  58
BRANCH  45  66
ATOM     66  C   UNL A   1      46.838  27.250  25.977  1.00  0.00     0.057 A 
ATOM     67  C   UNL A   1      47.856  26.577  26.661  1.00  0.00     0.134 A 
ATOM     68  C   UNL A   1      47.004  27.434  24.598  1.00  0.00     0.134 A 
ATOM     69  F   UNL A   1      47.772  26.395  27.988  1.00  0.00    -0.206 F 
ATOM     70  C   UNL A   1      48.992  26.104  26.002  1.00  0.00     0.040 A 
ATOM     71  C   UNL A   1      48.118  26.937  23.920  1.00  0.00     0.040 A 
ATOM     72  F   UNL A   1      46.066  28.073  23.882  1.00  0.00    -0.206 F 
ATOM     73  C   UNL A   1      49.119  26.274  24.624  1.00  0.00     0.006 A 
ENDBRANCH  45  66
BRANCH  57  74
ATOM     74  C   UNL A   1      45.046  33.330  28.864  1.00  0.00     0.057 A 
ATOM     75  C   UNL A   1      44.855  34.355  27.929  1.00  0.00     0.134 A 
ATOM     76  C   UNL A   1      45.878  33.598  29.959  1.00  0.00     0.134 A 
ATOM     77  F   UNL A   1      44.080  34.156  26.851  1.00  0.00    -0.206 F 
ATOM     78  C   UNL A   1      45.476  35.595  28.072  1.00  0.00     0.040 A 
ATOM     79  C   UNL A   1      46.484  34.842  30.126  1.00  0.00     0.040 A 
ATOM     80  F   UNL A   1      46.095  32.660  30.895  1.00  0.00    -0.206 F 
ATOM     81  C   UNL A   1      46.286  35.845  29.178  1.00  0.00     0.006 A 
ENDBRANCH  57  74
ENDBRANCH  31  32
ENDBRANCH  24  26
ENDBRANCH  23  24
ENDBRANCH   1  23
TORSDOF 12
ENDMDL
