MODEL 1
REMARK VINA RESULT:     -10.7      0.000      0.000
REMARK SMILES O=C(/C=C/c1c(Cl)cccc1Cl)NCC(=O)OCCOC(=O)c1ccc(-c2c3nc(c(-c4c(F)cccc4F)c4ccc([nH]4)c(-c4c(F)cccc4F)c4nc(c(-c5c(F)cccc5F)c5ccc2[nH]5)C=C4)C=C3)cc1
REMARK SMILES IDX 18 1 17 2 15 3 16 4 14 5 13 6 1 7 2 8 3 10 4 11 5 12 6 13
REMARK SMILES IDX 11 14 7 15 8 16 10 17 12 18 9 19 19 20 20 21 21 22 22 23
REMARK SMILES IDX 23 24 24 25 76 26 25 27 75 28 26 29 27 30 28 31 69 32 29 33
REMARK SMILES IDX 74 34 68 35 70 36 30 37 73 38 67 39 66 40 31 42 57 43 40 44
REMARK SMILES IDX 56 45 41 46 44 47 55 48 71 49 42 50 43 51 54 53 72 54 45 55
REMARK SMILES IDX 32 56 33 57 38 58 34 59 35 60 37 61 39 62 36 63 58 64 59 65
REMARK SMILES IDX 64 66 60 67 61 68 63 69 65 70 62 71 46 72 47 73 52 74 48 75
REMARK SMILES IDX 49 76 51 77 53 78 50 79
REMARK H PARENT 13 9 70 41 44 52
REMARK Flexibility Score: inf
ROOT
ATOM      1  C   UNL A   1      45.825  21.036  25.561  1.00  0.00     0.274 C 
ENDROOT
BRANCH   1   2
ATOM      2  O   UNL A   1      45.835  20.125  24.450  1.00  0.00    -0.461 OA
BRANCH   2   3
ATOM      3  C   UNL A   1      44.799  19.248  24.360  1.00  0.00     0.325 C 
ATOM      4  O   UNL A   1      44.598  18.495  23.414  1.00  0.00    -0.250 OA
BRANCH   3   5
ATOM      5  C   UNL A   1      43.878  19.321  25.573  1.00  0.00     0.239 C 
BRANCH   5   6
ATOM      6  N   UNL A   1      42.608  19.995  25.342  1.00  0.00    -0.342 N 
ATOM      7  O   UNL A   1      42.720  21.268  27.238  1.00  0.00    -0.270 OA
ATOM      8  C   UNL A   1      42.154  20.956  26.196  1.00  0.00     0.244 C 
ATOM      9  H   UNL A   1      42.069  19.753  24.555  1.00  0.00     0.164 HD
BRANCH   8  10
ATOM     10  C   UNL A   1      40.879  21.622  25.841  1.00  0.00     0.072 C 
ATOM     11  C   UNL A   1      39.706  21.447  26.470  1.00  0.00     0.017 C 
BRANCH  11  12
ATOM     12  C   UNL A   1      38.463  22.063  25.956  1.00  0.00     0.012 A 
ATOM     13  C   UNL A   1      38.139  23.413  26.209  1.00  0.00     0.049 A 
ATOM     14  C   UNL A   1      37.556  21.308  25.187  1.00  0.00     0.049 A 
ATOM     15  Cl  UNL A   1      39.200  24.476  27.075  1.00  0.00    -0.084 Cl
ATOM     16  C   UNL A   1      36.940  23.970  25.744  1.00  0.00     0.021 A 
ATOM     17  C   UNL A   1      36.361  21.873  24.718  1.00  0.00     0.021 A 
ATOM     18  Cl  UNL A   1      37.856  19.650  24.785  1.00  0.00    -0.084 Cl
ATOM     19  C   UNL A   1      36.049  23.199  25.004  1.00  0.00     0.003 A 
ENDBRANCH  11  12
ENDBRANCH   8  10
ENDBRANCH   5   6
ENDBRANCH   3   5
ENDBRANCH   2   3
ENDBRANCH   1   2
BRANCH   1  20
ATOM     20  C   UNL A   1      45.747  22.478  25.054  1.00  0.00     0.275 C 
BRANCH  20  21
ATOM     21  O   UNL A   1      45.061  23.337  25.988  1.00  0.00    -0.458 OA
BRANCH  21  22
ATOM     22  C   UNL A   1      44.958  24.634  25.615  1.00  0.00     0.338 C 
ATOM     23  O   UNL A   1      45.404  25.153  24.603  1.00  0.00    -0.246 OA
BRANCH  22  24
ATOM     24  C   UNL A   1      44.090  25.367  26.555  1.00  0.00     0.060 A 
ATOM     25  C   UNL A   1      44.396  26.710  26.792  1.00  0.00     0.016 A 
ATOM     26  C   UNL A   1      43.057  24.742  27.259  1.00  0.00     0.016 A 
ATOM     27  C   UNL A   1      43.699  27.423  27.763  1.00  0.00     0.010 A 
ATOM     28  C   UNL A   1      42.354  25.462  28.235  1.00  0.00     0.010 A 
ATOM     29  C   UNL A   1      42.694  26.798  28.511  1.00  0.00    -0.014 A 
BRANCH  29  30
ATOM     30  C   UNL A   1      42.088  27.539  29.643  1.00  0.00     0.031 A 
ATOM     31  C   UNL A   1      42.750  27.507  30.993  1.00  0.00     0.074 A 
ATOM     32  C   UNL A   1      41.005  28.311  29.441  1.00  0.00     0.049 A 
ATOM     33  N   UNL A   1      42.424  28.142  32.090  1.00  0.00    -0.248 NA
ATOM     34  C   UNL A   1      43.937  26.649  31.124  1.00  0.00     0.031 C 
ATOM     35  C   UNL A   1      40.292  28.448  28.171  1.00  0.00     0.029 A 
ATOM     36  N   UNL A   1      40.330  29.141  30.298  1.00  0.00    -0.354 N 
ATOM     37  C   UNL A   1      43.359  27.757  33.042  1.00  0.00     0.074 A 
ATOM     38  C   UNL A   1      44.249  26.812  32.401  1.00  0.00     0.031 C 
ATOM     39  C   UNL A   1      39.288  29.327  28.327  1.00  0.00     0.029 A 
ATOM     40  C   UNL A   1      39.276  29.797  29.710  1.00  0.00     0.049 A 
ATOM     41  H   UNL A   1      40.577  29.257  31.244  1.00  0.00     0.167 HD
ATOM     42  C   UNL A   1      43.474  28.163  34.329  1.00  0.00     0.037 A 
ATOM     43  C   UNL A   1      38.402  30.679  30.230  1.00  0.00     0.037 A 
ATOM     44  C   UNL A   1      42.599  29.113  34.965  1.00  0.00     0.049 A 
ATOM     45  C   UNL A   1      38.541  31.100  31.668  1.00  0.00     0.074 A 
ATOM     46  C   UNL A   1      42.636  29.586  36.265  1.00  0.00     0.029 A 
ATOM     47  N   UNL A   1      41.530  29.739  34.342  1.00  0.00    -0.354 N 
ATOM     48  N   UNL A   1      39.437  30.736  32.553  1.00  0.00    -0.248 NA
ATOM     49  C   UNL A   1      37.552  32.062  32.174  1.00  0.00     0.031 C 
ATOM     50  C   UNL A   1      41.570  30.477  36.438  1.00  0.00     0.029 A 
ATOM     51  C   UNL A   1      40.893  30.586  35.234  1.00  0.00     0.049 A 
ATOM     52  H   UNL A   1      41.261  29.601  33.405  1.00  0.00     0.167 HD
ATOM     53  C   UNL A   1      39.134  31.439  33.712  1.00  0.00     0.074 A 
ATOM     54  C   UNL A   1      37.982  32.265  33.411  1.00  0.00     0.031 C 
ATOM     55  C   UNL A   1      39.753  31.405  34.917  1.00  0.00     0.037 A 
BRANCH  42  56
ATOM     56  C   UNL A   1      44.582  27.562  35.142  1.00  0.00     0.057 A 
ATOM     57  C   UNL A   1      44.411  26.369  35.854  1.00  0.00     0.134 A 
ATOM     58  C   UNL A   1      45.842  28.172  35.190  1.00  0.00     0.134 A 
ATOM     59  F   UNL A   1      43.224  25.746  35.862  1.00  0.00    -0.206 F 
ATOM     60  C   UNL A   1      45.451  25.814  36.604  1.00  0.00     0.040 A 
ATOM     61  C   UNL A   1      46.893  27.615  35.918  1.00  0.00     0.040 A 
ATOM     62  F   UNL A   1      46.071  29.316  34.527  1.00  0.00    -0.206 F 
ATOM     63  C   UNL A   1      46.698  26.434  36.631  1.00  0.00     0.006 A 
ENDBRANCH  42  56
BRANCH  43  64
ATOM     64  C   UNL A   1      37.318  31.235  29.384  1.00  0.00     0.057 A 
ATOM     65  C   UNL A   1      37.402  32.525  28.849  1.00  0.00     0.134 A 
ATOM     66  C   UNL A   1      36.164  30.493  29.105  1.00  0.00     0.134 A 
ATOM     67  F   UNL A   1      38.473  33.292  29.102  1.00  0.00    -0.206 F 
ATOM     68  C   UNL A   1      36.369  33.066  28.081  1.00  0.00     0.040 A 
ATOM     69  C   UNL A   1      35.134  31.012  28.320  1.00  0.00     0.040 A 
ATOM     70  F   UNL A   1      36.026  29.249  29.588  1.00  0.00    -0.206 F 
ATOM     71  C   UNL A   1      35.233  32.306  27.811  1.00  0.00     0.006 A 
ENDBRANCH  43  64
BRANCH  55  72
ATOM     72  C   UNL A   1      39.213  32.310  35.985  1.00  0.00     0.057 A 
ATOM     73  C   UNL A   1      38.244  31.877  36.899  1.00  0.00     0.134 A 
ATOM     74  C   UNL A   1      39.680  33.624  36.109  1.00  0.00     0.134 A 
ATOM     75  F   UNL A   1      37.747  30.633  36.825  1.00  0.00    -0.206 F 
ATOM     76  C   UNL A   1      37.737  32.730  37.881  1.00  0.00     0.040 A 
ATOM     77  C   UNL A   1      39.197  34.479  37.100  1.00  0.00     0.040 A 
ATOM     78  F   UNL A   1      40.614  34.097  35.270  1.00  0.00    -0.206 F 
ATOM     79  C   UNL A   1      38.217  34.034  37.985  1.00  0.00     0.006 A 
ENDBRANCH  55  72
ENDBRANCH  29  30
ENDBRANCH  22  24
ENDBRANCH  21  22
ENDBRANCH  20  21
ENDBRANCH   1  20
TORSDOF 14
ENDMDL
MODEL 2
REMARK VINA RESULT:     -10.7      1.536      2.381
REMARK SMILES O=C(/C=C/c1c(Cl)cccc1Cl)NCC(=O)OCCOC(=O)c1ccc(-c2c3nc(c(-c4c(F)cccc4F)c4ccc([nH]4)c(-c4c(F)cccc4F)c4nc(c(-c5c(F)cccc5F)c5ccc2[nH]5)C=C4)C=C3)cc1
REMARK SMILES IDX 18 1 17 2 15 3 16 4 14 5 13 6 1 7 2 8 3 10 4 11 5 12 6 13
REMARK SMILES IDX 11 14 7 15 8 16 10 17 12 18 9 19 19 20 20 21 21 22 22 23
REMARK SMILES IDX 23 24 24 25 76 26 25 27 75 28 26 29 27 30 28 31 69 32 29 33
REMARK SMILES IDX 74 34 68 35 70 36 30 37 73 38 67 39 66 40 31 42 57 43 40 44
REMARK SMILES IDX 56 45 41 46 44 47 55 48 71 49 42 50 43 51 54 53 72 54 45 55
REMARK SMILES IDX 32 56 33 57 38 58 34 59 35 60 37 61 39 62 36 63 58 64 59 65
REMARK SMILES IDX 64 66 60 67 61 68 63 69 65 70 62 71 46 72 47 73 52 74 48 75
REMARK SMILES IDX 49 76 51 77 53 78 50 79
REMARK H PARENT 13 9 70 41 44 52
REMARK Flexibility Score: inf
ROOT
ATOM      1  C   UNL A   1      43.368  21.395  25.685  1.00  0.00     0.274 C 
ENDROOT
BRANCH   1   2
ATOM      2  O   UNL A   1      42.005  21.775  25.435  1.00  0.00    -0.461 OA
BRANCH   2   3
ATOM      3  C   UNL A   1      41.042  21.122  26.140  1.00  0.00     0.325 C 
ATOM      4  O   UNL A   1      40.919  19.904  26.195  1.00  0.00    -0.250 OA
BRANCH   3   5
ATOM      5  C   UNL A   1      40.095  22.085  26.846  1.00  0.00     0.239 C 
BRANCH   5   6
ATOM      6  N   UNL A   1      38.773  22.199  26.247  1.00  0.00    -0.342 N 
ATOM      7  O   UNL A   1      38.623  24.461  26.540  1.00  0.00    -0.270 OA
ATOM      8  C   UNL A   1      38.161  23.410  26.111  1.00  0.00     0.244 C 
ATOM      9  H   UNL A   1      38.313  21.387  25.933  1.00  0.00     0.164 HD
BRANCH   8  10
ATOM     10  C   UNL A   1      36.842  23.425  25.436  1.00  0.00     0.072 C 
ATOM     11  C   UNL A   1      35.721  22.852  25.902  1.00  0.00     0.017 C 
BRANCH  11  12
ATOM     12  C   UNL A   1      34.486  22.815  25.088  1.00  0.00     0.012 A 
ATOM     13  C   UNL A   1      33.755  23.984  24.787  1.00  0.00     0.049 A 
ATOM     14  C   UNL A   1      33.999  21.594  24.583  1.00  0.00     0.049 A 
ATOM     15  Cl  UNL A   1      34.282  25.561  25.280  1.00  0.00    -0.084 Cl
ATOM     16  C   UNL A   1      32.568  23.926  24.045  1.00  0.00     0.021 A 
ATOM     17  C   UNL A   1      32.814  21.543  23.834  1.00  0.00     0.021 A 
ATOM     18  Cl  UNL A   1      34.822  20.095  24.859  1.00  0.00    -0.084 Cl
ATOM     19  C   UNL A   1      32.095  22.706  23.573  1.00  0.00     0.003 A 
ENDBRANCH  11  12
ENDBRANCH   8  10
ENDBRANCH   5   6
ENDBRANCH   3   5
ENDBRANCH   2   3
ENDBRANCH   1   2
BRANCH   1  20
ATOM     20  C   UNL A   1      44.318  22.331  24.932  1.00  0.00     0.275 C 
BRANCH  20  21
ATOM     21  O   UNL A   1      43.692  23.593  24.625  1.00  0.00    -0.458 OA
BRANCH  21  22
ATOM     22  C   UNL A   1      44.368  24.691  25.037  1.00  0.00     0.338 C 
ATOM     23  O   UNL A   1      45.441  25.101  24.623  1.00  0.00    -0.246 OA
BRANCH  22  24
ATOM     24  C   UNL A   1      43.559  25.451  26.008  1.00  0.00     0.060 A 
ATOM     25  C   UNL A   1      44.031  26.713  26.383  1.00  0.00     0.016 A 
ATOM     26  C   UNL A   1      42.416  24.917  26.610  1.00  0.00     0.016 A 
ATOM     27  C   UNL A   1      43.387  27.428  27.388  1.00  0.00     0.010 A 
ATOM     28  C   UNL A   1      41.768  25.639  27.621  1.00  0.00     0.010 A 
ATOM     29  C   UNL A   1      42.270  26.884  28.035  1.00  0.00    -0.014 A 
BRANCH  29  30
ATOM     30  C   UNL A   1      41.713  27.599  29.208  1.00  0.00     0.031 A 
ATOM     31  C   UNL A   1      42.415  27.515  30.535  1.00  0.00     0.074 A 
ATOM     32  C   UNL A   1      40.638  28.395  29.064  1.00  0.00     0.049 A 
ATOM     33  N   UNL A   1      42.134  28.121  31.661  1.00  0.00    -0.248 NA
ATOM     34  C   UNL A   1      43.591  26.633  30.602  1.00  0.00     0.031 C 
ATOM     35  C   UNL A   1      39.888  28.583  27.821  1.00  0.00     0.029 A 
ATOM     36  N   UNL A   1      40.004  29.209  29.967  1.00  0.00    -0.354 N 
ATOM     37  C   UNL A   1      43.092  27.691  32.570  1.00  0.00     0.074 A 
ATOM     38  C   UNL A   1      43.945  26.752  31.873  1.00  0.00     0.031 C 
ATOM     39  C   UNL A   1      38.905  29.473  28.036  1.00  0.00     0.029 A 
ATOM     40  C   UNL A   1      38.944  29.901  29.433  1.00  0.00     0.049 A 
ATOM     41  H   UNL A   1      40.282  29.292  30.907  1.00  0.00     0.167 HD
ATOM     42  C   UNL A   1      43.253  28.055  33.865  1.00  0.00     0.037 A 
ATOM     43  C   UNL A   1      38.101  30.780  30.007  1.00  0.00     0.037 A 
ATOM     44  C   UNL A   1      42.415  28.998  34.557  1.00  0.00     0.049 A 
ATOM     45  C   UNL A   1      38.292  31.154  31.451  1.00  0.00     0.074 A 
ATOM     46  C   UNL A   1      42.501  29.430  35.869  1.00  0.00     0.029 A 
ATOM     47  N   UNL A   1      41.338  29.661  33.988  1.00  0.00    -0.354 N 
ATOM     48  N   UNL A   1      39.208  30.747  32.297  1.00  0.00    -0.248 NA
ATOM     49  C   UNL A   1      37.336  32.116  32.018  1.00  0.00     0.031 C 
ATOM     50  C   UNL A   1      41.456  30.332  36.102  1.00  0.00     0.029 A 
ATOM     51  C   UNL A   1      40.744  30.490  34.925  1.00  0.00     0.049 A 
ATOM     52  H   UNL A   1      41.039  29.557  33.055  1.00  0.00     0.167 HD
ATOM     53  C   UNL A   1      38.954  31.419  33.485  1.00  0.00     0.074 A 
ATOM     54  C   UNL A   1      37.808  32.273  33.246  1.00  0.00     0.031 C 
ATOM     55  C   UNL A   1      39.609  31.337  34.669  1.00  0.00     0.037 A 
BRANCH  42  56
ATOM     56  C   UNL A   1      44.375  27.410  34.624  1.00  0.00     0.057 A 
ATOM     57  C   UNL A   1      44.211  26.190  35.290  1.00  0.00     0.134 A 
ATOM     58  C   UNL A   1      45.641  28.007  34.666  1.00  0.00     0.134 A 
ATOM     59  F   UNL A   1      43.018  25.577  35.302  1.00  0.00    -0.206 F 
ATOM     60  C   UNL A   1      45.263  25.594  35.989  1.00  0.00     0.040 A 
ATOM     61  C   UNL A   1      46.706  27.411  35.343  1.00  0.00     0.040 A 
ATOM     62  F   UNL A   1      45.865  29.175  34.046  1.00  0.00    -0.206 F 
ATOM     63  C   UNL A   1      46.516  26.202  36.011  1.00  0.00     0.006 A 
ENDBRANCH  42  56
BRANCH  43  64
ATOM     64  C   UNL A   1      37.002  31.380  29.212  1.00  0.00     0.057 A 
ATOM     65  C   UNL A   1      37.073  32.699  28.752  1.00  0.00     0.134 A 
ATOM     66  C   UNL A   1      35.845  30.650  28.910  1.00  0.00     0.134 A 
ATOM     67  F   UNL A   1      38.146  33.454  29.031  1.00  0.00    -0.206 F 
ATOM     68  C   UNL A   1      36.026  33.279  28.034  1.00  0.00     0.040 A 
ATOM     69  C   UNL A   1      34.801  31.210  28.174  1.00  0.00     0.040 A 
ATOM     70  F   UNL A   1      35.719  29.380  29.323  1.00  0.00    -0.206 F 
ATOM     71  C   UNL A   1      34.888  32.532  27.739  1.00  0.00     0.006 A 
ENDBRANCH  43  64
BRANCH  55  72
ATOM     72  C   UNL A   1      39.118  32.216  35.781  1.00  0.00     0.057 A 
ATOM     73  C   UNL A   1      39.527  33.550  35.903  1.00  0.00     0.134 A 
ATOM     74  C   UNL A   1      38.214  31.726  36.731  1.00  0.00     0.134 A 
ATOM     75  F   UNL A   1      40.402  34.075  35.032  1.00  0.00    -0.206 F 
ATOM     76  C   UNL A   1      39.076  34.357  36.949  1.00  0.00     0.040 A 
ATOM     77  C   UNL A   1      37.738  32.530  37.768  1.00  0.00     0.040 A 
ATOM     78  F   UNL A   1      37.776  30.460  36.665  1.00  0.00    -0.206 F 
ATOM     79  C   UNL A   1      38.176  33.848  37.882  1.00  0.00     0.006 A 
ENDBRANCH  55  72
ENDBRANCH  29  30
ENDBRANCH  22  24
ENDBRANCH  21  22
ENDBRANCH  20  21
ENDBRANCH   1  20
TORSDOF 14
ENDMDL
MODEL 3
REMARK VINA RESULT:     -10.4      0.619      6.450
REMARK SMILES O=C(/C=C/c1c(Cl)cccc1Cl)NCC(=O)OCCOC(=O)c1ccc(-c2c3nc(c(-c4c(F)cccc4F)c4ccc([nH]4)c(-c4c(F)cccc4F)c4nc(c(-c5c(F)cccc5F)c5ccc2[nH]5)C=C4)C=C3)cc1
REMARK SMILES IDX 18 1 17 2 15 3 16 4 14 5 13 6 1 7 2 8 3 10 4 11 5 12 6 13
REMARK SMILES IDX 11 14 7 15 8 16 10 17 12 18 9 19 19 20 20 21 21 22 22 23
REMARK SMILES IDX 23 24 24 25 76 26 25 27 75 28 26 29 27 30 28 31 69 32 29 33
REMARK SMILES IDX 74 34 68 35 70 36 30 37 73 38 67 39 66 40 31 42 57 43 40 44
REMARK SMILES IDX 56 45 41 46 44 47 55 48 71 49 42 50 43 51 54 53 72 54 45 55
REMARK SMILES IDX 32 56 33 57 38 58 34 59 35 60 37 61 39 62 36 63 58 64 59 65
REMARK SMILES IDX 64 66 60 67 61 68 63 69 65 70 62 71 46 72 47 73 52 74 48 75
REMARK SMILES IDX 49 76 51 77 53 78 50 79
REMARK H PARENT 13 9 70 41 44 52
REMARK Flexibility Score: inf
ROOT
ATOM      1  C   UNL A   1      45.190  21.418  24.648  1.00  0.00     0.274 C 
ENDROOT
BRANCH   1   2
ATOM      2  O   UNL A   1      44.146  20.472  24.365  1.00  0.00    -0.461 OA
BRANCH   2   3
ATOM      3  C   UNL A   1      44.213  19.270  25.000  1.00  0.00     0.325 C 
ATOM      4  O   UNL A   1      45.058  18.409  24.783  1.00  0.00    -0.250 OA
BRANCH   3   5
ATOM      5  C   UNL A   1      43.087  19.092  26.012  1.00  0.00     0.239 C 
BRANCH   5   6
ATOM      6  N   UNL A   1      41.869  19.834  25.715  1.00  0.00    -0.342 N 
ATOM      7  O   UNL A   1      42.121  21.314  27.439  1.00  0.00    -0.270 OA
ATOM      8  C   UNL A   1      41.510  20.925  26.450  1.00  0.00     0.244 C 
ATOM      9  H   UNL A   1      41.296  19.542  24.969  1.00  0.00     0.164 HD
BRANCH   8  10
ATOM     10  C   UNL A   1      40.284  21.644  26.030  1.00  0.00     0.072 C 
ATOM     11  C   UNL A   1      39.026  21.259  26.294  1.00  0.00     0.017 C 
BRANCH  11  12
ATOM     12  C   UNL A   1      37.869  21.981  25.719  1.00  0.00     0.012 A 
ATOM     13  C   UNL A   1      37.735  23.381  25.827  1.00  0.00     0.049 A 
ATOM     14  C   UNL A   1      36.855  21.280  25.038  1.00  0.00     0.049 A 
ATOM     15  Cl  UNL A   1      38.944  24.376  26.571  1.00  0.00    -0.084 Cl
ATOM     16  C   UNL A   1      36.615  24.044  25.308  1.00  0.00     0.021 A 
ATOM     17  C   UNL A   1      35.740  21.949  24.514  1.00  0.00     0.021 A 
ATOM     18  Cl  UNL A   1      36.921  19.563  24.815  1.00  0.00    -0.084 Cl
ATOM     19  C   UNL A   1      35.615  23.328  24.656  1.00  0.00     0.003 A 
ENDBRANCH  11  12
ENDBRANCH   8  10
ENDBRANCH   5   6
ENDBRANCH   3   5
ENDBRANCH   2   3
ENDBRANCH   1   2
BRANCH   1  20
ATOM     20  C   UNL A   1      44.771  22.328  25.806  1.00  0.00     0.275 C 
BRANCH  20  21
ATOM     21  O   UNL A   1      43.849  23.351  25.375  1.00  0.00    -0.458 OA
BRANCH  21  22
ATOM     22  C   UNL A   1      44.331  24.616  25.406  1.00  0.00     0.338 C 
ATOM     23  O   UNL A   1      45.162  25.112  24.661  1.00  0.00    -0.246 OA
BRANCH  22  24
ATOM     24  C   UNL A   1      43.608  25.411  26.416  1.00  0.00     0.060 A 
ATOM     25  C   UNL A   1      43.798  26.796  26.394  1.00  0.00     0.016 A 
ATOM     26  C   UNL A   1      42.834  24.819  27.418  1.00  0.00     0.016 A 
ATOM     27  C   UNL A   1      43.249  27.591  27.395  1.00  0.00     0.010 A 
ATOM     28  C   UNL A   1      42.281  25.622  28.425  1.00  0.00     0.010 A 
ATOM     29  C   UNL A   1      42.513  27.008  28.433  1.00  0.00    -0.014 A 
BRANCH  29  30
ATOM     30  C   UNL A   1      42.085  27.864  29.566  1.00  0.00     0.031 A 
ATOM     31  C   UNL A   1      40.828  28.681  29.449  1.00  0.00     0.074 A 
ATOM     32  C   UNL A   1      42.766  27.837  30.726  1.00  0.00     0.049 A 
ATOM     33  N   UNL A   1      40.244  29.434  30.346  1.00  0.00    -0.248 NA
ATOM     34  C   UNL A   1      40.137  28.643  28.151  1.00  0.00     0.031 C 
ATOM     35  C   UNL A   1      43.982  27.062  30.972  1.00  0.00     0.029 A 
ATOM     36  N   UNL A   1      42.518  28.464  31.920  1.00  0.00    -0.354 N 
ATOM     37  C   UNL A   1      39.122  29.964  29.721  1.00  0.00     0.074 A 
ATOM     38  C   UNL A   1      39.122  29.468  28.361  1.00  0.00     0.031 C 
ATOM     39  C   UNL A   1      44.365  27.244  32.247  1.00  0.00     0.029 A 
ATOM     40  C   UNL A   1      43.434  28.163  32.898  1.00  0.00     0.049 A 
ATOM     41  H   UNL A   1      41.756  29.070  32.063  1.00  0.00     0.167 HD
ATOM     42  C   UNL A   1      38.171  30.779  30.237  1.00  0.00     0.037 A 
ATOM     43  C   UNL A   1      43.511  28.582  34.175  1.00  0.00     0.037 A 
ATOM     44  C   UNL A   1      38.161  31.262  31.593  1.00  0.00     0.049 A 
ATOM     45  C   UNL A   1      42.452  29.501  34.719  1.00  0.00     0.074 A 
ATOM     46  C   UNL A   1      37.239  32.093  32.207  1.00  0.00     0.029 A 
ATOM     47  N   UNL A   1      39.118  30.953  32.547  1.00  0.00    -0.354 N 
ATOM     48  N   UNL A   1      41.391  29.986  34.120  1.00  0.00    -0.248 NA
ATOM     49  C   UNL A   1      42.597  29.924  36.119  1.00  0.00     0.031 C 
ATOM     50  C   UNL A   1      37.656  32.310  33.526  1.00  0.00     0.029 A 
ATOM     51  C   UNL A   1      38.815  31.585  33.742  1.00  0.00     0.049 A 
ATOM     52  H   UNL A   1      39.898  30.372  32.397  1.00  0.00     0.167 HD
ATOM     53  C   UNL A   1      40.732  30.750  35.074  1.00  0.00     0.074 A 
ATOM     54  C   UNL A   1      41.503  30.650  36.296  1.00  0.00     0.031 C 
ATOM     55  C   UNL A   1      39.590  31.470  34.950  1.00  0.00     0.037 A 
BRANCH  42  56
ATOM     56  C   UNL A   1      37.068  31.214  29.318  1.00  0.00     0.057 A 
ATOM     57  C   UNL A   1      35.989  30.376  29.012  1.00  0.00     0.134 A 
ATOM     58  C   UNL A   1      37.075  32.495  28.754  1.00  0.00     0.134 A 
ATOM     59  F   UNL A   1      35.933  29.130  29.507  1.00  0.00    -0.206 F 
ATOM     60  C   UNL A   1      34.963  30.791  28.160  1.00  0.00     0.040 A 
ATOM     61  C   UNL A   1      36.045  32.929  27.918  1.00  0.00     0.040 A 
ATOM     62  F   UNL A   1      38.079  33.347  29.010  1.00  0.00    -0.206 F 
ATOM     63  C   UNL A   1      34.987  32.074  27.616  1.00  0.00     0.006 A 
ENDBRANCH  42  56
BRANCH  43  64
ATOM     64  C   UNL A   1      44.630  28.129  35.037  1.00  0.00     0.057 A 
ATOM     65  C   UNL A   1      44.547  26.940  35.771  1.00  0.00     0.134 A 
ATOM     66  C   UNL A   1      45.802  28.885  35.161  1.00  0.00     0.134 A 
ATOM     67  F   UNL A   1      43.439  26.186  35.711  1.00  0.00    -0.206 F 
ATOM     68  C   UNL A   1      45.582  26.527  36.611  1.00  0.00     0.040 A 
ATOM     69  C   UNL A   1      46.854  28.472  35.979  1.00  0.00     0.040 A 
ATOM     70  F   UNL A   1      45.941  30.033  34.482  1.00  0.00    -0.206 F 
ATOM     71  C   UNL A   1      46.742  27.292  36.713  1.00  0.00     0.006 A 
ENDBRANCH  43  64
BRANCH  55  72
ATOM     72  C   UNL A   1      39.096  32.178  36.177  1.00  0.00     0.057 A 
ATOM     73  C   UNL A   1      39.516  33.473  36.502  1.00  0.00     0.134 A 
ATOM     74  C   UNL A   1      38.176  31.560  37.034  1.00  0.00     0.134 A 
ATOM     75  F   UNL A   1      40.406  34.114  35.728  1.00  0.00    -0.206 F 
ATOM     76  C   UNL A   1      39.062  34.119  37.653  1.00  0.00     0.040 A 
ATOM     77  C   UNL A   1      37.697  32.205  38.175  1.00  0.00     0.040 A 
ATOM     78  F   UNL A   1      37.727  30.324  36.774  1.00  0.00    -0.206 F 
ATOM     79  C   UNL A   1      38.147  33.486  38.491  1.00  0.00     0.006 A 
ENDBRANCH  55  72
ENDBRANCH  29  30
ENDBRANCH  22  24
ENDBRANCH  21  22
ENDBRANCH  20  21
ENDBRANCH   1  20
TORSDOF 14
ENDMDL
