MODEL 1
REMARK VINA RESULT:     -10.9      0.000      0.000
REMARK SMILES COc1ccc(C(=O)N2CSC[C@H]2C(=O)OCCOC(=O)c2ccc(-c3c4nc(c(-c5c(F)cccc5F)c5ccc([nH]5)c(-c5c(F)cccc5F)c5nc(c(-c6c(F)cccc6F)c6ccc3[nH]6)C=C5)C=C4)cc2)cc1C#N
REMARK SMILES IDX 17 1 16 2 14 3 15 4 13 5 9 6 10 7 11 8 12 9 7 10 8 11 6 12
REMARK SMILES IDX 3 13 4 14 77 15 5 16 76 17 2 18 1 19 78 20 79 21 18 22 19 23
REMARK SMILES IDX 20 24 21 25 22 26 23 27 75 28 24 29 74 30 25 31 26 32 27 33
REMARK SMILES IDX 68 34 28 35 73 36 67 37 69 38 29 39 72 40 66 41 65 42 30 44
REMARK SMILES IDX 56 45 39 46 55 47 40 48 43 49 54 50 70 51 41 52 42 53 53 55
REMARK SMILES IDX 71 56 44 57 31 58 32 59 37 60 33 61 34 62 36 63 38 64 35 65
REMARK SMILES IDX 57 66 58 67 63 68 59 69 60 70 62 71 64 72 61 73 45 74 46 75
REMARK SMILES IDX 51 76 47 77 48 78 50 79 52 80 49 81
REMARK H PARENT 69 43 43 54
REMARK Flexibility Score: inf
ROOT
ATOM      1  C   UNL A   1      34.725  20.604  25.115  1.00  0.00     0.274 C 
ENDROOT
BRANCH   1   2
ATOM      2  O   UNL A   1      33.752  21.357  25.873  1.00  0.00    -0.461 OA
BRANCH   2   3
ATOM      3  C   UNL A   1      32.491  21.320  25.372  1.00  0.00     0.329 C 
ATOM      4  O   UNL A   1      31.788  20.311  25.343  1.00  0.00    -0.250 OA
BRANCH   3   5
ATOM      5  C   UNL A   1      32.018  22.623  24.726  1.00  0.00     0.206 C 
ATOM      6  N   UNL A   1      32.547  23.926  25.133  1.00  0.00    -0.315 N 
ATOM      7  C   UNL A   1      33.697  24.343  24.369  1.00  0.00     0.191 C 
ATOM      8  S   UNL A   1      33.361  23.777  22.688  1.00  0.00    -0.138 SA
ATOM      9  C   UNL A   1      32.195  22.482  23.213  1.00  0.00     0.108 C 
BRANCH   6  10
ATOM     10  C   UNL A   1      31.818  24.681  26.037  1.00  0.00     0.255 C 
ATOM     11  O   UNL A   1      31.443  24.231  27.116  1.00  0.00    -0.269 OA
BRANCH  10  12
ATOM     12  C   UNL A   1      31.231  25.985  25.638  1.00  0.00     0.041 A 
ATOM     13  C   UNL A   1      30.625  28.479  24.497  1.00  0.00     0.136 A 
ATOM     14  C   UNL A   1      30.085  27.306  23.956  1.00  0.00     0.048 A 
ATOM     15  C   UNL A   1      31.418  28.415  25.650  1.00  0.00     0.095 A 
ATOM     16  C   UNL A   1      30.395  26.060  24.518  1.00  0.00     0.018 A 
ATOM     17  C   UNL A   1      31.739  27.165  26.195  1.00  0.00     0.037 A 
BRANCH  13  18
ATOM     18  O   UNL A   1      30.288  29.650  23.867  1.00  0.00    -0.495 OA
ATOM     19  C   UNL A   1      30.094  29.487  22.457  1.00  0.00     0.278 C 
ENDBRANCH  13  18
BRANCH  15  20
ATOM     20  C   UNL A   1      31.935  29.578  26.300  1.00  0.00     0.103 C 
ATOM     21  N   UNL A   1      32.396  30.501  26.839  1.00  0.00    -0.192 NA
ENDBRANCH  15  20
ENDBRANCH  10  12
ENDBRANCH   6  10
ENDBRANCH   3   5
ENDBRANCH   2   3
ENDBRANCH   1   2
BRANCH   1  22
ATOM     22  C   UNL A   1      35.903  21.484  24.702  1.00  0.00     0.275 C 
BRANCH  22  23
ATOM     23  O   UNL A   1      36.737  21.771  25.837  1.00  0.00    -0.458 OA
BRANCH  23  24
ATOM     24  C   UNL A   1      38.014  21.335  25.716  1.00  0.00     0.338 C 
ATOM     25  O   UNL A   1      38.378  20.223  25.376  1.00  0.00    -0.246 OA
BRANCH  24  26
ATOM     26  C   UNL A   1      38.933  22.405  26.129  1.00  0.00     0.060 A 
ATOM     27  C   UNL A   1      40.055  22.130  26.915  1.00  0.00     0.016 A 
ATOM     28  C   UNL A   1      38.597  23.718  25.817  1.00  0.00     0.016 A 
ATOM     29  C   UNL A   1      40.803  23.173  27.460  1.00  0.00     0.010 A 
ATOM     30  C   UNL A   1      39.394  24.758  26.293  1.00  0.00     0.010 A 
ATOM     31  C   UNL A   1      40.488  24.498  27.139  1.00  0.00    -0.014 A 
BRANCH  31  32
ATOM     32  C   UNL A   1      41.279  25.636  27.667  1.00  0.00     0.031 A 
ATOM     33  C   UNL A   1      40.599  26.697  28.484  1.00  0.00     0.074 A 
ATOM     34  C   UNL A   1      42.576  25.766  27.331  1.00  0.00     0.049 A 
ATOM     35  N   UNL A   1      41.021  27.894  28.804  1.00  0.00    -0.248 NA
ATOM     36  C   UNL A   1      39.257  26.373  28.993  1.00  0.00     0.031 C 
ATOM     37  C   UNL A   1      43.363  24.783  26.585  1.00  0.00     0.029 A 
ATOM     38  N   UNL A   1      43.451  26.803  27.542  1.00  0.00    -0.354 N 
ATOM     39  C   UNL A   1      39.982  28.481  29.516  1.00  0.00     0.074 A 
ATOM     40  C   UNL A   1      38.904  27.516  29.564  1.00  0.00     0.031 C 
ATOM     41  C   UNL A   1      44.597  25.270  26.384  1.00  0.00     0.029 A 
ATOM     42  C   UNL A   1      44.662  26.625  26.919  1.00  0.00     0.049 A 
ATOM     43  H   UNL A   1      43.232  27.594  28.086  1.00  0.00     0.167 HD
ATOM     44  C   UNL A   1      39.936  29.715  30.072  1.00  0.00     0.037 A 
ATOM     45  C   UNL A   1      45.690  27.479  26.746  1.00  0.00     0.037 A 
ATOM     46  C   UNL A   1      41.023  30.661  30.019  1.00  0.00     0.049 A 
ATOM     47  C   UNL A   1      45.584  28.875  27.297  1.00  0.00     0.074 A 
ATOM     48  C   UNL A   1      41.086  31.932  30.565  1.00  0.00     0.029 A 
ATOM     49  N   UNL A   1      42.233  30.441  29.378  1.00  0.00    -0.354 N 
ATOM     50  N   UNL A   1      44.599  29.428  27.963  1.00  0.00    -0.248 NA
ATOM     51  C   UNL A   1      46.728  29.767  27.067  1.00  0.00     0.031 C 
ATOM     52  C   UNL A   1      42.308  32.503  30.200  1.00  0.00     0.029 A 
ATOM     53  C   UNL A   1      43.039  31.562  29.493  1.00  0.00     0.049 A 
ATOM     54  H   UNL A   1      42.482  29.611  28.910  1.00  0.00     0.167 HD
ATOM     55  C   UNL A   1      45.024  30.714  28.272  1.00  0.00     0.074 A 
ATOM     56  C   UNL A   1      46.354  30.859  27.718  1.00  0.00     0.031 C 
ATOM     57  C   UNL A   1      44.373  31.682  28.961  1.00  0.00     0.037 A 
BRANCH  44  58
ATOM     58  C   UNL A   1      38.664  30.129  30.753  1.00  0.00     0.057 A 
ATOM     59  C   UNL A   1      38.418  29.858  32.105  1.00  0.00     0.134 A 
ATOM     60  C   UNL A   1      37.683  30.844  30.053  1.00  0.00     0.134 A 
ATOM     61  F   UNL A   1      39.310  29.170  32.835  1.00  0.00    -0.206 F 
ATOM     62  C   UNL A   1      37.232  30.255  32.726  1.00  0.00     0.040 A 
ATOM     63  C   UNL A   1      36.508  31.275  30.671  1.00  0.00     0.040 A 
ATOM     64  F   UNL A   1      37.855  31.148  28.757  1.00  0.00    -0.206 F 
ATOM     65  C   UNL A   1      36.276  30.973  32.010  1.00  0.00     0.006 A 
ENDBRANCH  44  58
BRANCH  45  66
ATOM     66  C   UNL A   1      46.898  27.049  25.995  1.00  0.00     0.057 A 
ATOM     67  C   UNL A   1      47.969  26.433  26.652  1.00  0.00     0.134 A 
ATOM     68  C   UNL A   1      47.019  27.251  24.614  1.00  0.00     0.134 A 
ATOM     69  F   UNL A   1      47.922  26.228  27.975  1.00  0.00    -0.206 F 
ATOM     70  C   UNL A   1      49.128  26.059  25.968  1.00  0.00     0.040 A 
ATOM     71  C   UNL A   1      48.157  26.852  23.913  1.00  0.00     0.040 A 
ATOM     72  F   UNL A   1      46.025  27.828  23.923  1.00  0.00    -0.206 F 
ATOM     73  C   UNL A   1      49.221  26.263  24.593  1.00  0.00     0.006 A 
ENDBRANCH  45  66
BRANCH  57  74
ATOM     74  C   UNL A   1      45.112  32.963  29.230  1.00  0.00     0.057 A 
ATOM     75  C   UNL A   1      44.998  34.084  28.401  1.00  0.00     0.134 A 
ATOM     76  C   UNL A   1      45.893  33.091  30.388  1.00  0.00     0.134 A 
ATOM     77  F   UNL A   1      44.278  34.024  27.269  1.00  0.00    -0.206 F 
ATOM     78  C   UNL A   1      45.644  35.284  28.704  1.00  0.00     0.040 A 
ATOM     79  C   UNL A   1      46.517  34.294  30.719  1.00  0.00     0.040 A 
ATOM     80  F   UNL A   1      46.037  32.058  31.231  1.00  0.00    -0.206 F 
ATOM     81  C   UNL A   1      46.396  35.394  29.873  1.00  0.00     0.006 A 
ENDBRANCH  57  74
ENDBRANCH  31  32
ENDBRANCH  24  26
ENDBRANCH  23  24
ENDBRANCH  22  23
ENDBRANCH   1  22
TORSDOF 15
ENDMDL
MODEL 2
REMARK VINA RESULT:     -10.8      2.309      7.332
REMARK SMILES COc1ccc(C(=O)N2CSC[C@H]2C(=O)OCCOC(=O)c2ccc(-c3c4nc(c(-c5c(F)cccc5F)c5ccc([nH]5)c(-c5c(F)cccc5F)c5nc(c(-c6c(F)cccc6F)c6ccc3[nH]6)C=C5)C=C4)cc2)cc1C#N
REMARK SMILES IDX 17 1 16 2 14 3 15 4 13 5 9 6 10 7 11 8 12 9 7 10 8 11 6 12
REMARK SMILES IDX 3 13 4 14 77 15 5 16 76 17 2 18 1 19 78 20 79 21 18 22 19 23
REMARK SMILES IDX 20 24 21 25 22 26 23 27 75 28 24 29 74 30 25 31 26 32 27 33
REMARK SMILES IDX 68 34 28 35 73 36 67 37 69 38 29 39 72 40 66 41 65 42 30 44
REMARK SMILES IDX 56 45 39 46 55 47 40 48 43 49 54 50 70 51 41 52 42 53 53 55
REMARK SMILES IDX 71 56 44 57 31 58 32 59 37 60 33 61 34 62 36 63 38 64 35 65
REMARK SMILES IDX 57 66 58 67 63 68 59 69 60 70 62 71 64 72 61 73 45 74 46 75
REMARK SMILES IDX 51 76 47 77 48 78 50 79 52 80 49 81
REMARK H PARENT 69 43 43 54
REMARK Flexibility Score: inf
ROOT
ATOM      1  C   UNL A   1      32.721  29.602  26.993  1.00  0.00     0.274 C 
ENDROOT
BRANCH   1   2
ATOM      2  O   UNL A   1      31.935  30.227  25.953  1.00  0.00    -0.461 OA
BRANCH   2   3
ATOM      3  C   UNL A   1      31.608  29.410  24.920  1.00  0.00     0.329 C 
ATOM      4  O   UNL A   1      30.588  29.527  24.242  1.00  0.00    -0.250 OA
BRANCH   3   5
ATOM      5  C   UNL A   1      32.559  28.232  24.706  1.00  0.00     0.206 C 
ATOM      6  N   UNL A   1      32.069  26.866  24.508  1.00  0.00    -0.315 N 
ATOM      7  C   UNL A   1      31.856  26.528  23.123  1.00  0.00     0.191 C 
ATOM      8  S   UNL A   1      33.202  27.344  22.239  1.00  0.00    -0.138 SA
ATOM      9  C   UNL A   1      33.482  28.586  23.538  1.00  0.00     0.108 C 
BRANCH   6  10
ATOM     10  C   UNL A   1      32.039  26.012  25.599  1.00  0.00     0.255 C 
ATOM     11  O   UNL A   1      31.442  26.292  26.635  1.00  0.00    -0.269 OA
BRANCH  10  12
ATOM     12  C   UNL A   1      32.941  24.834  25.666  1.00  0.00     0.041 A 
ATOM     13  C   UNL A   1      34.626  22.645  25.158  1.00  0.00     0.136 A 
ATOM     14  C   UNL A   1      35.167  23.919  25.368  1.00  0.00     0.048 A 
ATOM     15  C   UNL A   1      33.243  22.450  25.264  1.00  0.00     0.095 A 
ATOM     16  C   UNL A   1      34.328  25.014  25.611  1.00  0.00     0.018 A 
ATOM     17  C   UNL A   1      32.407  23.552  25.489  1.00  0.00     0.037 A 
BRANCH  13  18
ATOM     18  O   UNL A   1      35.521  21.639  24.902  1.00  0.00    -0.495 OA
ATOM     19  C   UNL A   1      36.707  22.102  24.245  1.00  0.00     0.278 C 
ENDBRANCH  13  18
BRANCH  15  20
ATOM     20  C   UNL A   1      32.631  21.164  25.140  1.00  0.00     0.103 C 
ATOM     21  N   UNL A   1      32.154  20.112  24.997  1.00  0.00    -0.192 NA
ENDBRANCH  15  20
ENDBRANCH  10  12
ENDBRANCH   6  10
ENDBRANCH   3   5
ENDBRANCH   2   3
ENDBRANCH   1   2
BRANCH   1  22
ATOM     22  C   UNL A   1      33.823  30.537  27.488  1.00  0.00     0.275 C 
BRANCH  22  23
ATOM     23  O   UNL A   1      34.977  29.781  27.894  1.00  0.00    -0.458 OA
BRANCH  23  24
ATOM     24  C   UNL A   1      35.805  30.441  28.739  1.00  0.00     0.338 C 
ATOM     25  O   UNL A   1      35.548  31.442  29.384  1.00  0.00    -0.246 OA
BRANCH  24  26
ATOM     26  C   UNL A   1      37.127  29.797  28.722  1.00  0.00     0.060 A 
ATOM     27  C   UNL A   1      37.703  29.297  29.893  1.00  0.00     0.016 A 
ATOM     28  C   UNL A   1      37.845  29.802  27.531  1.00  0.00     0.016 A 
ATOM     29  C   UNL A   1      39.030  28.870  29.896  1.00  0.00     0.010 A 
ATOM     30  C   UNL A   1      39.145  29.298  27.517  1.00  0.00     0.010 A 
ATOM     31  C   UNL A   1      39.758  28.851  28.702  1.00  0.00    -0.014 A 
BRANCH  31  32
ATOM     32  C   UNL A   1      41.161  28.372  28.653  1.00  0.00     0.031 A 
ATOM     33  C   UNL A   1      42.288  29.359  28.759  1.00  0.00     0.074 A 
ATOM     34  C   UNL A   1      41.418  27.073  28.415  1.00  0.00     0.049 A 
ATOM     35  N   UNL A   1      43.554  29.206  28.469  1.00  0.00    -0.248 NA
ATOM     36  C   UNL A   1      41.936  30.705  29.240  1.00  0.00     0.031 C 
ATOM     37  C   UNL A   1      40.417  26.008  28.340  1.00  0.00     0.029 A 
ATOM     38  N   UNL A   1      42.605  26.434  28.153  1.00  0.00    -0.354 N 
ATOM     39  C   UNL A   1      44.144  30.444  28.692  1.00  0.00     0.074 A 
ATOM     40  C   UNL A   1      43.093  31.342  29.123  1.00  0.00     0.031 C 
ATOM     41  C   UNL A   1      41.026  24.853  28.032  1.00  0.00     0.029 A 
ATOM     42  C   UNL A   1      42.445  25.111  27.815  1.00  0.00     0.049 A 
ATOM     43  H   UNL A   1      43.482  26.878  28.202  1.00  0.00     0.167 HD
ATOM     44  C   UNL A   1      45.444  30.795  28.544  1.00  0.00     0.037 A 
ATOM     45  C   UNL A   1      43.331  24.220  27.328  1.00  0.00     0.037 A 
ATOM     46  C   UNL A   1      46.478  29.884  28.119  1.00  0.00     0.049 A 
ATOM     47  C   UNL A   1      44.751  24.655  27.089  1.00  0.00     0.074 A 
ATOM     48  C   UNL A   1      47.830  30.134  27.953  1.00  0.00     0.029 A 
ATOM     49  N   UNL A   1      46.274  28.553  27.788  1.00  0.00    -0.354 N 
ATOM     50  N   UNL A   1      45.303  25.826  27.294  1.00  0.00    -0.248 NA
ATOM     51  C   UNL A   1      45.669  23.646  26.544  1.00  0.00     0.031 C 
ATOM     52  C   UNL A   1      48.430  28.973  27.461  1.00  0.00     0.029 A 
ATOM     53  C   UNL A   1      47.470  27.976  27.393  1.00  0.00     0.049 A 
ATOM     54  H   UNL A   1      45.407  28.088  27.826  1.00  0.00     0.167 HD
ATOM     55  C   UNL A   1      46.641  25.681  26.950  1.00  0.00     0.074 A 
ATOM     56  C   UNL A   1      46.816  24.310  26.520  1.00  0.00     0.031 C 
ATOM     57  C   UNL A   1      47.635  26.601  26.995  1.00  0.00     0.037 A 
BRANCH  44  58
ATOM     58  C   UNL A   1      45.817  32.225  28.807  1.00  0.00     0.057 A 
ATOM     59  C   UNL A   1      45.764  33.207  27.808  1.00  0.00     0.134 A 
ATOM     60  C   UNL A   1      46.198  32.636  30.091  1.00  0.00     0.134 A 
ATOM     61  F   UNL A   1      45.415  32.884  26.554  1.00  0.00    -0.206 F 
ATOM     62  C   UNL A   1      46.107  34.535  28.070  1.00  0.00     0.040 A 
ATOM     63  C   UNL A   1      46.512  33.967  30.373  1.00  0.00     0.040 A 
ATOM     64  F   UNL A   1      46.260  31.752  31.099  1.00  0.00    -0.206 F 
ATOM     65  C   UNL A   1      46.475  34.919  29.359  1.00  0.00     0.006 A 
ENDBRANCH  44  58
BRANCH  45  66
ATOM     66  C   UNL A   1      42.896  22.836  27.008  1.00  0.00     0.057 A 
ATOM     67  C   UNL A   1      42.682  22.438  25.684  1.00  0.00     0.134 A 
ATOM     68  C   UNL A   1      42.670  21.884  28.011  1.00  0.00     0.134 A 
ATOM     69  F   UNL A   1      42.863  23.309  24.681  1.00  0.00    -0.206 F 
ATOM     70  C   UNL A   1      42.235  21.154  25.369  1.00  0.00     0.040 A 
ATOM     71  C   UNL A   1      42.255  20.586  27.709  1.00  0.00     0.040 A 
ATOM     72  F   UNL A   1      42.864  22.197  29.301  1.00  0.00    -0.206 F 
ATOM     73  C   UNL A   1      42.026  20.222  26.384  1.00  0.00     0.006 A 
ENDBRANCH  45  66
BRANCH  57  74
ATOM     74  C   UNL A   1      49.024  26.144  26.648  1.00  0.00     0.057 A 
ATOM     75  C   UNL A   1      49.586  26.347  25.382  1.00  0.00     0.134 A 
ATOM     76  C   UNL A   1      49.835  25.557  27.629  1.00  0.00     0.134 A 
ATOM     77  F   UNL A   1      48.859  26.890  24.393  1.00  0.00    -0.206 F 
ATOM     78  C   UNL A   1      50.901  25.970  25.100  1.00  0.00     0.040 A 
ATOM     79  C   UNL A   1      51.160  25.207  27.369  1.00  0.00     0.040 A 
ATOM     80  F   UNL A   1      49.361  25.342  28.866  1.00  0.00    -0.206 F 
ATOM     81  C   UNL A   1      51.695  25.409  26.100  1.00  0.00     0.006 A 
ENDBRANCH  57  74
ENDBRANCH  31  32
ENDBRANCH  24  26
ENDBRANCH  23  24
ENDBRANCH  22  23
ENDBRANCH   1  22
TORSDOF 15
ENDMDL
MODEL 3
REMARK VINA RESULT:     -10.7      9.482     13.553
REMARK SMILES COc1ccc(C(=O)N2CSC[C@H]2C(=O)OCCOC(=O)c2ccc(-c3c4nc(c(-c5c(F)cccc5F)c5ccc([nH]5)c(-c5c(F)cccc5F)c5nc(c(-c6c(F)cccc6F)c6ccc3[nH]6)C=C5)C=C4)cc2)cc1C#N
REMARK SMILES IDX 17 1 16 2 14 3 15 4 13 5 9 6 10 7 11 8 12 9 7 10 8 11 6 12
REMARK SMILES IDX 3 13 4 14 77 15 5 16 76 17 2 18 1 19 78 20 79 21 18 22 19 23
REMARK SMILES IDX 20 24 21 25 22 26 23 27 75 28 24 29 74 30 25 31 26 32 27 33
REMARK SMILES IDX 68 34 28 35 73 36 67 37 69 38 29 39 72 40 66 41 65 42 30 44
REMARK SMILES IDX 56 45 39 46 55 47 40 48 43 49 54 50 70 51 41 52 42 53 53 55
REMARK SMILES IDX 71 56 44 57 31 58 32 59 37 60 33 61 34 62 36 63 38 64 35 65
REMARK SMILES IDX 57 66 58 67 63 68 59 69 60 70 62 71 64 72 61 73 45 74 46 75
REMARK SMILES IDX 51 76 47 77 48 78 50 79 52 80 49 81
REMARK H PARENT 69 43 43 54
REMARK Flexibility Score: inf
ROOT
ATOM      1  C   UNL A   1      46.072  21.277  36.776  1.00  0.00     0.274 C 
ENDROOT
BRANCH   1   2
ATOM      2  O   UNL A   1      46.928  20.394  37.536  1.00  0.00    -0.461 OA
BRANCH   2   3
ATOM      3  C   UNL A   1      46.289  19.351  38.123  1.00  0.00     0.329 C 
ATOM      4  O   UNL A   1      45.575  18.550  37.520  1.00  0.00    -0.250 OA
BRANCH   3   5
ATOM      5  C   UNL A   1      46.426  19.287  39.644  1.00  0.00     0.206 C 
ATOM      6  N   UNL A   1      46.094  18.079  40.402  1.00  0.00    -0.315 N 
ATOM      7  C   UNL A   1      47.215  17.191  40.587  1.00  0.00     0.191 C 
ATOM      8  S   UNL A   1      48.629  18.284  40.839  1.00  0.00    -0.138 SA
ATOM      9  C   UNL A   1      47.856  19.700  39.999  1.00  0.00     0.108 C 
BRANCH   6  10
ATOM     10  C   UNL A   1      44.847  17.998  41.000  1.00  0.00     0.255 C 
ATOM     11  O   UNL A   1      44.427  18.865  41.761  1.00  0.00    -0.269 OA
BRANCH  10  12
ATOM     12  C   UNL A   1      44.063  16.737  40.957  1.00  0.00     0.041 A 
ATOM     13  C   UNL A   1      42.082  14.748  40.863  1.00  0.00     0.136 A 
ATOM     14  C   UNL A   1      42.669  15.217  39.681  1.00  0.00     0.048 A 
ATOM     15  C   UNL A   1      42.530  15.227  42.101  1.00  0.00     0.095 A 
ATOM     16  C   UNL A   1      43.649  16.217  39.725  1.00  0.00     0.018 A 
ATOM     17  C   UNL A   1      43.498  16.240  42.137  1.00  0.00     0.037 A 
BRANCH  13  18
ATOM     18  O   UNL A   1      41.114  13.788  40.723  1.00  0.00    -0.495 OA
ATOM     19  C   UNL A   1      41.641  12.456  40.756  1.00  0.00     0.278 C 
ENDBRANCH  13  18
BRANCH  15  20
ATOM     20  C   UNL A   1      42.033  14.737  43.348  1.00  0.00     0.103 C 
ATOM     21  N   UNL A   1      41.672  14.328  44.376  1.00  0.00    -0.192 NA
ENDBRANCH  15  20
ENDBRANCH  10  12
ENDBRANCH   6  10
ENDBRANCH   3   5
ENDBRANCH   2   3
ENDBRANCH   1   2
BRANCH   1  22
ATOM     22  C   UNL A   1      46.025  22.671  37.398  1.00  0.00     0.275 C 
BRANCH  22  23
ATOM     23  O   UNL A   1      45.330  23.584  36.532  1.00  0.00    -0.458 OA
BRANCH  23  24
ATOM     24  C   UNL A   1      45.636  24.888  36.737  1.00  0.00     0.338 C 
ATOM     25  O   UNL A   1      46.376  25.341  37.592  1.00  0.00    -0.246 OA
BRANCH  24  26
ATOM     26  C   UNL A   1      44.875  25.719  35.792  1.00  0.00     0.060 A 
ATOM     27  C   UNL A   1      45.449  26.842  35.191  1.00  0.00     0.016 A 
ATOM     28  C   UNL A   1      43.528  25.427  35.598  1.00  0.00     0.016 A 
ATOM     29  C   UNL A   1      44.660  27.726  34.457  1.00  0.00     0.010 A 
ATOM     30  C   UNL A   1      42.759  26.267  34.794  1.00  0.00     0.010 A 
ATOM     31  C   UNL A   1      43.309  27.436  34.237  1.00  0.00    -0.014 A 
BRANCH  31  32
ATOM     32  C   UNL A   1      42.442  28.330  33.432  1.00  0.00     0.031 A 
ATOM     33  C   UNL A   1      41.584  29.351  34.121  1.00  0.00     0.074 A 
ATOM     34  C   UNL A   1      42.353  28.157  32.100  1.00  0.00     0.049 A 
ATOM     35  N   UNL A   1      40.568  30.031  33.654  1.00  0.00    -0.248 NA
ATOM     36  C   UNL A   1      41.902  29.631  35.530  1.00  0.00     0.031 C 
ATOM     37  C   UNL A   1      43.166  27.234  31.306  1.00  0.00     0.029 A 
ATOM     38  N   UNL A   1      41.504  28.726  31.183  1.00  0.00    -0.354 N 
ATOM     39  C   UNL A   1      40.099  30.788  34.721  1.00  0.00     0.074 A 
ATOM     40  C   UNL A   1      40.930  30.469  35.863  1.00  0.00     0.031 C 
ATOM     41  C   UNL A   1      42.766  27.285  30.027  1.00  0.00     0.029 A 
ATOM     42  C   UNL A   1      41.622  28.184  29.925  1.00  0.00     0.049 A 
ATOM     43  H   UNL A   1      40.875  29.450  31.404  1.00  0.00     0.167 HD
ATOM     44  C   UNL A   1      39.066  31.664  34.741  1.00  0.00     0.037 A 
ATOM     45  C   UNL A   1      40.858  28.348  28.828  1.00  0.00     0.037 A 
ATOM     46  C   UNL A   1      38.253  31.973  33.592  1.00  0.00     0.049 A 
ATOM     47  C   UNL A   1      39.663  29.259  28.896  1.00  0.00     0.074 A 
ATOM     48  C   UNL A   1      37.193  32.859  33.500  1.00  0.00     0.029 A 
ATOM     49  N   UNL A   1      38.407  31.402  32.337  1.00  0.00    -0.354 N 
ATOM     50  N   UNL A   1      39.220  29.968  29.907  1.00  0.00    -0.248 NA
ATOM     51  C   UNL A   1      38.859  29.390  27.674  1.00  0.00     0.031 C 
ATOM     52  C   UNL A   1      36.666  32.776  32.209  1.00  0.00     0.029 A 
ATOM     53  C   UNL A   1      37.444  31.897  31.472  1.00  0.00     0.049 A 
ATOM     54  H   UNL A   1      39.096  30.743  32.097  1.00  0.00     0.167 HD
ATOM     55  C   UNL A   1      38.115  30.662  29.430  1.00  0.00     0.074 A 
ATOM     56  C   UNL A   1      37.955  30.288  28.040  1.00  0.00     0.031 C 
ATOM     57  C   UNL A   1      37.314  31.538  30.082  1.00  0.00     0.037 A 
BRANCH  44  58
ATOM     58  C   UNL A   1      38.733  32.322  36.049  1.00  0.00     0.057 A 
ATOM     59  C   UNL A   1      38.035  31.655  37.065  1.00  0.00     0.134 A 
ATOM     60  C   UNL A   1      39.150  33.634  36.311  1.00  0.00     0.134 A 
ATOM     61  F   UNL A   1      37.599  30.400  36.880  1.00  0.00    -0.206 F 
ATOM     62  C   UNL A   1      37.739  32.279  38.278  1.00  0.00     0.040 A 
ATOM     63  C   UNL A   1      38.888  34.256  37.533  1.00  0.00     0.040 A 
ATOM     64  F   UNL A   1      39.832  34.330  35.389  1.00  0.00    -0.206 F 
ATOM     65  C   UNL A   1      38.173  33.581  38.518  1.00  0.00     0.006 A 
ENDBRANCH  44  58
BRANCH  45  66
ATOM     66  C   UNL A   1      41.183  27.614  27.578  1.00  0.00     0.057 A 
ATOM     67  C   UNL A   1      40.713  26.313  27.368  1.00  0.00     0.134 A 
ATOM     68  C   UNL A   1      41.976  28.182  26.573  1.00  0.00     0.134 A 
ATOM     69  F   UNL A   1      39.965  25.706  28.300  1.00  0.00    -0.206 F 
ATOM     70  C   UNL A   1      41.042  25.594  26.217  1.00  0.00     0.040 A 
ATOM     71  C   UNL A   1      42.285  27.488  25.403  1.00  0.00     0.040 A 
ATOM     72  F   UNL A   1      42.451  29.429  26.708  1.00  0.00    -0.206 F 
ATOM     73  C   UNL A   1      41.825  26.184  25.227  1.00  0.00     0.006 A 
ENDBRANCH  45  66
BRANCH  57  74
ATOM     74  C   UNL A   1      36.235  32.220  29.290  1.00  0.00     0.057 A 
ATOM     75  C   UNL A   1      35.069  31.560  28.887  1.00  0.00     0.134 A 
ATOM     76  C   UNL A   1      36.340  33.586  28.994  1.00  0.00     0.134 A 
ATOM     77  F   UNL A   1      34.911  30.248  29.126  1.00  0.00    -0.206 F 
ATOM     78  C   UNL A   1      34.051  32.230  28.205  1.00  0.00     0.040 A 
ATOM     79  C   UNL A   1      35.316  34.274  28.343  1.00  0.00     0.040 A 
ATOM     80  F   UNL A   1      37.428  34.281  29.359  1.00  0.00    -0.206 F 
ATOM     81  C   UNL A   1      34.168  33.594  27.943  1.00  0.00     0.006 A 
ENDBRANCH  57  74
ENDBRANCH  31  32
ENDBRANCH  24  26
ENDBRANCH  23  24
ENDBRANCH  22  23
ENDBRANCH   1  22
TORSDOF 15
ENDMDL
