MODEL 1
REMARK VINA RESULT:     -11.2      0.000      0.000
REMARK SMILES Cn1ccnc1[C@@H]1[C@@H](C(=O)OCCOC(=O)c2ccc(-c3c4nc(c(-c5c(F)cccc5F)c5ccc([nH]5)c(-c5c(F)cccc5F)c5nc(c(-c6c(F)cccc6F)c6ccc3[nH]6)C=C5)C=C4)cc2)CC(=O)N1CCCOC1CCCCC1
REMARK SMILES IDX 11 1 9 2 10 3 8 4 7 5 74 6 71 7 72 8 73 9 6 10 1 11 2 12
REMARK SMILES IDX 3 13 4 14 5 15 75 16 76 17 77 18 78 19 79 20 80 21 84 22
REMARK SMILES IDX 81 23 83 24 82 25 12 26 13 27 14 28 15 29 16 30 17 31 18 32
REMARK SMILES IDX 70 33 19 34 69 35 20 36 21 37 22 38 63 39 23 40 68 41 62 42
REMARK SMILES IDX 64 43 24 44 67 45 61 46 60 47 25 49 51 50 34 51 50 52 35 53
REMARK SMILES IDX 38 54 49 55 65 56 36 57 37 58 48 60 66 61 39 62 26 63 27 64
REMARK SMILES IDX 32 65 28 66 29 67 31 68 33 69 30 70 52 71 53 72 58 73 54 74
REMARK SMILES IDX 55 75 57 76 59 77 56 78 40 79 41 80 46 81 42 82 43 83 45 84
REMARK SMILES IDX 47 85 44 86
REMARK H PARENT 64 48 38 59
REMARK Flexibility Score: inf
ROOT
ATOM      1  O   UNL A   1      31.480  30.870  25.670  1.00  0.00    -0.462 OA
ENDROOT
BRANCH   1   2
ATOM      2  C   UNL A   1      31.769  29.563  25.487  1.00  0.00     0.312 C 
ATOM      3  O   UNL A   1      31.745  28.704  26.362  1.00  0.00    -0.252 OA
BRANCH   2   4
ATOM      4  C   UNL A   1      32.103  29.218  24.072  1.00  0.00     0.139 C 
ATOM      5  C   UNL A   1      31.248  28.068  23.583  1.00  0.00     0.166 C 
ATOM      6  N   UNL A   1      31.969  27.593  22.407  1.00  0.00    -0.331 N 
ATOM      7  C   UNL A   1      33.519  28.834  23.722  1.00  0.00     0.118 C 
ATOM      8  C   UNL A   1      33.307  28.043  22.460  1.00  0.00     0.224 C 
ATOM      9  O   UNL A   1      34.196  27.757  21.672  1.00  0.00    -0.275 OA
BRANCH   5  10
ATOM     10  C   UNL A   1      29.809  28.497  23.403  1.00  0.00     0.132 A 
ATOM     11  C   UNL A   1      28.430  26.367  23.882  1.00  0.00     0.151 C 
ATOM     12  N   UNL A   1      28.649  27.737  23.482  1.00  0.00    -0.336 N 
ATOM     13  C   UNL A   1      27.601  28.516  23.050  1.00  0.00     0.107 A 
ATOM     14  C   UNL A   1      28.156  29.718  22.710  1.00  0.00     0.131 A 
ATOM     15  N   UNL A   1      29.507  29.698  22.925  1.00  0.00    -0.239 NA
ENDBRANCH   5  10
BRANCH   6  16
ATOM     16  C   UNL A   1      31.776  26.343  21.664  1.00  0.00     0.122 C 
BRANCH  16  17
ATOM     17  C   UNL A   1      31.924  24.959  22.282  1.00  0.00     0.050 C 
BRANCH  17  18
ATOM     18  C   UNL A   1      33.190  24.125  22.112  1.00  0.00     0.162 C 
BRANCH  18  19
ATOM     19  O   UNL A   1      34.333  24.577  22.833  1.00  0.00    -0.378 OA
BRANCH  19  20
ATOM     20  C   UNL A   1      34.846  23.641  23.792  1.00  0.00     0.118 C 
ATOM     21  C   UNL A   1      36.075  22.972  23.185  1.00  0.00     0.032 C 
ATOM     22  C   UNL A   1      35.180  24.380  25.090  1.00  0.00     0.032 C 
ATOM     23  C   UNL A   1      36.994  22.239  24.141  1.00  0.00     0.003 C 
ATOM     24  C   UNL A   1      35.977  23.497  26.048  1.00  0.00     0.003 C 
ATOM     25  C   UNL A   1      37.275  23.033  25.400  1.00  0.00     0.000 C 
ENDBRANCH  19  20
ENDBRANCH  18  19
ENDBRANCH  17  18
ENDBRANCH  16  17
ENDBRANCH   6  16
ENDBRANCH   2   4
ENDBRANCH   1   2
BRANCH   1  26
ATOM     26  C   UNL A   1      31.991  31.427  26.893  1.00  0.00     0.274 C 
BRANCH  26  27
ATOM     27  C   UNL A   1      32.093  32.957  26.816  1.00  0.00     0.275 C 
BRANCH  27  28
ATOM     28  O   UNL A   1      31.951  33.602  28.102  1.00  0.00    -0.458 OA
BRANCH  28  29
ATOM     29  C   UNL A   1      32.878  34.549  28.380  1.00  0.00     0.338 C 
ATOM     30  O   UNL A   1      32.707  35.757  28.411  1.00  0.00    -0.246 OA
BRANCH  29  31
ATOM     31  C   UNL A   1      34.144  33.933  28.819  1.00  0.00     0.060 A 
ATOM     32  C   UNL A   1      34.076  32.928  29.787  1.00  0.00     0.016 A 
ATOM     33  C   UNL A   1      35.383  34.404  28.390  1.00  0.00     0.016 A 
ATOM     34  C   UNL A   1      35.230  32.381  30.333  1.00  0.00     0.010 A 
ATOM     35  C   UNL A   1      36.550  33.851  28.936  1.00  0.00     0.010 A 
ATOM     36  C   UNL A   1      36.481  32.841  29.914  1.00  0.00    -0.014 A 
BRANCH  36  37
ATOM     37  C   UNL A   1      37.704  32.289  30.543  1.00  0.00     0.031 A 
ATOM     38  C   UNL A   1      38.394  31.109  29.927  1.00  0.00     0.074 A 
ATOM     39  C   UNL A   1      38.212  32.871  31.647  1.00  0.00     0.049 A 
ATOM     40  N   UNL A   1      39.392  30.400  30.389  1.00  0.00    -0.248 NA
ATOM     41  C   UNL A   1      37.895  30.668  28.616  1.00  0.00     0.031 C 
ATOM     42  C   UNL A   1      37.673  34.065  32.297  1.00  0.00     0.029 A 
ATOM     43  N   UNL A   1      39.293  32.527  32.419  1.00  0.00    -0.354 N 
ATOM     44  C   UNL A   1      39.616  29.406  29.445  1.00  0.00     0.074 A 
ATOM     45  C   UNL A   1      38.649  29.603  28.385  1.00  0.00     0.031 C 
ATOM     46  C   UNL A   1      38.420  34.352  33.375  1.00  0.00     0.029 A 
ATOM     47  C   UNL A   1      39.449  33.327  33.525  1.00  0.00     0.049 A 
ATOM     48  H   UNL A   1      39.897  31.781  32.202  1.00  0.00     0.167 HD
ATOM     49  C   UNL A   1      40.542  28.418  29.468  1.00  0.00     0.037 A 
ATOM     50  C   UNL A   1      40.295  33.216  34.567  1.00  0.00     0.037 A 
ATOM     51  C   UNL A   1      41.516  28.245  30.514  1.00  0.00     0.049 A 
ATOM     52  C   UNL A   1      41.268  32.071  34.603  1.00  0.00     0.074 A 
ATOM     53  C   UNL A   1      42.507  27.286  30.622  1.00  0.00     0.029 A 
ATOM     54  N   UNL A   1      41.620  29.055  31.636  1.00  0.00    -0.354 N 
ATOM     55  N   UNL A   1      41.457  31.120  33.721  1.00  0.00    -0.248 NA
ATOM     56  C   UNL A   1      42.136  31.977  35.785  1.00  0.00     0.031 C 
ATOM     57  C   UNL A   1      43.180  27.487  31.831  1.00  0.00     0.029 A 
ATOM     58  C   UNL A   1      42.642  28.601  32.454  1.00  0.00     0.049 A 
ATOM     59  H   UNL A   1      41.050  29.836  31.824  1.00  0.00     0.167 HD
ATOM     60  C   UNL A   1      42.474  30.324  34.231  1.00  0.00     0.074 A 
ATOM     61  C   UNL A   1      42.874  30.915  35.492  1.00  0.00     0.031 C 
ATOM     62  C   UNL A   1      43.026  29.204  33.705  1.00  0.00     0.037 A 
BRANCH  49  63
ATOM     63  C   UNL A   1      40.515  27.420  28.348  1.00  0.00     0.057 A 
ATOM     64  C   UNL A   1      39.748  26.250  28.408  1.00  0.00     0.134 A 
ATOM     65  C   UNL A   1      41.253  27.649  27.180  1.00  0.00     0.134 A 
ATOM     66  F   UNL A   1      39.029  25.963  29.504  1.00  0.00    -0.206 F 
ATOM     67  C   UNL A   1      39.734  25.332  27.355  1.00  0.00     0.040 A 
ATOM     68  C   UNL A   1      41.229  26.752  26.111  1.00  0.00     0.040 A 
ATOM     69  F   UNL A   1      42.007  28.752  27.056  1.00  0.00    -0.206 F 
ATOM     70  C   UNL A   1      40.472  25.585  26.200  1.00  0.00     0.006 A 
ENDBRANCH  49  63
BRANCH  50  71
ATOM     71  C   UNL A   1      40.224  34.191  35.685  1.00  0.00     0.057 A 
ATOM     72  C   UNL A   1      40.963  35.379  35.662  1.00  0.00     0.134 A 
ATOM     73  C   UNL A   1      39.416  33.955  36.805  1.00  0.00     0.134 A 
ATOM     74  F   UNL A   1      41.770  35.651  34.628  1.00  0.00    -0.206 F 
ATOM     75  C   UNL A   1      40.910  36.291  36.717  1.00  0.00     0.040 A 
ATOM     76  C   UNL A   1      39.334  34.869  37.855  1.00  0.00     0.040 A 
ATOM     77  F   UNL A   1      38.683  32.835  36.887  1.00  0.00    -0.206 F 
ATOM     78  C   UNL A   1      40.089  36.040  37.815  1.00  0.00     0.006 A 
ENDBRANCH  50  71
BRANCH  62  79
ATOM     79  C   UNL A   1      44.140  28.562  34.479  1.00  0.00     0.057 A 
ATOM     80  C   UNL A   1      45.475  28.948  34.308  1.00  0.00     0.134 A 
ATOM     81  C   UNL A   1      43.868  27.571  35.430  1.00  0.00     0.134 A 
ATOM     82  F   UNL A   1      45.802  29.882  33.401  1.00  0.00    -0.206 F 
ATOM     83  C   UNL A   1      46.504  28.356  35.042  1.00  0.00     0.040 A 
ATOM     84  C   UNL A   1      44.885  26.991  36.189  1.00  0.00     0.040 A 
ATOM     85  F   UNL A   1      42.609  27.162  35.648  1.00  0.00    -0.206 F 
ATOM     86  C   UNL A   1      46.208  27.380  35.991  1.00  0.00     0.006 A 
ENDBRANCH  62  79
ENDBRANCH  36  37
ENDBRANCH  29  31
ENDBRANCH  28  29
ENDBRANCH  27  28
ENDBRANCH  26  27
ENDBRANCH   1  26
TORSDOF 17
ENDMDL
MODEL 2
REMARK VINA RESULT:     -11.0      4.789      9.745
REMARK SMILES Cn1ccnc1[C@@H]1[C@@H](C(=O)OCCOC(=O)c2ccc(-c3c4nc(c(-c5c(F)cccc5F)c5ccc([nH]5)c(-c5c(F)cccc5F)c5nc(c(-c6c(F)cccc6F)c6ccc3[nH]6)C=C5)C=C4)cc2)CC(=O)N1CCCOC1CCCCC1
REMARK SMILES IDX 11 1 9 2 10 3 8 4 7 5 74 6 71 7 72 8 73 9 6 10 1 11 2 12
REMARK SMILES IDX 3 13 4 14 5 15 75 16 76 17 77 18 78 19 79 20 80 21 84 22
REMARK SMILES IDX 81 23 83 24 82 25 12 26 13 27 14 28 15 29 16 30 17 31 18 32
REMARK SMILES IDX 70 33 19 34 69 35 20 36 21 37 22 38 63 39 23 40 68 41 62 42
REMARK SMILES IDX 64 43 24 44 67 45 61 46 60 47 25 49 51 50 34 51 50 52 35 53
REMARK SMILES IDX 38 54 49 55 65 56 36 57 37 58 48 60 66 61 39 62 26 63 27 64
REMARK SMILES IDX 32 65 28 66 29 67 31 68 33 69 30 70 52 71 53 72 58 73 54 74
REMARK SMILES IDX 55 75 57 76 59 77 56 78 40 79 41 80 46 81 42 82 43 83 45 84
REMARK SMILES IDX 47 85 44 86
REMARK H PARENT 64 48 38 59
REMARK Flexibility Score: inf
ROOT
ATOM      1  O   UNL A   1      36.750  20.188  25.056  1.00  0.00    -0.462 OA
ENDROOT
BRANCH   1   2
ATOM      2  C   UNL A   1      35.903  21.227  24.893  1.00  0.00     0.312 C 
ATOM      3  O   UNL A   1      36.019  22.111  24.050  1.00  0.00    -0.252 OA
BRANCH   2   4
ATOM      4  C   UNL A   1      34.744  21.204  25.835  1.00  0.00     0.139 C 
ATOM      5  C   UNL A   1      33.438  21.365  25.085  1.00  0.00     0.166 C 
ATOM      6  N   UNL A   1      32.497  21.748  26.132  1.00  0.00    -0.331 N 
ATOM      7  C   UNL A   1      34.683  22.215  26.953  1.00  0.00     0.118 C 
ATOM      8  C   UNL A   1      33.208  22.241  27.248  1.00  0.00     0.224 C 
ATOM      9  O   UNL A   1      32.719  22.718  28.262  1.00  0.00    -0.275 OA
BRANCH   5  10
ATOM     10  C   UNL A   1      33.122  20.130  24.271  1.00  0.00     0.132 A 
ATOM     11  C   UNL A   1      31.898  21.024  22.180  1.00  0.00     0.151 C 
ATOM     12  N   UNL A   1      32.421  20.019  23.077  1.00  0.00    -0.336 N 
ATOM     13  C   UNL A   1      32.221  18.683  22.824  1.00  0.00     0.107 A 
ATOM     14  C   UNL A   1      32.793  18.023  23.875  1.00  0.00     0.131 A 
ATOM     15  N   UNL A   1      33.339  18.914  24.757  1.00  0.00    -0.239 NA
ENDBRANCH   5  10
BRANCH   6  16
ATOM     16  C   UNL A   1      31.143  22.293  25.983  1.00  0.00     0.122 C 
BRANCH  16  17
ATOM     17  C   UNL A   1      30.827  23.588  25.247  1.00  0.00     0.050 C 
BRANCH  17  18
ATOM     18  C   UNL A   1      30.290  24.820  25.967  1.00  0.00     0.162 C 
BRANCH  18  19
ATOM     19  O   UNL A   1      31.210  25.489  26.825  1.00  0.00    -0.378 OA
BRANCH  19  20
ATOM     20  C   UNL A   1      31.719  26.728  26.312  1.00  0.00     0.118 C 
ATOM     21  C   UNL A   1      31.422  27.818  27.335  1.00  0.00     0.032 C 
ATOM     22  C   UNL A   1      33.220  26.586  26.047  1.00  0.00     0.032 C 
ATOM     23  C   UNL A   1      32.189  29.117  27.191  1.00  0.00     0.003 C 
ATOM     24  C   UNL A   1      33.868  27.939  25.759  1.00  0.00     0.003 C 
ATOM     25  C   UNL A   1      33.664  28.894  26.929  1.00  0.00     0.000 C 
ENDBRANCH  19  20
ENDBRANCH  18  19
ENDBRANCH  17  18
ENDBRANCH  16  17
ENDBRANCH   6  16
ENDBRANCH   2   4
ENDBRANCH   1   2
BRANCH   1  26
ATOM     26  C   UNL A   1      38.096  20.443  24.616  1.00  0.00     0.274 C 
BRANCH  26  27
ATOM     27  C   UNL A   1      39.084  20.433  25.790  1.00  0.00     0.275 C 
BRANCH  27  28
ATOM     28  O   UNL A   1      39.896  19.238  25.840  1.00  0.00    -0.458 OA
BRANCH  28  29
ATOM     29  C   UNL A   1      41.229  19.448  25.957  1.00  0.00     0.338 C 
ATOM     30  O   UNL A   1      42.124  18.729  25.544  1.00  0.00    -0.246 OA
BRANCH  29  31
ATOM     31  C   UNL A   1      41.505  20.780  26.526  1.00  0.00     0.060 A 
ATOM     32  C   UNL A   1      41.905  21.791  25.649  1.00  0.00     0.016 A 
ATOM     33  C   UNL A   1      41.491  21.015  27.899  1.00  0.00     0.016 A 
ATOM     34  C   UNL A   1      42.292  23.038  26.123  1.00  0.00     0.010 A 
ATOM     35  C   UNL A   1      41.877  22.274  28.381  1.00  0.00     0.010 A 
ATOM     36  C   UNL A   1      42.284  23.291  27.497  1.00  0.00    -0.014 A 
BRANCH  36  37
ATOM     37  C   UNL A   1      42.751  24.606  27.994  1.00  0.00     0.031 A 
ATOM     38  C   UNL A   1      41.753  25.667  28.352  1.00  0.00     0.074 A 
ATOM     39  C   UNL A   1      44.068  24.833  28.157  1.00  0.00     0.049 A 
ATOM     40  N   UNL A   1      41.956  26.918  28.678  1.00  0.00    -0.248 NA
ATOM     41  C   UNL A   1      40.338  25.266  28.341  1.00  0.00     0.031 C 
ATOM     42  C   UNL A   1      45.131  23.857  27.913  1.00  0.00     0.029 A 
ATOM     43  N   UNL A   1      44.736  25.962  28.561  1.00  0.00    -0.354 N 
ATOM     44  C   UNL A   1      40.695  27.465  28.874  1.00  0.00     0.074 A 
ATOM     45  C   UNL A   1      39.733  26.410  28.629  1.00  0.00     0.031 C 
ATOM     46  C   UNL A   1      46.318  24.431  28.164  1.00  0.00     0.029 A 
ATOM     47  C   UNL A   1      46.103  25.829  28.524  1.00  0.00     0.049 A 
ATOM     48  H   UNL A   1      44.280  26.786  28.848  1.00  0.00     0.167 HD
ATOM     49  C   UNL A   1      40.373  28.734  29.221  1.00  0.00     0.037 A 
ATOM     50  C   UNL A   1      47.072  26.745  28.713  1.00  0.00     0.037 A 
ATOM     51  C   UNL A   1      41.337  29.769  29.486  1.00  0.00     0.049 A 
ATOM     52  C   UNL A   1      46.688  28.163  29.030  1.00  0.00     0.074 A 
ATOM     53  C   UNL A   1      41.113  31.082  29.861  1.00  0.00     0.029 A 
ATOM     54  N   UNL A   1      42.713  29.606  29.405  1.00  0.00    -0.354 N 
ATOM     55  N   UNL A   1      45.494  28.680  29.189  1.00  0.00    -0.248 NA
ATOM     56  C   UNL A   1      47.786  29.128  29.183  1.00  0.00     0.031 C 
ATOM     57  C   UNL A   1      42.352  31.725  29.961  1.00  0.00     0.029 A 
ATOM     58  C   UNL A   1      43.350  30.801  29.697  1.00  0.00     0.049 A 
ATOM     59  H   UNL A   1      43.169  28.765  29.173  1.00  0.00     0.167 HD
ATOM     60  C   UNL A   1      45.695  30.024  29.475  1.00  0.00     0.074 A 
ATOM     61  C   UNL A   1      47.128  30.238  29.485  1.00  0.00     0.031 C 
ATOM     62  C   UNL A   1      44.777  30.994  29.704  1.00  0.00     0.037 A 
BRANCH  49  63
ATOM     63  C   UNL A   1      38.915  29.083  29.289  1.00  0.00     0.057 A 
ATOM     64  C   UNL A   1      38.179  28.992  30.476  1.00  0.00     0.134 A 
ATOM     65  C   UNL A   1      38.245  29.540  28.147  1.00  0.00     0.134 A 
ATOM     66  F   UNL A   1      38.757  28.547  31.602  1.00  0.00    -0.206 F 
ATOM     67  C   UNL A   1      36.822  29.322  30.521  1.00  0.00     0.040 A 
ATOM     68  C   UNL A   1      36.896  29.896  28.183  1.00  0.00     0.040 A 
ATOM     69  F   UNL A   1      38.892  29.653  26.977  1.00  0.00    -0.206 F 
ATOM     70  C   UNL A   1      36.179  29.781  29.373  1.00  0.00     0.006 A 
ENDBRANCH  49  63
BRANCH  50  71
ATOM     71  C   UNL A   1      48.497  26.358  28.557  1.00  0.00     0.057 A 
ATOM     72  C   UNL A   1      49.249  25.900  29.644  1.00  0.00     0.134 A 
ATOM     73  C   UNL A   1      49.142  26.442  27.316  1.00  0.00     0.134 A 
ATOM     74  F   UNL A   1      48.694  25.819  30.862  1.00  0.00    -0.206 F 
ATOM     75  C   UNL A   1      50.593  25.549  29.506  1.00  0.00     0.040 A 
ATOM     76  C   UNL A   1      50.477  26.070  27.158  1.00  0.00     0.040 A 
ATOM     77  F   UNL A   1      48.476  26.873  26.235  1.00  0.00    -0.206 F 
ATOM     78  C   UNL A   1      51.208  25.628  28.258  1.00  0.00     0.006 A 
ENDBRANCH  50  71
BRANCH  62  79
ATOM     79  C   UNL A   1      45.297  32.367  30.015  1.00  0.00     0.057 A 
ATOM     80  C   UNL A   1      45.470  33.335  29.017  1.00  0.00     0.134 A 
ATOM     81  C   UNL A   1      45.595  32.735  31.333  1.00  0.00     0.134 A 
ATOM     82  F   UNL A   1      45.216  33.039  27.733  1.00  0.00    -0.206 F 
ATOM     83  C   UNL A   1      45.941  34.613  29.317  1.00  0.00     0.040 A 
ATOM     84  C   UNL A   1      46.041  34.018  31.649  1.00  0.00     0.040 A 
ATOM     85  F   UNL A   1      45.444  31.857  32.337  1.00  0.00    -0.206 F 
ATOM     86  C   UNL A   1      46.220  34.960  30.637  1.00  0.00     0.006 A 
ENDBRANCH  62  79
ENDBRANCH  36  37
ENDBRANCH  29  31
ENDBRANCH  28  29
ENDBRANCH  27  28
ENDBRANCH  26  27
ENDBRANCH   1  26
TORSDOF 17
ENDMDL
MODEL 3
REMARK VINA RESULT:     -11.0      0.972      6.125
REMARK SMILES Cn1ccnc1[C@@H]1[C@@H](C(=O)OCCOC(=O)c2ccc(-c3c4nc(c(-c5c(F)cccc5F)c5ccc([nH]5)c(-c5c(F)cccc5F)c5nc(c(-c6c(F)cccc6F)c6ccc3[nH]6)C=C5)C=C4)cc2)CC(=O)N1CCCOC1CCCCC1
REMARK SMILES IDX 11 1 9 2 10 3 8 4 7 5 74 6 71 7 72 8 73 9 6 10 1 11 2 12
REMARK SMILES IDX 3 13 4 14 5 15 75 16 76 17 77 18 78 19 79 20 80 21 84 22
REMARK SMILES IDX 81 23 83 24 82 25 12 26 13 27 14 28 15 29 16 30 17 31 18 32
REMARK SMILES IDX 70 33 19 34 69 35 20 36 21 37 22 38 63 39 23 40 68 41 62 42
REMARK SMILES IDX 64 43 24 44 67 45 61 46 60 47 25 49 51 50 34 51 50 52 35 53
REMARK SMILES IDX 38 54 49 55 65 56 36 57 37 58 48 60 66 61 39 62 26 63 27 64
REMARK SMILES IDX 32 65 28 66 29 67 31 68 33 69 30 70 52 71 53 72 58 73 54 74
REMARK SMILES IDX 55 75 57 76 59 77 56 78 40 79 41 80 46 81 42 82 43 83 45 84
REMARK SMILES IDX 47 85 44 86
REMARK H PARENT 64 48 38 59
REMARK Flexibility Score: inf
ROOT
ATOM      1  O   UNL A   1      31.410  31.002  25.748  1.00  0.00    -0.462 OA
ENDROOT
BRANCH   1   2
ATOM      2  C   UNL A   1      31.736  29.700  25.599  1.00  0.00     0.312 C 
ATOM      3  O   UNL A   1      31.723  28.860  26.492  1.00  0.00    -0.252 OA
BRANCH   2   4
ATOM      4  C   UNL A   1      32.099  29.333  24.196  1.00  0.00     0.139 C 
ATOM      5  C   UNL A   1      31.221  28.207  23.691  1.00  0.00     0.166 C 
ATOM      6  N   UNL A   1      31.959  27.700  22.539  1.00  0.00    -0.331 N 
ATOM      7  C   UNL A   1      33.511  28.899  23.890  1.00  0.00     0.118 C 
ATOM      8  C   UNL A   1      33.308  28.106  22.628  1.00  0.00     0.224 C 
ATOM      9  O   UNL A   1      34.211  27.785  21.868  1.00  0.00    -0.275 OA
BRANCH   5  10
ATOM     10  C   UNL A   1      29.803  28.682  23.466  1.00  0.00     0.132 A 
ATOM     11  C   UNL A   1      28.345  26.585  23.854  1.00  0.00     0.151 C 
ATOM     12  N   UNL A   1      28.619  27.956  23.488  1.00  0.00    -0.336 N 
ATOM     13  C   UNL A   1      27.611  28.773  23.033  1.00  0.00     0.107 A 
ATOM     14  C   UNL A   1      28.212  29.964  22.736  1.00  0.00     0.131 A 
ATOM     15  N   UNL A   1      29.553  29.900  23.001  1.00  0.00    -0.239 NA
ENDBRANCH   5  10
BRANCH   6  16
ATOM     16  C   UNL A   1      31.746  26.450  21.800  1.00  0.00     0.122 C 
BRANCH  16  17
ATOM     17  C   UNL A   1      31.502  25.103  22.467  1.00  0.00     0.050 C 
BRANCH  17  18
ATOM     18  C   UNL A   1      32.636  24.125  22.759  1.00  0.00     0.162 C 
BRANCH  18  19
ATOM     19  O   UNL A   1      33.781  24.676  23.403  1.00  0.00    -0.378 OA
BRANCH  19  20
ATOM     20  C   UNL A   1      34.553  23.736  24.164  1.00  0.00     0.118 C 
ATOM     21  C   UNL A   1      35.599  23.128  23.237  1.00  0.00     0.032 C 
ATOM     22  C   UNL A   1      35.192  24.455  25.355  1.00  0.00     0.032 C 
ATOM     23  C   UNL A   1      36.757  22.405  23.897  1.00  0.00     0.003 C 
ATOM     24  C   UNL A   1      36.236  23.578  26.043  1.00  0.00     0.003 C 
ATOM     25  C   UNL A   1      37.333  23.178  25.066  1.00  0.00     0.000 C 
ENDBRANCH  19  20
ENDBRANCH  18  19
ENDBRANCH  17  18
ENDBRANCH  16  17
ENDBRANCH   6  16
ENDBRANCH   2   4
ENDBRANCH   1   2
BRANCH   1  26
ATOM     26  C   UNL A   1      31.840  31.585  26.991  1.00  0.00     0.274 C 
BRANCH  26  27
ATOM     27  C   UNL A   1      32.178  33.073  26.829  1.00  0.00     0.275 C 
BRANCH  27  28
ATOM     28  O   UNL A   1      32.161  33.800  28.078  1.00  0.00    -0.458 OA
BRANCH  28  29
ATOM     29  C   UNL A   1      33.257  34.555  28.325  1.00  0.00     0.338 C 
ATOM     30  O   UNL A   1      33.324  35.774  28.323  1.00  0.00    -0.246 OA
BRANCH  29  31
ATOM     31  C   UNL A   1      34.384  33.717  28.773  1.00  0.00     0.060 A 
ATOM     32  C   UNL A   1      34.117  32.717  29.711  1.00  0.00     0.016 A 
ATOM     33  C   UNL A   1      35.697  33.972  28.382  1.00  0.00     0.016 A 
ATOM     34  C   UNL A   1      35.144  31.963  30.266  1.00  0.00     0.010 A 
ATOM     35  C   UNL A   1      36.735  33.210  28.936  1.00  0.00     0.010 A 
ATOM     36  C   UNL A   1      36.466  32.205  29.885  1.00  0.00    -0.014 A 
BRANCH  36  37
ATOM     37  C   UNL A   1      37.557  31.434  30.524  1.00  0.00     0.031 A 
ATOM     38  C   UNL A   1      37.911  31.689  31.959  1.00  0.00     0.074 A 
ATOM     39  C   UNL A   1      38.204  30.481  29.827  1.00  0.00     0.049 A 
ATOM     40  N   UNL A   1      38.909  31.219  32.662  1.00  0.00    -0.248 NA
ATOM     41  C   UNL A   1      37.021  32.593  32.703  1.00  0.00     0.031 C 
ATOM     42  C   UNL A   1      37.904  30.091  28.449  1.00  0.00     0.029 A 
ATOM     43  N   UNL A   1      39.255  29.673  30.182  1.00  0.00    -0.354 N 
ATOM     44  C   UNL A   1      38.792  31.799  33.918  1.00  0.00     0.074 A 
ATOM     45  C   UNL A   1      37.626  32.657  33.881  1.00  0.00     0.031 C 
ATOM     46  C   UNL A   1      38.755  29.124  28.072  1.00  0.00     0.029 A 
ATOM     47  C   UNL A   1      39.699  28.873  29.158  1.00  0.00     0.049 A 
ATOM     48  H   UNL A   1      39.652  29.668  31.083  1.00  0.00     0.167 HD
ATOM     49  C   UNL A   1      39.590  31.632  34.999  1.00  0.00     0.037 A 
ATOM     50  C   UNL A   1      40.773  28.065  29.087  1.00  0.00     0.037 A 
ATOM     51  C   UNL A   1      40.733  30.758  35.034  1.00  0.00     0.049 A 
ATOM     52  C   UNL A   1      41.683  27.949  30.278  1.00  0.00     0.074 A 
ATOM     53  C   UNL A   1      41.597  30.507  36.086  1.00  0.00     0.029 A 
ATOM     54  N   UNL A   1      41.172  29.990  33.965  1.00  0.00    -0.354 N 
ATOM     55  N   UNL A   1      41.582  28.520  31.453  1.00  0.00    -0.248 NA
ATOM     56  C   UNL A   1      42.864  27.086  30.127  1.00  0.00     0.031 C 
ATOM     57  C   UNL A   1      42.584  29.623  35.639  1.00  0.00     0.029 A 
ATOM     58  C   UNL A   1      42.309  29.284  34.324  1.00  0.00     0.049 A 
ATOM     59  H   UNL A   1      40.739  29.953  33.081  1.00  0.00     0.167 HD
ATOM     60  C   UNL A   1      42.673  28.076  32.188  1.00  0.00     0.074 A 
ATOM     61  C   UNL A   1      43.414  27.173  31.331  1.00  0.00     0.031 C 
ATOM     62  C   UNL A   1      43.031  28.389  33.457  1.00  0.00     0.037 A 
BRANCH  49  63
ATOM     63  C   UNL A   1      39.280  32.449  36.219  1.00  0.00     0.057 A 
ATOM     64  C   UNL A   1      39.864  33.700  36.450  1.00  0.00     0.134 A 
ATOM     65  C   UNL A   1      38.361  31.980  37.167  1.00  0.00     0.134 A 
ATOM     66  F   UNL A   1      40.763  34.200  35.589  1.00  0.00    -0.206 F 
ATOM     67  C   UNL A   1      39.562  34.447  37.592  1.00  0.00     0.040 A 
ATOM     68  C   UNL A   1      38.032  32.726  38.300  1.00  0.00     0.040 A 
ATOM     69  F   UNL A   1      37.764  30.790  37.006  1.00  0.00    -0.206 F 
ATOM     70  C   UNL A   1      38.639  33.962  38.518  1.00  0.00     0.006 A 
ENDBRANCH  49  63
BRANCH  50  71
ATOM     71  C   UNL A   1      41.074  27.340  27.826  1.00  0.00     0.057 A 
ATOM     72  C   UNL A   1      40.663  26.017  27.632  1.00  0.00     0.134 A 
ATOM     73  C   UNL A   1      41.782  27.955  26.785  1.00  0.00     0.134 A 
ATOM     74  F   UNL A   1      40.001  25.368  28.599  1.00  0.00    -0.206 F 
ATOM     75  C   UNL A   1      40.956  25.327  26.454  1.00  0.00     0.040 A 
ATOM     76  C   UNL A   1      42.059  27.287  25.593  1.00  0.00     0.040 A 
ATOM     77  F   UNL A   1      42.203  29.222  26.909  1.00  0.00    -0.206 F 
ATOM     78  C   UNL A   1      41.650  25.965  25.428  1.00  0.00     0.006 A 
ENDBRANCH  50  71
BRANCH  62  79
ATOM     79  C   UNL A   1      44.263  27.727  34.002  1.00  0.00     0.057 A 
ATOM     80  C   UNL A   1      45.524  28.331  33.919  1.00  0.00     0.134 A 
ATOM     81  C   UNL A   1      44.179  26.488  34.648  1.00  0.00     0.134 A 
ATOM     82  F   UNL A   1      45.672  29.512  33.299  1.00  0.00    -0.206 F 
ATOM     83  C   UNL A   1      46.662  27.716  34.441  1.00  0.00     0.040 A 
ATOM     84  C   UNL A   1      45.305  25.875  35.197  1.00  0.00     0.040 A 
ATOM     85  F   UNL A   1      43.000  25.859  34.768  1.00  0.00    -0.206 F 
ATOM     86  C   UNL A   1      46.553  26.487  35.089  1.00  0.00     0.006 A 
ENDBRANCH  62  79
ENDBRANCH  36  37
ENDBRANCH  29  31
ENDBRANCH  28  29
ENDBRANCH  27  28
ENDBRANCH  26  27
ENDBRANCH   1  26
TORSDOF 17
ENDMDL
