MODEL 1
REMARK VINA RESULT:     -10.7      0.000      0.000
REMARK SMILES C[C@@H](NC(=O)NCCC(=O)NC1CC1)C(=O)OCCOC(=O)c1ccc(-c2c3nc(c(-c4c(F)cccc4F)c4ccc([nH]4)c(-c4c(F)cccc4F)c4nc(c(-c5c(F)cccc5F)c5ccc2[nH]5)C=C4)C=C3)cc1
REMARK SMILES IDX 17 1 15 2 16 3 2 4 1 5 3 6 4 7 5 9 6 10 7 12 8 13 9 14 10 15
REMARK SMILES IDX 11 16 12 18 13 19 14 20 18 21 19 22 20 23 21 24 22 25 23 26
REMARK SMILES IDX 24 27 76 28 25 29 75 30 26 31 27 32 28 33 69 34 29 35 74 36
REMARK SMILES IDX 68 37 70 38 30 39 73 40 67 41 66 42 31 44 57 45 40 46 56 47
REMARK SMILES IDX 41 48 44 49 55 50 71 51 42 52 43 53 54 55 72 56 45 57 32 58
REMARK SMILES IDX 33 59 38 60 34 61 35 62 37 63 39 64 36 65 58 66 59 67 64 68
REMARK SMILES IDX 60 69 61 70 63 71 65 72 62 73 46 74 47 75 52 76 48 77 49 78
REMARK SMILES IDX 51 79 53 80 50 81
REMARK H PARENT 3 8 6 11 11 17 70 43 44 54
REMARK Flexibility Score: inf
ROOT
ATOM      1  O   UNL A   1      34.544  36.362  33.751  1.00  0.00    -0.461 OA
ENDROOT
BRANCH   1   2
ATOM      2  C   UNL A   1      33.703  37.052  32.945  1.00  0.00     0.328 C 
ATOM      3  O   UNL A   1      33.683  38.274  32.871  1.00  0.00    -0.250 OA
BRANCH   2   4
ATOM      4  C   UNL A   1      32.689  36.226  32.169  1.00  0.00     0.190 C 
ATOM      5  C   UNL A   1      31.341  36.214  32.885  1.00  0.00     0.043 C 
BRANCH   4   6
ATOM      6  N   UNL A   1      32.519  36.521  30.745  1.00  0.00    -0.325 N 
ATOM      7  C   UNL A   1      32.998  35.927  29.629  1.00  0.00     0.315 C 
ATOM      8  H   UNL A   1      31.947  37.302  30.566  1.00  0.00     0.166 HD
ATOM      9  O   UNL A   1      32.404  36.110  28.568  1.00  0.00    -0.249 OA
ATOM     10  N   UNL A   1      34.260  35.454  29.620  1.00  0.00    -0.338 N 
ATOM     11  H   UNL A   1      34.927  36.035  29.186  1.00  0.00     0.165 HD
BRANCH  10  12
ATOM     12  C   UNL A   1      34.772  34.206  30.161  1.00  0.00     0.127 C 
BRANCH  12  13
ATOM     13  C   UNL A   1      34.390  32.937  29.415  1.00  0.00     0.121 C 
BRANCH  13  14
ATOM     14  C   UNL A   1      34.991  32.935  28.027  1.00  0.00     0.221 C 
ATOM     15  O   UNL A   1      34.860  33.894  27.265  1.00  0.00    -0.275 OA
ATOM     16  N   UNL A   1      35.659  31.822  27.594  1.00  0.00    -0.353 N 
ATOM     17  H   UNL A   1      36.058  31.882  26.696  1.00  0.00     0.163 HD
BRANCH  16  18
ATOM     18  C   UNL A   1      35.849  30.586  28.276  1.00  0.00     0.082 C 
ATOM     19  C   UNL A   1      35.415  29.307  27.610  1.00  0.00     0.027 C 
ATOM     20  C   UNL A   1      36.872  29.590  27.817  1.00  0.00     0.027 C 
ENDBRANCH  16  18
ENDBRANCH  13  14
ENDBRANCH  12  13
ENDBRANCH  10  12
ENDBRANCH   4   6
ENDBRANCH   2   4
ENDBRANCH   1   2
BRANCH   1  21
ATOM     21  C   UNL A   1      34.580  34.936  33.510  1.00  0.00     0.274 C 
BRANCH  21  22
ATOM     22  C   UNL A   1      35.949  34.250  33.689  1.00  0.00     0.275 C 
BRANCH  22  23
ATOM     23  O   UNL A   1      35.944  32.839  33.379  1.00  0.00    -0.458 OA
BRANCH  23  24
ATOM     24  C   UNL A   1      36.981  32.132  33.890  1.00  0.00     0.338 C 
ATOM     25  O   UNL A   1      37.194  31.921  35.080  1.00  0.00    -0.246 OA
BRANCH  24  26
ATOM     26  C   UNL A   1      37.748  31.440  32.828  1.00  0.00     0.060 A 
ATOM     27  C   UNL A   1      38.561  30.370  33.231  1.00  0.00     0.016 A 
ATOM     28  C   UNL A   1      37.747  31.852  31.494  1.00  0.00     0.016 A 
ATOM     29  C   UNL A   1      39.385  29.718  32.321  1.00  0.00     0.010 A 
ATOM     30  C   UNL A   1      38.615  31.226  30.584  1.00  0.00     0.010 A 
ATOM     31  C   UNL A   1      39.458  30.179  31.004  1.00  0.00    -0.014 A 
BRANCH  31  32
ATOM     32  C   UNL A   1      40.586  29.702  30.169  1.00  0.00     0.031 A 
ATOM     33  C   UNL A   1      41.759  30.623  29.970  1.00  0.00     0.074 A 
ATOM     34  C   UNL A   1      40.629  28.444  29.696  1.00  0.00     0.049 A 
ATOM     35  N   UNL A   1      42.864  30.434  29.294  1.00  0.00    -0.248 NA
ATOM     36  C   UNL A   1      41.681  31.932  30.642  1.00  0.00     0.031 C 
ATOM     37  C   UNL A   1      39.600  27.427  29.899  1.00  0.00     0.029 A 
ATOM     38  N   UNL A   1      41.594  27.806  28.955  1.00  0.00    -0.354 N 
ATOM     39  C   UNL A   1      43.608  31.594  29.460  1.00  0.00     0.074 A 
ATOM     40  C   UNL A   1      42.827  32.491  30.282  1.00  0.00     0.031 C 
ATOM     41  C   UNL A   1      39.981  26.294  29.283  1.00  0.00     0.029 A 
ATOM     42  C   UNL A   1      41.266  26.515  28.622  1.00  0.00     0.049 A 
ATOM     43  H   UNL A   1      42.439  28.235  28.687  1.00  0.00     0.167 HD
ATOM     44  C   UNL A   1      44.840  31.886  28.978  1.00  0.00     0.037 A 
ATOM     45  C   UNL A   1      41.921  25.626  27.850  1.00  0.00     0.037 A 
ATOM     46  C   UNL A   1      45.614  31.003  28.149  1.00  0.00     0.049 A 
ATOM     47  C   UNL A   1      43.249  26.008  27.246  1.00  0.00     0.074 A 
ATOM     48  C   UNL A   1      46.848  31.226  27.564  1.00  0.00     0.029 A 
ATOM     49  N   UNL A   1      45.224  29.723  27.787  1.00  0.00    -0.354 N 
ATOM     50  N   UNL A   1      43.929  27.121  27.379  1.00  0.00    -0.248 NA
ATOM     51  C   UNL A   1      43.899  25.009  26.384  1.00  0.00     0.031 C 
ATOM     52  C   UNL A   1      47.192  30.089  26.823  1.00  0.00     0.029 A 
ATOM     53  C   UNL A   1      46.190  29.146  26.981  1.00  0.00     0.049 A 
ATOM     54  H   UNL A   1      44.384  29.288  28.065  1.00  0.00     0.167 HD
ATOM     55  C   UNL A   1      45.092  26.949  26.636  1.00  0.00     0.074 A 
ATOM     56  C   UNL A   1      45.034  25.617  26.072  1.00  0.00     0.031 C 
ATOM     57  C   UNL A   1      46.115  27.815  26.436  1.00  0.00     0.037 A 
BRANCH  44  58
ATOM     58  C   UNL A   1      45.401  33.234  29.313  1.00  0.00     0.057 A 
ATOM     59  C   UNL A   1      45.139  34.359  28.519  1.00  0.00     0.134 A 
ATOM     60  C   UNL A   1      46.208  33.412  30.443  1.00  0.00     0.134 A 
ATOM     61  F   UNL A   1      44.392  34.249  27.411  1.00  0.00    -0.206 F 
ATOM     62  C   UNL A   1      45.676  35.609  28.830  1.00  0.00     0.040 A 
ATOM     63  C   UNL A   1      46.732  34.661  30.776  1.00  0.00     0.040 A 
ATOM     64  F   UNL A   1      46.498  32.374  31.242  1.00  0.00    -0.206 F 
ATOM     65  C   UNL A   1      46.471  35.763  29.965  1.00  0.00     0.006 A 
ENDBRANCH  44  58
BRANCH  45  66
ATOM     66  C   UNL A   1      41.322  24.298  27.565  1.00  0.00     0.057 A 
ATOM     67  C   UNL A   1      40.286  24.145  26.636  1.00  0.00     0.134 A 
ATOM     68  C   UNL A   1      41.743  23.153  28.253  1.00  0.00     0.134 A 
ATOM     69  F   UNL A   1      39.818  25.209  25.966  1.00  0.00    -0.206 F 
ATOM     70  C   UNL A   1      39.679  22.907  26.414  1.00  0.00     0.040 A 
ATOM     71  C   UNL A   1      41.163  21.905  28.023  1.00  0.00     0.040 A 
ATOM     72  F   UNL A   1      42.727  23.232  29.161  1.00  0.00    -0.206 F 
ATOM     73  C   UNL A   1      40.120  21.781  27.107  1.00  0.00     0.006 A 
ENDBRANCH  45  66
BRANCH  57  74
ATOM     74  C   UNL A   1      47.264  27.336  25.598  1.00  0.00     0.057 A 
ATOM     75  C   UNL A   1      48.326  26.608  26.149  1.00  0.00     0.134 A 
ATOM     76  C   UNL A   1      47.292  27.581  24.220  1.00  0.00     0.134 A 
ATOM     77  F   UNL A   1      48.364  26.351  27.465  1.00  0.00    -0.206 F 
ATOM     78  C   UNL A   1      49.387  26.161  25.361  1.00  0.00     0.040 A 
ATOM     79  C   UNL A   1      48.336  27.119  23.419  1.00  0.00     0.040 A 
ATOM     80  F   UNL A   1      46.299  28.265  23.630  1.00  0.00    -0.206 F 
ATOM     81  C   UNL A   1      49.391  26.412  23.990  1.00  0.00     0.006 A 
ENDBRANCH  57  74
ENDBRANCH  31  32
ENDBRANCH  24  26
ENDBRANCH  23  24
ENDBRANCH  22  23
ENDBRANCH  21  22
ENDBRANCH   1  21
TORSDOF 16
ENDMDL
MODEL 2
REMARK VINA RESULT:     -10.3      6.086     12.896
REMARK SMILES C[C@@H](NC(=O)NCCC(=O)NC1CC1)C(=O)OCCOC(=O)c1ccc(-c2c3nc(c(-c4c(F)cccc4F)c4ccc([nH]4)c(-c4c(F)cccc4F)c4nc(c(-c5c(F)cccc5F)c5ccc2[nH]5)C=C4)C=C3)cc1
REMARK SMILES IDX 17 1 15 2 16 3 2 4 1 5 3 6 4 7 5 9 6 10 7 12 8 13 9 14 10 15
REMARK SMILES IDX 11 16 12 18 13 19 14 20 18 21 19 22 20 23 21 24 22 25 23 26
REMARK SMILES IDX 24 27 76 28 25 29 75 30 26 31 27 32 28 33 69 34 29 35 74 36
REMARK SMILES IDX 68 37 70 38 30 39 73 40 67 41 66 42 31 44 57 45 40 46 56 47
REMARK SMILES IDX 41 48 44 49 55 50 71 51 42 52 43 53 54 55 72 56 45 57 32 58
REMARK SMILES IDX 33 59 38 60 34 61 35 62 37 63 39 64 36 65 58 66 59 67 64 68
REMARK SMILES IDX 60 69 61 70 63 71 65 72 62 73 46 74 47 75 52 76 48 77 49 78
REMARK SMILES IDX 51 79 53 80 50 81
REMARK H PARENT 3 8 6 11 11 17 70 43 44 54
REMARK Flexibility Score: inf
ROOT
ATOM      1  O   UNL A   1      42.186  21.173  25.711  1.00  0.00    -0.461 OA
ENDROOT
BRANCH   1   2
ATOM      2  C   UNL A   1      42.111  19.822  25.771  1.00  0.00     0.328 C 
ATOM      3  O   UNL A   1      41.059  19.204  25.865  1.00  0.00    -0.250 OA
BRANCH   2   4
ATOM      4  C   UNL A   1      43.437  19.078  25.805  1.00  0.00     0.190 C 
ATOM      5  C   UNL A   1      43.355  17.872  26.738  1.00  0.00     0.043 C 
BRANCH   4   6
ATOM      6  N   UNL A   1      44.039  18.704  24.524  1.00  0.00    -0.325 N 
ATOM      7  C   UNL A   1      45.116  19.173  23.854  1.00  0.00     0.315 C 
ATOM      8  H   UNL A   1      43.570  17.973  24.061  1.00  0.00     0.166 HD
ATOM      9  O   UNL A   1      45.643  18.446  23.013  1.00  0.00    -0.249 OA
ATOM     10  N   UNL A   1      45.374  20.495  23.857  1.00  0.00    -0.338 N 
ATOM     11  H   UNL A   1      45.087  20.984  23.051  1.00  0.00     0.165 HD
BRANCH  10  12
ATOM     12  C   UNL A   1      46.018  21.299  24.882  1.00  0.00     0.127 C 
BRANCH  12  13
ATOM     13  C   UNL A   1      46.195  22.777  24.573  1.00  0.00     0.121 C 
BRANCH  13  14
ATOM     14  C   UNL A   1      44.851  23.444  24.377  1.00  0.00     0.221 C 
ATOM     15  O   UNL A   1      43.941  22.893  23.756  1.00  0.00    -0.275 OA
ATOM     16  N   UNL A   1      44.661  24.708  24.864  1.00  0.00    -0.353 N 
ATOM     17  H   UNL A   1      43.760  25.086  24.739  1.00  0.00     0.163 HD
BRANCH  16  18
ATOM     18  C   UNL A   1      45.599  25.549  25.529  1.00  0.00     0.082 C 
ATOM     19  C   UNL A   1      45.677  27.004  25.148  1.00  0.00     0.027 C 
ATOM     20  C   UNL A   1      45.153  26.606  26.495  1.00  0.00     0.027 C 
ENDBRANCH  16  18
ENDBRANCH  13  14
ENDBRANCH  12  13
ENDBRANCH  10  12
ENDBRANCH   4   6
ENDBRANCH   2   4
ENDBRANCH   1   2
BRANCH   1  21
ATOM     21  C   UNL A   1      42.648  21.808  26.925  1.00  0.00     0.274 C 
BRANCH  21  22
ATOM     22  C   UNL A   1      41.585  22.570  27.742  1.00  0.00     0.275 C 
BRANCH  22  23
ATOM     23  O   UNL A   1      40.743  23.435  26.949  1.00  0.00    -0.458 OA
BRANCH  23  24
ATOM     24  C   UNL A   1      41.299  24.618  26.597  1.00  0.00     0.338 C 
ATOM     25  O   UNL A   1      41.952  24.836  25.580  1.00  0.00    -0.246 OA
BRANCH  24  26
ATOM     26  C   UNL A   1      40.858  25.718  27.486  1.00  0.00     0.060 A 
ATOM     27  C   UNL A   1      41.642  26.881  27.491  1.00  0.00     0.016 A 
ATOM     28  C   UNL A   1      39.765  25.610  28.348  1.00  0.00     0.016 A 
ATOM     29  C   UNL A   1      41.358  27.930  28.358  1.00  0.00     0.010 A 
ATOM     30  C   UNL A   1      39.505  26.649  29.258  1.00  0.00     0.010 A 
ATOM     31  C   UNL A   1      40.321  27.796  29.285  1.00  0.00    -0.014 A 
BRANCH  31  32
ATOM     32  C   UNL A   1      40.273  28.762  30.409  1.00  0.00     0.031 A 
ATOM     33  C   UNL A   1      39.258  29.871  30.348  1.00  0.00     0.074 A 
ATOM     34  C   UNL A   1      41.024  28.596  31.512  1.00  0.00     0.049 A 
ATOM     35  N   UNL A   1      39.016  30.829  31.206  1.00  0.00    -0.248 NA
ATOM     36  C   UNL A   1      38.384  29.889  29.162  1.00  0.00     0.031 C 
ATOM     37  C   UNL A   1      41.977  27.511  31.732  1.00  0.00     0.029 A 
ATOM     38  N   UNL A   1      41.089  29.343  32.663  1.00  0.00    -0.354 N 
ATOM     39  C   UNL A   1      37.965  31.559  30.665  1.00  0.00     0.074 A 
ATOM     40  C   UNL A   1      37.628  30.951  29.397  1.00  0.00     0.031 C 
ATOM     41  C   UNL A   1      42.544  27.669  32.941  1.00  0.00     0.029 A 
ATOM     42  C   UNL A   1      42.014  28.880  33.566  1.00  0.00     0.049 A 
ATOM     43  H   UNL A   1      40.526  30.134  32.824  1.00  0.00     0.167 HD
ATOM     44  C   UNL A   1      37.330  32.639  31.181  1.00  0.00     0.037 A 
ATOM     45  C   UNL A   1      42.402  29.394  34.750  1.00  0.00     0.037 A 
ATOM     46  C   UNL A   1      37.672  33.255  32.434  1.00  0.00     0.049 A 
ATOM     47  C   UNL A   1      41.746  30.651  35.261  1.00  0.00     0.074 A 
ATOM     48  C   UNL A   1      37.128  34.384  33.019  1.00  0.00     0.029 A 
ATOM     49  N   UNL A   1      38.654  32.790  33.296  1.00  0.00    -0.354 N 
ATOM     50  N   UNL A   1      40.778  31.357  34.726  1.00  0.00    -0.248 NA
ATOM     51  C   UNL A   1      42.237  31.184  36.541  1.00  0.00     0.031 C 
ATOM     52  C   UNL A   1      37.800  34.619  34.224  1.00  0.00     0.029 A 
ATOM     53  C   UNL A   1      38.735  33.613  34.406  1.00  0.00     0.049 A 
ATOM     54  H   UNL A   1      39.209  31.991  33.142  1.00  0.00     0.167 HD
ATOM     55  C   UNL A   1      40.532  32.401  35.611  1.00  0.00     0.074 A 
ATOM     56  C   UNL A   1      41.438  32.225  36.726  1.00  0.00     0.031 C 
ATOM     57  C   UNL A   1      39.639  33.415  35.509  1.00  0.00     0.037 A 
BRANCH  44  58
ATOM     58  C   UNL A   1      36.225  33.235  30.364  1.00  0.00     0.057 A 
ATOM     59  C   UNL A   1      36.487  34.020  29.233  1.00  0.00     0.134 A 
ATOM     60  C   UNL A   1      34.886  33.020  30.708  1.00  0.00     0.134 A 
ATOM     61  F   UNL A   1      37.750  34.282  28.865  1.00  0.00    -0.206 F 
ATOM     62  C   UNL A   1      35.453  34.583  28.484  1.00  0.00     0.040 A 
ATOM     63  C   UNL A   1      33.843  33.559  29.954  1.00  0.00     0.040 A 
ATOM     64  F   UNL A   1      34.569  32.279  31.782  1.00  0.00    -0.206 F 
ATOM     65  C   UNL A   1      34.125  34.348  28.842  1.00  0.00     0.006 A 
ENDBRANCH  44  58
BRANCH  45  66
ATOM     66  C   UNL A   1      43.493  28.750  35.523  1.00  0.00     0.057 A 
ATOM     67  C   UNL A   1      43.230  27.771  36.488  1.00  0.00     0.134 A 
ATOM     68  C   UNL A   1      44.828  29.134  35.345  1.00  0.00     0.134 A 
ATOM     69  F   UNL A   1      41.968  27.382  36.727  1.00  0.00    -0.206 F 
ATOM     70  C   UNL A   1      44.250  27.212  37.261  1.00  0.00     0.040 A 
ATOM     71  C   UNL A   1      45.861  28.565  36.092  1.00  0.00     0.040 A 
ATOM     72  F   UNL A   1      45.148  30.071  34.440  1.00  0.00    -0.206 F 
ATOM     73  C   UNL A   1      45.571  27.607  37.060  1.00  0.00     0.006 A 
ENDBRANCH  45  66
BRANCH  57  74
ATOM     74  C   UNL A   1      39.580  34.392  36.646  1.00  0.00     0.057 A 
ATOM     75  C   UNL A   1      38.867  34.116  37.819  1.00  0.00     0.134 A 
ATOM     76  C   UNL A   1      40.270  35.608  36.577  1.00  0.00     0.134 A 
ATOM     77  F   UNL A   1      38.176  32.974  37.942  1.00  0.00    -0.206 F 
ATOM     78  C   UNL A   1      38.823  35.028  38.875  1.00  0.00     0.040 A 
ATOM     79  C   UNL A   1      40.252  36.518  37.635  1.00  0.00     0.040 A 
ATOM     80  F   UNL A   1      40.980  35.928  35.484  1.00  0.00    -0.206 F 
ATOM     81  C   UNL A   1      39.522  36.231  38.786  1.00  0.00     0.006 A 
ENDBRANCH  57  74
ENDBRANCH  31  32
ENDBRANCH  24  26
ENDBRANCH  23  24
ENDBRANCH  22  23
ENDBRANCH  21  22
ENDBRANCH   1  21
TORSDOF 16
ENDMDL
MODEL 3
REMARK VINA RESULT:     -10.1      4.981      8.077
REMARK SMILES C[C@@H](NC(=O)NCCC(=O)NC1CC1)C(=O)OCCOC(=O)c1ccc(-c2c3nc(c(-c4c(F)cccc4F)c4ccc([nH]4)c(-c4c(F)cccc4F)c4nc(c(-c5c(F)cccc5F)c5ccc2[nH]5)C=C4)C=C3)cc1
REMARK SMILES IDX 17 1 15 2 16 3 2 4 1 5 3 6 4 7 5 9 6 10 7 12 8 13 9 14 10 15
REMARK SMILES IDX 11 16 12 18 13 19 14 20 18 21 19 22 20 23 21 24 22 25 23 26
REMARK SMILES IDX 24 27 76 28 25 29 75 30 26 31 27 32 28 33 69 34 29 35 74 36
REMARK SMILES IDX 68 37 70 38 30 39 73 40 67 41 66 42 31 44 57 45 40 46 56 47
REMARK SMILES IDX 41 48 44 49 55 50 71 51 42 52 43 53 54 55 72 56 45 57 32 58
REMARK SMILES IDX 33 59 38 60 34 61 35 62 37 63 39 64 36 65 58 66 59 67 64 68
REMARK SMILES IDX 60 69 61 70 63 71 65 72 62 73 46 74 47 75 52 76 48 77 49 78
REMARK SMILES IDX 51 79 53 80 50 81
REMARK H PARENT 3 8 6 11 11 17 70 43 44 54
REMARK Flexibility Score: inf
ROOT
ATOM      1  O   UNL A   1      31.955  30.715  25.794  1.00  0.00    -0.461 OA
ENDROOT
BRANCH   1   2
ATOM      2  C   UNL A   1      31.903  29.495  26.378  1.00  0.00     0.328 C 
ATOM      3  O   UNL A   1      31.748  29.323  27.580  1.00  0.00    -0.250 OA
BRANCH   2   4
ATOM      4  C   UNL A   1      32.138  28.303  25.463  1.00  0.00     0.190 C 
ATOM      5  C   UNL A   1      33.628  28.124  25.181  1.00  0.00     0.043 C 
BRANCH   4   6
ATOM      6  N   UNL A   1      31.523  27.028  25.836  1.00  0.00    -0.325 N 
ATOM      7  C   UNL A   1      30.649  26.218  25.198  1.00  0.00     0.315 C 
ATOM      8  H   UNL A   1      31.798  26.697  26.722  1.00  0.00     0.166 HD
ATOM      9  O   UNL A   1      30.594  25.036  25.534  1.00  0.00    -0.249 OA
ATOM     10  N   UNL A   1      29.645  26.760  24.482  1.00  0.00    -0.338 N 
ATOM     11  H   UNL A   1      28.769  26.785  24.932  1.00  0.00     0.165 HD
BRANCH  10  12
ATOM     12  C   UNL A   1      29.675  27.314  23.139  1.00  0.00     0.127 C 
BRANCH  12  13
ATOM     13  C   UNL A   1      29.411  28.806  23.014  1.00  0.00     0.121 C 
BRANCH  13  14
ATOM     14  C   UNL A   1      27.942  29.067  22.761  1.00  0.00     0.221 C 
ATOM     15  O   UNL A   1      27.068  28.314  23.193  1.00  0.00    -0.275 OA
ATOM     16  N   UNL A   1      27.582  30.144  21.997  1.00  0.00    -0.353 N 
ATOM     17  H   UNL A   1      26.614  30.288  21.888  1.00  0.00     0.163 HD
BRANCH  16  18
ATOM     18  C   UNL A   1      28.428  31.082  21.338  1.00  0.00     0.082 C 
ATOM     19  C   UNL A   1      27.818  32.318  20.731  1.00  0.00     0.027 C 
ATOM     20  C   UNL A   1      28.710  32.430  21.930  1.00  0.00     0.027 C 
ENDBRANCH  16  18
ENDBRANCH  13  14
ENDBRANCH  12  13
ENDBRANCH  10  12
ENDBRANCH   4   6
ENDBRANCH   2   4
ENDBRANCH   1   2
BRANCH   1  21
ATOM     21  C   UNL A   1      31.227  31.752  26.492  1.00  0.00     0.274 C 
BRANCH  21  22
ATOM     22  C   UNL A   1      31.978  33.080  26.715  1.00  0.00     0.275 C 
BRANCH  22  23
ATOM     23  O   UNL A   1      32.220  33.392  28.104  1.00  0.00    -0.458 OA
BRANCH  23  24
ATOM     24  C   UNL A   1      33.269  34.217  28.336  1.00  0.00     0.338 C 
ATOM     25  O   UNL A   1      33.206  35.427  28.538  1.00  0.00    -0.246 OA
BRANCH  24  26
ATOM     26  C   UNL A   1      34.528  33.462  28.533  1.00  0.00     0.060 A 
ATOM     27  C   UNL A   1      34.408  32.145  29.003  1.00  0.00     0.016 A 
ATOM     28  C   UNL A   1      35.792  34.023  28.344  1.00  0.00     0.016 A 
ATOM     29  C   UNL A   1      35.535  31.389  29.301  1.00  0.00     0.010 A 
ATOM     30  C   UNL A   1      36.931  33.277  28.691  1.00  0.00     0.010 A 
ATOM     31  C   UNL A   1      36.802  31.970  29.200  1.00  0.00    -0.014 A 
BRANCH  31  32
ATOM     32  C   UNL A   1      37.935  31.272  29.854  1.00  0.00     0.031 A 
ATOM     33  C   UNL A   1      38.191  31.546  31.311  1.00  0.00     0.074 A 
ATOM     34  C   UNL A   1      38.646  30.329  29.210  1.00  0.00     0.049 A 
ATOM     35  N   UNL A   1      39.109  31.055  32.104  1.00  0.00    -0.248 NA
ATOM     36  C   UNL A   1      37.271  32.491  31.967  1.00  0.00     0.031 C 
ATOM     37  C   UNL A   1      38.436  29.906  27.828  1.00  0.00     0.029 A 
ATOM     38  N   UNL A   1      39.686  29.547  29.650  1.00  0.00    -0.354 N 
ATOM     39  C   UNL A   1      38.877  31.629  33.347  1.00  0.00     0.074 A 
ATOM     40  C   UNL A   1      37.747  32.520  33.203  1.00  0.00     0.031 C 
ATOM     41  C   UNL A   1      39.331  28.949  27.526  1.00  0.00     0.029 A 
ATOM     42  C   UNL A   1      40.192  28.713  28.683  1.00  0.00     0.049 A 
ATOM     43  H   UNL A   1      40.036  29.582  30.569  1.00  0.00     0.167 HD
ATOM     44  C   UNL A   1      39.541  31.428  34.510  1.00  0.00     0.037 A 
ATOM     45  C   UNL A   1      41.245  27.874  28.727  1.00  0.00     0.037 A 
ATOM     46  C   UNL A   1      40.673  30.554  34.654  1.00  0.00     0.049 A 
ATOM     47  C   UNL A   1      42.028  27.737  30.008  1.00  0.00     0.074 A 
ATOM     48  C   UNL A   1      41.450  30.322  35.775  1.00  0.00     0.029 A 
ATOM     49  N   UNL A   1      41.191  29.766  33.637  1.00  0.00    -0.354 N 
ATOM     50  N   UNL A   1      41.825  28.311  31.169  1.00  0.00    -0.248 NA
ATOM     51  C   UNL A   1      43.189  26.833  29.983  1.00  0.00     0.031 C 
ATOM     52  C   UNL A   1      42.457  29.415  35.428  1.00  0.00     0.029 A 
ATOM     53  C   UNL A   1      42.282  29.052  34.103  1.00  0.00     0.049 A 
ATOM     54  H   UNL A   1      40.834  29.721  32.720  1.00  0.00     0.167 HD
ATOM     55  C   UNL A   1      42.816  27.825  32.015  1.00  0.00     0.074 A 
ATOM     56  C   UNL A   1      43.608  26.895  31.239  1.00  0.00     0.031 C 
ATOM     57  C   UNL A   1      43.051  28.124  33.315  1.00  0.00     0.037 A 
BRANCH  44  58
ATOM     58  C   UNL A   1      39.072  32.200  35.706  1.00  0.00     0.057 A 
ATOM     59  C   UNL A   1      38.212  31.634  36.656  1.00  0.00     0.134 A 
ATOM     60  C   UNL A   1      39.488  33.520  35.912  1.00  0.00     0.134 A 
ATOM     61  F   UNL A   1      37.760  30.380  36.503  1.00  0.00    -0.206 F 
ATOM     62  C   UNL A   1      37.769  32.363  37.761  1.00  0.00     0.040 A 
ATOM     63  C   UNL A   1      39.070  34.251  37.024  1.00  0.00     0.040 A 
ATOM     64  F   UNL A   1      40.310  34.120  35.037  1.00  0.00    -0.206 F 
ATOM     65  C   UNL A   1      38.203  33.674  37.950  1.00  0.00     0.006 A 
ENDBRANCH  44  58
BRANCH  45  66
ATOM     66  C   UNL A   1      41.655  27.123  27.513  1.00  0.00     0.057 A 
ATOM     67  C   UNL A   1      41.258  25.797  27.302  1.00  0.00     0.134 A 
ATOM     68  C   UNL A   1      42.495  27.703  26.555  1.00  0.00     0.134 A 
ATOM     69  F   UNL A   1      40.478  25.175  28.199  1.00  0.00    -0.206 F 
ATOM     70  C   UNL A   1      41.695  25.070  26.192  1.00  0.00     0.040 A 
ATOM     71  C   UNL A   1      42.919  26.998  25.428  1.00  0.00     0.040 A 
ATOM     72  F   UNL A   1      42.916  28.968  26.700  1.00  0.00    -0.206 F 
ATOM     73  C   UNL A   1      42.526  25.673  25.250  1.00  0.00     0.006 A 
ENDBRANCH  45  66
BRANCH  57  74
ATOM     74  C   UNL A   1      44.191  27.416  33.986  1.00  0.00     0.057 A 
ATOM     75  C   UNL A   1      44.026  26.167  34.598  1.00  0.00     0.134 A 
ATOM     76  C   UNL A   1      45.474  27.975  33.990  1.00  0.00     0.134 A 
ATOM     77  F   UNL A   1      42.819  25.584  34.638  1.00  0.00    -0.206 F 
ATOM     78  C   UNL A   1      45.093  25.512  35.213  1.00  0.00     0.040 A 
ATOM     79  C   UNL A   1      46.554  27.319  34.582  1.00  0.00     0.040 A 
ATOM     80  F   UNL A   1      45.701  29.165  33.411  1.00  0.00    -0.206 F 
ATOM     81  C   UNL A   1      46.363  26.085  35.201  1.00  0.00     0.006 A 
ENDBRANCH  57  74
ENDBRANCH  31  32
ENDBRANCH  24  26
ENDBRANCH  23  24
ENDBRANCH  22  23
ENDBRANCH  21  22
ENDBRANCH   1  21
TORSDOF 16
ENDMDL
