MODEL 1
REMARK VINA RESULT:      -9.9      0.000      0.000
REMARK SMILES O=C(OCCOC(=O)C1(O)CCC(F)(F)CC1)c1ccc(-c2c3nc(c(-c4c(F)cccc4F)c4ccc([nH]4)c(-c4c(F)cccc4F)c4nc(c(-c5c(F)cccc5F)c5ccc2[nH]5)C=C4)C=C3)cc1
REMARK SMILES IDX 4 1 3 2 2 3 1 4 18 5 19 6 71 7 20 8 70 9 21 10 22 11 23 12
REMARK SMILES IDX 64 13 24 14 69 15 63 16 65 17 25 18 68 19 62 20 61 21 26 23
REMARK SMILES IDX 52 24 35 25 51 26 36 27 39 28 50 29 66 30 37 31 38 32 49 34
REMARK SMILES IDX 67 35 40 36 27 37 28 38 33 39 29 40 30 41 32 42 34 43 31 44
REMARK SMILES IDX 53 45 54 46 59 47 55 48 56 49 58 50 60 51 57 52 41 53 42 54
REMARK SMILES IDX 47 55 43 56 44 57 46 58 48 59 45 60 5 61 6 62 7 63 8 64 9 65
REMARK SMILES IDX 11 66 17 67 12 68 16 69 13 70 14 71 15 72 10 73
REMARK H PARENT 65 22 39 33 10 74
REMARK Flexibility Score: inf
ROOT
ATOM      1  C   UNL A   1      33.741  34.124  28.042  1.00  0.00     0.275 C 
ENDROOT
BRANCH   1   2
ATOM      2  O   UNL A   1      33.715  32.732  28.418  1.00  0.00    -0.458 OA
BRANCH   2   3
ATOM      3  C   UNL A   1      34.309  31.643  27.876  1.00  0.00     0.338 C 
ATOM      4  O   UNL A   1      33.689  31.009  27.022  1.00  0.00    -0.246 OA
BRANCH   3   5
ATOM      5  C   UNL A   1      35.589  31.035  28.371  1.00  0.00     0.060 A 
ATOM      6  C   UNL A   1      35.779  29.716  28.781  1.00  0.00     0.016 A 
ATOM      7  C   UNL A   1      36.715  31.893  28.412  1.00  0.00     0.016 A 
ATOM      8  C   UNL A   1      37.063  29.245  29.117  1.00  0.00     0.010 A 
ATOM      9  C   UNL A   1      37.998  31.430  28.760  1.00  0.00     0.010 A 
ATOM     10  C   UNL A   1      38.190  30.087  29.087  1.00  0.00    -0.014 A 
BRANCH  10  11
ATOM     11  C   UNL A   1      39.499  29.552  29.559  1.00  0.00     0.031 A 
ATOM     12  C   UNL A   1      39.970  29.967  30.912  1.00  0.00     0.074 A 
ATOM     13  C   UNL A   1      40.234  28.664  28.858  1.00  0.00     0.049 A 
ATOM     14  N   UNL A   1      40.992  29.533  31.596  1.00  0.00    -0.248 NA
ATOM     15  C   UNL A   1      39.210  31.049  31.553  1.00  0.00     0.031 C 
ATOM     16  C   UNL A   1      39.977  28.285  27.485  1.00  0.00     0.029 A 
ATOM     17  N   UNL A   1      41.309  27.878  29.204  1.00  0.00    -0.354 N 
ATOM     18  C   UNL A   1      41.024  30.314  32.736  1.00  0.00     0.074 A 
ATOM     19  C   UNL A   1      39.902  31.227  32.665  1.00  0.00     0.031 C 
ATOM     20  C   UNL A   1      40.717  27.216  27.155  1.00  0.00     0.029 A 
ATOM     21  C   UNL A   1      41.620  26.919  28.257  1.00  0.00     0.049 A 
ATOM     22  H   UNL A   1      41.810  27.987  30.044  1.00  0.00     0.167 HD
ATOM     23  C   UNL A   1      41.940  30.306  33.729  1.00  0.00     0.037 A 
ATOM     24  C   UNL A   1      42.545  25.935  28.265  1.00  0.00     0.037 A 
ATOM     25  C   UNL A   1      43.104  29.463  33.746  1.00  0.00     0.049 A 
ATOM     26  C   UNL A   1      43.526  25.916  29.404  1.00  0.00     0.074 A 
ATOM     27  C   UNL A   1      44.134  29.434  34.667  1.00  0.00     0.029 A 
ATOM     28  N   UNL A   1      43.404  28.516  32.775  1.00  0.00    -0.354 N 
ATOM     29  N   UNL A   1      43.542  26.655  30.488  1.00  0.00    -0.248 NA
ATOM     30  C   UNL A   1      44.663  24.991  29.291  1.00  0.00     0.031 C 
ATOM     31  C   UNL A   1      45.079  28.499  34.232  1.00  0.00     0.029 A 
ATOM     32  C   UNL A   1      44.611  27.905  33.070  1.00  0.00     0.049 A 
ATOM     33  H   UNL A   1      42.843  28.311  31.994  1.00  0.00     0.167 HD
ATOM     34  C   UNL A   1      44.704  26.314  31.163  1.00  0.00     0.074 A 
ATOM     35  C   UNL A   1      45.336  25.256  30.402  1.00  0.00     0.031 C 
ATOM     36  C   UNL A   1      45.221  26.856  32.292  1.00  0.00     0.037 A 
BRANCH  23  37
ATOM     37  C   UNL A   1      41.744  31.334  34.797  1.00  0.00     0.057 A 
ATOM     38  C   UNL A   1      40.862  31.128  35.866  1.00  0.00     0.134 A 
ATOM     39  C   UNL A   1      42.355  32.588  34.688  1.00  0.00     0.134 A 
ATOM     40  F   UNL A   1      40.211  29.961  35.996  1.00  0.00    -0.206 F 
ATOM     41  C   UNL A   1      40.564  32.150  36.768  1.00  0.00     0.040 A 
ATOM     42  C   UNL A   1      42.085  33.609  35.598  1.00  0.00     0.040 A 
ATOM     43  F   UNL A   1      43.192  32.853  33.674  1.00  0.00    -0.206 F 
ATOM     44  C   UNL A   1      41.176  33.395  36.633  1.00  0.00     0.006 A 
ENDBRANCH  23  37
BRANCH  24  45
ATOM     45  C   UNL A   1      42.656  24.939  27.157  1.00  0.00     0.057 A 
ATOM     46  C   UNL A   1      41.981  23.710  27.218  1.00  0.00     0.134 A 
ATOM     47  C   UNL A   1      43.471  25.152  26.037  1.00  0.00     0.134 A 
ATOM     48  F   UNL A   1      41.215  23.412  28.279  1.00  0.00    -0.206 F 
ATOM     49  C   UNL A   1      42.121  22.736  26.222  1.00  0.00     0.040 A 
ATOM     50  C   UNL A   1      43.589  24.205  25.015  1.00  0.00     0.040 A 
ATOM     51  F   UNL A   1      44.174  26.288  25.916  1.00  0.00    -0.206 F 
ATOM     52  C   UNL A   1      42.920  22.988  25.110  1.00  0.00     0.006 A 
ENDBRANCH  24  45
BRANCH  36  53
ATOM     53  C   UNL A   1      46.529  26.304  32.771  1.00  0.00     0.057 A 
ATOM     54  C   UNL A   1      47.752  26.877  32.401  1.00  0.00     0.134 A 
ATOM     55  C   UNL A   1      46.559  25.216  33.652  1.00  0.00     0.134 A 
ATOM     56  F   UNL A   1      47.789  27.911  31.547  1.00  0.00    -0.206 F 
ATOM     57  C   UNL A   1      48.963  26.377  32.880  1.00  0.00     0.040 A 
ATOM     58  C   UNL A   1      47.761  24.722  34.156  1.00  0.00     0.040 A 
ATOM     59  F   UNL A   1      45.419  24.628  34.045  1.00  0.00    -0.206 F 
ATOM     60  C   UNL A   1      48.968  25.302  33.767  1.00  0.00     0.006 A 
ENDBRANCH  36  53
ENDBRANCH  10  11
ENDBRANCH   3   5
ENDBRANCH   2   3
ENDBRANCH   1   2
BRANCH   1  61
ATOM     61  C   UNL A   1      34.001  35.051  29.226  1.00  0.00     0.274 C 
BRANCH  61  62
ATOM     62  O   UNL A   1      33.438  34.525  30.435  1.00  0.00    -0.460 OA
BRANCH  62  63
ATOM     63  C   UNL A   1      34.150  34.708  31.583  1.00  0.00     0.338 C 
ATOM     64  O   UNL A   1      34.235  35.771  32.186  1.00  0.00    -0.249 OA
BRANCH  63  65
ATOM     65  C   UNL A   1      34.834  33.394  32.045  1.00  0.00     0.162 C 
ATOM     66  C   UNL A   1      36.318  33.317  31.717  1.00  0.00     0.053 C 
ATOM     67  C   UNL A   1      34.649  33.157  33.550  1.00  0.00     0.053 C 
ATOM     68  C   UNL A   1      37.219  34.210  32.571  1.00  0.00     0.080 C 
ATOM     69  C   UNL A   1      35.532  34.055  34.417  1.00  0.00     0.080 C 
ATOM     70  C   UNL A   1      36.999  33.936  34.041  1.00  0.00     0.248 C 
ATOM     71  F   UNL A   1      37.736  34.801  34.776  1.00  0.00    -0.207 F 
ATOM     72  F   UNL A   1      37.439  32.690  34.340  1.00  0.00    -0.207 F 
BRANCH  65  73
ATOM     73  O   UNL A   1      34.206  32.290  31.372  1.00  0.00    -0.378 OA
ATOM     74  H   UNL A   1      33.582  31.857  31.974  1.00  0.00     0.212 HD
ENDBRANCH  65  73
ENDBRANCH  63  65
ENDBRANCH  62  63
ENDBRANCH  61  62
ENDBRANCH   1  61
TORSDOF 12
ENDMDL
MODEL 2
REMARK VINA RESULT:      -9.8      4.887     10.942
REMARK SMILES O=C(OCCOC(=O)C1(O)CCC(F)(F)CC1)c1ccc(-c2c3nc(c(-c4c(F)cccc4F)c4ccc([nH]4)c(-c4c(F)cccc4F)c4nc(c(-c5c(F)cccc5F)c5ccc2[nH]5)C=C4)C=C3)cc1
REMARK SMILES IDX 4 1 3 2 2 3 1 4 18 5 19 6 71 7 20 8 70 9 21 10 22 11 23 12
REMARK SMILES IDX 64 13 24 14 69 15 63 16 65 17 25 18 68 19 62 20 61 21 26 23
REMARK SMILES IDX 52 24 35 25 51 26 36 27 39 28 50 29 66 30 37 31 38 32 49 34
REMARK SMILES IDX 67 35 40 36 27 37 28 38 33 39 29 40 30 41 32 42 34 43 31 44
REMARK SMILES IDX 53 45 54 46 59 47 55 48 56 49 58 50 60 51 57 52 41 53 42 54
REMARK SMILES IDX 47 55 43 56 44 57 46 58 48 59 45 60 5 61 6 62 7 63 8 64 9 65
REMARK SMILES IDX 11 66 17 67 12 68 16 69 13 70 14 71 15 72 10 73
REMARK H PARENT 65 22 39 33 10 74
REMARK Flexibility Score: inf
ROOT
ATOM      1  C   UNL A   1      41.168  19.965  27.086  1.00  0.00     0.275 C 
ENDROOT
BRANCH   1   2
ATOM      2  O   UNL A   1      40.428  20.809  26.181  1.00  0.00    -0.458 OA
BRANCH   2   3
ATOM      3  C   UNL A   1      39.593  21.852  26.405  1.00  0.00     0.338 C 
ATOM      4  O   UNL A   1      38.454  21.792  25.943  1.00  0.00    -0.246 OA
BRANCH   3   5
ATOM      5  C   UNL A   1      40.008  23.161  27.010  1.00  0.00     0.060 A 
ATOM      6  C   UNL A   1      40.824  23.340  28.127  1.00  0.00     0.016 A 
ATOM      7  C   UNL A   1      39.525  24.328  26.370  1.00  0.00     0.016 A 
ATOM      8  C   UNL A   1      41.228  24.629  28.524  1.00  0.00     0.010 A 
ATOM      9  C   UNL A   1      39.916  25.620  26.771  1.00  0.00     0.010 A 
ATOM     10  C   UNL A   1      40.801  25.781  27.838  1.00  0.00    -0.014 A 
BRANCH  10  11
ATOM     11  C   UNL A   1      41.179  27.119  28.376  1.00  0.00     0.031 A 
ATOM     12  C   UNL A   1      42.571  27.595  28.132  1.00  0.00     0.074 A 
ATOM     13  C   UNL A   1      40.312  27.940  29.004  1.00  0.00     0.049 A 
ATOM     14  N   UNL A   1      43.095  28.765  28.372  1.00  0.00    -0.248 NA
ATOM     15  C   UNL A   1      43.505  26.599  27.587  1.00  0.00     0.031 C 
ATOM     16  C   UNL A   1      38.983  27.558  29.434  1.00  0.00     0.029 A 
ATOM     17  N   UNL A   1      40.383  29.270  29.347  1.00  0.00    -0.354 N 
ATOM     18  C   UNL A   1      44.432  28.639  28.043  1.00  0.00     0.074 A 
ATOM     19  C   UNL A   1      44.632  27.289  27.559  1.00  0.00     0.031 C 
ATOM     20  C   UNL A   1      38.286  28.646  29.796  1.00  0.00     0.029 A 
ATOM     21  C   UNL A   1      39.175  29.798  29.764  1.00  0.00     0.049 A 
ATOM     22  H   UNL A   1      41.213  29.796  29.300  1.00  0.00     0.167 HD
ATOM     23  C   UNL A   1      45.417  29.554  28.185  1.00  0.00     0.037 A 
ATOM     24  C   UNL A   1      38.832  31.057  30.110  1.00  0.00     0.037 A 
ATOM     25  C   UNL A   1      45.229  30.859  28.755  1.00  0.00     0.049 A 
ATOM     26  C   UNL A   1      39.937  32.072  30.216  1.00  0.00     0.074 A 
ATOM     27  C   UNL A   1      46.177  31.831  29.014  1.00  0.00     0.029 A 
ATOM     28  N   UNL A   1      44.008  31.363  29.183  1.00  0.00    -0.354 N 
ATOM     29  N   UNL A   1      41.201  31.947  29.891  1.00  0.00    -0.248 NA
ATOM     30  C   UNL A   1      39.595  33.373  30.809  1.00  0.00     0.031 C 
ATOM     31  C   UNL A   1      45.536  32.908  29.637  1.00  0.00     0.029 A 
ATOM     32  C   UNL A   1      44.180  32.630  29.714  1.00  0.00     0.049 A 
ATOM     33  H   UNL A   1      43.147  30.891  29.118  1.00  0.00     0.167 HD
ATOM     34  C   UNL A   1      41.812  33.131  30.274  1.00  0.00     0.074 A 
ATOM     35  C   UNL A   1      40.768  33.990  30.797  1.00  0.00     0.031 C 
ATOM     36  C   UNL A   1      43.124  33.463  30.233  1.00  0.00     0.037 A 
BRANCH  23  37
ATOM     37  C   UNL A   1      46.788  29.089  27.810  1.00  0.00     0.057 A 
ATOM     38  C   UNL A   1      47.221  29.068  26.479  1.00  0.00     0.134 A 
ATOM     39  C   UNL A   1      47.637  28.548  28.782  1.00  0.00     0.134 A 
ATOM     40  F   UNL A   1      46.430  29.530  25.498  1.00  0.00    -0.206 F 
ATOM     41  C   UNL A   1      48.438  28.486  26.121  1.00  0.00     0.040 A 
ATOM     42  C   UNL A   1      48.866  27.986  28.440  1.00  0.00     0.040 A 
ATOM     43  F   UNL A   1      47.268  28.521  30.072  1.00  0.00    -0.206 F 
ATOM     44  C   UNL A   1      49.263  27.942  27.105  1.00  0.00     0.006 A 
ENDBRANCH  23  37
BRANCH  24  45
ATOM     45  C   UNL A   1      37.427  31.434  30.454  1.00  0.00     0.057 A 
ATOM     46  C   UNL A   1      36.549  31.922  29.473  1.00  0.00     0.134 A 
ATOM     47  C   UNL A   1      36.934  31.373  31.763  1.00  0.00     0.134 A 
ATOM     48  F   UNL A   1      36.959  32.052  28.203  1.00  0.00    -0.206 F 
ATOM     49  C   UNL A   1      35.249  32.340  29.783  1.00  0.00     0.040 A 
ATOM     50  C   UNL A   1      35.625  31.749  32.081  1.00  0.00     0.040 A 
ATOM     51  F   UNL A   1      37.718  30.947  32.764  1.00  0.00    -0.206 F 
ATOM     52  C   UNL A   1      34.781  32.244  31.091  1.00  0.00     0.006 A 
ENDBRANCH  24  45
BRANCH  36  53
ATOM     53  C   UNL A   1      43.498  34.815  30.761  1.00  0.00     0.057 A 
ATOM     54  C   UNL A   1      43.867  35.009  32.098  1.00  0.00     0.134 A 
ATOM     55  C   UNL A   1      43.536  35.923  29.906  1.00  0.00     0.134 A 
ATOM     56  F   UNL A   1      43.835  33.989  32.969  1.00  0.00    -0.206 F 
ATOM     57  C   UNL A   1      44.246  36.265  32.571  1.00  0.00     0.040 A 
ATOM     58  C   UNL A   1      43.936  37.178  30.362  1.00  0.00     0.040 A 
ATOM     59  F   UNL A   1      43.197  35.798  28.615  1.00  0.00    -0.206 F 
ATOM     60  C   UNL A   1      44.290  37.352  31.699  1.00  0.00     0.006 A 
ENDBRANCH  36  53
ENDBRANCH  10  11
ENDBRANCH   3   5
ENDBRANCH   2   3
ENDBRANCH   1   2
BRANCH   1  61
ATOM     61  C   UNL A   1      42.478  19.462  26.487  1.00  0.00     0.274 C 
BRANCH  61  62
ATOM     62  O   UNL A   1      42.818  20.183  25.295  1.00  0.00    -0.460 OA
BRANCH  62  63
ATOM     63  C   UNL A   1      43.985  20.889  25.307  1.00  0.00     0.338 C 
ATOM     64  O   UNL A   1      45.093  20.394  25.470  1.00  0.00    -0.249 OA
BRANCH  63  65
ATOM     65  C   UNL A   1      43.738  22.403  25.075  1.00  0.00     0.162 C 
ATOM     66  C   UNL A   1      43.951  23.264  26.311  1.00  0.00     0.053 C 
ATOM     67  C   UNL A   1      44.608  22.950  23.936  1.00  0.00     0.053 C 
ATOM     68  C   UNL A   1      45.411  23.458  26.723  1.00  0.00     0.080 C 
ATOM     69  C   UNL A   1      46.074  23.134  24.329  1.00  0.00     0.080 C 
ATOM     70  C   UNL A   1      46.222  23.999  25.569  1.00  0.00     0.248 C 
ATOM     71  F   UNL A   1      47.524  24.074  25.929  1.00  0.00    -0.207 F 
ATOM     72  F   UNL A   1      45.819  25.262  25.285  1.00  0.00    -0.207 F 
BRANCH  65  73
ATOM     73  O   UNL A   1      42.369  22.587  24.676  1.00  0.00    -0.378 OA
ATOM     74  H   UNL A   1      42.146  21.949  23.981  1.00  0.00     0.212 HD
ENDBRANCH  65  73
ENDBRANCH  63  65
ENDBRANCH  62  63
ENDBRANCH  61  62
ENDBRANCH   1  61
TORSDOF 12
ENDMDL
MODEL 3
REMARK VINA RESULT:      -9.8      4.889     10.927
REMARK SMILES O=C(OCCOC(=O)C1(O)CCC(F)(F)CC1)c1ccc(-c2c3nc(c(-c4c(F)cccc4F)c4ccc([nH]4)c(-c4c(F)cccc4F)c4nc(c(-c5c(F)cccc5F)c5ccc2[nH]5)C=C4)C=C3)cc1
REMARK SMILES IDX 4 1 3 2 2 3 1 4 18 5 19 6 71 7 20 8 70 9 21 10 22 11 23 12
REMARK SMILES IDX 64 13 24 14 69 15 63 16 65 17 25 18 68 19 62 20 61 21 26 23
REMARK SMILES IDX 52 24 35 25 51 26 36 27 39 28 50 29 66 30 37 31 38 32 49 34
REMARK SMILES IDX 67 35 40 36 27 37 28 38 33 39 29 40 30 41 32 42 34 43 31 44
REMARK SMILES IDX 53 45 54 46 59 47 55 48 56 49 58 50 60 51 57 52 41 53 42 54
REMARK SMILES IDX 47 55 43 56 44 57 46 58 48 59 45 60 5 61 6 62 7 63 8 64 9 65
REMARK SMILES IDX 11 66 17 67 12 68 16 69 13 70 14 71 15 72 10 73
REMARK H PARENT 65 22 39 33 10 74
REMARK Flexibility Score: inf
ROOT
ATOM      1  C   UNL A   1      40.829  19.654  26.138  1.00  0.00     0.275 C 
ENDROOT
BRANCH   1   2
ATOM      2  O   UNL A   1      40.445  20.789  26.940  1.00  0.00    -0.458 OA
BRANCH   2   3
ATOM      3  C   UNL A   1      39.718  21.892  26.645  1.00  0.00     0.338 C 
ATOM      4  O   UNL A   1      38.786  21.778  25.849  1.00  0.00    -0.246 OA
BRANCH   3   5
ATOM      5  C   UNL A   1      40.077  23.287  27.067  1.00  0.00     0.060 A 
ATOM      6  C   UNL A   1      39.602  24.474  26.508  1.00  0.00     0.016 A 
ATOM      7  C   UNL A   1      40.984  23.401  28.149  1.00  0.00     0.016 A 
ATOM      8  C   UNL A   1      39.934  25.719  27.075  1.00  0.00     0.010 A 
ATOM      9  C   UNL A   1      41.329  24.645  28.710  1.00  0.00     0.010 A 
ATOM     10  C   UNL A   1      40.780  25.819  28.195  1.00  0.00    -0.014 A 
BRANCH  10  11
ATOM     11  C   UNL A   1      41.176  27.173  28.677  1.00  0.00     0.031 A 
ATOM     12  C   UNL A   1      42.560  27.639  28.371  1.00  0.00     0.074 A 
ATOM     13  C   UNL A   1      40.330  28.015  29.306  1.00  0.00     0.049 A 
ATOM     14  N   UNL A   1      43.092  28.816  28.555  1.00  0.00    -0.248 NA
ATOM     15  C   UNL A   1      43.475  26.625  27.828  1.00  0.00     0.031 C 
ATOM     16  C   UNL A   1      39.016  27.650  29.792  1.00  0.00     0.029 A 
ATOM     17  N   UNL A   1      40.413  29.356  29.603  1.00  0.00    -0.354 N 
ATOM     18  C   UNL A   1      44.417  28.678  28.186  1.00  0.00     0.074 A 
ATOM     19  C   UNL A   1      44.600  27.312  27.740  1.00  0.00     0.031 C 
ATOM     20  C   UNL A   1      38.332  28.750  30.141  1.00  0.00     0.029 A 
ATOM     21  C   UNL A   1      39.219  29.899  30.042  1.00  0.00     0.049 A 
ATOM     22  H   UNL A   1      41.241  29.880  29.511  1.00  0.00     0.167 HD
ATOM     23  C   UNL A   1      45.405  29.595  28.265  1.00  0.00     0.037 A 
ATOM     24  C   UNL A   1      38.888  31.169  30.358  1.00  0.00     0.037 A 
ATOM     25  C   UNL A   1      45.238  30.919  28.799  1.00  0.00     0.049 A 
ATOM     26  C   UNL A   1      39.997  32.186  30.394  1.00  0.00     0.074 A 
ATOM     27  C   UNL A   1      46.194  31.897  28.994  1.00  0.00     0.029 A 
ATOM     28  N   UNL A   1      44.031  31.438  29.250  1.00  0.00    -0.354 N 
ATOM     29  N   UNL A   1      41.250  32.048  30.031  1.00  0.00    -0.248 NA
ATOM     30  C   UNL A   1      39.675  33.505  30.955  1.00  0.00     0.031 C 
ATOM     31  C   UNL A   1      45.574  32.995  29.603  1.00  0.00     0.029 A 
ATOM     32  C   UNL A   1      44.221  32.721  29.734  1.00  0.00     0.049 A 
ATOM     33  H   UNL A   1      43.169  30.965  29.229  1.00  0.00     0.167 HD
ATOM     34  C   UNL A   1      41.873  33.243  30.356  1.00  0.00     0.074 A 
ATOM     35  C   UNL A   1      40.847  34.120  30.885  1.00  0.00     0.031 C 
ATOM     36  C   UNL A   1      43.183  33.572  30.260  1.00  0.00     0.037 A 
BRANCH  23  37
ATOM     37  C   UNL A   1      46.763  29.117  27.861  1.00  0.00     0.057 A 
ATOM     38  C   UNL A   1      47.175  29.112  26.522  1.00  0.00     0.134 A 
ATOM     39  C   UNL A   1      47.619  28.547  28.810  1.00  0.00     0.134 A 
ATOM     40  F   UNL A   1      46.376  29.602  25.563  1.00  0.00    -0.206 F 
ATOM     41  C   UNL A   1      48.377  28.518  26.135  1.00  0.00     0.040 A 
ATOM     42  C   UNL A   1      48.835  27.973  28.438  1.00  0.00     0.040 A 
ATOM     43  F   UNL A   1      47.271  28.502  30.104  1.00  0.00    -0.206 F 
ATOM     44  C   UNL A   1      49.209  27.945  27.096  1.00  0.00     0.006 A 
ENDBRANCH  23  37
BRANCH  24  45
ATOM     45  C   UNL A   1      37.496  31.559  30.736  1.00  0.00     0.057 A 
ATOM     46  C   UNL A   1      36.590  32.029  29.772  1.00  0.00     0.134 A 
ATOM     47  C   UNL A   1      37.042  31.528  32.061  1.00  0.00     0.134 A 
ATOM     48  F   UNL A   1      36.962  32.130  28.487  1.00  0.00    -0.206 F 
ATOM     49  C   UNL A   1      35.302  32.459  30.112  1.00  0.00     0.040 A 
ATOM     50  C   UNL A   1      35.746  31.916  32.410  1.00  0.00     0.040 A 
ATOM     51  F   UNL A   1      37.856  31.121  33.046  1.00  0.00    -0.206 F 
ATOM     52  C   UNL A   1      34.873  32.393  31.435  1.00  0.00     0.006 A 
ENDBRANCH  24  45
BRANCH  36  53
ATOM     53  C   UNL A   1      43.575  34.940  30.731  1.00  0.00     0.057 A 
ATOM     54  C   UNL A   1      43.549  36.050  29.877  1.00  0.00     0.134 A 
ATOM     55  C   UNL A   1      43.936  35.154  32.066  1.00  0.00     0.134 A 
ATOM     56  F   UNL A   1      43.227  35.906  28.582  1.00  0.00    -0.206 F 
ATOM     57  C   UNL A   1      43.882  37.325  30.333  1.00  0.00     0.040 A 
ATOM     58  C   UNL A   1      44.248  36.427  32.540  1.00  0.00     0.040 A 
ATOM     59  F   UNL A   1      43.976  34.130  32.932  1.00  0.00    -0.206 F 
ATOM     60  C   UNL A   1      44.224  37.517  31.671  1.00  0.00     0.006 A 
ENDBRANCH  36  53
ENDBRANCH  10  11
ENDBRANCH   3   5
ENDBRANCH   2   3
ENDBRANCH   1   2
BRANCH   1  61
ATOM     61  C   UNL A   1      42.330  19.377  26.187  1.00  0.00     0.274 C 
BRANCH  61  62
ATOM     62  O   UNL A   1      43.073  20.573  26.454  1.00  0.00    -0.460 OA
BRANCH  62  63
ATOM     63  C   UNL A   1      43.957  20.981  25.499  1.00  0.00     0.338 C 
ATOM     64  O   UNL A   1      44.778  20.252  24.956  1.00  0.00    -0.249 OA
BRANCH  63  65
ATOM     65  C   UNL A   1      43.788  22.488  25.171  1.00  0.00     0.162 C 
ATOM     66  C   UNL A   1      43.935  23.407  26.375  1.00  0.00     0.053 C 
ATOM     67  C   UNL A   1      44.766  22.944  24.080  1.00  0.00     0.053 C 
ATOM     68  C   UNL A   1      45.364  23.573  26.894  1.00  0.00     0.080 C 
ATOM     69  C   UNL A   1      46.202  23.099  24.582  1.00  0.00     0.080 C 
ATOM     70  C   UNL A   1      46.284  24.024  25.784  1.00  0.00     0.248 C 
ATOM     71  F   UNL A   1      47.555  24.073  26.244  1.00  0.00    -0.207 F 
ATOM     72  F   UNL A   1      45.953  25.283  25.404  1.00  0.00    -0.207 F 
BRANCH  65  73
ATOM     73  O   UNL A   1      42.463  22.697  24.653  1.00  0.00    -0.378 OA
ATOM     74  H   UNL A   1      41.893  23.049  25.353  1.00  0.00     0.212 HD
ENDBRANCH  65  73
ENDBRANCH  63  65
ENDBRANCH  62  63
ENDBRANCH  61  62
ENDBRANCH   1  61
TORSDOF 12
ENDMDL
