MODEL 1
REMARK VINA RESULT:      -9.6      0.000      0.000
REMARK SMILES O=C(CSc1nnnn1C1CC1)N[C@H](CO)C(=O)OCCOC(=O)c1ccc(-c2c3nc(c(-c4c(F)cccc4F)c4ccc([nH]4)c(-c4c(F)cccc4F)c4nc(c(-c5c(F)cccc5F)c5ccc2[nH]5)C=C4)C=C3)cc1
REMARK SMILES IDX 19 1 17 2 18 3 14 4 13 5 1 6 2 7 3 9 4 10 5 11 6 12 9 13
REMARK SMILES IDX 7 14 8 15 10 16 11 17 12 18 15 19 16 20 20 22 21 23 22 24
REMARK SMILES IDX 23 25 24 26 25 27 26 28 78 29 27 30 77 31 28 32 29 33 30 34
REMARK SMILES IDX 71 35 31 36 76 37 70 38 72 39 32 40 75 41 69 42 68 43 33 45
REMARK SMILES IDX 59 46 42 47 58 48 43 49 46 50 57 51 73 52 44 53 45 54 56 56
REMARK SMILES IDX 74 57 47 58 34 59 35 60 40 61 36 62 37 63 39 64 41 65 38 66
REMARK SMILES IDX 60 67 61 68 66 69 62 70 63 71 65 72 67 73 64 74 48 75 49 76
REMARK SMILES IDX 54 77 50 78 51 79 53 80 55 81 52 82
REMARK H PARENT 13 8 16 21 72 44 46 55
REMARK Flexibility Score: inf
ROOT
ATOM      1  O   UNL A   1      42.617  19.822  26.599  1.00  0.00    -0.460 OA
ENDROOT
BRANCH   1   2
ATOM      2  C   UNL A   1      43.145  18.876  25.772  1.00  0.00     0.331 C 
ATOM      3  O   UNL A   1      42.727  17.723  25.696  1.00  0.00    -0.250 OA
BRANCH   2   4
ATOM      4  C   UNL A   1      44.459  19.311  25.106  1.00  0.00     0.218 C 
BRANCH   4   5
ATOM      5  N   UNL A   1      44.723  20.701  25.549  1.00  0.00    -0.340 N 
ATOM      6  O   UNL A   1      46.797  21.009  24.626  1.00  0.00    -0.274 OA
ATOM      7  C   UNL A   1      45.862  21.430  25.300  1.00  0.00     0.231 C 
ATOM      8  H   UNL A   1      44.017  21.144  26.073  1.00  0.00     0.164 HD
BRANCH   7   9
ATOM      9  C   UNL A   1      45.913  22.813  25.927  1.00  0.00     0.178 C 
BRANCH   9  10
ATOM     10  S   UNL A   1      44.835  22.974  27.375  1.00  0.00    -0.075 SA
BRANCH  10  11
ATOM     11  C   UNL A   1      44.996  24.652  27.751  1.00  0.00     0.210 A 
ATOM     12  N   UNL A   1      45.413  25.132  28.900  1.00  0.00    -0.102 NA
ATOM     13  N   UNL A   1      44.857  25.695  26.868  1.00  0.00    -0.217 N 
ATOM     14  N   UNL A   1      45.577  26.484  28.706  1.00  0.00    -0.023 NA
ATOM     15  N   UNL A   1      45.288  26.826  27.458  1.00  0.00    -0.044 NA
BRANCH  13  16
ATOM     16  C   UNL A   1      44.411  25.715  25.496  1.00  0.00     0.112 C 
ATOM     17  C   UNL A   1      43.114  25.154  24.943  1.00  0.00     0.029 C 
ATOM     18  C   UNL A   1      43.306  26.633  25.016  1.00  0.00     0.029 C 
ENDBRANCH  13  16
ENDBRANCH  10  11
ENDBRANCH   9  10
ENDBRANCH   7   9
ENDBRANCH   4   5
BRANCH   4  19
ATOM     19  C   UNL A   1      44.530  19.008  23.604  1.00  0.00     0.193 C 
BRANCH  19  20
ATOM     20  O   UNL A   1      45.888  18.820  23.190  1.00  0.00    -0.394 OA
ATOM     21  H   UNL A   1      46.215  17.972  23.529  1.00  0.00     0.210 HD
ENDBRANCH  19  20
ENDBRANCH   4  19
ENDBRANCH   2   4
ENDBRANCH   1   2
BRANCH   1  22
ATOM     22  C   UNL A   1      41.246  19.644  27.031  1.00  0.00     0.274 C 
BRANCH  22  23
ATOM     23  C   UNL A   1      40.341  20.769  26.568  1.00  0.00     0.275 C 
BRANCH  23  24
ATOM     24  O   UNL A   1      40.695  21.990  27.218  1.00  0.00    -0.458 OA
BRANCH  24  25
ATOM     25  C   UNL A   1      39.819  22.984  26.974  1.00  0.00     0.338 C 
ATOM     26  O   UNL A   1      38.683  22.876  26.553  1.00  0.00    -0.246 OA
BRANCH  25  27
ATOM     27  C   UNL A   1      40.462  24.283  27.101  1.00  0.00     0.060 A 
ATOM     28  C   UNL A   1      41.434  24.399  28.103  1.00  0.00     0.016 A 
ATOM     29  C   UNL A   1      39.864  25.397  26.498  1.00  0.00     0.016 A 
ATOM     30  C   UNL A   1      41.673  25.641  28.640  1.00  0.00     0.010 A 
ATOM     31  C   UNL A   1      40.099  26.635  27.044  1.00  0.00     0.010 A 
ATOM     32  C   UNL A   1      40.939  26.726  28.157  1.00  0.00    -0.014 A 
BRANCH  32  33
ATOM     33  C   UNL A   1      41.046  27.978  28.871  1.00  0.00     0.031 A 
ATOM     34  C   UNL A   1      42.141  28.870  28.444  1.00  0.00     0.074 A 
ATOM     35  C   UNL A   1      40.107  28.362  29.755  1.00  0.00     0.049 A 
ATOM     36  N   UNL A   1      43.069  29.399  29.171  1.00  0.00    -0.248 NA
ATOM     37  C   UNL A   1      42.248  29.167  27.007  1.00  0.00     0.031 C 
ATOM     38  C   UNL A   1      38.820  27.724  30.039  1.00  0.00     0.029 A 
ATOM     39  N   UNL A   1      40.065  29.504  30.490  1.00  0.00    -0.354 N 
ATOM     40  C   UNL A   1      43.791  30.222  28.315  1.00  0.00     0.074 A 
ATOM     41  C   UNL A   1      43.315  29.961  26.981  1.00  0.00     0.031 C 
ATOM     42  C   UNL A   1      38.037  28.602  30.703  1.00  0.00     0.029 A 
ATOM     43  C   UNL A   1      38.805  29.809  30.973  1.00  0.00     0.049 A 
ATOM     44  H   UNL A   1      40.856  30.063  30.661  1.00  0.00     0.167 HD
ATOM     45  C   UNL A   1      44.609  31.204  28.775  1.00  0.00     0.037 A 
ATOM     46  C   UNL A   1      38.406  31.004  31.467  1.00  0.00     0.037 A 
ATOM     47  C   UNL A   1      44.974  31.019  30.151  1.00  0.00     0.049 A 
ATOM     48  C   UNL A   1      39.622  31.778  31.828  1.00  0.00     0.074 A 
ATOM     49  C   UNL A   1      45.610  30.015  30.855  1.00  0.00     0.029 A 
ATOM     50  N   UNL A   1      44.391  31.821  31.101  1.00  0.00    -0.354 N 
ATOM     51  N   UNL A   1      40.402  31.501  32.835  1.00  0.00    -0.248 NA
ATOM     52  C   UNL A   1      40.206  32.647  30.815  1.00  0.00     0.031 C 
ATOM     53  C   UNL A   1      44.978  29.993  32.131  1.00  0.00     0.029 A 
ATOM     54  C   UNL A   1      44.007  30.993  32.126  1.00  0.00     0.049 A 
ATOM     55  H   UNL A   1      44.272  32.798  31.055  1.00  0.00     0.167 HD
ATOM     56  C   UNL A   1      41.681  31.805  32.391  1.00  0.00     0.074 A 
ATOM     57  C   UNL A   1      41.486  32.612  31.192  1.00  0.00     0.031 C 
ATOM     58  C   UNL A   1      42.778  31.144  32.868  1.00  0.00     0.037 A 
BRANCH  45  59
ATOM     59  C   UNL A   1      44.839  32.482  28.029  1.00  0.00     0.057 A 
ATOM     60  C   UNL A   1      43.867  33.493  28.046  1.00  0.00     0.134 A 
ATOM     61  C   UNL A   1      45.879  32.650  27.092  1.00  0.00     0.134 A 
ATOM     62  F   UNL A   1      42.807  33.413  28.865  1.00  0.00    -0.206 F 
ATOM     63  C   UNL A   1      43.916  34.584  27.174  1.00  0.00     0.040 A 
ATOM     64  C   UNL A   1      45.967  33.762  26.254  1.00  0.00     0.040 A 
ATOM     65  F   UNL A   1      46.802  31.700  26.882  1.00  0.00    -0.206 F 
ATOM     66  C   UNL A   1      44.971  34.725  26.277  1.00  0.00     0.006 A 
ENDBRANCH  45  59
BRANCH  46  67
ATOM     67  C   UNL A   1      37.053  31.600  31.424  1.00  0.00     0.057 A 
ATOM     68  C   UNL A   1      36.348  31.881  32.601  1.00  0.00     0.134 A 
ATOM     69  C   UNL A   1      36.498  32.112  30.237  1.00  0.00     0.134 A 
ATOM     70  F   UNL A   1      36.824  31.490  33.792  1.00  0.00    -0.206 F 
ATOM     71  C   UNL A   1      35.159  32.623  32.596  1.00  0.00     0.040 A 
ATOM     72  C   UNL A   1      35.302  32.835  30.215  1.00  0.00     0.040 A 
ATOM     73  F   UNL A   1      37.136  32.000  29.063  1.00  0.00    -0.206 F 
ATOM     74  C   UNL A   1      34.632  33.101  31.400  1.00  0.00     0.006 A 
ENDBRANCH  46  67
BRANCH  58  75
ATOM     75  C   UNL A   1      42.600  30.266  34.074  1.00  0.00     0.057 A 
ATOM     76  C   UNL A   1      42.155  28.936  34.003  1.00  0.00     0.134 A 
ATOM     77  C   UNL A   1      43.030  30.723  35.323  1.00  0.00     0.134 A 
ATOM     78  F   UNL A   1      41.834  28.375  32.831  1.00  0.00    -0.206 F 
ATOM     79  C   UNL A   1      42.085  28.122  35.136  1.00  0.00     0.040 A 
ATOM     80  C   UNL A   1      42.998  29.907  36.458  1.00  0.00     0.040 A 
ATOM     81  F   UNL A   1      43.534  31.961  35.456  1.00  0.00    -0.206 F 
ATOM     82  C   UNL A   1      42.510  28.606  36.369  1.00  0.00     0.006 A 
ENDBRANCH  58  75
ENDBRANCH  32  33
ENDBRANCH  25  27
ENDBRANCH  24  25
ENDBRANCH  23  24
ENDBRANCH  22  23
ENDBRANCH   1  22
TORSDOF 18
ENDMDL
MODEL 2
REMARK VINA RESULT:      -9.5      1.204      2.003
REMARK SMILES O=C(CSc1nnnn1C1CC1)N[C@H](CO)C(=O)OCCOC(=O)c1ccc(-c2c3nc(c(-c4c(F)cccc4F)c4ccc([nH]4)c(-c4c(F)cccc4F)c4nc(c(-c5c(F)cccc5F)c5ccc2[nH]5)C=C4)C=C3)cc1
REMARK SMILES IDX 19 1 17 2 18 3 14 4 13 5 1 6 2 7 3 9 4 10 5 11 6 12 9 13
REMARK SMILES IDX 7 14 8 15 10 16 11 17 12 18 15 19 16 20 20 22 21 23 22 24
REMARK SMILES IDX 23 25 24 26 25 27 26 28 78 29 27 30 77 31 28 32 29 33 30 34
REMARK SMILES IDX 71 35 31 36 76 37 70 38 72 39 32 40 75 41 69 42 68 43 33 45
REMARK SMILES IDX 59 46 42 47 58 48 43 49 46 50 57 51 73 52 44 53 45 54 56 56
REMARK SMILES IDX 74 57 47 58 34 59 35 60 40 61 36 62 37 63 39 64 41 65 38 66
REMARK SMILES IDX 60 67 61 68 66 69 62 70 63 71 65 72 67 73 64 74 48 75 49 76
REMARK SMILES IDX 54 77 50 78 51 79 53 80 55 81 52 82
REMARK H PARENT 13 8 16 21 72 44 46 55
REMARK Flexibility Score: inf
ROOT
ATOM      1  O   UNL A   1      42.179  19.906  25.847  1.00  0.00    -0.460 OA
ENDROOT
BRANCH   1   2
ATOM      2  C   UNL A   1      43.153  19.031  25.470  1.00  0.00     0.331 C 
ATOM      3  O   UNL A   1      43.104  17.820  25.677  1.00  0.00    -0.250 OA
BRANCH   2   4
ATOM      4  C   UNL A   1      44.430  19.717  24.962  1.00  0.00     0.218 C 
BRANCH   4   5
ATOM      5  N   UNL A   1      44.219  21.177  25.116  1.00  0.00    -0.340 N 
ATOM      6  O   UNL A   1      46.391  21.848  25.402  1.00  0.00    -0.274 OA
ATOM      7  C   UNL A   1      45.195  22.119  25.342  1.00  0.00     0.231 C 
ATOM      8  H   UNL A   1      43.292  21.504  25.051  1.00  0.00     0.164 HD
BRANCH   7   9
ATOM      9  C   UNL A   1      44.708  23.545  25.532  1.00  0.00     0.178 C 
BRANCH   9  10
ATOM     10  S   UNL A   1      45.649  24.454  26.786  1.00  0.00    -0.075 SA
BRANCH  10  11
ATOM     11  C   UNL A   1      46.261  25.786  25.872  1.00  0.00     0.210 A 
ATOM     12  N   UNL A   1      46.627  25.733  24.612  1.00  0.00    -0.102 NA
ATOM     13  N   UNL A   1      46.307  27.095  26.286  1.00  0.00    -0.217 N 
ATOM     14  N   UNL A   1      46.857  27.036  24.233  1.00  0.00    -0.023 NA
ATOM     15  N   UNL A   1      46.616  27.874  25.232  1.00  0.00    -0.044 NA
BRANCH  13  16
ATOM     16  C   UNL A   1      46.027  27.689  27.571  1.00  0.00     0.112 C 
ATOM     17  C   UNL A   1      46.734  27.411  28.885  1.00  0.00     0.029 C 
ATOM     18  C   UNL A   1      46.936  28.722  28.201  1.00  0.00     0.029 C 
ENDBRANCH  13  16
ENDBRANCH  10  11
ENDBRANCH   9  10
ENDBRANCH   7   9
ENDBRANCH   4   5
BRANCH   4  19
ATOM     19  C   UNL A   1      44.924  19.199  23.606  1.00  0.00     0.193 C 
BRANCH  19  20
ATOM     20  O   UNL A   1      46.347  19.323  23.505  1.00  0.00    -0.394 OA
ATOM     21  H   UNL A   1      46.619  20.196  23.828  1.00  0.00     0.210 HD
ENDBRANCH  19  20
ENDBRANCH   4  19
ENDBRANCH   2   4
ENDBRANCH   1   2
BRANCH   1  22
ATOM     22  C   UNL A   1      41.745  19.869  27.229  1.00  0.00     0.274 C 
BRANCH  22  23
ATOM     23  C   UNL A   1      40.776  20.986  27.563  1.00  0.00     0.275 C 
BRANCH  23  24
ATOM     24  O   UNL A   1      41.338  22.251  27.214  1.00  0.00    -0.458 OA
BRANCH  24  25
ATOM     25  C   UNL A   1      40.402  23.194  26.989  1.00  0.00     0.338 C 
ATOM     26  O   UNL A   1      39.263  23.022  26.601  1.00  0.00    -0.246 OA
BRANCH  25  27
ATOM     27  C   UNL A   1      40.977  24.527  27.090  1.00  0.00     0.060 A 
ATOM     28  C   UNL A   1      41.846  24.749  28.166  1.00  0.00     0.016 A 
ATOM     29  C   UNL A   1      40.391  25.574  26.366  1.00  0.00     0.016 A 
ATOM     30  C   UNL A   1      41.984  26.031  28.642  1.00  0.00     0.010 A 
ATOM     31  C   UNL A   1      40.523  26.852  26.851  1.00  0.00     0.010 A 
ATOM     32  C   UNL A   1      41.252  27.049  28.026  1.00  0.00    -0.014 A 
BRANCH  32  33
ATOM     33  C   UNL A   1      41.241  28.345  28.666  1.00  0.00     0.031 A 
ATOM     34  C   UNL A   1      42.320  29.269  28.265  1.00  0.00     0.074 A 
ATOM     35  C   UNL A   1      40.219  28.729  29.451  1.00  0.00     0.049 A 
ATOM     36  N   UNL A   1      43.161  29.890  29.024  1.00  0.00    -0.248 NA
ATOM     37  C   UNL A   1      42.523  29.485  26.825  1.00  0.00     0.031 C 
ATOM     38  C   UNL A   1      38.947  28.040  29.679  1.00  0.00     0.029 A 
ATOM     39  N   UNL A   1      40.063  29.909  30.107  1.00  0.00    -0.354 N 
ATOM     40  C   UNL A   1      43.906  30.698  28.174  1.00  0.00     0.074 A 
ATOM     41  C   UNL A   1      43.549  30.333  26.827  1.00  0.00     0.031 C 
ATOM     42  C   UNL A   1      38.073  28.912  30.226  1.00  0.00     0.029 A 
ATOM     43  C   UNL A   1      38.755  30.173  30.475  1.00  0.00     0.049 A 
ATOM     44  H   UNL A   1      40.810  30.519  30.301  1.00  0.00     0.167 HD
ATOM     45  C   UNL A   1      44.636  31.749  28.631  1.00  0.00     0.037 A 
ATOM     46  C   UNL A   1      38.260  31.372  30.861  1.00  0.00     0.037 A 
ATOM     47  C   UNL A   1      44.902  31.667  30.038  1.00  0.00     0.049 A 
ATOM     48  C   UNL A   1      39.405  32.231  31.262  1.00  0.00     0.074 A 
ATOM     49  C   UNL A   1      45.531  30.742  30.850  1.00  0.00     0.029 A 
ATOM     50  N   UNL A   1      44.208  32.491  30.890  1.00  0.00    -0.354 N 
ATOM     51  N   UNL A   1      40.117  32.057  32.340  1.00  0.00    -0.248 NA
ATOM     52  C   UNL A   1      40.021  33.069  30.242  1.00  0.00     0.031 C 
ATOM     53  C   UNL A   1      44.804  30.761  32.075  1.00  0.00     0.029 A 
ATOM     54  C   UNL A   1      43.787  31.705  31.934  1.00  0.00     0.049 A 
ATOM     55  H   UNL A   1      44.044  33.455  30.774  1.00  0.00     0.167 HD
ATOM     56  C   UNL A   1      41.410  32.403  31.974  1.00  0.00     0.074 A 
ATOM     57  C   UNL A   1      41.269  33.125  30.715  1.00  0.00     0.031 C 
ATOM     58  C   UNL A   1      42.498  31.832  32.571  1.00  0.00     0.037 A 
BRANCH  45  59
ATOM     59  C   UNL A   1      44.859  32.992  27.824  1.00  0.00     0.057 A 
ATOM     60  C   UNL A   1      46.126  33.267  27.290  1.00  0.00     0.134 A 
ATOM     61  C   UNL A   1      43.929  34.049  27.768  1.00  0.00     0.134 A 
ATOM     62  F   UNL A   1      47.104  32.349  27.334  1.00  0.00    -0.206 F 
ATOM     63  C   UNL A   1      46.450  34.517  26.755  1.00  0.00     0.040 A 
ATOM     64  C   UNL A   1      44.224  35.283  27.187  1.00  0.00     0.040 A 
ATOM     65  F   UNL A   1      42.725  33.965  28.353  1.00  0.00    -0.206 F 
ATOM     66  C   UNL A   1      45.496  35.529  26.697  1.00  0.00     0.006 A 
ENDBRANCH  45  59
BRANCH  46  67
ATOM     67  C   UNL A   1      36.887  31.889  30.681  1.00  0.00     0.057 A 
ATOM     68  C   UNL A   1      36.015  32.025  31.768  1.00  0.00     0.134 A 
ATOM     69  C   UNL A   1      36.460  32.470  29.472  1.00  0.00     0.134 A 
ATOM     70  F   UNL A   1      36.356  31.559  32.978  1.00  0.00    -0.206 F 
ATOM     71  C   UNL A   1      34.788  32.694  31.659  1.00  0.00     0.040 A 
ATOM     72  C   UNL A   1      35.229  33.121  29.344  1.00  0.00     0.040 A 
ATOM     73  F   UNL A   1      37.252  32.498  28.392  1.00  0.00    -0.206 F 
ATOM     74  C   UNL A   1      34.392  33.243  30.443  1.00  0.00     0.006 A 
ENDBRANCH  46  67
BRANCH  58  75
ATOM     75  C   UNL A   1      42.272  31.019  33.814  1.00  0.00     0.057 A 
ATOM     76  C   UNL A   1      42.261  31.568  35.106  1.00  0.00     0.134 A 
ATOM     77  C   UNL A   1      41.907  29.674  33.696  1.00  0.00     0.134 A 
ATOM     78  F   UNL A   1      42.484  32.873  35.306  1.00  0.00    -0.206 F 
ATOM     79  C   UNL A   1      41.962  30.796  36.232  1.00  0.00     0.040 A 
ATOM     80  C   UNL A   1      41.570  28.901  34.811  1.00  0.00     0.040 A 
ATOM     81  F   UNL A   1      41.826  29.097  32.485  1.00  0.00    -0.206 F 
ATOM     82  C   UNL A   1      41.611  29.458  36.086  1.00  0.00     0.006 A 
ENDBRANCH  58  75
ENDBRANCH  32  33
ENDBRANCH  25  27
ENDBRANCH  24  25
ENDBRANCH  23  24
ENDBRANCH  22  23
ENDBRANCH   1  22
TORSDOF 18
ENDMDL
MODEL 3
REMARK VINA RESULT:      -9.3      4.269      6.061
REMARK SMILES O=C(CSc1nnnn1C1CC1)N[C@H](CO)C(=O)OCCOC(=O)c1ccc(-c2c3nc(c(-c4c(F)cccc4F)c4ccc([nH]4)c(-c4c(F)cccc4F)c4nc(c(-c5c(F)cccc5F)c5ccc2[nH]5)C=C4)C=C3)cc1
REMARK SMILES IDX 19 1 17 2 18 3 14 4 13 5 1 6 2 7 3 9 4 10 5 11 6 12 9 13
REMARK SMILES IDX 7 14 8 15 10 16 11 17 12 18 15 19 16 20 20 22 21 23 22 24
REMARK SMILES IDX 23 25 24 26 25 27 26 28 78 29 27 30 77 31 28 32 29 33 30 34
REMARK SMILES IDX 71 35 31 36 76 37 70 38 72 39 32 40 75 41 69 42 68 43 33 45
REMARK SMILES IDX 59 46 42 47 58 48 43 49 46 50 57 51 73 52 44 53 45 54 56 56
REMARK SMILES IDX 74 57 47 58 34 59 35 60 40 61 36 62 37 63 39 64 41 65 38 66
REMARK SMILES IDX 60 67 61 68 66 69 62 70 63 71 65 72 67 73 64 74 48 75 49 76
REMARK SMILES IDX 54 77 50 78 51 79 53 80 55 81 52 82
REMARK H PARENT 13 8 16 21 72 44 46 55
REMARK Flexibility Score: inf
ROOT
ATOM      1  O   UNL A   1      36.413  20.599  25.220  1.00  0.00    -0.460 OA
ENDROOT
BRANCH   1   2
ATOM      2  C   UNL A   1      35.282  21.245  25.619  1.00  0.00     0.331 C 
ATOM      3  O   UNL A   1      35.096  21.656  26.763  1.00  0.00    -0.250 OA
BRANCH   2   4
ATOM      4  C   UNL A   1      34.159  21.216  24.573  1.00  0.00     0.218 C 
BRANCH   4   5
ATOM      5  N   UNL A   1      33.781  22.627  24.313  1.00  0.00    -0.340 N 
ATOM      6  O   UNL A   1      35.367  23.164  22.749  1.00  0.00    -0.274 OA
ATOM      7  C   UNL A   1      34.414  23.490  23.450  1.00  0.00     0.231 C 
ATOM      8  H   UNL A   1      33.004  22.979  24.805  1.00  0.00     0.164 HD
BRANCH   7   9
ATOM      9  C   UNL A   1      33.871  24.909  23.417  1.00  0.00     0.178 C 
BRANCH   9  10
ATOM     10  S   UNL A   1      33.863  25.702  25.046  1.00  0.00    -0.075 SA
BRANCH  10  11
ATOM     11  C   UNL A   1      32.496  24.959  25.796  1.00  0.00     0.210 A 
ATOM     12  N   UNL A   1      32.552  24.105  26.792  1.00  0.00    -0.102 NA
ATOM     13  N   UNL A   1      31.178  25.266  25.557  1.00  0.00    -0.217 N 
ATOM     14  N   UNL A   1      31.252  23.922  27.203  1.00  0.00    -0.023 NA
ATOM     15  N   UNL A   1      30.415  24.662  26.488  1.00  0.00    -0.044 NA
BRANCH  13  16
ATOM     16  C   UNL A   1      30.574  26.126  24.569  1.00  0.00     0.112 C 
ATOM     17  C   UNL A   1      29.715  25.709  23.390  1.00  0.00     0.029 C 
ATOM     18  C   UNL A   1      29.089  26.416  24.546  1.00  0.00     0.029 C 
ENDBRANCH  13  16
ENDBRANCH  10  11
ENDBRANCH   9  10
ENDBRANCH   7   9
ENDBRANCH   4   5
BRANCH   4  19
ATOM     19  C   UNL A   1      33.039  20.216  24.884  1.00  0.00     0.193 C 
BRANCH  19  20
ATOM     20  O   UNL A   1      33.246  19.605  26.162  1.00  0.00    -0.394 OA
ATOM     21  H   UNL A   1      32.964  20.215  26.861  1.00  0.00     0.210 HD
ENDBRANCH  19  20
ENDBRANCH   4  19
ENDBRANCH   2   4
ENDBRANCH   1   2
BRANCH   1  22
ATOM     22  C   UNL A   1      37.542  21.411  24.816  1.00  0.00     0.274 C 
BRANCH  22  23
ATOM     23  C   UNL A   1      38.670  21.383  25.828  1.00  0.00     0.275 C 
BRANCH  23  24
ATOM     24  O   UNL A   1      39.060  22.713  26.173  1.00  0.00    -0.458 OA
BRANCH  24  25
ATOM     25  C   UNL A   1      40.126  22.747  26.998  1.00  0.00     0.338 C 
ATOM     26  O   UNL A   1      40.524  21.855  27.722  1.00  0.00    -0.246 OA
BRANCH  25  27
ATOM     27  C   UNL A   1      40.676  24.092  27.075  1.00  0.00     0.060 A 
ATOM     28  C   UNL A   1      41.732  24.280  27.977  1.00  0.00     0.016 A 
ATOM     29  C   UNL A   1      39.936  25.158  26.547  1.00  0.00     0.016 A 
ATOM     30  C   UNL A   1      41.927  25.535  28.501  1.00  0.00     0.010 A 
ATOM     31  C   UNL A   1      40.129  26.408  27.081  1.00  0.00     0.010 A 
ATOM     32  C   UNL A   1      41.066  26.561  28.106  1.00  0.00    -0.014 A 
BRANCH  32  33
ATOM     33  C   UNL A   1      41.147  27.815  28.820  1.00  0.00     0.031 A 
ATOM     34  C   UNL A   1      42.232  28.724  28.402  1.00  0.00     0.074 A 
ATOM     35  C   UNL A   1      40.194  28.185  29.694  1.00  0.00     0.049 A 
ATOM     36  N   UNL A   1      43.145  29.267  29.137  1.00  0.00    -0.248 NA
ATOM     37  C   UNL A   1      42.348  29.021  26.966  1.00  0.00     0.031 C 
ATOM     38  C   UNL A   1      38.914  27.528  29.966  1.00  0.00     0.029 A 
ATOM     39  N   UNL A   1      40.127  29.327  30.427  1.00  0.00    -0.354 N 
ATOM     40  C   UNL A   1      43.862  30.100  28.288  1.00  0.00     0.074 A 
ATOM     41  C   UNL A   1      43.404  29.831  26.949  1.00  0.00     0.031 C 
ATOM     42  C   UNL A   1      38.112  28.394  30.622  1.00  0.00     0.029 A 
ATOM     43  C   UNL A   1      38.858  29.613  30.898  1.00  0.00     0.049 A 
ATOM     44  H   UNL A   1      40.908  29.898  30.606  1.00  0.00     0.167 HD
ATOM     45  C   UNL A   1      44.661  31.095  28.755  1.00  0.00     0.037 A 
ATOM     46  C   UNL A   1      38.436  30.802  31.387  1.00  0.00     0.037 A 
ATOM     47  C   UNL A   1      45.015  30.918  30.134  1.00  0.00     0.049 A 
ATOM     48  C   UNL A   1      39.636  31.595  31.759  1.00  0.00     0.074 A 
ATOM     49  C   UNL A   1      45.660  29.923  30.845  1.00  0.00     0.029 A 
ATOM     50  N   UNL A   1      44.411  31.711  31.078  1.00  0.00    -0.354 N 
ATOM     51  N   UNL A   1      40.411  31.331  32.774  1.00  0.00    -0.248 NA
ATOM     52  C   UNL A   1      40.216  32.472  30.751  1.00  0.00     0.031 C 
ATOM     53  C   UNL A   1      45.017  29.893  32.115  1.00  0.00     0.029 A 
ATOM     54  C   UNL A   1      44.030  30.878  32.100  1.00  0.00     0.049 A 
ATOM     55  H   UNL A   1      44.277  32.685  31.030  1.00  0.00     0.167 HD
ATOM     56  C   UNL A   1      41.689  31.654  32.342  1.00  0.00     0.074 A 
ATOM     57  C   UNL A   1      41.494  32.457  31.140  1.00  0.00     0.031 C 
ATOM     58  C   UNL A   1      42.791  31.010  32.829  1.00  0.00     0.037 A 
BRANCH  45  59
ATOM     59  C   UNL A   1      44.878  32.377  28.009  1.00  0.00     0.057 A 
ATOM     60  C   UNL A   1      43.899  33.380  28.033  1.00  0.00     0.134 A 
ATOM     61  C   UNL A   1      45.912  32.553  27.067  1.00  0.00     0.134 A 
ATOM     62  F   UNL A   1      42.844  33.291  28.857  1.00  0.00    -0.206 F 
ATOM     63  C   UNL A   1      43.936  34.474  27.162  1.00  0.00     0.040 A 
ATOM     64  C   UNL A   1      45.988  33.667  26.231  1.00  0.00     0.040 A 
ATOM     65  F   UNL A   1      46.841  31.610  26.851  1.00  0.00    -0.206 F 
ATOM     66  C   UNL A   1      44.985  34.623  26.261  1.00  0.00     0.006 A 
ENDBRANCH  45  59
BRANCH  46  67
ATOM     67  C   UNL A   1      37.075  31.377  31.331  1.00  0.00     0.057 A 
ATOM     68  C   UNL A   1      36.375  31.697  32.500  1.00  0.00     0.134 A 
ATOM     69  C   UNL A   1      36.504  31.831  30.128  1.00  0.00     0.134 A 
ATOM     70  F   UNL A   1      36.865  31.362  33.702  1.00  0.00    -0.206 F 
ATOM     71  C   UNL A   1      35.175  32.421  32.475  1.00  0.00     0.040 A 
ATOM     72  C   UNL A   1      35.297  32.536  30.086  1.00  0.00     0.040 A 
ATOM     73  F   UNL A   1      37.134  31.680  28.954  1.00  0.00    -0.206 F 
ATOM     74  C   UNL A   1      34.632  32.842  31.265  1.00  0.00     0.006 A 
ENDBRANCH  46  67
BRANCH  58  75
ATOM     75  C   UNL A   1      42.616  30.131  34.035  1.00  0.00     0.057 A 
ATOM     76  C   UNL A   1      42.192  28.795  33.961  1.00  0.00     0.134 A 
ATOM     77  C   UNL A   1      43.027  30.595  35.287  1.00  0.00     0.134 A 
ATOM     78  F   UNL A   1      41.889  28.227  32.786  1.00  0.00    -0.206 F 
ATOM     79  C   UNL A   1      42.122  27.980  35.094  1.00  0.00     0.040 A 
ATOM     80  C   UNL A   1      42.997  29.779  36.422  1.00  0.00     0.040 A 
ATOM     81  F   UNL A   1      43.512  31.840  35.424  1.00  0.00    -0.206 F 
ATOM     82  C   UNL A   1      42.530  28.471  36.331  1.00  0.00     0.006 A 
ENDBRANCH  58  75
ENDBRANCH  32  33
ENDBRANCH  25  27
ENDBRANCH  24  25
ENDBRANCH  23  24
ENDBRANCH  22  23
ENDBRANCH   1  22
TORSDOF 18
ENDMDL
