MODEL 1
REMARK VINA RESULT:      -8.9      0.000      0.000
REMARK SMILES CC[C@H]1CC[C@](CC(C)(C)O)(C(=O)OCCOC(=O)c2ccc(-c3c4nc(c(-c5c(F)cccc5F)c5ccc([nH]5)c(-c5c(F)cccc5F)c5nc(c(-c6c(F)cccc6F)c6ccc3[nH]6)C=C5)C=C4)cc2)C1
REMARK SMILES IDX 15 1 14 2 12 3 13 4 6 5 3 6 4 7 74 8 5 9 2 10 1 11 7 12 8 13
REMARK SMILES IDX 9 14 10 15 11 16 16 18 17 19 18 20 19 21 20 22 21 23 73 24
REMARK SMILES IDX 22 25 72 26 23 27 24 28 25 29 66 30 26 31 71 32 65 33 67 34
REMARK SMILES IDX 27 35 70 36 64 37 63 38 28 40 54 41 37 42 53 43 38 44 41 45
REMARK SMILES IDX 52 46 68 47 39 48 40 49 51 51 69 52 42 53 29 54 30 55 35 56
REMARK SMILES IDX 31 57 32 58 34 59 36 60 33 61 55 62 56 63 61 64 57 65 58 66
REMARK SMILES IDX 60 67 62 68 59 69 43 70 44 71 49 72 45 73 46 74 48 75 50 76
REMARK SMILES IDX 47 77
REMARK H PARENT 11 17 67 39 41 50
REMARK Flexibility Score: inf
ROOT
ATOM      1  C   UNL A   1      41.773  19.929  27.017  1.00  0.00     0.274 C 
ENDROOT
BRANCH   1   2
ATOM      2  O   UNL A   1      42.724  21.009  27.112  1.00  0.00    -0.462 OA
BRANCH   2   3
ATOM      3  C   UNL A   1      43.341  21.359  25.951  1.00  0.00     0.312 C 
ATOM      4  O   UNL A   1      43.467  20.601  24.996  1.00  0.00    -0.252 OA
BRANCH   3   5
ATOM      5  C   UNL A   1      43.995  22.752  26.025  1.00  0.00     0.071 C 
ATOM      6  C   UNL A   1      45.418  24.076  24.480  1.00  0.00    -0.010 C 
ATOM      7  C   UNL A   1      46.285  22.983  25.082  1.00  0.00     0.005 C 
ATOM      8  C   UNL A   1      44.014  23.477  24.656  1.00  0.00     0.022 C 
ATOM      9  C   UNL A   1      45.525  22.553  26.334  1.00  0.00     0.019 C 
BRANCH   6  10
ATOM     10  C   UNL A   1      45.556  25.443  25.171  1.00  0.00     0.000 C 
ATOM     11  C   UNL A   1      46.995  25.854  25.443  1.00  0.00     0.004 C 
ENDBRANCH   6  10
BRANCH   5  12
ATOM     12  C   UNL A   1      43.314  23.475  27.234  1.00  0.00     0.053 C 
BRANCH  12  13
ATOM     13  C   UNL A   1      44.035  23.643  28.594  1.00  0.00     0.060 C 
ATOM     14  C   UNL A   1      45.425  24.271  28.533  1.00  0.00     0.042 C 
ATOM     15  C   UNL A   1      43.145  24.503  29.506  1.00  0.00     0.042 C 
BRANCH  13  16
ATOM     16  O   UNL A   1      44.136  22.358  29.207  1.00  0.00    -0.390 OA
ATOM     17  H   UNL A   1      45.071  22.122  29.309  1.00  0.00     0.211 HD
ENDBRANCH  13  16
ENDBRANCH  12  13
ENDBRANCH   5  12
ENDBRANCH   3   5
ENDBRANCH   2   3
ENDBRANCH   1   2
BRANCH   1  18
ATOM     18  C   UNL A   1      40.367  20.424  26.690  1.00  0.00     0.275 C 
BRANCH  18  19
ATOM     19  O   UNL A   1      40.150  21.743  27.215  1.00  0.00    -0.458 OA
BRANCH  19  20
ATOM     20  C   UNL A   1      39.314  22.518  26.491  1.00  0.00     0.338 C 
ATOM     21  O   UNL A   1      38.476  22.163  25.678  1.00  0.00    -0.246 OA
BRANCH  20  22
ATOM     22  C   UNL A   1      39.541  23.923  26.839  1.00  0.00     0.060 A 
ATOM     23  C   UNL A   1      40.071  24.782  25.877  1.00  0.00     0.016 A 
ATOM     24  C   UNL A   1      39.338  24.354  28.149  1.00  0.00     0.016 A 
ATOM     25  C   UNL A   1      40.454  26.073  26.233  1.00  0.00     0.010 A 
ATOM     26  C   UNL A   1      39.679  25.663  28.492  1.00  0.00     0.010 A 
ATOM     27  C   UNL A   1      40.263  26.524  27.544  1.00  0.00    -0.014 A 
BRANCH  27  28
ATOM     28  C   UNL A   1      40.714  27.872  27.963  1.00  0.00     0.031 A 
ATOM     29  C   UNL A   1      42.180  28.194  27.962  1.00  0.00     0.074 A 
ATOM     30  C   UNL A   1      39.822  28.790  28.382  1.00  0.00     0.049 A 
ATOM     31  N   UNL A   1      42.810  29.197  28.515  1.00  0.00    -0.248 NA
ATOM     32  C   UNL A   1      43.055  27.252  27.246  1.00  0.00     0.031 C 
ATOM     33  C   UNL A   1      38.369  28.625  28.372  1.00  0.00     0.029 A 
ATOM     34  N   UNL A   1      40.016  30.037  28.918  1.00  0.00    -0.354 N 
ATOM     35  C   UNL A   1      44.158  28.983  28.259  1.00  0.00     0.074 A 
ATOM     36  C   UNL A   1      44.255  27.757  27.494  1.00  0.00     0.031 C 
ATOM     37  C   UNL A   1      37.801  29.727  28.888  1.00  0.00     0.029 A 
ATOM     38  C   UNL A   1      38.852  30.640  29.327  1.00  0.00     0.049 A 
ATOM     39  H   UNL A   1      40.902  30.458  29.002  1.00  0.00     0.167 HD
ATOM     40  C   UNL A   1      45.216  29.738  28.638  1.00  0.00     0.037 A 
ATOM     41  C   UNL A   1      38.658  31.775  30.024  1.00  0.00     0.037 A 
ATOM     42  C   UNL A   1      45.106  30.972  29.370  1.00  0.00     0.049 A 
ATOM     43  C   UNL A   1      39.849  32.575  30.474  1.00  0.00     0.074 A 
ATOM     44  C   UNL A   1      46.116  31.812  29.806  1.00  0.00     0.029 A 
ATOM     45  N   UNL A   1      43.907  31.549  29.762  1.00  0.00    -0.354 N 
ATOM     46  N   UNL A   1      41.123  32.338  30.281  1.00  0.00    -0.248 NA
ATOM     47  C   UNL A   1      39.575  33.790  31.254  1.00  0.00     0.031 C 
ATOM     48  C   UNL A   1      45.529  32.885  30.484  1.00  0.00     0.029 A 
ATOM     49  C   UNL A   1      44.153  32.732  30.438  1.00  0.00     0.049 A 
ATOM     50  H   UNL A   1      43.015  31.174  29.584  1.00  0.00     0.167 HD
ATOM     51  C   UNL A   1      41.802  33.383  30.893  1.00  0.00     0.074 A 
ATOM     52  C   UNL A   1      40.797  34.259  31.461  1.00  0.00     0.031 C 
ATOM     53  C   UNL A   1      43.137  33.599  30.976  1.00  0.00     0.037 A 
BRANCH  40  54
ATOM     54  C   UNL A   1      46.585  29.230  28.300  1.00  0.00     0.057 A 
ATOM     55  C   UNL A   1      47.242  29.595  27.119  1.00  0.00     0.134 A 
ATOM     56  C   UNL A   1      47.266  28.386  29.186  1.00  0.00     0.134 A 
ATOM     57  F   UNL A   1      46.637  30.389  26.222  1.00  0.00    -0.206 F 
ATOM     58  C   UNL A   1      48.523  29.124  26.824  1.00  0.00     0.040 A 
ATOM     59  C   UNL A   1      48.554  27.925  28.911  1.00  0.00     0.040 A 
ATOM     60  F   UNL A   1      46.692  28.001  30.337  1.00  0.00    -0.206 F 
ATOM     61  C   UNL A   1      49.185  28.292  27.725  1.00  0.00     0.006 A 
ENDBRANCH  40  54
BRANCH  41  62
ATOM     62  C   UNL A   1      37.281  32.200  30.374  1.00  0.00     0.057 A 
ATOM     63  C   UNL A   1      36.538  33.018  29.518  1.00  0.00     0.134 A 
ATOM     64  C   UNL A   1      36.672  31.791  31.567  1.00  0.00     0.134 A 
ATOM     65  F   UNL A   1      37.077  33.461  28.371  1.00  0.00    -0.206 F 
ATOM     66  C   UNL A   1      35.241  33.423  29.837  1.00  0.00     0.040 A 
ATOM     67  C   UNL A   1      35.368  32.168  31.888  1.00  0.00     0.040 A 
ATOM     68  F   UNL A   1      37.333  31.004  32.429  1.00  0.00    -0.206 F 
ATOM     69  C   UNL A   1      34.650  32.991  31.024  1.00  0.00     0.006 A 
ENDBRANCH  41  62
BRANCH  53  70
ATOM     70  C   UNL A   1      43.586  34.853  31.660  1.00  0.00     0.057 A 
ATOM     71  C   UNL A   1      43.893  34.880  33.025  1.00  0.00     0.134 A 
ATOM     72  C   UNL A   1      43.766  36.032  30.928  1.00  0.00     0.134 A 
ATOM     73  F   UNL A   1      43.729  33.783  33.781  1.00  0.00    -0.206 F 
ATOM     74  C   UNL A   1      44.353  36.044  33.643  1.00  0.00     0.040 A 
ATOM     75  C   UNL A   1      44.243  37.197  31.530  1.00  0.00     0.040 A 
ATOM     76  F   UNL A   1      43.494  36.067  29.615  1.00  0.00    -0.206 F 
ATOM     77  C   UNL A   1      44.536  37.204  32.893  1.00  0.00     0.006 A 
ENDBRANCH  53  70
ENDBRANCH  27  28
ENDBRANCH  20  22
ENDBRANCH  19  20
ENDBRANCH  18  19
ENDBRANCH   1  18
TORSDOF 15
ENDMDL
MODEL 2
REMARK VINA RESULT:      -8.9      3.858      9.011
REMARK SMILES CC[C@H]1CC[C@](CC(C)(C)O)(C(=O)OCCOC(=O)c2ccc(-c3c4nc(c(-c5c(F)cccc5F)c5ccc([nH]5)c(-c5c(F)cccc5F)c5nc(c(-c6c(F)cccc6F)c6ccc3[nH]6)C=C5)C=C4)cc2)C1
REMARK SMILES IDX 15 1 14 2 12 3 13 4 6 5 3 6 4 7 74 8 5 9 2 10 1 11 7 12 8 13
REMARK SMILES IDX 9 14 10 15 11 16 16 18 17 19 18 20 19 21 20 22 21 23 73 24
REMARK SMILES IDX 22 25 72 26 23 27 24 28 25 29 66 30 26 31 71 32 65 33 67 34
REMARK SMILES IDX 27 35 70 36 64 37 63 38 28 40 54 41 37 42 53 43 38 44 41 45
REMARK SMILES IDX 52 46 68 47 39 48 40 49 51 51 69 52 42 53 29 54 30 55 35 56
REMARK SMILES IDX 31 57 32 58 34 59 36 60 33 61 55 62 56 63 61 64 57 65 58 66
REMARK SMILES IDX 60 67 62 68 59 69 43 70 44 71 49 72 45 73 46 74 48 75 50 76
REMARK SMILES IDX 47 77
REMARK H PARENT 11 17 67 39 41 50
REMARK Flexibility Score: inf
ROOT
ATOM      1  C   UNL A   1      34.891  21.192  24.605  1.00  0.00     0.274 C 
ENDROOT
BRANCH   1   2
ATOM      2  O   UNL A   1      34.798  22.627  24.727  1.00  0.00    -0.462 OA
BRANCH   2   3
ATOM      3  C   UNL A   1      34.164  23.268  23.707  1.00  0.00     0.312 C 
ATOM      4  O   UNL A   1      34.548  23.234  22.544  1.00  0.00    -0.252 OA
BRANCH   3   5
ATOM      5  C   UNL A   1      33.009  24.161  24.197  1.00  0.00     0.071 C 
ATOM      6  C   UNL A   1      31.003  25.141  23.111  1.00  0.00    -0.010 C 
ATOM      7  C   UNL A   1      32.212  25.938  22.651  1.00  0.00     0.005 C 
ATOM      8  C   UNL A   1      31.658  23.813  23.524  1.00  0.00     0.022 C 
ATOM      9  C   UNL A   1      33.281  25.627  23.694  1.00  0.00     0.019 C 
BRANCH   6  10
ATOM     10  C   UNL A   1      30.224  25.788  24.269  1.00  0.00     0.000 C 
ATOM     11  C   UNL A   1      29.387  26.989  23.854  1.00  0.00     0.004 C 
ENDBRANCH   6  10
BRANCH   5  12
ATOM     12  C   UNL A   1      33.083  24.129  25.760  1.00  0.00     0.053 C 
BRANCH  12  13
ATOM     13  C   UNL A   1      32.150  23.225  26.602  1.00  0.00     0.060 C 
ATOM     14  C   UNL A   1      31.416  22.131  25.830  1.00  0.00     0.042 C 
ATOM     15  C   UNL A   1      32.990  22.567  27.710  1.00  0.00     0.042 C 
BRANCH  13  16
ATOM     16  O   UNL A   1      31.188  24.056  27.251  1.00  0.00    -0.390 OA
ATOM     17  H   UNL A   1      31.288  23.976  28.212  1.00  0.00     0.211 HD
ENDBRANCH  13  16
ENDBRANCH  12  13
ENDBRANCH   5  12
ENDBRANCH   3   5
ENDBRANCH   2   3
ENDBRANCH   1   2
BRANCH   1  18
ATOM     18  C   UNL A   1      36.266  20.666  25.006  1.00  0.00     0.275 C 
BRANCH  18  19
ATOM     19  O   UNL A   1      37.155  21.746  25.333  1.00  0.00    -0.458 OA
BRANCH  19  20
ATOM     20  C   UNL A   1      38.376  21.369  25.771  1.00  0.00     0.338 C 
ATOM     21  O   UNL A   1      38.905  20.274  25.674  1.00  0.00    -0.246 OA
BRANCH  20  22
ATOM     22  C   UNL A   1      39.035  22.518  26.399  1.00  0.00     0.060 A 
ATOM     23  C   UNL A   1      38.569  23.802  26.117  1.00  0.00     0.016 A 
ATOM     24  C   UNL A   1      40.180  22.326  27.168  1.00  0.00     0.016 A 
ATOM     25  C   UNL A   1      39.282  24.914  26.563  1.00  0.00     0.010 A 
ATOM     26  C   UNL A   1      40.866  23.439  27.654  1.00  0.00     0.010 A 
ATOM     27  C   UNL A   1      40.437  24.741  27.333  1.00  0.00    -0.014 A 
BRANCH  27  28
ATOM     28  C   UNL A   1      41.245  25.904  27.772  1.00  0.00     0.031 A 
ATOM     29  C   UNL A   1      40.601  26.979  28.600  1.00  0.00     0.074 A 
ATOM     30  C   UNL A   1      42.533  26.020  27.400  1.00  0.00     0.049 A 
ATOM     31  N   UNL A   1      41.032  28.181  28.878  1.00  0.00    -0.248 NA
ATOM     32  C   UNL A   1      39.291  26.656  29.187  1.00  0.00     0.031 C 
ATOM     33  C   UNL A   1      43.292  25.018  26.651  1.00  0.00     0.029 A 
ATOM     34  N   UNL A   1      43.422  27.047  27.584  1.00  0.00    -0.354 N 
ATOM     35  C   UNL A   1      40.027  28.777  29.628  1.00  0.00     0.074 A 
ATOM     36  C   UNL A   1      38.966  27.801  29.768  1.00  0.00     0.031 C 
ATOM     37  C   UNL A   1      44.532  25.484  26.432  1.00  0.00     0.029 A 
ATOM     38  C   UNL A   1      44.628  26.841  26.961  1.00  0.00     0.049 A 
ATOM     39  H   UNL A   1      43.216  27.854  28.111  1.00  0.00     0.167 HD
ATOM     40  C   UNL A   1      39.992  30.029  30.144  1.00  0.00     0.037 A 
ATOM     41  C   UNL A   1      45.674  27.671  26.791  1.00  0.00     0.037 A 
ATOM     42  C   UNL A   1      41.066  30.980  30.027  1.00  0.00     0.049 A 
ATOM     43  C   UNL A   1      45.596  29.072  27.331  1.00  0.00     0.074 A 
ATOM     44  C   UNL A   1      41.130  32.276  30.509  1.00  0.00     0.029 A 
ATOM     45  N   UNL A   1      42.272  30.729  29.390  1.00  0.00    -0.354 N 
ATOM     46  N   UNL A   1      44.621  29.651  27.988  1.00  0.00    -0.248 NA
ATOM     47  C   UNL A   1      46.758  29.941  27.091  1.00  0.00     0.031 C 
ATOM     48  C   UNL A   1      42.367  32.818  30.142  1.00  0.00     0.029 A 
ATOM     49  C   UNL A   1      43.085  31.847  29.463  1.00  0.00     0.049 A 
ATOM     50  H   UNL A   1      42.514  29.882  28.952  1.00  0.00     0.167 HD
ATOM     51  C   UNL A   1      45.058  30.940  28.261  1.00  0.00     0.074 A 
ATOM     52  C   UNL A   1      46.389  31.059  27.702  1.00  0.00     0.031 C 
ATOM     53  C   UNL A   1      44.415  31.936  28.917  1.00  0.00     0.037 A 
BRANCH  40  54
ATOM     54  C   UNL A   1      38.739  30.453  30.848  1.00  0.00     0.057 A 
ATOM     55  C   UNL A   1      38.577  30.304  32.230  1.00  0.00     0.134 A 
ATOM     56  C   UNL A   1      37.691  31.046  30.133  1.00  0.00     0.134 A 
ATOM     57  F   UNL A   1      39.538  29.729  32.969  1.00  0.00    -0.206 F 
ATOM     58  C   UNL A   1      37.408  30.716  32.874  1.00  0.00     0.040 A 
ATOM     59  C   UNL A   1      36.527  31.480  30.769  1.00  0.00     0.040 A 
ATOM     60  F   UNL A   1      37.785  31.220  28.805  1.00  0.00    -0.206 F 
ATOM     61  C   UNL A   1      36.383  31.312  32.143  1.00  0.00     0.006 A 
ENDBRANCH  40  54
BRANCH  41  62
ATOM     62  C   UNL A   1      46.867  27.212  26.039  1.00  0.00     0.057 A 
ATOM     63  C   UNL A   1      47.912  26.543  26.683  1.00  0.00     0.134 A 
ATOM     64  C   UNL A   1      46.986  27.423  24.660  1.00  0.00     0.134 A 
ATOM     65  F   UNL A   1      47.864  26.332  28.007  1.00  0.00    -0.206 F 
ATOM     66  C   UNL A   1      49.038  26.105  25.985  1.00  0.00     0.040 A 
ATOM     67  C   UNL A   1      48.096  26.970  23.946  1.00  0.00     0.040 A 
ATOM     68  F   UNL A   1      46.017  28.057  23.986  1.00  0.00    -0.206 F 
ATOM     69  C   UNL A   1      49.129  26.313  24.610  1.00  0.00     0.006 A 
ENDBRANCH  41  62
BRANCH  53  70
ATOM     70  C   UNL A   1      45.160  33.220  29.111  1.00  0.00     0.057 A 
ATOM     71  C   UNL A   1      45.050  34.281  28.205  1.00  0.00     0.134 A 
ATOM     72  C   UNL A   1      45.952  33.414  30.248  1.00  0.00     0.134 A 
ATOM     73  F   UNL A   1      44.314  34.150  27.091  1.00  0.00    -0.206 F 
ATOM     74  C   UNL A   1      45.714  35.490  28.418  1.00  0.00     0.040 A 
ATOM     75  C   UNL A   1      46.607  34.624  30.482  1.00  0.00     0.040 A 
ATOM     76  F   UNL A   1      46.092  32.436  31.157  1.00  0.00    -0.206 F 
ATOM     77  C   UNL A   1      46.489  35.665  29.564  1.00  0.00     0.006 A 
ENDBRANCH  53  70
ENDBRANCH  27  28
ENDBRANCH  20  22
ENDBRANCH  19  20
ENDBRANCH  18  19
ENDBRANCH   1  18
TORSDOF 15
ENDMDL
MODEL 3
REMARK VINA RESULT:      -8.8      3.405      8.653
REMARK SMILES CC[C@H]1CC[C@](CC(C)(C)O)(C(=O)OCCOC(=O)c2ccc(-c3c4nc(c(-c5c(F)cccc5F)c5ccc([nH]5)c(-c5c(F)cccc5F)c5nc(c(-c6c(F)cccc6F)c6ccc3[nH]6)C=C5)C=C4)cc2)C1
REMARK SMILES IDX 15 1 14 2 12 3 13 4 6 5 3 6 4 7 74 8 5 9 2 10 1 11 7 12 8 13
REMARK SMILES IDX 9 14 10 15 11 16 16 18 17 19 18 20 19 21 20 22 21 23 73 24
REMARK SMILES IDX 22 25 72 26 23 27 24 28 25 29 66 30 26 31 71 32 65 33 67 34
REMARK SMILES IDX 27 35 70 36 64 37 63 38 28 40 54 41 37 42 53 43 38 44 41 45
REMARK SMILES IDX 52 46 68 47 39 48 40 49 51 51 69 52 42 53 29 54 30 55 35 56
REMARK SMILES IDX 31 57 32 58 34 59 36 60 33 61 55 62 56 63 61 64 57 65 58 66
REMARK SMILES IDX 60 67 62 68 59 69 43 70 44 71 49 72 45 73 46 74 48 75 50 76
REMARK SMILES IDX 47 77
REMARK H PARENT 11 17 67 39 41 50
REMARK Flexibility Score: inf
ROOT
ATOM      1  C   UNL A   1      36.487  22.596  23.518  1.00  0.00     0.274 C 
ENDROOT
BRANCH   1   2
ATOM      2  O   UNL A   1      35.678  23.696  23.983  1.00  0.00    -0.462 OA
BRANCH   2   3
ATOM      3  C   UNL A   1      34.332  23.494  23.956  1.00  0.00     0.312 C 
ATOM      4  O   UNL A   1      33.762  22.852  23.081  1.00  0.00    -0.252 OA
BRANCH   3   5
ATOM      5  C   UNL A   1      33.593  24.285  25.051  1.00  0.00     0.071 C 
ATOM      6  C   UNL A   1      32.107  26.274  25.042  1.00  0.00    -0.010 C 
ATOM      7  C   UNL A   1      33.530  26.760  24.819  1.00  0.00     0.005 C 
ATOM      8  C   UNL A   1      32.214  24.811  24.581  1.00  0.00     0.022 C 
ATOM      9  C   UNL A   1      34.398  25.610  25.320  1.00  0.00     0.019 C 
BRANCH   6  10
ATOM     10  C   UNL A   1      31.621  26.390  26.496  1.00  0.00     0.000 C 
ATOM     11  C   UNL A   1      31.795  27.777  27.095  1.00  0.00     0.004 C 
ENDBRANCH   6  10
BRANCH   5  12
ATOM     12  C   UNL A   1      33.642  23.383  26.329  1.00  0.00     0.053 C 
BRANCH  12  13
ATOM     13  C   UNL A   1      32.621  22.242  26.560  1.00  0.00     0.060 C 
ATOM     14  C   UNL A   1      31.328  22.338  25.753  1.00  0.00     0.042 C 
ATOM     15  C   UNL A   1      33.309  20.907  26.232  1.00  0.00     0.042 C 
BRANCH  13  16
ATOM     16  O   UNL A   1      32.294  22.208  27.950  1.00  0.00    -0.390 OA
ATOM     17  H   UNL A   1      32.910  22.775  28.440  1.00  0.00     0.211 HD
ENDBRANCH  13  16
ENDBRANCH  12  13
ENDBRANCH   5  12
ENDBRANCH   3   5
ENDBRANCH   2   3
ENDBRANCH   1   2
BRANCH   1  18
ATOM     18  C   UNL A   1      36.410  21.389  24.449  1.00  0.00     0.275 C 
BRANCH  18  19
ATOM     19  O   UNL A   1      37.009  21.680  25.721  1.00  0.00    -0.458 OA
BRANCH  19  20
ATOM     20  C   UNL A   1      38.334  21.431  25.801  1.00  0.00     0.338 C 
ATOM     21  O   UNL A   1      38.937  20.439  25.422  1.00  0.00    -0.246 OA
BRANCH  20  22
ATOM     22  C   UNL A   1      39.001  22.579  26.421  1.00  0.00     0.060 A 
ATOM     23  C   UNL A   1      38.552  23.865  26.123  1.00  0.00     0.016 A 
ATOM     24  C   UNL A   1      40.140  22.383  27.199  1.00  0.00     0.016 A 
ATOM     25  C   UNL A   1      39.273  24.973  26.560  1.00  0.00     0.010 A 
ATOM     26  C   UNL A   1      40.835  23.494  27.677  1.00  0.00     0.010 A 
ATOM     27  C   UNL A   1      40.422  24.797  27.340  1.00  0.00    -0.014 A 
BRANCH  27  28
ATOM     28  C   UNL A   1      41.240  25.956  27.771  1.00  0.00     0.031 A 
ATOM     29  C   UNL A   1      40.605  27.043  28.589  1.00  0.00     0.074 A 
ATOM     30  C   UNL A   1      42.530  26.056  27.401  1.00  0.00     0.049 A 
ATOM     31  N   UNL A   1      41.047  28.244  28.857  1.00  0.00    -0.248 NA
ATOM     32  C   UNL A   1      39.290  26.738  29.175  1.00  0.00     0.031 C 
ATOM     33  C   UNL A   1      43.281  25.041  26.663  1.00  0.00     0.029 A 
ATOM     34  N   UNL A   1      43.429  27.076  27.579  1.00  0.00    -0.354 N 
ATOM     35  C   UNL A   1      40.045  28.856  29.600  1.00  0.00     0.074 A 
ATOM     36  C   UNL A   1      38.975  27.891  29.746  1.00  0.00     0.031 C 
ATOM     37  C   UNL A   1      44.526  25.493  26.442  1.00  0.00     0.029 A 
ATOM     38  C   UNL A   1      44.635  26.853  26.960  1.00  0.00     0.049 A 
ATOM     39  H   UNL A   1      43.229  27.889  28.099  1.00  0.00     0.167 HD
ATOM     40  C   UNL A   1      40.021  30.112  30.105  1.00  0.00     0.037 A 
ATOM     41  C   UNL A   1      45.688  27.673  26.786  1.00  0.00     0.037 A 
ATOM     42  C   UNL A   1      41.105  31.052  29.983  1.00  0.00     0.049 A 
ATOM     43  C   UNL A   1      45.623  29.078  27.315  1.00  0.00     0.074 A 
ATOM     44  C   UNL A   1      41.179  32.351  30.455  1.00  0.00     0.029 A 
ATOM     45  N   UNL A   1      42.310  30.784  29.351  1.00  0.00    -0.354 N 
ATOM     46  N   UNL A   1      44.651  29.672  27.965  1.00  0.00    -0.248 NA
ATOM     47  C   UNL A   1      46.793  29.934  27.070  1.00  0.00     0.031 C 
ATOM     48  C   UNL A   1      42.422  32.878  30.086  1.00  0.00     0.029 A 
ATOM     49  C   UNL A   1      43.133  31.895  29.417  1.00  0.00     0.049 A 
ATOM     50  H   UNL A   1      42.544  29.931  28.920  1.00  0.00     0.167 HD
ATOM     51  C   UNL A   1      45.100  30.959  28.228  1.00  0.00     0.074 A 
ATOM     52  C   UNL A   1      46.433  31.060  27.671  1.00  0.00     0.031 C 
ATOM     53  C   UNL A   1      44.465  31.967  28.874  1.00  0.00     0.037 A 
BRANCH  40  54
ATOM     54  C   UNL A   1      38.771  30.553  30.802  1.00  0.00     0.057 A 
ATOM     55  C   UNL A   1      37.721  31.179  30.120  1.00  0.00     0.134 A 
ATOM     56  C   UNL A   1      38.604  30.320  32.174  1.00  0.00     0.134 A 
ATOM     57  F   UNL A   1      37.825  31.445  28.809  1.00  0.00    -0.206 F 
ATOM     58  C   UNL A   1      36.556  31.574  30.782  1.00  0.00     0.040 A 
ATOM     59  C   UNL A   1      37.436  30.691  32.841  1.00  0.00     0.040 A 
ATOM     60  F   UNL A   1      39.572  29.721  32.885  1.00  0.00    -0.206 F 
ATOM     61  C   UNL A   1      36.409  31.323  32.145  1.00  0.00     0.006 A 
ENDBRANCH  40  54
BRANCH  41  62
ATOM     62  C   UNL A   1      46.878  27.196  26.041  1.00  0.00     0.057 A 
ATOM     63  C   UNL A   1      46.996  27.398  24.663  1.00  0.00     0.134 A 
ATOM     64  C   UNL A   1      47.929  26.535  26.690  1.00  0.00     0.134 A 
ATOM     65  F   UNL A   1      46.012  28.004  23.983  1.00  0.00    -0.206 F 
ATOM     66  C   UNL A   1      48.112  26.954  23.953  1.00  0.00     0.040 A 
ATOM     67  C   UNL A   1      49.061  26.106  25.997  1.00  0.00     0.040 A 
ATOM     68  F   UNL A   1      47.876  26.312  28.011  1.00  0.00    -0.206 F 
ATOM     69  C   UNL A   1      49.153  26.312  24.622  1.00  0.00     0.006 A 
ENDBRANCH  41  62
BRANCH  53  70
ATOM     70  C   UNL A   1      45.221  33.245  29.059  1.00  0.00     0.057 A 
ATOM     71  C   UNL A   1      46.077  33.446  30.148  1.00  0.00     0.134 A 
ATOM     72  C   UNL A   1      45.131  34.265  28.104  1.00  0.00     0.134 A 
ATOM     73  F   UNL A   1      46.194  32.510  31.101  1.00  0.00    -0.206 F 
ATOM     74  C   UNL A   1      46.810  34.625  30.287  1.00  0.00     0.040 A 
ATOM     75  C   UNL A   1      45.874  35.440  28.221  1.00  0.00     0.040 A 
ATOM     76  F   UNL A   1      44.333  34.128  27.034  1.00  0.00    -0.206 F 
ATOM     77  C   UNL A   1      46.715  35.623  29.317  1.00  0.00     0.006 A 
ENDBRANCH  53  70
ENDBRANCH  27  28
ENDBRANCH  20  22
ENDBRANCH  19  20
ENDBRANCH  18  19
ENDBRANCH   1  18
TORSDOF 15
ENDMDL
