MODEL 1
REMARK VINA RESULT:     -11.6      0.000      0.000
REMARK SMILES COC(=O)c1c(SCC(=O)Nc2cc(C)ccc2C)[nH]c2cc(C(=O)OCCOC(=O)c3ccc(-c4c5nc(c(-c6c(F)cccc6F)c6ccc([nH]6)c(-c6c(F)cccc6F)c6nc(c(-c7c(F)cccc7F)c7ccc4[nH]7)C=C6)C=C5)cc3)ccc2c1=O
REMARK SMILES IDX 27 1 26 2 24 3 25 4 23 5 5 6 6 7 89 8 20 9 88 10 90 11 21 12
REMARK SMILES IDX 87 14 22 15 86 16 3 17 4 18 2 19 1 20 7 21 8 22 9 23 10 24
REMARK SMILES IDX 11 25 12 27 13 28 18 29 14 30 17 31 19 32 15 33 16 34 28 35
REMARK SMILES IDX 29 36 30 37 31 38 32 39 33 40 85 41 34 42 84 43 35 44 36 45
REMARK SMILES IDX 37 46 78 47 38 48 83 49 77 50 79 51 39 52 82 53 76 54 75 55
REMARK SMILES IDX 40 57 66 58 49 59 65 60 50 61 53 62 64 63 80 64 51 65 52 66
REMARK SMILES IDX 63 68 81 69 54 70 41 71 42 72 47 73 43 74 44 75 46 76 48 77
REMARK SMILES IDX 45 78 67 79 68 80 73 81 69 82 70 83 72 84 74 85 71 86 55 87
REMARK SMILES IDX 56 88 61 89 57 90 58 91 60 92 62 93 59 94
REMARK H PARENT 20 13 11 26 79 56 53 67
REMARK Flexibility Score: inf
ROOT
ATOM      1  C   UNL A   1      40.141  20.177  26.557  1.00  0.00     0.275 C 
ENDROOT
BRANCH   1   2
ATOM      2  O   UNL A   1      39.307  20.983  25.666  1.00  0.00    -0.458 OA
BRANCH   2   3
ATOM      3  C   UNL A   1      38.814  22.166  26.093  1.00  0.00     0.338 C 
ATOM      4  O   UNL A   1      39.261  22.833  27.007  1.00  0.00    -0.246 OA
BRANCH   3   5
ATOM      5  C   UNL A   1      37.533  22.512  25.414  1.00  0.00     0.062 A 
ATOM      6  C   UNL A   1      33.832  25.564  23.639  1.00  0.00     0.138 A 
ATOM      7  C   UNL A   1      34.074  25.946  24.912  1.00  0.00     0.092 A 
ATOM      8  C   UNL A   1      34.429  24.289  23.136  1.00  0.00     0.205 A 
ATOM      9  N   UNL A   1      34.983  25.223  25.688  1.00  0.00    -0.349 N 
ATOM     10  C   UNL A   1      35.401  23.571  23.985  1.00  0.00     0.046 A 
ATOM     11  O   UNL A   1      34.138  23.830  22.035  1.00  0.00    -0.288 OA
ATOM     12  C   UNL A   1      35.699  24.114  25.232  1.00  0.00     0.051 A 
ATOM     13  H   UNL A   1      35.130  25.514  26.616  1.00  0.00     0.167 HD
ATOM     14  C   UNL A   1      36.051  22.421  23.514  1.00  0.00     0.015 A 
ATOM     15  C   UNL A   1      36.785  23.586  25.939  1.00  0.00     0.042 A 
ATOM     16  C   UNL A   1      37.117  21.878  24.240  1.00  0.00     0.016 A 
BRANCH   6  17
ATOM     17  C   UNL A   1      33.109  26.336  22.632  1.00  0.00     0.344 C 
ATOM     18  O   UNL A   1      31.900  26.224  22.497  1.00  0.00    -0.246 OA
BRANCH  17  19
ATOM     19  O   UNL A   1      33.925  27.200  21.989  1.00  0.00    -0.465 OA
ATOM     20  C   UNL A   1      33.667  28.579  22.273  1.00  0.00     0.282 C 
ENDBRANCH  17  19
ENDBRANCH   6  17
BRANCH   7  21
ATOM     21  S   UNL A   1      33.248  27.222  25.787  1.00  0.00    -0.098 SA
BRANCH  21  22
ATOM     22  C   UNL A   1      31.691  26.749  26.538  1.00  0.00     0.176 C 
BRANCH  22  23
ATOM     23  C   UNL A   1      30.553  26.246  25.677  1.00  0.00     0.234 C 
ATOM     24  O   UNL A   1      30.021  27.025  24.874  1.00  0.00    -0.274 OA
ATOM     25  N   UNL A   1      30.178  24.936  25.557  1.00  0.00    -0.325 N 
ATOM     26  H   UNL A   1      29.222  24.751  25.413  1.00  0.00     0.169 HD
BRANCH  25  27
ATOM     27  C   UNL A   1      31.046  23.834  25.623  1.00  0.00     0.044 A 
ATOM     28  C   UNL A   1      31.692  23.518  26.816  1.00  0.00     0.029 A 
ATOM     29  C   UNL A   1      31.275  23.047  24.480  1.00  0.00    -0.027 A 
ATOM     30  C   UNL A   1      32.690  22.543  26.871  1.00  0.00    -0.049 A 
ATOM     31  C   UNL A   1      32.239  22.025  24.553  1.00  0.00     0.006 A 
ATOM     32  C   UNL A   1      30.584  23.249  23.158  1.00  0.00     0.046 C 
ATOM     33  C   UNL A   1      33.459  22.320  28.139  1.00  0.00     0.044 C 
ATOM     34  C   UNL A   1      32.959  21.796  25.727  1.00  0.00     0.004 A 
ENDBRANCH  25  27
ENDBRANCH  22  23
ENDBRANCH  21  22
ENDBRANCH   7  21
ENDBRANCH   3   5
ENDBRANCH   2   3
ENDBRANCH   1   2
BRANCH   1  35
ATOM     35  C   UNL A   1      41.419  19.465  26.003  1.00  0.00     0.275 C 
BRANCH  35  36
ATOM     36  O   UNL A   1      42.672  20.161  26.260  1.00  0.00    -0.458 OA
BRANCH  36  37
ATOM     37  C   UNL A   1      43.521  20.638  25.298  1.00  0.00     0.338 C 
ATOM     38  O   UNL A   1      44.327  20.036  24.613  1.00  0.00    -0.246 OA
BRANCH  37  39
ATOM     39  C   UNL A   1      43.239  22.093  25.282  1.00  0.00     0.060 A 
ATOM     40  C   UNL A   1      43.875  23.082  24.537  1.00  0.00     0.016 A 
ATOM     41  C   UNL A   1      42.522  22.460  26.392  1.00  0.00     0.016 A 
ATOM     42  C   UNL A   1      43.934  24.379  25.083  1.00  0.00     0.010 A 
ATOM     43  C   UNL A   1      42.916  23.541  27.083  1.00  0.00     0.010 A 
ATOM     44  C   UNL A   1      43.531  24.564  26.411  1.00  0.00    -0.014 A 
BRANCH  44  45
ATOM     45  C   UNL A   1      43.594  25.749  27.243  1.00  0.00     0.031 A 
ATOM     46  C   UNL A   1      44.674  26.739  26.874  1.00  0.00     0.074 A 
ATOM     47  C   UNL A   1      42.501  26.190  27.889  1.00  0.00     0.049 A 
ATOM     48  N   UNL A   1      45.841  26.849  27.421  1.00  0.00    -0.248 NA
ATOM     49  C   UNL A   1      44.544  27.572  25.653  1.00  0.00     0.031 C 
ATOM     50  C   UNL A   1      41.145  25.641  27.935  1.00  0.00     0.029 A 
ATOM     51  N   UNL A   1      42.399  27.333  28.607  1.00  0.00    -0.354 N 
ATOM     52  C   UNL A   1      46.470  27.905  26.761  1.00  0.00     0.074 A 
ATOM     53  C   UNL A   1      45.776  28.062  25.521  1.00  0.00     0.031 C 
ATOM     54  C   UNL A   1      40.326  26.529  28.553  1.00  0.00     0.029 A 
ATOM     55  C   UNL A   1      41.125  27.636  29.052  1.00  0.00     0.049 A 
ATOM     56  H   UNL A   1      43.175  27.908  28.800  1.00  0.00     0.167 HD
ATOM     57  C   UNL A   1      47.291  28.779  27.412  1.00  0.00     0.037 A 
ATOM     58  C   UNL A   1      40.785  28.737  29.767  1.00  0.00     0.037 A 
ATOM     59  C   UNL A   1      47.560  28.302  28.749  1.00  0.00     0.049 A 
ATOM     60  C   UNL A   1      42.040  29.283  30.356  1.00  0.00     0.074 A 
ATOM     61  C   UNL A   1      48.077  27.133  29.274  1.00  0.00     0.029 A 
ATOM     62  N   UNL A   1      46.865  28.895  29.777  1.00  0.00    -0.354 N 
ATOM     63  N   UNL A   1      42.745  28.662  31.262  1.00  0.00    -0.248 NA
ATOM     64  C   UNL A   1      42.764  30.294  29.596  1.00  0.00     0.031 C 
ATOM     65  C   UNL A   1      47.236  26.840  30.389  1.00  0.00     0.029 A 
ATOM     66  C   UNL A   1      46.324  27.888  30.534  1.00  0.00     0.049 A 
ATOM     67  H   UNL A   1      46.774  29.862  29.940  1.00  0.00     0.167 HD
ATOM     68  C   UNL A   1      44.068  28.883  30.905  1.00  0.00     0.074 A 
ATOM     69  C   UNL A   1      44.018  29.971  29.928  1.00  0.00     0.031 C 
ATOM     70  C   UNL A   1      45.047  27.979  31.209  1.00  0.00     0.037 A 
BRANCH  57  71
ATOM     71  C   UNL A   1      47.542  30.226  27.032  1.00  0.00     0.057 A 
ATOM     72  C   UNL A   1      48.869  30.698  27.052  1.00  0.00     0.134 A 
ATOM     73  C   UNL A   1      46.564  31.235  26.905  1.00  0.00     0.134 A 
ATOM     74  F   UNL A   1      49.901  29.846  27.153  1.00  0.00    -0.206 F 
ATOM     75  C   UNL A   1      49.191  32.060  27.053  1.00  0.00     0.040 A 
ATOM     76  C   UNL A   1      46.877  32.598  26.849  1.00  0.00     0.040 A 
ATOM     77  F   UNL A   1      45.250  30.986  26.925  1.00  0.00    -0.206 F 
ATOM     78  C   UNL A   1      48.192  33.018  26.963  1.00  0.00     0.006 A 
ENDBRANCH  57  71
BRANCH  58  79
ATOM     79  C   UNL A   1      39.513  29.485  29.783  1.00  0.00     0.057 A 
ATOM     80  C   UNL A   1      38.847  29.813  28.594  1.00  0.00     0.134 A 
ATOM     81  C   UNL A   1      38.781  29.651  30.971  1.00  0.00     0.134 A 
ATOM     82  F   UNL A   1      39.454  29.652  27.409  1.00  0.00    -0.206 F 
ATOM     83  C   UNL A   1      37.518  30.255  28.584  1.00  0.00     0.040 A 
ATOM     84  C   UNL A   1      37.455  30.094  30.975  1.00  0.00     0.040 A 
ATOM     85  F   UNL A   1      39.302  29.301  32.156  1.00  0.00    -0.206 F 
ATOM     86  C   UNL A   1      36.813  30.383  29.777  1.00  0.00     0.006 A 
ENDBRANCH  58  79
BRANCH  70  87
ATOM     87  C   UNL A   1      44.705  26.848  32.144  1.00  0.00     0.057 A 
ATOM     88  C   UNL A   1      44.380  25.547  31.729  1.00  0.00     0.134 A 
ATOM     89  C   UNL A   1      44.879  27.039  33.519  1.00  0.00     0.134 A 
ATOM     90  F   UNL A   1      44.288  25.231  30.435  1.00  0.00    -0.206 F 
ATOM     91  C   UNL A   1      44.201  24.498  32.637  1.00  0.00     0.040 A 
ATOM     92  C   UNL A   1      44.736  25.993  34.435  1.00  0.00     0.040 A 
ATOM     93  F   UNL A   1      45.246  28.240  33.991  1.00  0.00    -0.206 F 
ATOM     94  C   UNL A   1      44.387  24.719  33.997  1.00  0.00     0.006 A 
ENDBRANCH  70  87
ENDBRANCH  44  45
ENDBRANCH  37  39
ENDBRANCH  36  37
ENDBRANCH  35  36
ENDBRANCH   1  35
TORSDOF 17
ENDMDL
MODEL 2
REMARK VINA RESULT:     -11.4      2.942      7.252
REMARK SMILES COC(=O)c1c(SCC(=O)Nc2cc(C)ccc2C)[nH]c2cc(C(=O)OCCOC(=O)c3ccc(-c4c5nc(c(-c6c(F)cccc6F)c6ccc([nH]6)c(-c6c(F)cccc6F)c6nc(c(-c7c(F)cccc7F)c7ccc4[nH]7)C=C6)C=C5)cc3)ccc2c1=O
REMARK SMILES IDX 27 1 26 2 24 3 25 4 23 5 5 6 6 7 89 8 20 9 88 10 90 11 21 12
REMARK SMILES IDX 87 14 22 15 86 16 3 17 4 18 2 19 1 20 7 21 8 22 9 23 10 24
REMARK SMILES IDX 11 25 12 27 13 28 18 29 14 30 17 31 19 32 15 33 16 34 28 35
REMARK SMILES IDX 29 36 30 37 31 38 32 39 33 40 85 41 34 42 84 43 35 44 36 45
REMARK SMILES IDX 37 46 78 47 38 48 83 49 77 50 79 51 39 52 82 53 76 54 75 55
REMARK SMILES IDX 40 57 66 58 49 59 65 60 50 61 53 62 64 63 80 64 51 65 52 66
REMARK SMILES IDX 63 68 81 69 54 70 41 71 42 72 47 73 43 74 44 75 46 76 48 77
REMARK SMILES IDX 45 78 67 79 68 80 73 81 69 82 70 83 72 84 74 85 71 86 55 87
REMARK SMILES IDX 56 88 61 89 57 90 58 91 60 92 62 93 59 94
REMARK H PARENT 20 13 11 26 79 56 53 67
REMARK Flexibility Score: inf
ROOT
ATOM      1  C   UNL A   1      36.729  32.255  28.108  1.00  0.00     0.275 C 
ENDROOT
BRANCH   1   2
ATOM      2  O   UNL A   1      35.729  31.284  27.667  1.00  0.00    -0.458 OA
BRANCH   2   3
ATOM      3  C   UNL A   1      34.434  31.653  27.557  1.00  0.00     0.338 C 
ATOM      4  O   UNL A   1      33.975  32.735  27.874  1.00  0.00    -0.246 OA
BRANCH   3   5
ATOM      5  C   UNL A   1      33.566  30.516  27.141  1.00  0.00     0.062 A 
ATOM      6  C   UNL A   1      32.325  25.635  26.246  1.00  0.00     0.138 A 
ATOM      7  C   UNL A   1      33.531  25.842  25.671  1.00  0.00     0.092 A 
ATOM      8  C   UNL A   1      31.545  26.810  26.741  1.00  0.00     0.205 A 
ATOM      9  N   UNL A   1      34.085  27.123  25.675  1.00  0.00    -0.349 N 
ATOM     10  C   UNL A   1      32.181  28.141  26.744  1.00  0.00     0.046 A 
ATOM     11  O   UNL A   1      30.393  26.693  27.151  1.00  0.00    -0.288 OA
ATOM     12  C   UNL A   1      33.484  28.240  26.261  1.00  0.00     0.051 A 
ATOM     13  H   UNL A   1      34.957  27.249  25.237  1.00  0.00     0.167 HD
ATOM     14  C   UNL A   1      31.517  29.253  27.283  1.00  0.00     0.015 A 
ATOM     15  C   UNL A   1      34.181  29.433  26.479  1.00  0.00     0.042 A 
ATOM     16  C   UNL A   1      32.209  30.454  27.471  1.00  0.00     0.016 A 
BRANCH   6  17
ATOM     17  C   UNL A   1      31.723  24.337  26.539  1.00  0.00     0.344 C 
ATOM     18  O   UNL A   1      31.885  23.795  27.622  1.00  0.00    -0.246 OA
BRANCH  17  19
ATOM     19  O   UNL A   1      30.939  23.912  25.524  1.00  0.00    -0.465 OA
ATOM     20  C   UNL A   1      30.752  22.494  25.476  1.00  0.00     0.282 C 
ENDBRANCH  17  19
ENDBRANCH   6  17
BRANCH   7  21
ATOM     21  S   UNL A   1      34.465  24.664  24.767  1.00  0.00    -0.098 SA
BRANCH  21  22
ATOM     22  C   UNL A   1      33.549  23.757  23.521  1.00  0.00     0.176 C 
BRANCH  22  23
ATOM     23  C   UNL A   1      33.506  24.255  22.094  1.00  0.00     0.234 C 
ATOM     24  O   UNL A   1      33.533  23.429  21.171  1.00  0.00    -0.274 OA
ATOM     25  N   UNL A   1      33.236  25.543  21.719  1.00  0.00    -0.325 N 
ATOM     26  H   UNL A   1      33.683  25.881  20.910  1.00  0.00     0.169 HD
BRANCH  25  27
ATOM     27  C   UNL A   1      32.374  26.421  22.395  1.00  0.00     0.044 A 
ATOM     28  C   UNL A   1      31.150  25.969  22.882  1.00  0.00     0.029 A 
ATOM     29  C   UNL A   1      32.738  27.767  22.578  1.00  0.00    -0.027 A 
ATOM     30  C   UNL A   1      30.198  26.849  23.399  1.00  0.00    -0.049 A 
ATOM     31  C   UNL A   1      31.801  28.643  23.154  1.00  0.00     0.006 A 
ATOM     32  C   UNL A   1      34.061  28.353  22.158  1.00  0.00     0.046 C 
ATOM     33  C   UNL A   1      28.839  26.350  23.789  1.00  0.00     0.044 C 
ATOM     34  C   UNL A   1      30.534  28.195  23.533  1.00  0.00     0.004 A 
ENDBRANCH  25  27
ENDBRANCH  22  23
ENDBRANCH  21  22
ENDBRANCH   7  21
ENDBRANCH   3   5
ENDBRANCH   2   3
ENDBRANCH   1   2
BRANCH   1  35
ATOM     35  C   UNL A   1      37.081  32.385  29.627  1.00  0.00     0.275 C 
BRANCH  35  36
ATOM     36  O   UNL A   1      37.589  31.170  30.247  1.00  0.00    -0.458 OA
BRANCH  36  37
ATOM     37  C   UNL A   1      36.839  30.064  30.545  1.00  0.00     0.338 C 
ATOM     38  O   UNL A   1      35.682  29.992  30.912  1.00  0.00    -0.246 OA
BRANCH  37  39
ATOM     39  C   UNL A   1      37.783  28.941  30.325  1.00  0.00     0.060 A 
ATOM     40  C   UNL A   1      38.346  28.095  31.276  1.00  0.00     0.016 A 
ATOM     41  C   UNL A   1      38.380  29.044  29.095  1.00  0.00     0.016 A 
ATOM     42  C   UNL A   1      39.621  27.560  31.005  1.00  0.00     0.010 A 
ATOM     43  C   UNL A   1      39.710  28.885  29.012  1.00  0.00     0.010 A 
ATOM     44  C   UNL A   1      40.331  28.051  29.903  1.00  0.00    -0.014 A 
BRANCH  44  45
ATOM     45  C   UNL A   1      41.683  27.764  29.469  1.00  0.00     0.031 A 
ATOM     46  C   UNL A   1      41.829  26.562  28.565  1.00  0.00     0.074 A 
ATOM     47  C   UNL A   1      42.603  28.743  29.401  1.00  0.00     0.049 A 
ATOM     48  N   UNL A   1      42.177  25.367  28.918  1.00  0.00    -0.248 NA
ATOM     49  C   UNL A   1      41.361  26.618  27.158  1.00  0.00     0.031 C 
ATOM     50  C   UNL A   1      42.495  30.164  29.734  1.00  0.00     0.029 A 
ATOM     51  N   UNL A   1      43.861  28.631  28.915  1.00  0.00    -0.354 N 
ATOM     52  C   UNL A   1      42.188  24.613  27.745  1.00  0.00     0.074 A 
ATOM     53  C   UNL A   1      41.382  25.333  26.809  1.00  0.00     0.031 C 
ATOM     54  C   UNL A   1      43.617  30.804  29.321  1.00  0.00     0.029 A 
ATOM     55  C   UNL A   1      44.562  29.820  28.818  1.00  0.00     0.049 A 
ATOM     56  H   UNL A   1      44.250  27.766  28.649  1.00  0.00     0.167 HD
ATOM     57  C   UNL A   1      43.114  23.636  27.521  1.00  0.00     0.037 A 
ATOM     58  C   UNL A   1      45.824  29.949  28.341  1.00  0.00     0.037 A 
ATOM     59  C   UNL A   1      43.865  23.381  28.728  1.00  0.00     0.049 A 
ATOM     60  C   UNL A   1      46.451  28.598  28.382  1.00  0.00     0.074 A 
ATOM     61  C   UNL A   1      43.529  23.028  30.021  1.00  0.00     0.029 A 
ATOM     62  N   UNL A   1      45.126  23.925  28.808  1.00  0.00    -0.354 N 
ATOM     63  N   UNL A   1      46.715  27.955  29.488  1.00  0.00    -0.248 NA
ATOM     64  C   UNL A   1      46.342  27.762  27.193  1.00  0.00     0.031 C 
ATOM     65  C   UNL A   1      44.357  23.851  30.843  1.00  0.00     0.029 A 
ATOM     66  C   UNL A   1      45.209  24.580  30.010  1.00  0.00     0.049 A 
ATOM     67  H   UNL A   1      45.836  23.857  28.129  1.00  0.00     0.167 HD
ATOM     68  C   UNL A   1      46.387  26.633  29.225  1.00  0.00     0.074 A 
ATOM     69  C   UNL A   1      46.253  26.559  27.770  1.00  0.00     0.031 C 
ATOM     70  C   UNL A   1      45.969  25.793  30.220  1.00  0.00     0.037 A 
BRANCH  57  71
ATOM     71  C   UNL A   1      43.628  23.181  26.169  1.00  0.00     0.057 A 
ATOM     72  C   UNL A   1      43.627  21.801  25.887  1.00  0.00     0.134 A 
ATOM     73  C   UNL A   1      44.352  23.966  25.246  1.00  0.00     0.134 A 
ATOM     74  F   UNL A   1      42.965  20.938  26.675  1.00  0.00    -0.206 F 
ATOM     75  C   UNL A   1      44.368  21.238  24.842  1.00  0.00     0.040 A 
ATOM     76  C   UNL A   1      45.051  23.420  24.164  1.00  0.00     0.040 A 
ATOM     77  F   UNL A   1      44.513  25.286  25.379  1.00  0.00    -0.206 F 
ATOM     78  C   UNL A   1      45.095  22.048  23.981  1.00  0.00     0.006 A 
ENDBRANCH  57  71
BRANCH  58  79
ATOM     79  C   UNL A   1      46.444  31.086  27.634  1.00  0.00     0.057 A 
ATOM     80  C   UNL A   1      45.721  31.846  26.704  1.00  0.00     0.134 A 
ATOM     81  C   UNL A   1      47.669  31.627  28.059  1.00  0.00     0.134 A 
ATOM     82  F   UNL A   1      44.524  31.427  26.269  1.00  0.00    -0.206 F 
ATOM     83  C   UNL A   1      46.177  33.087  26.242  1.00  0.00     0.040 A 
ATOM     84  C   UNL A   1      48.137  32.864  27.604  1.00  0.00     0.040 A 
ATOM     85  F   UNL A   1      48.404  31.014  28.998  1.00  0.00    -0.206 F 
ATOM     86  C   UNL A   1      47.383  33.607  26.704  1.00  0.00     0.006 A 
ENDBRANCH  58  79
BRANCH  70  87
ATOM     87  C   UNL A   1      46.096  26.263  31.647  1.00  0.00     0.057 A 
ATOM     88  C   UNL A   1      45.054  26.845  32.385  1.00  0.00     0.134 A 
ATOM     89  C   UNL A   1      47.264  25.957  32.352  1.00  0.00     0.134 A 
ATOM     90  F   UNL A   1      43.861  27.088  31.835  1.00  0.00    -0.206 F 
ATOM     91  C   UNL A   1      45.180  27.142  33.746  1.00  0.00     0.040 A 
ATOM     92  C   UNL A   1      47.393  26.217  33.719  1.00  0.00     0.040 A 
ATOM     93  F   UNL A   1      48.285  25.346  31.731  1.00  0.00    -0.206 F 
ATOM     94  C   UNL A   1      46.352  26.820  34.419  1.00  0.00     0.006 A 
ENDBRANCH  70  87
ENDBRANCH  44  45
ENDBRANCH  37  39
ENDBRANCH  36  37
ENDBRANCH  35  36
ENDBRANCH   1  35
TORSDOF 17
ENDMDL
MODEL 3
REMARK VINA RESULT:     -11.2      3.856      8.739
REMARK SMILES COC(=O)c1c(SCC(=O)Nc2cc(C)ccc2C)[nH]c2cc(C(=O)OCCOC(=O)c3ccc(-c4c5nc(c(-c6c(F)cccc6F)c6ccc([nH]6)c(-c6c(F)cccc6F)c6nc(c(-c7c(F)cccc7F)c7ccc4[nH]7)C=C6)C=C5)cc3)ccc2c1=O
REMARK SMILES IDX 27 1 26 2 24 3 25 4 23 5 5 6 6 7 89 8 20 9 88 10 90 11 21 12
REMARK SMILES IDX 87 14 22 15 86 16 3 17 4 18 2 19 1 20 7 21 8 22 9 23 10 24
REMARK SMILES IDX 11 25 12 27 13 28 18 29 14 30 17 31 19 32 15 33 16 34 28 35
REMARK SMILES IDX 29 36 30 37 31 38 32 39 33 40 85 41 34 42 84 43 35 44 36 45
REMARK SMILES IDX 37 46 78 47 38 48 83 49 77 50 79 51 39 52 82 53 76 54 75 55
REMARK SMILES IDX 40 57 66 58 49 59 65 60 50 61 53 62 64 63 80 64 51 65 52 66
REMARK SMILES IDX 63 68 81 69 54 70 41 71 42 72 47 73 43 74 44 75 46 76 48 77
REMARK SMILES IDX 45 78 67 79 68 80 73 81 69 82 70 83 72 84 74 85 71 86 55 87
REMARK SMILES IDX 56 88 61 89 57 90 58 91 60 92 62 93 59 94
REMARK H PARENT 20 13 11 26 79 56 53 67
REMARK Flexibility Score: inf
ROOT
ATOM      1  C   UNL A   1      34.018  34.070  28.017  1.00  0.00     0.275 C 
ENDROOT
BRANCH   1   2
ATOM      2  O   UNL A   1      33.413  32.812  27.583  1.00  0.00    -0.458 OA
BRANCH   2   3
ATOM      3  C   UNL A   1      34.163  31.690  27.522  1.00  0.00     0.338 C 
ATOM      4  O   UNL A   1      35.372  31.636  27.648  1.00  0.00    -0.246 OA
BRANCH   3   5
ATOM      5  C   UNL A   1      33.356  30.504  27.119  1.00  0.00     0.062 A 
ATOM      6  C   UNL A   1      32.400  25.563  26.202  1.00  0.00     0.138 A 
ATOM      7  C   UNL A   1      33.571  25.853  25.593  1.00  0.00     0.092 A 
ATOM      8  C   UNL A   1      31.562  26.680  26.736  1.00  0.00     0.205 A 
ATOM      9  N   UNL A   1      34.043  27.167  25.596  1.00  0.00    -0.349 N 
ATOM     10  C   UNL A   1      32.113  28.050  26.735  1.00  0.00     0.046 A 
ATOM     11  O   UNL A   1      30.434  26.486  27.180  1.00  0.00    -0.288 OA
ATOM     12  C   UNL A   1      33.391  28.236  26.213  1.00  0.00     0.051 A 
ATOM     13  H   UNL A   1      34.891  27.352  25.132  1.00  0.00     0.167 HD
ATOM     14  C   UNL A   1      31.397  29.111  27.309  1.00  0.00     0.015 A 
ATOM     15  C   UNL A   1      34.017  29.469  26.425  1.00  0.00     0.042 A 
ATOM     16  C   UNL A   1      32.017  30.351  27.491  1.00  0.00     0.016 A 
BRANCH   6  17
ATOM     17  C   UNL A   1      31.892  24.226  26.498  1.00  0.00     0.344 C 
ATOM     18  O   UNL A   1      32.183  23.655  27.538  1.00  0.00    -0.246 OA
BRANCH  17  19
ATOM     19  O   UNL A   1      31.035  23.799  25.545  1.00  0.00    -0.465 OA
ATOM     20  C   UNL A   1      30.628  22.434  25.687  1.00  0.00     0.282 C 
ENDBRANCH  17  19
ENDBRANCH   6  17
BRANCH   7  21
ATOM     21  S   UNL A   1      34.549  24.746  24.646  1.00  0.00    -0.098 SA
BRANCH  21  22
ATOM     22  C   UNL A   1      33.645  23.755  23.457  1.00  0.00     0.176 C 
BRANCH  22  23
ATOM     23  C   UNL A   1      33.510  24.219  22.024  1.00  0.00     0.234 C 
ATOM     24  O   UNL A   1      33.507  23.374  21.118  1.00  0.00    -0.274 OA
ATOM     25  N   UNL A   1      33.186  25.491  21.637  1.00  0.00    -0.325 N 
ATOM     26  H   UNL A   1      33.578  25.821  20.797  1.00  0.00     0.169 HD
BRANCH  25  27
ATOM     27  C   UNL A   1      32.339  26.362  22.341  1.00  0.00     0.044 A 
ATOM     28  C   UNL A   1      31.119  25.908  22.839  1.00  0.00     0.029 A 
ATOM     29  C   UNL A   1      32.713  27.703  22.542  1.00  0.00    -0.027 A 
ATOM     30  C   UNL A   1      30.180  26.784  23.386  1.00  0.00    -0.049 A 
ATOM     31  C   UNL A   1      31.790  28.573  23.147  1.00  0.00     0.006 A 
ATOM     32  C   UNL A   1      34.033  28.288  22.112  1.00  0.00     0.046 C 
ATOM     33  C   UNL A   1      28.825  26.286  23.788  1.00  0.00     0.044 C 
ATOM     34  C   UNL A   1      30.526  28.126  23.538  1.00  0.00     0.004 A 
ENDBRANCH  25  27
ENDBRANCH  22  23
ENDBRANCH  21  22
ENDBRANCH   7  21
ENDBRANCH   3   5
ENDBRANCH   2   3
ENDBRANCH   1   2
BRANCH   1  35
ATOM     35  C   UNL A   1      33.435  34.839  29.249  1.00  0.00     0.275 C 
BRANCH  35  36
ATOM     36  O   UNL A   1      34.355  35.002  30.365  1.00  0.00    -0.458 OA
BRANCH  36  37
ATOM     37  C   UNL A   1      34.076  34.690  31.669  1.00  0.00     0.338 C 
ATOM     38  O   UNL A   1      33.053  34.869  32.303  1.00  0.00    -0.246 OA
BRANCH  37  39
ATOM     39  C   UNL A   1      35.337  34.079  32.152  1.00  0.00     0.060 A 
ATOM     40  C   UNL A   1      36.395  34.700  32.810  1.00  0.00     0.016 A 
ATOM     41  C   UNL A   1      35.557  32.873  31.538  1.00  0.00     0.016 A 
ATOM     42  C   UNL A   1      37.687  34.170  32.622  1.00  0.00     0.010 A 
ATOM     43  C   UNL A   1      36.777  32.620  31.039  1.00  0.00     0.010 A 
ATOM     44  C   UNL A   1      37.868  33.182  31.647  1.00  0.00    -0.014 A 
BRANCH  44  45
ATOM     45  C   UNL A   1      39.087  32.555  31.177  1.00  0.00     0.031 A 
ATOM     46  C   UNL A   1      38.896  31.267  30.412  1.00  0.00     0.074 A 
ATOM     47  C   UNL A   1      40.189  33.290  30.946  1.00  0.00     0.049 A 
ATOM     48  N   UNL A   1      39.001  30.066  30.882  1.00  0.00    -0.248 NA
ATOM     49  C   UNL A   1      38.343  31.285  29.034  1.00  0.00     0.031 C 
ATOM     50  C   UNL A   1      40.420  34.725  31.118  1.00  0.00     0.029 A 
ATOM     51  N   UNL A   1      41.351  32.849  30.409  1.00  0.00    -0.354 N 
ATOM     52  C   UNL A   1      38.756  29.214  29.805  1.00  0.00     0.074 A 
ATOM     53  C   UNL A   1      38.055  29.999  28.836  1.00  0.00     0.031 C 
ATOM     54  C   UNL A   1      41.619  35.051  30.573  1.00  0.00     0.029 A 
ATOM     55  C   UNL A   1      42.284  33.833  30.138  1.00  0.00     0.049 A 
ATOM     56  H   UNL A   1      41.520  31.897  30.225  1.00  0.00     0.167 HD
ATOM     57  C   UNL A   1      39.426  28.036  29.646  1.00  0.00     0.037 A 
ATOM     58  C   UNL A   1      43.503  33.626  29.582  1.00  0.00     0.037 A 
ATOM     59  C   UNL A   1      40.195  27.742  30.832  1.00  0.00     0.049 A 
ATOM     60  C   UNL A   1      43.821  32.180  29.746  1.00  0.00     0.074 A 
ATOM     61  C   UNL A   1      39.893  27.606  32.174  1.00  0.00     0.029 A 
ATOM     62  N   UNL A   1      41.547  27.993  30.781  1.00  0.00    -0.354 N 
ATOM     63  N   UNL A   1      44.025  31.609  30.902  1.00  0.00    -0.248 NA
ATOM     64  C   UNL A   1      43.441  31.274  28.669  1.00  0.00     0.031 C 
ATOM     65  C   UNL A   1      40.943  28.300  32.849  1.00  0.00     0.029 A 
ATOM     66  C   UNL A   1      41.865  28.731  31.892  1.00  0.00     0.049 A 
ATOM     67  H   UNL A   1      42.170  27.699  30.077  1.00  0.00     0.167 HD
ATOM     68  C   UNL A   1      43.397  30.375  30.812  1.00  0.00     0.074 A 
ATOM     69  C   UNL A   1      43.136  30.187  29.385  1.00  0.00     0.031 C 
ATOM     70  C   UNL A   1      42.885  29.756  31.919  1.00  0.00     0.037 A 
BRANCH  57  71
ATOM     71  C   UNL A   1      39.721  27.343  28.330  1.00  0.00     0.057 A 
ATOM     72  C   UNL A   1      39.486  25.957  28.241  1.00  0.00     0.134 A 
ATOM     73  C   UNL A   1      40.451  27.883  27.250  1.00  0.00     0.134 A 
ATOM     74  F   UNL A   1      38.791  25.315  29.193  1.00  0.00    -0.206 F 
ATOM     75  C   UNL A   1      40.021  25.160  27.223  1.00  0.00     0.040 A 
ATOM     76  C   UNL A   1      40.944  27.104  26.197  1.00  0.00     0.040 A 
ATOM     77  F   UNL A   1      40.819  29.167  27.186  1.00  0.00    -0.206 F 
ATOM     78  C   UNL A   1      40.764  25.731  26.201  1.00  0.00     0.006 A 
ENDBRANCH  57  71
BRANCH  58  79
ATOM     79  C   UNL A   1      44.299  34.517  28.715  1.00  0.00     0.057 A 
ATOM     80  C   UNL A   1      45.683  34.651  28.886  1.00  0.00     0.134 A 
ATOM     81  C   UNL A   1      43.766  35.043  27.526  1.00  0.00     0.134 A 
ATOM     82  F   UNL A   1      46.285  34.148  29.973  1.00  0.00    -0.206 F 
ATOM     83  C   UNL A   1      46.498  35.249  27.915  1.00  0.00     0.040 A 
ATOM     84  C   UNL A   1      44.567  35.643  26.550  1.00  0.00     0.040 A 
ATOM     85  F   UNL A   1      42.464  34.905  27.234  1.00  0.00    -0.206 F 
ATOM     86  C   UNL A   1      45.941  35.734  26.736  1.00  0.00     0.006 A 
ENDBRANCH  58  79
BRANCH  70  87
ATOM     87  C   UNL A   1      43.222  30.327  33.273  1.00  0.00     0.057 A 
ATOM     88  C   UNL A   1      42.414  31.234  33.974  1.00  0.00     0.134 A 
ATOM     89  C   UNL A   1      44.320  29.806  33.965  1.00  0.00     0.134 A 
ATOM     90  F   UNL A   1      41.287  31.717  33.445  1.00  0.00    -0.206 F 
ATOM     91  C   UNL A   1      42.703  31.632  35.283  1.00  0.00     0.040 A 
ATOM     92  C   UNL A   1      44.603  30.168  35.285  1.00  0.00     0.040 A 
ATOM     93  F   UNL A   1      45.110  28.889  33.384  1.00  0.00    -0.206 F 
ATOM     94  C   UNL A   1      43.798  31.091  35.946  1.00  0.00     0.006 A 
ENDBRANCH  70  87
ENDBRANCH  44  45
ENDBRANCH  37  39
ENDBRANCH  36  37
ENDBRANCH  35  36
ENDBRANCH   1  35
TORSDOF 17
ENDMDL
