MODEL 1
REMARK VINA RESULT:     -10.3      0.000      0.000
REMARK SMILES COc1ncccc1CS(=O)(=O)[C@H](C)C(=O)OCCOC(=O)c1ccc(-c2c3nc(c(-c4c(F)cccc4F)c4ccc([nH]4)c(-c4c(F)cccc4F)c4nc(c(-c5c(F)cccc5F)c5ccc2[nH]5)C=C4)C=C3)cc1
REMARK SMILES IDX 18 1 17 2 15 3 16 4 13 5 14 6 10 7 11 8 12 9 9 10 8 11 3 12
REMARK SMILES IDX 4 13 5 14 7 15 6 16 2 17 1 18 19 19 20 20 21 21 22 22 23 23
REMARK SMILES IDX 24 24 76 25 25 26 75 27 26 28 27 29 28 30 69 31 29 32 74 33
REMARK SMILES IDX 68 34 70 35 30 36 73 37 67 38 66 39 31 41 57 42 40 43 56 44
REMARK SMILES IDX 41 45 44 46 55 47 71 48 42 49 43 50 54 52 72 53 45 54 32 55
REMARK SMILES IDX 33 56 38 57 34 58 35 59 37 60 39 61 36 62 58 63 59 64 64 65
REMARK SMILES IDX 60 66 61 67 63 68 65 69 62 70 46 71 47 72 52 73 48 74 49 75
REMARK SMILES IDX 51 76 53 77 50 78
REMARK H PARENT 70 40 44 51
REMARK Flexibility Score: inf
ROOT
ATOM      1  C   UNL A   1      31.023  29.540  24.569  1.00  0.00     0.274 C 
ENDROOT
BRANCH   1   2
ATOM      2  O   UNL A   1      31.845  28.902  23.565  1.00  0.00    -0.461 OA
BRANCH   2   3
ATOM      3  C   UNL A   1      31.184  28.079  22.706  1.00  0.00     0.324 C 
ATOM      4  O   UNL A   1      30.248  28.442  22.002  1.00  0.00    -0.251 OA
BRANCH   3   5
ATOM      5  C   UNL A   1      31.752  26.693  22.646  1.00  0.00     0.215 C 
ATOM      6  C   UNL A   1      33.243  26.599  22.367  1.00  0.00     0.037 C 
BRANCH   5   7
ATOM      7  S   UNL A   1      31.124  25.701  23.974  1.00  0.00     0.168 S 
ATOM      8  O   UNL A   1      31.292  24.320  23.556  1.00  0.00    -0.228 OA
ATOM      9  O   UNL A   1      29.772  26.159  24.252  1.00  0.00    -0.228 OA
BRANCH   7  10
ATOM     10  C   UNL A   1      32.049  25.987  25.487  1.00  0.00     0.179 C 
BRANCH  10  11
ATOM     11  C   UNL A   1      32.907  24.833  25.898  1.00  0.00     0.029 A 
ATOM     12  C   UNL A   1      32.433  23.799  26.703  1.00  0.00     0.217 A 
ATOM     13  N   UNL A   1      33.161  22.721  27.060  1.00  0.00    -0.222 NA
ATOM     14  C   UNL A   1      34.435  22.672  26.612  1.00  0.00     0.115 A 
ATOM     15  C   UNL A   1      34.243  24.762  25.487  1.00  0.00     0.012 A 
ATOM     16  C   UNL A   1      35.018  23.662  25.840  1.00  0.00     0.021 A 
BRANCH  12  17
ATOM     17  O   UNL A   1      31.182  23.938  27.251  1.00  0.00    -0.481 OA
ATOM     18  C   UNL A   1      30.279  22.953  26.754  1.00  0.00     0.280 C 
ENDBRANCH  12  17
ENDBRANCH  10  11
ENDBRANCH   7  10
ENDBRANCH   5   7
ENDBRANCH   3   5
ENDBRANCH   2   3
ENDBRANCH   1   2
BRANCH   1  19
ATOM     19  C   UNL A   1      31.702  29.604  25.944  1.00  0.00     0.275 C 
BRANCH  19  20
ATOM     20  O   UNL A   1      32.990  30.250  25.895  1.00  0.00    -0.458 OA
BRANCH  20  21
ATOM     21  C   UNL A   1      33.204  31.173  26.862  1.00  0.00     0.338 C 
ATOM     22  O   UNL A   1      32.414  32.018  27.252  1.00  0.00    -0.246 OA
BRANCH  21  23
ATOM     23  C   UNL A   1      34.493  30.927  27.531  1.00  0.00     0.060 A 
ATOM     24  C   UNL A   1      34.767  29.621  27.947  1.00  0.00     0.016 A 
ATOM     25  C   UNL A   1      35.383  31.958  27.828  1.00  0.00     0.016 A 
ATOM     26  C   UNL A   1      35.924  29.330  28.657  1.00  0.00     0.010 A 
ATOM     27  C   UNL A   1      36.550  31.667  28.548  1.00  0.00     0.010 A 
ATOM     28  C   UNL A   1      36.822  30.354  28.971  1.00  0.00    -0.014 A 
BRANCH  28  29
ATOM     29  C   UNL A   1      38.011  30.042  29.795  1.00  0.00     0.031 A 
ATOM     30  C   UNL A   1      39.088  29.158  29.241  1.00  0.00     0.074 A 
ATOM     31  C   UNL A   1      38.145  30.590  31.016  1.00  0.00     0.049 A 
ATOM     32  N   UNL A   1      40.153  28.679  29.831  1.00  0.00    -0.248 NA
ATOM     33  C   UNL A   1      38.950  28.763  27.830  1.00  0.00     0.031 C 
ATOM     34  C   UNL A   1      37.206  31.531  31.628  1.00  0.00     0.029 A 
ATOM     35  N   UNL A   1      39.128  30.436  31.960  1.00  0.00    -0.354 N 
ATOM     36  C   UNL A   1      40.798  27.906  28.875  1.00  0.00     0.074 A 
ATOM     37  C   UNL A   1      40.001  27.973  27.668  1.00  0.00     0.031 C 
ATOM     38  C   UNL A   1      37.657  31.867  32.847  1.00  0.00     0.029 A 
ATOM     39  C   UNL A   1      38.885  31.127  33.121  1.00  0.00     0.049 A 
ATOM     40  H   UNL A   1      39.931  29.883  31.819  1.00  0.00     0.167 HD
ATOM     41  C   UNL A   1      41.948  27.202  28.998  1.00  0.00     0.037 A 
ATOM     42  C   UNL A   1      39.560  31.133  34.286  1.00  0.00     0.037 A 
ATOM     43  C   UNL A   1      42.741  27.155  30.198  1.00  0.00     0.049 A 
ATOM     44  C   UNL A   1      40.790  30.280  34.425  1.00  0.00     0.074 A 
ATOM     45  C   UNL A   1      43.920  26.465  30.428  1.00  0.00     0.029 A 
ATOM     46  N   UNL A   1      42.437  27.829  31.372  1.00  0.00    -0.354 N 
ATOM     47  N   UNL A   1      41.372  29.518  33.529  1.00  0.00    -0.248 NA
ATOM     48  C   UNL A   1      41.451  30.279  35.737  1.00  0.00     0.031 C 
ATOM     49  C   UNL A   1      44.308  26.694  31.753  1.00  0.00     0.029 A 
ATOM     50  C   UNL A   1      43.395  27.558  32.334  1.00  0.00     0.049 A 
ATOM     51  H   UNL A   1      41.657  28.415  31.500  1.00  0.00     0.167 HD
ATOM     52  C   UNL A   1      42.475  28.961  34.163  1.00  0.00     0.074 A 
ATOM     53  C   UNL A   1      42.489  29.484  35.515  1.00  0.00     0.031 C 
ATOM     54  C   UNL A   1      43.392  28.093  33.673  1.00  0.00     0.037 A 
BRANCH  41  55
ATOM     55  C   UNL A   1      42.390  26.394  27.816  1.00  0.00     0.057 A 
ATOM     56  C   UNL A   1      41.982  25.068  27.626  1.00  0.00     0.134 A 
ATOM     57  C   UNL A   1      43.226  26.960  26.844  1.00  0.00     0.134 A 
ATOM     58  F   UNL A   1      41.196  24.463  28.529  1.00  0.00    -0.206 F 
ATOM     59  C   UNL A   1      42.405  24.326  26.521  1.00  0.00     0.040 A 
ATOM     60  C   UNL A   1      43.638  26.236  25.724  1.00  0.00     0.040 A 
ATOM     61  F   UNL A   1      43.652  28.226  26.966  1.00  0.00    -0.206 F 
ATOM     62  C   UNL A   1      43.232  24.913  25.564  1.00  0.00     0.006 A 
ENDBRANCH  41  55
BRANCH  42  63
ATOM     63  C   UNL A   1      39.063  31.941  35.428  1.00  0.00     0.057 A 
ATOM     64  C   UNL A   1      39.391  33.294  35.555  1.00  0.00     0.134 A 
ATOM     65  C   UNL A   1      38.255  31.376  36.422  1.00  0.00     0.134 A 
ATOM     66  F   UNL A   1      40.182  33.885  34.648  1.00  0.00    -0.206 F 
ATOM     67  C   UNL A   1      38.942  34.056  36.635  1.00  0.00     0.040 A 
ATOM     68  C   UNL A   1      37.779  32.131  37.495  1.00  0.00     0.040 A 
ATOM     69  F   UNL A   1      37.908  30.081  36.359  1.00  0.00    -0.206 F 
ATOM     70  C   UNL A   1      38.127  33.475  37.606  1.00  0.00     0.006 A 
ENDBRANCH  42  63
BRANCH  54  71
ATOM     71  C   UNL A   1      44.502  27.682  34.592  1.00  0.00     0.057 A 
ATOM     72  C   UNL A   1      44.407  26.540  35.397  1.00  0.00     0.134 A 
ATOM     73  C   UNL A   1      45.694  28.416  34.645  1.00  0.00     0.134 A 
ATOM     74  F   UNL A   1      43.286  25.803  35.402  1.00  0.00    -0.206 F 
ATOM     75  C   UNL A   1      45.452  26.154  36.238  1.00  0.00     0.040 A 
ATOM     76  C   UNL A   1      46.753  28.027  35.464  1.00  0.00     0.040 A 
ATOM     77  F   UNL A   1      45.850  29.516  33.893  1.00  0.00    -0.206 F 
ATOM     78  C   UNL A   1      46.632  26.895  36.267  1.00  0.00     0.006 A 
ENDBRANCH  54  71
ENDBRANCH  28  29
ENDBRANCH  21  23
ENDBRANCH  20  21
ENDBRANCH  19  20
ENDBRANCH   1  19
TORSDOF 15
ENDMDL
MODEL 2
REMARK VINA RESULT:     -10.2      5.852      9.161
REMARK SMILES COc1ncccc1CS(=O)(=O)[C@H](C)C(=O)OCCOC(=O)c1ccc(-c2c3nc(c(-c4c(F)cccc4F)c4ccc([nH]4)c(-c4c(F)cccc4F)c4nc(c(-c5c(F)cccc5F)c5ccc2[nH]5)C=C4)C=C3)cc1
REMARK SMILES IDX 18 1 17 2 15 3 16 4 13 5 14 6 10 7 11 8 12 9 9 10 8 11 3 12
REMARK SMILES IDX 4 13 5 14 7 15 6 16 2 17 1 18 19 19 20 20 21 21 22 22 23 23
REMARK SMILES IDX 24 24 76 25 25 26 75 27 26 28 27 29 28 30 69 31 29 32 74 33
REMARK SMILES IDX 68 34 70 35 30 36 73 37 67 38 66 39 31 41 57 42 40 43 56 44
REMARK SMILES IDX 41 45 44 46 55 47 71 48 42 49 43 50 54 52 72 53 45 54 32 55
REMARK SMILES IDX 33 56 38 57 34 58 35 59 37 60 39 61 36 62 58 63 59 64 64 65
REMARK SMILES IDX 60 66 61 67 63 68 65 69 62 70 46 71 47 72 52 73 48 74 49 75
REMARK SMILES IDX 51 76 53 77 50 78
REMARK H PARENT 70 40 44 51
REMARK Flexibility Score: inf
ROOT
ATOM      1  C   UNL A   1      42.057  20.196  26.629  1.00  0.00     0.274 C 
ENDROOT
BRANCH   1   2
ATOM      2  O   UNL A   1      42.782  20.910  25.602  1.00  0.00    -0.461 OA
BRANCH   2   3
ATOM      3  C   UNL A   1      43.812  20.227  25.034  1.00  0.00     0.324 C 
ATOM      4  O   UNL A   1      43.677  19.167  24.433  1.00  0.00    -0.251 OA
BRANCH   3   5
ATOM      5  C   UNL A   1      45.133  20.929  25.149  1.00  0.00     0.215 C 
ATOM      6  C   UNL A   1      46.364  20.042  25.074  1.00  0.00     0.037 C 
BRANCH   5   7
ATOM      7  S   UNL A   1      45.147  22.401  24.162  1.00  0.00     0.168 S 
ATOM      8  O   UNL A   1      44.321  22.113  23.002  1.00  0.00    -0.228 OA
ATOM      9  O   UNL A   1      46.539  22.749  23.926  1.00  0.00    -0.228 OA
BRANCH   7  10
ATOM     10  C   UNL A   1      44.452  23.789  25.064  1.00  0.00     0.179 C 
BRANCH  10  11
ATOM     11  C   UNL A   1      45.318  24.279  26.181  1.00  0.00     0.029 A 
ATOM     12  C   UNL A   1      45.193  23.806  27.486  1.00  0.00     0.217 A 
ATOM     13  N   UNL A   1      45.982  24.191  28.511  1.00  0.00    -0.222 NA
ATOM     14  C   UNL A   1      46.934  25.108  28.234  1.00  0.00     0.115 A 
ATOM     15  C   UNL A   1      46.293  25.256  25.946  1.00  0.00     0.012 A 
ATOM     16  C   UNL A   1      47.120  25.671  26.983  1.00  0.00     0.021 A 
BRANCH  12  17
ATOM     17  O   UNL A   1      44.136  22.976  27.767  1.00  0.00    -0.481 OA
ATOM     18  C   UNL A   1      43.297  23.521  28.783  1.00  0.00     0.280 C 
ENDBRANCH  12  17
ENDBRANCH  10  11
ENDBRANCH   7  10
ENDBRANCH   5   7
ENDBRANCH   3   5
ENDBRANCH   2   3
ENDBRANCH   1   2
BRANCH   1  19
ATOM     19  C   UNL A   1      40.539  20.421  26.554  1.00  0.00     0.275 C 
BRANCH  19  20
ATOM     20  O   UNL A   1      40.122  21.611  27.252  1.00  0.00    -0.458 OA
BRANCH  20  21
ATOM     21  C   UNL A   1      39.469  22.521  26.491  1.00  0.00     0.338 C 
ATOM     22  O   UNL A   1      38.674  22.287  25.596  1.00  0.00    -0.246 OA
BRANCH  21  23
ATOM     23  C   UNL A   1      39.713  23.883  26.997  1.00  0.00     0.060 A 
ATOM     24  C   UNL A   1      40.040  24.871  26.064  1.00  0.00     0.016 A 
ATOM     25  C   UNL A   1      39.711  24.179  28.360  1.00  0.00     0.016 A 
ATOM     26  C   UNL A   1      40.364  26.156  26.476  1.00  0.00     0.010 A 
ATOM     27  C   UNL A   1      40.041  25.476  28.778  1.00  0.00     0.010 A 
ATOM     28  C   UNL A   1      40.375  26.467  27.838  1.00  0.00    -0.014 A 
BRANCH  28  29
ATOM     29  C   UNL A   1      40.798  27.820  28.265  1.00  0.00     0.031 A 
ATOM     30  C   UNL A   1      42.253  28.184  28.246  1.00  0.00     0.074 A 
ATOM     31  C   UNL A   1      39.875  28.732  28.621  1.00  0.00     0.049 A 
ATOM     32  N   UNL A   1      42.841  29.271  28.676  1.00  0.00    -0.248 NA
ATOM     33  C   UNL A   1      43.168  27.192  27.660  1.00  0.00     0.031 C 
ATOM     34  C   UNL A   1      38.427  28.522  28.599  1.00  0.00     0.029 A 
ATOM     35  N   UNL A   1      40.020  30.020  29.068  1.00  0.00    -0.354 N 
ATOM     36  C   UNL A   1      44.196  29.084  28.438  1.00  0.00     0.074 A 
ATOM     37  C   UNL A   1      44.345  27.777  27.833  1.00  0.00     0.031 C 
ATOM     38  C   UNL A   1      37.817  29.643  29.017  1.00  0.00     0.029 A 
ATOM     39  C   UNL A   1      38.831  30.627  29.386  1.00  0.00     0.049 A 
ATOM     40  H   UNL A   1      40.894  30.467  29.153  1.00  0.00     0.167 HD
ATOM     41  C   UNL A   1      45.221  29.928  28.706  1.00  0.00     0.037 A 
ATOM     42  C   UNL A   1      38.590  31.827  29.946  1.00  0.00     0.037 A 
ATOM     43  C   UNL A   1      45.061  31.232  29.293  1.00  0.00     0.049 A 
ATOM     44  C   UNL A   1      39.749  32.713  30.307  1.00  0.00     0.074 A 
ATOM     45  C   UNL A   1      46.037  32.162  29.610  1.00  0.00     0.029 A 
ATOM     46  N   UNL A   1      43.843  31.794  29.648  1.00  0.00    -0.354 N 
ATOM     47  N   UNL A   1      41.032  32.514  30.118  1.00  0.00    -0.248 NA
ATOM     48  C   UNL A   1      39.430  33.985  30.970  1.00  0.00     0.031 C 
ATOM     49  C   UNL A   1      45.410  33.271  30.192  1.00  0.00     0.029 A 
ATOM     50  C   UNL A   1      44.043  33.049  30.198  1.00  0.00     0.049 A 
ATOM     51  H   UNL A   1      42.966  31.364  29.525  1.00  0.00     0.167 HD
ATOM     52  C   UNL A   1      41.670  33.639  30.621  1.00  0.00     0.074 A 
ATOM     53  C   UNL A   1      40.633  34.524  31.111  1.00  0.00     0.031 C 
ATOM     54  C   UNL A   1      42.996  33.915  30.675  1.00  0.00     0.037 A 
BRANCH  41  55
ATOM     55  C   UNL A   1      46.607  29.445  28.402  1.00  0.00     0.057 A 
ATOM     56  C   UNL A   1      47.386  28.777  29.355  1.00  0.00     0.134 A 
ATOM     57  C   UNL A   1      47.162  29.638  27.131  1.00  0.00     0.134 A 
ATOM     58  F   UNL A   1      46.920  28.576  30.596  1.00  0.00    -0.206 F 
ATOM     59  C   UNL A   1      48.678  28.335  29.059  1.00  0.00     0.040 A 
ATOM     60  C   UNL A   1      48.444  29.182  26.817  1.00  0.00     0.040 A 
ATOM     61  F   UNL A   1      46.467  30.270  26.173  1.00  0.00    -0.206 F 
ATOM     62  C   UNL A   1      49.207  28.534  27.785  1.00  0.00     0.006 A 
ENDBRANCH  41  55
BRANCH  42  63
ATOM     63  C   UNL A   1      37.195  32.244  30.237  1.00  0.00     0.057 A 
ATOM     64  C   UNL A   1      36.570  31.892  31.438  1.00  0.00     0.134 A 
ATOM     65  C   UNL A   1      36.453  32.997  29.319  1.00  0.00     0.134 A 
ATOM     66  F   UNL A   1      37.220  31.150  32.346  1.00  0.00    -0.206 F 
ATOM     67  C   UNL A   1      35.253  32.265  31.711  1.00  0.00     0.040 A 
ATOM     68  C   UNL A   1      35.145  33.398  29.589  1.00  0.00     0.040 A 
ATOM     69  F   UNL A   1      36.996  33.363  28.148  1.00  0.00    -0.206 F 
ATOM     70  C   UNL A   1      34.539  33.027  30.788  1.00  0.00     0.006 A 
ENDBRANCH  42  63
BRANCH  54  71
ATOM     71  C   UNL A   1      43.393  35.238  31.256  1.00  0.00     0.057 A 
ATOM     72  C   UNL A   1      43.595  35.409  32.631  1.00  0.00     0.134 A 
ATOM     73  C   UNL A   1      43.612  36.345  30.426  1.00  0.00     0.134 A 
ATOM     74  F   UNL A   1      43.388  34.390  33.480  1.00  0.00    -0.206 F 
ATOM     75  C   UNL A   1      43.983  36.640  33.162  1.00  0.00     0.040 A 
ATOM     76  C   UNL A   1      44.022  37.574  30.943  1.00  0.00     0.040 A 
ATOM     77  F   UNL A   1      43.442  36.245  29.099  1.00  0.00    -0.206 F 
ATOM     78  C   UNL A   1      44.204  37.725  32.316  1.00  0.00     0.006 A 
ENDBRANCH  54  71
ENDBRANCH  28  29
ENDBRANCH  21  23
ENDBRANCH  20  21
ENDBRANCH  19  20
ENDBRANCH   1  19
TORSDOF 15
ENDMDL
MODEL 3
REMARK VINA RESULT:     -10.1      3.912      8.726
REMARK SMILES COc1ncccc1CS(=O)(=O)[C@H](C)C(=O)OCCOC(=O)c1ccc(-c2c3nc(c(-c4c(F)cccc4F)c4ccc([nH]4)c(-c4c(F)cccc4F)c4nc(c(-c5c(F)cccc5F)c5ccc2[nH]5)C=C4)C=C3)cc1
REMARK SMILES IDX 18 1 17 2 15 3 16 4 13 5 14 6 10 7 11 8 12 9 9 10 8 11 3 12
REMARK SMILES IDX 4 13 5 14 7 15 6 16 2 17 1 18 19 19 20 20 21 21 22 22 23 23
REMARK SMILES IDX 24 24 76 25 25 26 75 27 26 28 27 29 28 30 69 31 29 32 74 33
REMARK SMILES IDX 68 34 70 35 30 36 73 37 67 38 66 39 31 41 57 42 40 43 56 44
REMARK SMILES IDX 41 45 44 46 55 47 71 48 42 49 43 50 54 52 72 53 45 54 32 55
REMARK SMILES IDX 33 56 38 57 34 58 35 59 37 60 39 61 36 62 58 63 59 64 64 65
REMARK SMILES IDX 60 66 61 67 63 68 65 69 62 70 46 71 47 72 52 73 48 74 49 75
REMARK SMILES IDX 51 76 53 77 50 78
REMARK H PARENT 70 40 44 51
REMARK Flexibility Score: inf
ROOT
ATOM      1  C   UNL A   1      34.517  21.162  24.699  1.00  0.00     0.274 C 
ENDROOT
BRANCH   1   2
ATOM      2  O   UNL A   1      33.662  21.839  25.648  1.00  0.00    -0.461 OA
BRANCH   2   3
ATOM      3  C   UNL A   1      32.373  22.014  25.250  1.00  0.00     0.324 C 
ATOM      4  O   UNL A   1      31.517  21.139  25.316  1.00  0.00    -0.251 OA
BRANCH   3   5
ATOM      5  C   UNL A   1      32.073  23.408  24.784  1.00  0.00     0.215 C 
ATOM      6  C   UNL A   1      31.013  23.532  23.702  1.00  0.00     0.037 C 
BRANCH   5   7
ATOM      7  S   UNL A   1      31.940  24.513  26.163  1.00  0.00     0.168 S 
ATOM      8  O   UNL A   1      33.260  25.095  26.338  1.00  0.00    -0.228 OA
ATOM      9  O   UNL A   1      31.387  23.755  27.273  1.00  0.00    -0.228 OA
BRANCH   7  10
ATOM     10  C   UNL A   1      30.750  25.817  25.832  1.00  0.00     0.179 C 
BRANCH  10  11
ATOM     11  C   UNL A   1      31.321  27.196  25.931  1.00  0.00     0.029 A 
ATOM     12  C   UNL A   1      31.797  27.890  24.820  1.00  0.00     0.217 A 
ATOM     13  N   UNL A   1      32.279  29.149  24.861  1.00  0.00    -0.222 NA
ATOM     14  C   UNL A   1      32.310  29.749  26.071  1.00  0.00     0.115 A 
ATOM     15  C   UNL A   1      31.406  27.841  27.171  1.00  0.00     0.012 A 
ATOM     16  C   UNL A   1      31.898  29.139  27.243  1.00  0.00     0.021 A 
BRANCH  12  17
ATOM     17  O   UNL A   1      31.876  27.211  23.629  1.00  0.00    -0.481 OA
ATOM     18  C   UNL A   1      33.229  26.941  23.268  1.00  0.00     0.280 C 
ENDBRANCH  12  17
ENDBRANCH  10  11
ENDBRANCH   7  10
ENDBRANCH   5   7
ENDBRANCH   3   5
ENDBRANCH   2   3
ENDBRANCH   1   2
BRANCH   1  19
ATOM     19  C   UNL A   1      35.844  20.698  25.317  1.00  0.00     0.275 C 
BRANCH  19  20
ATOM     20  O   UNL A   1      36.844  21.737  25.324  1.00  0.00    -0.458 OA
BRANCH  20  21
ATOM     21  C   UNL A   1      38.092  21.327  25.649  1.00  0.00     0.338 C 
ATOM     22  O   UNL A   1      38.595  20.245  25.392  1.00  0.00    -0.246 OA
BRANCH  21  23
ATOM     23  C   UNL A   1      38.864  22.440  26.229  1.00  0.00     0.060 A 
ATOM     24  C   UNL A   1      38.411  23.739  25.981  1.00  0.00     0.016 A 
ATOM     25  C   UNL A   1      40.053  22.233  26.927  1.00  0.00     0.016 A 
ATOM     26  C   UNL A   1      39.133  24.839  26.426  1.00  0.00     0.010 A 
ATOM     27  C   UNL A   1      40.785  23.342  27.373  1.00  0.00     0.010 A 
ATOM     28  C   UNL A   1      40.331  24.649  27.119  1.00  0.00    -0.014 A 
BRANCH  28  29
ATOM     29  C   UNL A   1      41.128  25.831  27.517  1.00  0.00     0.031 A 
ATOM     30  C   UNL A   1      40.506  26.892  28.375  1.00  0.00     0.074 A 
ATOM     31  C   UNL A   1      42.419  25.926  27.150  1.00  0.00     0.049 A 
ATOM     32  N   UNL A   1      40.992  28.049  28.746  1.00  0.00    -0.248 NA
ATOM     33  C   UNL A   1      39.156  26.611  28.887  1.00  0.00     0.031 C 
ATOM     34  C   UNL A   1      43.157  24.919  26.387  1.00  0.00     0.029 A 
ATOM     35  N   UNL A   1      43.339  26.918  27.373  1.00  0.00    -0.354 N 
ATOM     36  C   UNL A   1      40.000  28.645  29.512  1.00  0.00     0.074 A 
ATOM     37  C   UNL A   1      38.881  27.727  29.547  1.00  0.00     0.031 C 
ATOM     38  C   UNL A   1      44.417  25.347  26.204  1.00  0.00     0.029 A 
ATOM     39  C   UNL A   1      44.557  26.677  26.787  1.00  0.00     0.049 A 
ATOM     40  H   UNL A   1      43.145  27.726  27.902  1.00  0.00     0.167 HD
ATOM     41  C   UNL A   1      40.023  29.852  30.126  1.00  0.00     0.037 A 
ATOM     42  C   UNL A   1      45.650  27.459  26.702  1.00  0.00     0.037 A 
ATOM     43  C   UNL A   1      41.146  30.751  30.099  1.00  0.00     0.049 A 
ATOM     44  C   UNL A   1      45.622  28.828  27.324  1.00  0.00     0.074 A 
ATOM     45  C   UNL A   1      41.267  32.000  30.683  1.00  0.00     0.029 A 
ATOM     46  N   UNL A   1      42.347  30.494  29.453  1.00  0.00    -0.354 N 
ATOM     47  N   UNL A   1      44.666  29.403  28.012  1.00  0.00    -0.248 NA
ATOM     48  C   UNL A   1      46.820  29.660  27.147  1.00  0.00     0.031 C 
ATOM     49  C   UNL A   1      42.529  32.514  30.359  1.00  0.00     0.029 A 
ATOM     50  C   UNL A   1      43.207  31.567  29.609  1.00  0.00     0.049 A 
ATOM     51  H   UNL A   1      42.556  29.669  28.959  1.00  0.00     0.167 HD
ATOM     52  C   UNL A   1      45.151  30.655  28.365  1.00  0.00     0.074 A 
ATOM     53  C   UNL A   1      46.494  30.750  27.827  1.00  0.00     0.031 C 
ATOM     54  C   UNL A   1      44.541  31.639  29.069  1.00  0.00     0.037 A 
BRANCH  41  55
ATOM     55  C   UNL A   1      38.779  30.283  30.843  1.00  0.00     0.057 A 
ATOM     56  C   UNL A   1      38.566  30.001  32.198  1.00  0.00     0.134 A 
ATOM     57  C   UNL A   1      37.786  31.005  30.168  1.00  0.00     0.134 A 
ATOM     58  F   UNL A   1      39.470  29.298  32.897  1.00  0.00    -0.206 F 
ATOM     59  C   UNL A   1      37.401  30.405  32.852  1.00  0.00     0.040 A 
ATOM     60  C   UNL A   1      36.627  31.433  30.817  1.00  0.00     0.040 A 
ATOM     61  F   UNL A   1      37.928  31.308  28.869  1.00  0.00    -0.206 F 
ATOM     62  C   UNL A   1      36.429  31.128  32.161  1.00  0.00     0.006 A 
ENDBRANCH  41  55
BRANCH  42  63
ATOM     63  C   UNL A   1      46.847  26.984  25.964  1.00  0.00     0.057 A 
ATOM     64  C   UNL A   1      47.886  26.318  26.622  1.00  0.00     0.134 A 
ATOM     65  C   UNL A   1      46.983  27.191  24.586  1.00  0.00     0.134 A 
ATOM     66  F   UNL A   1      47.826  26.112  27.945  1.00  0.00    -0.206 F 
ATOM     67  C   UNL A   1      49.023  25.883  25.937  1.00  0.00     0.040 A 
ATOM     68  C   UNL A   1      48.102  26.741  23.885  1.00  0.00     0.040 A 
ATOM     69  F   UNL A   1      46.021  27.827  23.898  1.00  0.00    -0.206 F 
ATOM     70  C   UNL A   1      49.129  26.089  24.563  1.00  0.00     0.006 A 
ENDBRANCH  42  63
BRANCH  54  71
ATOM     71  C   UNL A   1      45.332  32.887  29.322  1.00  0.00     0.057 A 
ATOM     72  C   UNL A   1      45.258  33.993  28.467  1.00  0.00     0.134 A 
ATOM     73  C   UNL A   1      46.149  32.996  30.455  1.00  0.00     0.134 A 
ATOM     74  F   UNL A   1      44.505  33.945  27.357  1.00  0.00    -0.206 F 
ATOM     75  C   UNL A   1      45.984  35.158  28.719  1.00  0.00     0.040 A 
ATOM     76  C   UNL A   1      46.860  34.164  30.730  1.00  0.00     0.040 A 
ATOM     77  F   UNL A   1      46.256  31.974  31.318  1.00  0.00    -0.206 F 
ATOM     78  C   UNL A   1      46.783  35.247  29.858  1.00  0.00     0.006 A 
ENDBRANCH  54  71
ENDBRANCH  28  29
ENDBRANCH  21  23
ENDBRANCH  20  21
ENDBRANCH  19  20
ENDBRANCH   1  19
TORSDOF 15
ENDMDL
