MODEL 1
REMARK VINA RESULT:     -11.7      0.000      0.000
REMARK SMILES COc1ccc(C(=O)N[C@H](C(=O)OCCOC(=O)c2ccc(-c3c4nc(c(-c5c(F)cccc5F)c5ccc([nH]5)c(-c5c(F)cccc5F)c5nc(c(-c6c(F)cccc6F)c6ccc3[nH]6)C=C5)C=C4)cc2)C2=C(C)N=N[C@H]2C)c(F)c1F
REMARK SMILES IDX 14 1 13 2 11 3 12 4 10 5 9 6 7 7 8 8 6 10 3 11 4 12 82 13
REMARK SMILES IDX 5 14 80 15 83 16 81 17 2 18 1 19 73 20 74 21 78 22 75 23
REMARK SMILES IDX 76 24 77 25 79 26 15 27 16 28 17 29 18 30 19 31 20 32 72 33
REMARK SMILES IDX 21 34 71 35 22 36 23 37 24 38 65 39 25 40 70 41 64 42 66 43
REMARK SMILES IDX 26 44 69 45 63 46 62 47 27 49 53 50 36 51 52 52 37 53 40 54
REMARK SMILES IDX 51 55 67 56 38 57 39 58 50 60 68 61 41 62 28 63 29 64 34 65
REMARK SMILES IDX 30 66 31 67 33 68 35 69 32 70 54 71 55 72 60 73 56 74 57 75
REMARK SMILES IDX 59 76 61 77 58 78 42 79 43 80 48 81 44 82 45 83 47 84 49 85
REMARK SMILES IDX 46 86
REMARK H PARENT 9 9 66 48 40 59
REMARK Flexibility Score: inf
ROOT
ATOM      1  C   UNL A   1      31.444  28.841  25.322  1.00  0.00     0.274 C 
ENDROOT
BRANCH   1   2
ATOM      2  O   UNL A   1      32.115  27.884  26.169  1.00  0.00    -0.460 OA
BRANCH   2   3
ATOM      3  C   UNL A   1      33.242  27.319  25.647  1.00  0.00     0.333 C 
ATOM      4  O   UNL A   1      34.219  27.952  25.268  1.00  0.00    -0.249 OA
BRANCH   3   5
ATOM      5  C   UNL A   1      33.077  25.789  25.483  1.00  0.00     0.223 C 
BRANCH   5   6
ATOM      6  N   UNL A   1      32.004  25.240  26.323  1.00  0.00    -0.335 N 
ATOM      7  C   UNL A   1      31.747  23.931  26.659  1.00  0.00     0.255 C 
ATOM      8  O   UNL A   1      30.746  23.641  27.305  1.00  0.00    -0.269 OA
ATOM      9  H   UNL A   1      31.381  25.903  26.698  1.00  0.00     0.165 HD
BRANCH   7  10
ATOM     10  C   UNL A   1      32.720  22.871  26.347  1.00  0.00     0.078 A 
ATOM     11  C   UNL A   1      34.714  21.059  25.639  1.00  0.00     0.157 A 
ATOM     12  C   UNL A   1      34.909  21.909  26.728  1.00  0.00     0.050 A 
ATOM     13  C   UNL A   1      33.515  21.101  24.926  1.00  0.00     0.201 A 
ATOM     14  C   UNL A   1      33.904  22.807  27.096  1.00  0.00     0.021 A 
ATOM     15  C   UNL A   1      32.510  21.988  25.294  1.00  0.00     0.175 A 
ATOM     16  F   UNL A   1      33.343  20.331  23.841  1.00  0.00    -0.200 F 
ATOM     17  F   UNL A   1      31.373  22.023  24.586  1.00  0.00    -0.203 F 
BRANCH  11  18
ATOM     18  O   UNL A   1      35.778  20.300  25.231  1.00  0.00    -0.494 OA
ATOM     19  C   UNL A   1      36.938  21.095  24.993  1.00  0.00     0.278 C 
ENDBRANCH  11  18
ENDBRANCH   7  10
ENDBRANCH   5   6
BRANCH   5  20
ATOM     20  C   UNL A   1      32.861  25.395  24.058  1.00  0.00     0.012 C 
ATOM     21  C   UNL A   1      33.678  24.695  23.258  1.00  0.00     0.064 C 
ATOM     22  C   UNL A   1      31.738  25.811  23.163  1.00  0.00     0.156 C 
ATOM     23  C   UNL A   1      35.023  24.126  23.550  1.00  0.00     0.069 C 
ATOM     24  N   UNL A   1      33.182  24.547  21.988  1.00  0.00    -0.160 NA
ATOM     25  N   UNL A   1      32.077  25.138  21.878  1.00  0.00    -0.181 NA
ATOM     26  C   UNL A   1      30.325  25.404  23.547  1.00  0.00     0.040 C 
ENDBRANCH   5  20
ENDBRANCH   3   5
ENDBRANCH   2   3
ENDBRANCH   1   2
BRANCH   1  27
ATOM     27  C   UNL A   1      31.694  30.287  25.745  1.00  0.00     0.275 C 
BRANCH  27  28
ATOM     28  O   UNL A   1      32.335  30.353  27.030  1.00  0.00    -0.458 OA
BRANCH  28  29
ATOM     29  C   UNL A   1      32.991  31.505  27.275  1.00  0.00     0.338 C 
ATOM     30  O   UNL A   1      32.534  32.640  27.254  1.00  0.00    -0.246 OA
BRANCH  29  31
ATOM     31  C   UNL A   1      34.382  31.232  27.648  1.00  0.00     0.060 A 
ATOM     32  C   UNL A   1      34.745  29.929  27.987  1.00  0.00     0.016 A 
ATOM     33  C   UNL A   1      35.262  32.288  27.865  1.00  0.00     0.016 A 
ATOM     34  C   UNL A   1      35.939  29.685  28.649  1.00  0.00     0.010 A 
ATOM     35  C   UNL A   1      36.506  32.028  28.445  1.00  0.00     0.010 A 
ATOM     36  C   UNL A   1      36.836  30.731  28.878  1.00  0.00    -0.014 A 
BRANCH  36  37
ATOM     37  C   UNL A   1      38.094  30.486  29.619  1.00  0.00     0.031 A 
ATOM     38  C   UNL A   1      39.160  29.634  28.998  1.00  0.00     0.074 A 
ATOM     39  C   UNL A   1      38.285  31.021  30.838  1.00  0.00     0.049 A 
ATOM     40  N   UNL A   1      40.167  29.028  29.567  1.00  0.00    -0.248 NA
ATOM     41  C   UNL A   1      39.072  29.427  27.543  1.00  0.00     0.031 C 
ATOM     42  C   UNL A   1      37.375  31.947  31.516  1.00  0.00     0.029 A 
ATOM     43  N   UNL A   1      39.312  30.849  31.732  1.00  0.00    -0.354 N 
ATOM     44  C   UNL A   1      40.785  28.302  28.557  1.00  0.00     0.074 A 
ATOM     45  C   UNL A   1      40.064  28.572  27.333  1.00  0.00     0.031 C 
ATOM     46  C   UNL A   1      37.887  32.269  32.714  1.00  0.00     0.029 A 
ATOM     47  C   UNL A   1      39.103  31.492  32.926  1.00  0.00     0.049 A 
ATOM     48  H   UNL A   1      40.118  30.318  31.536  1.00  0.00     0.167 HD
ATOM     49  C   UNL A   1      41.846  27.468  28.663  1.00  0.00     0.037 A 
ATOM     50  C   UNL A   1      39.771  31.407  34.090  1.00  0.00     0.037 A 
ATOM     51  C   UNL A   1      42.586  27.262  29.879  1.00  0.00     0.049 A 
ATOM     52  C   UNL A   1      40.927  30.458  34.196  1.00  0.00     0.074 A 
ATOM     53  C   UNL A   1      43.665  26.427  30.106  1.00  0.00     0.029 A 
ATOM     54  N   UNL A   1      42.331  27.926  31.070  1.00  0.00    -0.354 N 
ATOM     55  N   UNL A   1      41.429  29.668  33.279  1.00  0.00    -0.248 NA
ATOM     56  C   UNL A   1      41.585  30.360  35.506  1.00  0.00     0.031 C 
ATOM     57  C   UNL A   1      44.056  26.577  31.442  1.00  0.00     0.029 A 
ATOM     58  C   UNL A   1      43.234  27.522  32.037  1.00  0.00     0.049 A 
ATOM     59  H   UNL A   1      41.615  28.587  31.207  1.00  0.00     0.167 HD
ATOM     60  C   UNL A   1      42.457  28.973  33.898  1.00  0.00     0.074 A 
ATOM     61  C   UNL A   1      42.520  29.451  35.266  1.00  0.00     0.031 C 
ATOM     62  C   UNL A   1      43.270  28.018  33.387  1.00  0.00     0.037 A 
BRANCH  49  63
ATOM     63  C   UNL A   1      42.230  26.680  27.449  1.00  0.00     0.057 A 
ATOM     64  C   UNL A   1      43.121  27.172  26.489  1.00  0.00     0.134 A 
ATOM     65  C   UNL A   1      41.714  25.391  27.256  1.00  0.00     0.134 A 
ATOM     66  F   UNL A   1      43.633  28.405  26.607  1.00  0.00    -0.206 F 
ATOM     67  C   UNL A   1      43.479  26.411  25.374  1.00  0.00     0.040 A 
ATOM     68  C   UNL A   1      42.078  24.615  26.156  1.00  0.00     0.040 A 
ATOM     69  F   UNL A   1      40.854  24.864  28.141  1.00  0.00    -0.206 F 
ATOM     70  C   UNL A   1      42.962  25.127  25.208  1.00  0.00     0.006 A 
ENDBRANCH  49  63
BRANCH  50  71
ATOM     71  C   UNL A   1      39.296  32.178  35.263  1.00  0.00     0.057 A 
ATOM     72  C   UNL A   1      38.408  31.618  36.186  1.00  0.00     0.134 A 
ATOM     73  C   UNL A   1      39.754  33.479  35.511  1.00  0.00     0.134 A 
ATOM     74  F   UNL A   1      37.921  30.384  35.990  1.00  0.00    -0.206 F 
ATOM     75  C   UNL A   1      37.992  32.322  37.317  1.00  0.00     0.040 A 
ATOM     76  C   UNL A   1      39.364  34.186  36.648  1.00  0.00     0.040 A 
ATOM     77  F   UNL A   1      40.611  34.067  34.664  1.00  0.00    -0.206 F 
ATOM     78  C   UNL A   1      38.479  33.607  37.554  1.00  0.00     0.006 A 
ENDBRANCH  50  71
BRANCH  62  79
ATOM     79  C   UNL A   1      44.299  27.446  34.309  1.00  0.00     0.057 A 
ATOM     80  C   UNL A   1      44.050  26.283  35.046  1.00  0.00     0.134 A 
ATOM     81  C   UNL A   1      45.559  28.043  34.430  1.00  0.00     0.134 A 
ATOM     82  F   UNL A   1      42.856  25.677  34.978  1.00  0.00    -0.206 F 
ATOM     83  C   UNL A   1      45.021  25.736  35.885  1.00  0.00     0.040 A 
ATOM     84  C   UNL A   1      46.542  27.499  35.255  1.00  0.00     0.040 A 
ATOM     85  F   UNL A   1      45.852  29.159  33.745  1.00  0.00    -0.206 F 
ATOM     86  C   UNL A   1      46.273  26.342  35.986  1.00  0.00     0.006 A 
ENDBRANCH  62  79
ENDBRANCH  36  37
ENDBRANCH  29  31
ENDBRANCH  28  29
ENDBRANCH  27  28
ENDBRANCH   1  27
TORSDOF 15
ENDMDL
MODEL 2
REMARK VINA RESULT:     -11.6      3.996      7.346
REMARK SMILES COc1ccc(C(=O)N[C@H](C(=O)OCCOC(=O)c2ccc(-c3c4nc(c(-c5c(F)cccc5F)c5ccc([nH]5)c(-c5c(F)cccc5F)c5nc(c(-c6c(F)cccc6F)c6ccc3[nH]6)C=C5)C=C4)cc2)C2=C(C)N=N[C@H]2C)c(F)c1F
REMARK SMILES IDX 14 1 13 2 11 3 12 4 10 5 9 6 7 7 8 8 6 10 3 11 4 12 82 13
REMARK SMILES IDX 5 14 80 15 83 16 81 17 2 18 1 19 73 20 74 21 78 22 75 23
REMARK SMILES IDX 76 24 77 25 79 26 15 27 16 28 17 29 18 30 19 31 20 32 72 33
REMARK SMILES IDX 21 34 71 35 22 36 23 37 24 38 65 39 25 40 70 41 64 42 66 43
REMARK SMILES IDX 26 44 69 45 63 46 62 47 27 49 53 50 36 51 52 52 37 53 40 54
REMARK SMILES IDX 51 55 67 56 38 57 39 58 50 60 68 61 41 62 28 63 29 64 34 65
REMARK SMILES IDX 30 66 31 67 33 68 35 69 32 70 54 71 55 72 60 73 56 74 57 75
REMARK SMILES IDX 59 76 61 77 58 78 42 79 43 80 48 81 44 82 45 83 47 84 49 85
REMARK SMILES IDX 46 86
REMARK H PARENT 9 9 66 48 40 59
REMARK Flexibility Score: inf
ROOT
ATOM      1  C   UNL A   1      33.823  28.854  27.158  1.00  0.00     0.274 C 
ENDROOT
BRANCH   1   2
ATOM      2  O   UNL A   1      32.783  28.347  26.296  1.00  0.00    -0.460 OA
BRANCH   2   3
ATOM      3  C   UNL A   1      31.868  27.527  26.890  1.00  0.00     0.333 C 
ATOM      4  O   UNL A   1      31.253  27.805  27.912  1.00  0.00    -0.249 OA
BRANCH   3   5
ATOM      5  C   UNL A   1      31.799  26.155  26.177  1.00  0.00     0.223 C 
BRANCH   5   6
ATOM      6  N   UNL A   1      30.752  25.282  26.725  1.00  0.00    -0.335 N 
ATOM      7  C   UNL A   1      30.737  23.912  26.841  1.00  0.00     0.255 C 
ATOM      8  O   UNL A   1      29.733  23.335  27.246  1.00  0.00    -0.269 OA
ATOM      9  H   UNL A   1      29.948  25.744  27.055  1.00  0.00     0.165 HD
BRANCH   7  10
ATOM     10  C   UNL A   1      31.953  23.123  26.589  1.00  0.00     0.078 A 
ATOM     11  C   UNL A   1      34.393  21.866  26.112  1.00  0.00     0.157 A 
ATOM     12  C   UNL A   1      34.093  22.324  27.395  1.00  0.00     0.050 A 
ATOM     13  C   UNL A   1      33.464  22.016  25.081  1.00  0.00     0.201 A 
ATOM     14  C   UNL A   1      32.862  22.939  27.641  1.00  0.00     0.021 A 
ATOM     15  C   UNL A   1      32.237  22.621  25.324  1.00  0.00     0.175 A 
ATOM     16  F   UNL A   1      33.770  21.634  23.832  1.00  0.00    -0.200 F 
ATOM     17  F   UNL A   1      31.366  22.769  24.317  1.00  0.00    -0.203 F 
BRANCH  11  18
ATOM     18  O   UNL A   1      35.661  21.401  25.888  1.00  0.00    -0.494 OA
ATOM     19  C   UNL A   1      36.573  22.459  25.598  1.00  0.00     0.278 C 
ENDBRANCH  11  18
ENDBRANCH   7  10
ENDBRANCH   5   6
BRANCH   5  20
ATOM     20  C   UNL A   1      31.625  26.295  24.699  1.00  0.00     0.012 C 
ATOM     21  C   UNL A   1      32.498  25.990  23.729  1.00  0.00     0.064 C 
ATOM     22  C   UNL A   1      30.482  26.936  23.979  1.00  0.00     0.156 C 
ATOM     23  C   UNL A   1      33.878  25.442  23.840  1.00  0.00     0.069 C 
ATOM     24  N   UNL A   1      32.025  26.285  22.475  1.00  0.00    -0.160 NA
ATOM     25  N   UNL A   1      30.880  26.802  22.550  1.00  0.00    -0.181 NA
ATOM     26  C   UNL A   1      29.099  26.325  24.140  1.00  0.00     0.040 C 
ENDBRANCH   5  20
ENDBRANCH   3   5
ENDBRANCH   2   3
ENDBRANCH   1   2
BRANCH   1  27
ATOM     27  C   UNL A   1      33.718  30.358  27.395  1.00  0.00     0.275 C 
BRANCH  27  28
ATOM     28  O   UNL A   1      35.018  30.972  27.447  1.00  0.00    -0.458 OA
BRANCH  28  29
ATOM     29  C   UNL A   1      35.627  30.903  28.647  1.00  0.00     0.338 C 
ATOM     30  O   UNL A   1      35.244  31.387  29.704  1.00  0.00    -0.246 OA
BRANCH  29  31
ATOM     31  C   UNL A   1      36.841  30.086  28.558  1.00  0.00     0.060 A 
ATOM     32  C   UNL A   1      37.360  29.521  29.722  1.00  0.00     0.016 A 
ATOM     33  C   UNL A   1      37.573  30.059  27.374  1.00  0.00     0.016 A 
ATOM     34  C   UNL A   1      38.655  29.029  29.744  1.00  0.00     0.010 A 
ATOM     35  C   UNL A   1      38.842  29.475  27.373  1.00  0.00     0.010 A 
ATOM     36  C   UNL A   1      39.408  28.992  28.568  1.00  0.00    -0.014 A 
BRANCH  36  37
ATOM     37  C   UNL A   1      40.806  28.504  28.590  1.00  0.00     0.031 A 
ATOM     38  C   UNL A   1      41.917  29.470  28.872  1.00  0.00     0.074 A 
ATOM     39  C   UNL A   1      41.081  27.207  28.363  1.00  0.00     0.049 A 
ATOM     40  N   UNL A   1      43.194  29.351  28.625  1.00  0.00    -0.248 NA
ATOM     41  C   UNL A   1      41.538  30.744  29.503  1.00  0.00     0.031 C 
ATOM     42  C   UNL A   1      40.090  26.144  28.175  1.00  0.00     0.029 A 
ATOM     43  N   UNL A   1      42.286  26.564  28.239  1.00  0.00    -0.354 N 
ATOM     44  C   UNL A   1      43.761  30.564  28.994  1.00  0.00     0.074 A 
ATOM     45  C   UNL A   1      42.695  31.392  29.516  1.00  0.00     0.031 C 
ATOM     46  C   UNL A   1      40.727  24.982  27.969  1.00  0.00     0.029 A 
ATOM     47  C   UNL A   1      42.161  25.239  27.906  1.00  0.00     0.049 A 
ATOM     48  H   UNL A   1      43.154  27.010  28.375  1.00  0.00     0.167 HD
ATOM     49  C   UNL A   1      45.053  30.947  28.879  1.00  0.00     0.037 A 
ATOM     50  C   UNL A   1      43.089  24.347  27.517  1.00  0.00     0.037 A 
ATOM     51  C   UNL A   1      46.106  30.085  28.413  1.00  0.00     0.049 A 
ATOM     52  C   UNL A   1      44.512  24.796  27.369  1.00  0.00     0.074 A 
ATOM     53  C   UNL A   1      47.449  30.373  28.238  1.00  0.00     0.029 A 
ATOM     54  N   UNL A   1      45.932  28.752  28.075  1.00  0.00    -0.354 N 
ATOM     55  N   UNL A   1      45.026  25.982  27.588  1.00  0.00    -0.248 NA
ATOM     56  C   UNL A   1      45.475  23.798  26.886  1.00  0.00     0.031 C 
ATOM     57  C   UNL A   1      48.085  29.213  27.780  1.00  0.00     0.029 A 
ATOM     58  C   UNL A   1      47.142  28.200  27.694  1.00  0.00     0.049 A 
ATOM     59  H   UNL A   1      45.075  28.268  28.103  1.00  0.00     0.167 HD
ATOM     60  C   UNL A   1      46.371  25.877  27.263  1.00  0.00     0.074 A 
ATOM     61  C   UNL A   1      46.596  24.505  26.853  1.00  0.00     0.031 C 
ATOM     62  C   UNL A   1      47.331  26.832  27.292  1.00  0.00     0.037 A 
BRANCH  49  63
ATOM     63  C   UNL A   1      45.385  32.369  29.207  1.00  0.00     0.057 A 
ATOM     64  C   UNL A   1      45.832  32.760  30.474  1.00  0.00     0.134 A 
ATOM     65  C   UNL A   1      45.278  33.361  28.222  1.00  0.00     0.134 A 
ATOM     66  F   UNL A   1      45.936  31.861  31.464  1.00  0.00    -0.206 F 
ATOM     67  C   UNL A   1      46.153  34.090  30.753  1.00  0.00     0.040 A 
ATOM     68  C   UNL A   1      45.613  34.690  28.484  1.00  0.00     0.040 A 
ATOM     69  F   UNL A   1      44.854  33.051  26.988  1.00  0.00    -0.206 F 
ATOM     70  C   UNL A   1      46.050  35.058  29.755  1.00  0.00     0.006 A 
ENDBRANCH  49  63
BRANCH  50  71
ATOM     71  C   UNL A   1      42.674  22.971  27.156  1.00  0.00     0.057 A 
ATOM     72  C   UNL A   1      42.368  22.026  28.140  1.00  0.00     0.134 A 
ATOM     73  C   UNL A   1      42.532  22.583  25.818  1.00  0.00     0.134 A 
ATOM     74  F   UNL A   1      42.504  22.335  29.438  1.00  0.00    -0.206 F 
ATOM     75  C   UNL A   1      41.932  20.743  27.808  1.00  0.00     0.040 A 
ATOM     76  C   UNL A   1      42.077  21.311  25.471  1.00  0.00     0.040 A 
ATOM     77  F   UNL A   1      42.806  23.446  24.830  1.00  0.00    -0.206 F 
ATOM     78  C   UNL A   1      41.777  20.386  26.468  1.00  0.00     0.006 A 
ENDBRANCH  50  71
BRANCH  62  79
ATOM     79  C   UNL A   1      48.707  26.413  26.882  1.00  0.00     0.057 A 
ATOM     80  C   UNL A   1      49.583  25.803  27.786  1.00  0.00     0.134 A 
ATOM     81  C   UNL A   1      49.142  26.588  25.563  1.00  0.00     0.134 A 
ATOM     82  F   UNL A   1      49.223  25.623  29.066  1.00  0.00    -0.206 F 
ATOM     83  C   UNL A   1      50.856  25.389  27.394  1.00  0.00     0.040 A 
ATOM     84  C   UNL A   1      50.407  26.166  25.155  1.00  0.00     0.040 A 
ATOM     85  F   UNL A   1      48.343  27.165  24.654  1.00  0.00    -0.206 F 
ATOM     86  C   UNL A   1      51.268  25.566  26.073  1.00  0.00     0.006 A 
ENDBRANCH  62  79
ENDBRANCH  36  37
ENDBRANCH  29  31
ENDBRANCH  28  29
ENDBRANCH  27  28
ENDBRANCH   1  27
TORSDOF 15
ENDMDL
MODEL 3
REMARK VINA RESULT:     -11.3      3.883      8.686
REMARK SMILES COc1ccc(C(=O)N[C@H](C(=O)OCCOC(=O)c2ccc(-c3c4nc(c(-c5c(F)cccc5F)c5ccc([nH]5)c(-c5c(F)cccc5F)c5nc(c(-c6c(F)cccc6F)c6ccc3[nH]6)C=C5)C=C4)cc2)C2=C(C)N=N[C@H]2C)c(F)c1F
REMARK SMILES IDX 14 1 13 2 11 3 12 4 10 5 9 6 7 7 8 8 6 10 3 11 4 12 82 13
REMARK SMILES IDX 5 14 80 15 83 16 81 17 2 18 1 19 73 20 74 21 78 22 75 23
REMARK SMILES IDX 76 24 77 25 79 26 15 27 16 28 17 29 18 30 19 31 20 32 72 33
REMARK SMILES IDX 21 34 71 35 22 36 23 37 24 38 65 39 25 40 70 41 64 42 66 43
REMARK SMILES IDX 26 44 69 45 63 46 62 47 27 49 53 50 36 51 52 52 37 53 40 54
REMARK SMILES IDX 51 55 67 56 38 57 39 58 50 60 68 61 41 62 28 63 29 64 34 65
REMARK SMILES IDX 30 66 31 67 33 68 35 69 32 70 54 71 55 72 60 73 56 74 57 75
REMARK SMILES IDX 59 76 61 77 58 78 42 79 43 80 48 81 44 82 45 83 47 84 49 85
REMARK SMILES IDX 46 86
REMARK H PARENT 9 9 66 48 40 59
REMARK Flexibility Score: inf
ROOT
ATOM      1  C   UNL A   1      36.718  22.971  23.338  1.00  0.00     0.274 C 
ENDROOT
BRANCH   1   2
ATOM      2  O   UNL A   1      35.652  23.819  23.815  1.00  0.00    -0.460 OA
BRANCH   2   3
ATOM      3  C   UNL A   1      34.405  23.521  23.349  1.00  0.00     0.333 C 
ATOM      4  O   UNL A   1      34.109  23.455  22.162  1.00  0.00    -0.249 OA
BRANCH   3   5
ATOM      5  C   UNL A   1      33.387  23.400  24.509  1.00  0.00     0.223 C 
BRANCH   5   6
ATOM      6  N   UNL A   1      32.041  23.852  24.132  1.00  0.00    -0.335 N 
ATOM      7  C   UNL A   1      31.438  25.068  24.355  1.00  0.00     0.255 C 
ATOM      8  O   UNL A   1      30.264  25.245  24.047  1.00  0.00    -0.269 OA
ATOM      9  H   UNL A   1      31.492  23.189  23.653  1.00  0.00     0.165 HD
BRANCH   7  10
ATOM     10  C   UNL A   1      32.216  26.210  24.862  1.00  0.00     0.078 A 
ATOM     11  C   UNL A   1      33.456  28.515  25.817  1.00  0.00     0.157 A 
ATOM     12  C   UNL A   1      32.675  27.744  26.679  1.00  0.00     0.050 A 
ATOM     13  C   UNL A   1      33.635  28.116  24.491  1.00  0.00     0.201 A 
ATOM     14  C   UNL A   1      32.066  26.578  26.206  1.00  0.00     0.021 A 
ATOM     15  C   UNL A   1      33.036  26.954  24.021  1.00  0.00     0.175 A 
ATOM     16  F   UNL A   1      34.333  28.883  23.640  1.00  0.00    -0.200 F 
ATOM     17  F   UNL A   1      33.207  26.598  22.740  1.00  0.00    -0.203 F 
BRANCH  11  18
ATOM     18  O   UNL A   1      33.914  29.717  26.284  1.00  0.00    -0.494 OA
ATOM     19  C   UNL A   1      33.037  30.277  27.260  1.00  0.00     0.278 C 
ENDBRANCH  11  18
ENDBRANCH   7  10
ENDBRANCH   5   6
BRANCH   5  20
ATOM     20  C   UNL A   1      33.324  22.013  25.061  1.00  0.00     0.012 C 
ATOM     21  C   UNL A   1      33.298  21.633  26.347  1.00  0.00     0.064 C 
ATOM     22  C   UNL A   1      33.412  20.729  24.299  1.00  0.00     0.156 C 
ATOM     23  C   UNL A   1      33.335  22.469  27.578  1.00  0.00     0.069 C 
ATOM     24  N   UNL A   1      33.280  20.269  26.498  1.00  0.00    -0.160 NA
ATOM     25  N   UNL A   1      33.321  19.703  25.375  1.00  0.00    -0.181 NA
ATOM     26  C   UNL A   1      32.332  20.429  23.272  1.00  0.00     0.040 C 
ENDBRANCH   5  20
ENDBRANCH   3   5
ENDBRANCH   2   3
ENDBRANCH   1   2
BRANCH   1  27
ATOM     27  C   UNL A   1      36.858  21.682  24.143  1.00  0.00     0.275 C 
BRANCH  27  28
ATOM     28  O   UNL A   1      37.200  21.954  25.513  1.00  0.00    -0.458 OA
BRANCH  28  29
ATOM     29  C   UNL A   1      38.468  21.646  25.850  1.00  0.00     0.338 C 
ATOM     30  O   UNL A   1      39.085  20.626  25.569  1.00  0.00    -0.246 OA
BRANCH  29  31
ATOM     31  C   UNL A   1      39.086  22.754  26.584  1.00  0.00     0.060 A 
ATOM     32  C   UNL A   1      38.661  24.056  26.322  1.00  0.00     0.016 A 
ATOM     33  C   UNL A   1      40.217  22.524  27.362  1.00  0.00     0.016 A 
ATOM     34  C   UNL A   1      39.423  25.137  26.736  1.00  0.00     0.010 A 
ATOM     35  C   UNL A   1      40.932  23.617  27.861  1.00  0.00     0.010 A 
ATOM     36  C   UNL A   1      40.562  24.930  27.517  1.00  0.00    -0.014 A 
BRANCH  36  37
ATOM     37  C   UNL A   1      41.402  26.077  27.931  1.00  0.00     0.031 A 
ATOM     38  C   UNL A   1      40.810  27.149  28.795  1.00  0.00     0.074 A 
ATOM     39  C   UNL A   1      42.686  26.161  27.538  1.00  0.00     0.049 A 
ATOM     40  N   UNL A   1      41.231  28.368  29.002  1.00  0.00    -0.248 NA
ATOM     41  C   UNL A   1      39.571  26.806  29.513  1.00  0.00     0.031 C 
ATOM     42  C   UNL A   1      43.415  25.141  26.780  1.00  0.00     0.029 A 
ATOM     43  N   UNL A   1      43.605  27.164  27.715  1.00  0.00    -0.354 N 
ATOM     44  C   UNL A   1      40.269  28.965  29.806  1.00  0.00     0.074 A 
ATOM     45  C   UNL A   1      39.261  27.964  30.080  1.00  0.00     0.031 C 
ATOM     46  C   UNL A   1      44.669  25.566  26.565  1.00  0.00     0.029 A 
ATOM     47  C   UNL A   1      44.796  26.925  27.078  1.00  0.00     0.049 A 
ATOM     48  H   UNL A   1      43.427  27.974  28.247  1.00  0.00     0.167 HD
ATOM     49  C   UNL A   1      40.231  30.243  30.248  1.00  0.00     0.037 A 
ATOM     50  C   UNL A   1      45.846  27.737  26.861  1.00  0.00     0.037 A 
ATOM     51  C   UNL A   1      41.276  31.203  30.012  1.00  0.00     0.049 A 
ATOM     52  C   UNL A   1      45.776  29.158  27.334  1.00  0.00     0.074 A 
ATOM     53  C   UNL A   1      41.335  32.532  30.397  1.00  0.00     0.029 A 
ATOM     54  N   UNL A   1      42.461  30.922  29.351  1.00  0.00    -0.354 N 
ATOM     55  N   UNL A   1      44.807  29.763  27.977  1.00  0.00    -0.248 NA
ATOM     56  C   UNL A   1      46.925  30.018  27.021  1.00  0.00     0.031 C 
ATOM     57  C   UNL A   1      42.555  33.057  29.954  1.00  0.00     0.029 A 
ATOM     58  C   UNL A   1      43.262  32.049  29.316  1.00  0.00     0.049 A 
ATOM     59  H   UNL A   1      42.699  30.049  28.963  1.00  0.00     0.167 HD
ATOM     60  C   UNL A   1      45.223  31.077  28.140  1.00  0.00     0.074 A 
ATOM     61  C   UNL A   1      46.542  31.174  27.546  1.00  0.00     0.031 C 
ATOM     62  C   UNL A   1      44.569  32.112  28.719  1.00  0.00     0.037 A 
BRANCH  49  63
ATOM     63  C   UNL A   1      39.002  30.687  30.976  1.00  0.00     0.057 A 
ATOM     64  C   UNL A   1      38.878  30.586  32.366  1.00  0.00     0.134 A 
ATOM     65  C   UNL A   1      37.931  31.252  30.269  1.00  0.00     0.134 A 
ATOM     66  F   UNL A   1      39.860  30.037  33.096  1.00  0.00    -0.206 F 
ATOM     67  C   UNL A   1      37.729  31.024  33.027  1.00  0.00     0.040 A 
ATOM     68  C   UNL A   1      36.785  31.709  30.920  1.00  0.00     0.040 A 
ATOM     69  F   UNL A   1      37.987  31.375  28.934  1.00  0.00    -0.206 F 
ATOM     70  C   UNL A   1      36.681  31.593  32.305  1.00  0.00     0.006 A 
ENDBRANCH  49  63
BRANCH  50  71
ATOM     71  C   UNL A   1      47.006  27.240  26.083  1.00  0.00     0.057 A 
ATOM     72  C   UNL A   1      47.063  27.393  24.695  1.00  0.00     0.134 A 
ATOM     73  C   UNL A   1      48.101  26.639  26.716  1.00  0.00     0.134 A 
ATOM     74  F   UNL A   1      46.035  27.943  24.032  1.00  0.00    -0.206 F 
ATOM     75  C   UNL A   1      48.172  26.968  23.961  1.00  0.00     0.040 A 
ATOM     76  C   UNL A   1      49.225  26.230  25.999  1.00  0.00     0.040 A 
ATOM     77  F   UNL A   1      48.105  26.470  28.046  1.00  0.00    -0.206 F 
ATOM     78  C   UNL A   1      49.261  26.393  24.616  1.00  0.00     0.006 A 
ENDBRANCH  50  71
BRANCH  62  79
ATOM     79  C   UNL A   1      45.282  33.426  28.746  1.00  0.00     0.057 A 
ATOM     80  C   UNL A   1      46.163  33.755  29.783  1.00  0.00     0.134 A 
ATOM     81  C   UNL A   1      45.115  34.350  27.709  1.00  0.00     0.134 A 
ATOM     82  F   UNL A   1      46.351  32.912  30.809  1.00  0.00    -0.206 F 
ATOM     83  C   UNL A   1      46.848  34.970  29.792  1.00  0.00     0.040 A 
ATOM     84  C   UNL A   1      45.804  35.562  27.700  1.00  0.00     0.040 A 
ATOM     85  F   UNL A   1      44.285  34.086  26.689  1.00  0.00    -0.206 F 
ATOM     86  C   UNL A   1      46.673  35.875  28.745  1.00  0.00     0.006 A 
ENDBRANCH  62  79
ENDBRANCH  36  37
ENDBRANCH  29  31
ENDBRANCH  28  29
ENDBRANCH  27  28
ENDBRANCH   1  27
TORSDOF 15
ENDMDL
