MODEL 1
REMARK VINA RESULT:     -14.3      0.000      0.000
REMARK SMILES O=C(OCCOC(=O)[C@@H]1CC2(CC[NH2+]CC2)C[N@@H+]1Cc1cccc2nonc12)c1ccc(-c2c3nc(c(-c4c(F)cccc4F)c4ccc([nH]4)c(-c4c(F)cccc4F)c4nc(c(-c5c(F)cccc5F)c5ccc2[nH]5)C=C4)C=C3)cc1
REMARK SMILES IDX 4 1 3 2 2 3 1 4 29 5 30 6 82 7 31 8 81 9 32 10 33 11 34 12
REMARK SMILES IDX 75 13 35 14 80 15 74 16 76 17 36 18 79 19 73 20 72 21 37 23
REMARK SMILES IDX 63 24 46 25 62 26 47 27 50 28 61 29 77 30 48 31 49 32 60 34
REMARK SMILES IDX 78 35 51 36 38 37 39 38 44 39 40 40 41 41 43 42 45 43 42 44
REMARK SMILES IDX 64 45 65 46 70 47 66 48 67 49 69 50 71 51 68 52 52 53 53 54
REMARK SMILES IDX 58 55 54 56 55 57 57 58 59 59 56 60 5 61 6 62 7 63 8 64 9 65
REMARK SMILES IDX 10 66 18 67 11 68 17 69 12 71 16 72 13 73 15 74 14 75 19 78
REMARK SMILES IDX 20 79 21 80 28 81 22 82 24 83 27 84 23 85 25 86 26 87
REMARK H PARENT 76 22 50 33 18 70 14 76 14 77
REMARK Flexibility Score: inf
ROOT
ATOM      1  C   UNL A   1      31.560  27.838  25.865  1.00  0.00     0.275 C 
ENDROOT
BRANCH   1   2
ATOM      2  O   UNL A   1      31.801  28.884  26.814  1.00  0.00    -0.458 OA
BRANCH   2   3
ATOM      3  C   UNL A   1      32.341  30.098  26.595  1.00  0.00     0.338 C 
ATOM      4  O   UNL A   1      31.823  30.831  25.753  1.00  0.00    -0.246 OA
BRANCH   3   5
ATOM      5  C   UNL A   1      33.580  30.628  27.256  1.00  0.00     0.060 A 
ATOM      6  C   UNL A   1      34.949  29.448  27.073  1.00  0.00     0.016 A 
ATOM      7  C   UNL A   1      33.866  32.186  28.182  1.00  0.00     0.016 A 
ATOM      8  C   UNL A   1      36.558  29.797  27.783  1.00  0.00     0.010 A 
ATOM      9  C   UNL A   1      35.577  32.585  28.792  1.00  0.00     0.010 A 
ATOM     10  C   UNL A   1      36.890  31.301  28.705  1.00  0.00    -0.014 A 
BRANCH  10  11
ATOM     11  C   UNL A   1      38.049  31.320  29.670  1.00  0.00     0.031 A 
ATOM     12  C   UNL A   1      38.872  30.068  29.750  1.00  0.00     0.074 A 
ATOM     13  C   UNL A   1      38.728  32.435  30.057  1.00  0.00     0.049 A 
ATOM     14  N   UNL A   1      39.978  29.864  29.082  1.00  0.00    -0.248 NA
ATOM     15  C   UNL A   1      38.383  28.894  30.472  1.00  0.00     0.031 C 
ATOM     16  C   UNL A   1      38.573  33.819  29.591  1.00  0.00     0.029 A 
ATOM     17  N   UNL A   1      39.868  32.513  30.831  1.00  0.00    -0.354 N 
ATOM     18  C   UNL A   1      40.257  28.517  29.178  1.00  0.00     0.074 A 
ATOM     19  C   UNL A   1      39.273  27.968  30.092  1.00  0.00     0.031 C 
ATOM     20  C   UNL A   1      39.621  34.566  29.993  1.00  0.00     0.029 A 
ATOM     21  C   UNL A   1      40.498  33.745  30.812  1.00  0.00     0.049 A 
ATOM     22  H   UNL A   1      40.207  31.752  31.356  1.00  0.00     0.167 HD
ATOM     23  C   UNL A   1      41.209  27.860  28.470  1.00  0.00     0.037 A 
ATOM     24  C   UNL A   1      41.801  34.074  31.008  1.00  0.00     0.037 A 
ATOM     25  C   UNL A   1      42.060  28.570  27.561  1.00  0.00     0.049 A 
ATOM     26  C   UNL A   1      42.697  33.035  30.399  1.00  0.00     0.074 A 
ATOM     27  C   UNL A   1      42.217  28.646  26.196  1.00  0.00     0.029 A 
ATOM     28  N   UNL A   1      43.220  29.125  28.036  1.00  0.00    -0.354 N 
ATOM     29  N   UNL A   1      43.379  33.129  29.283  1.00  0.00    -0.248 NA
ATOM     30  C   UNL A   1      42.706  31.710  30.998  1.00  0.00     0.031 C 
ATOM     31  C   UNL A   1      43.297  29.558  25.962  1.00  0.00     0.029 A 
ATOM     32  C   UNL A   1      43.642  30.128  27.188  1.00  0.00     0.049 A 
ATOM     33  H   UNL A   1      43.683  28.850  28.861  1.00  0.00     0.167 HD
ATOM     34  C   UNL A   1      43.741  31.817  28.935  1.00  0.00     0.074 A 
ATOM     35  C   UNL A   1      43.347  31.014  30.075  1.00  0.00     0.031 C 
ATOM     36  C   UNL A   1      44.183  31.403  27.693  1.00  0.00     0.037 A 
BRANCH  23  37
ATOM     37  C   UNL A   1      41.414  26.404  28.580  1.00  0.00     0.057 A 
ATOM     38  C   UNL A   1      40.626  25.501  27.867  1.00  0.00     0.134 A 
ATOM     39  C   UNL A   1      42.557  25.926  29.228  1.00  0.00     0.134 A 
ATOM     40  F   UNL A   1      39.530  25.920  27.213  1.00  0.00    -0.206 F 
ATOM     41  C   UNL A   1      40.985  24.158  27.777  1.00  0.00     0.040 A 
ATOM     42  C   UNL A   1      42.931  24.590  29.140  1.00  0.00     0.040 A 
ATOM     43  F   UNL A   1      43.349  26.769  29.912  1.00  0.00    -0.206 F 
ATOM     44  C   UNL A   1      42.148  23.704  28.401  1.00  0.00     0.006 A 
ENDBRANCH  23  37
BRANCH  24  45
ATOM     45  C   UNL A   1      42.039  34.684  32.357  1.00  0.00     0.057 A 
ATOM     46  C   UNL A   1      41.337  34.333  33.522  1.00  0.00     0.134 A 
ATOM     47  C   UNL A   1      42.907  35.782  32.479  1.00  0.00     0.134 A 
ATOM     48  F   UNL A   1      40.510  33.283  33.560  1.00  0.00    -0.206 F 
ATOM     49  C   UNL A   1      41.422  35.076  34.705  1.00  0.00     0.040 A 
ATOM     50  C   UNL A   1      43.010  36.528  33.661  1.00  0.00     0.040 A 
ATOM     51  F   UNL A   1      43.658  36.170  31.437  1.00  0.00    -0.206 F 
ATOM     52  C   UNL A   1      42.247  36.189  34.773  1.00  0.00     0.006 A 
ENDBRANCH  24  45
BRANCH  36  53
ATOM     53  C   UNL A   1      44.868  32.470  26.831  1.00  0.00     0.057 A 
ATOM     54  C   UNL A   1      44.294  33.140  25.740  1.00  0.00     0.134 A 
ATOM     55  C   UNL A   1      46.191  32.873  27.098  1.00  0.00     0.134 A 
ATOM     56  F   UNL A   1      43.121  32.778  25.220  1.00  0.00    -0.206 F 
ATOM     57  C   UNL A   1      44.863  34.268  25.130  1.00  0.00     0.040 A 
ATOM     58  C   UNL A   1      46.796  33.979  26.475  1.00  0.00     0.040 A 
ATOM     59  F   UNL A   1      46.954  32.178  27.958  1.00  0.00    -0.206 F 
ATOM     60  C   UNL A   1      46.108  34.717  25.523  1.00  0.00     0.006 A 
ENDBRANCH  36  53
ENDBRANCH  10  11
ENDBRANCH   3   5
ENDBRANCH   2   3
ENDBRANCH   1   2
BRANCH   1  61
ATOM     61  C   UNL A   1      30.980  26.586  26.509  1.00  0.00     0.274 C 
BRANCH  61  62
ATOM     62  O   UNL A   1      31.937  25.534  26.390  1.00  0.00    -0.458 OA
BRANCH  62  63
ATOM     63  C   UNL A   1      31.500  24.261  26.567  1.00  0.00     0.365 C 
ATOM     64  O   UNL A   1      31.503  23.679  27.645  1.00  0.00    -0.245 OA
BRANCH  63  65
ATOM     65  C   UNL A   1      31.007  23.613  25.256  1.00  0.00     0.296 C 
ATOM     66  C   UNL A   1      31.709  22.252  25.264  1.00  0.00     0.091 C 
ATOM     67  N   UNL A   1      31.362  24.333  23.819  1.00  0.00    -0.319 N 
ATOM     68  C   UNL A   1      33.073  22.430  24.637  1.00  0.00     0.036 C 
ATOM     69  C   UNL A   1      32.888  23.633  23.740  1.00  0.00     0.270 C 
ATOM     70  H   UNL A   1      30.622  24.525  23.145  1.00  0.00     0.349 HD
ATOM     71  C   UNL A   1      33.459  21.159  23.857  1.00  0.00     0.074 C 
ATOM     72  C   UNL A   1      34.290  22.709  25.554  1.00  0.00     0.074 C 
ATOM     73  C   UNL A   1      33.677  20.017  24.836  1.00  0.00     0.261 C 
ATOM     74  C   UNL A   1      34.580  21.569  26.501  1.00  0.00     0.261 C 
ATOM     75  N   UNL A   1      34.754  20.322  25.779  1.00  0.00    -0.346 N 
ATOM     76  H   UNL A   1      35.630  20.376  25.257  1.00  0.00     0.346 HD
ATOM     77  H   UNL A   1      34.752  19.578  26.476  1.00  0.00     0.346 HD
BRANCH  67  78
ATOM     78  C   UNL A   1      30.592  25.965  22.703  1.00  0.00     0.302 C 
BRANCH  78  79
ATOM     79  C   UNL A   1      29.523  27.335  23.156  1.00  0.00     0.038 A 
ATOM     80  C   UNL A   1      28.342  27.097  23.942  1.00  0.00     0.012 A 
ATOM     81  C   UNL A   1      29.468  28.588  22.481  1.00  0.00     0.144 A 
ATOM     82  C   UNL A   1      27.116  27.787  23.728  1.00  0.00     0.003 A 
ATOM     83  C   UNL A   1      28.202  29.296  22.276  1.00  0.00     0.135 A 
ATOM     84  N   UNL A   1      30.420  29.277  21.845  1.00  0.00    -0.049 NA
ATOM     85  C   UNL A   1      26.985  28.857  22.827  1.00  0.00     0.034 A 
ATOM     86  N   UNL A   1      28.418  30.318  21.441  1.00  0.00    -0.050 NA
ATOM     87  O   UNL A   1      29.780  30.320  21.198  1.00  0.00    -0.243 OA
ENDBRANCH  78  79
ENDBRANCH  67  78
ENDBRANCH  63  65
ENDBRANCH  62  63
ENDBRANCH  61  62
ENDBRANCH   1  61
TORSDOF 13
ENDMDL
MODEL 2
REMARK VINA RESULT:     -14.0      7.480     14.520
REMARK SMILES O=C(OCCOC(=O)[C@@H]1CC2(CC[NH2+]CC2)C[N@@H+]1Cc1cccc2nonc12)c1ccc(-c2c3nc(c(-c4c(F)cccc4F)c4ccc([nH]4)c(-c4c(F)cccc4F)c4nc(c(-c5c(F)cccc5F)c5ccc2[nH]5)C=C4)C=C3)cc1
REMARK SMILES IDX 4 1 3 2 2 3 1 4 29 5 30 6 82 7 31 8 81 9 32 10 33 11 34 12
REMARK SMILES IDX 75 13 35 14 80 15 74 16 76 17 36 18 79 19 73 20 72 21 37 23
REMARK SMILES IDX 63 24 46 25 62 26 47 27 50 28 61 29 77 30 48 31 49 32 60 34
REMARK SMILES IDX 78 35 51 36 38 37 39 38 44 39 40 40 41 41 43 42 45 43 42 44
REMARK SMILES IDX 64 45 65 46 70 47 66 48 67 49 69 50 71 51 68 52 52 53 53 54
REMARK SMILES IDX 58 55 54 56 55 57 57 58 59 59 56 60 5 61 6 62 7 63 8 64 9 65
REMARK SMILES IDX 10 66 18 67 11 68 17 69 12 71 16 72 13 73 15 74 14 75 19 78
REMARK SMILES IDX 20 79 21 80 28 81 22 82 24 83 27 84 23 85 25 86 26 87
REMARK H PARENT 76 22 50 33 18 70 14 76 14 77
REMARK Flexibility Score: inf
ROOT
ATOM      1  C   UNL A   1      43.328  40.866  26.049  1.00  0.00     0.275 C 
ENDROOT
BRANCH   1   2
ATOM      2  O   UNL A   1      42.617  39.682  26.431  1.00  0.00    -0.458 OA
BRANCH   2   3
ATOM      3  C   UNL A   1      42.095  39.377  27.635  1.00  0.00     0.338 C 
ATOM      4  O   UNL A   1      41.313  40.171  28.157  1.00  0.00    -0.246 OA
BRANCH   3   5
ATOM      5  C   UNL A   1      42.434  38.158  28.442  1.00  0.00     0.060 A 
ATOM      6  C   UNL A   1      41.357  36.771  27.978  1.00  0.00     0.016 A 
ATOM      7  C   UNL A   1      43.686  37.910  29.760  1.00  0.00     0.016 A 
ATOM      8  C   UNL A   1      41.512  35.180  28.792  1.00  0.00     0.010 A 
ATOM      9  C   UNL A   1      43.917  36.217  30.494  1.00  0.00     0.010 A 
ATOM     10  C   UNL A   1      42.714  34.887  30.094  1.00  0.00    -0.014 A 
BRANCH  10  11
ATOM     11  C   UNL A   1      42.479  33.748  31.055  1.00  0.00     0.031 A 
ATOM     12  C   UNL A   1      41.061  33.526  31.493  1.00  0.00     0.074 A 
ATOM     13  C   UNL A   1      43.253  32.631  31.150  1.00  0.00     0.049 A 
ATOM     14  N   UNL A   1      40.239  32.672  30.939  1.00  0.00    -0.248 NA
ATOM     15  C   UNL A   1      40.439  34.398  32.487  1.00  0.00     0.031 C 
ATOM     16  C   UNL A   1      44.399  32.229  30.325  1.00  0.00     0.029 A 
ATOM     17  N   UNL A   1      43.028  31.501  31.910  1.00  0.00    -0.354 N 
ATOM     18  C   UNL A   1      38.978  32.979  31.402  1.00  0.00     0.074 A 
ATOM     19  C   UNL A   1      39.158  34.018  32.398  1.00  0.00     0.031 C 
ATOM     20  C   UNL A   1      44.699  30.932  30.544  1.00  0.00     0.029 A 
ATOM     21  C   UNL A   1      43.819  30.415  31.580  1.00  0.00     0.049 A 
ATOM     22  H   UNL A   1      42.357  31.469  32.630  1.00  0.00     0.167 HD
ATOM     23  C   UNL A   1      37.818  32.458  30.925  1.00  0.00     0.037 A 
ATOM     24  C   UNL A   1      43.595  29.083  31.722  1.00  0.00     0.037 A 
ATOM     25  C   UNL A   1      37.837  31.471  29.887  1.00  0.00     0.049 A 
ATOM     26  C   UNL A   1      42.156  28.765  31.442  1.00  0.00     0.074 A 
ATOM     27  C   UNL A   1      37.486  31.417  28.557  1.00  0.00     0.029 A 
ATOM     28  N   UNL A   1      37.941  30.148  30.232  1.00  0.00    -0.354 N 
ATOM     29  N   UNL A   1      41.659  28.208  30.364  1.00  0.00    -0.248 NA
ATOM     30  C   UNL A   1      41.157  29.263  32.375  1.00  0.00     0.031 C 
ATOM     31  C   UNL A   1      37.754  30.079  28.121  1.00  0.00     0.029 A 
ATOM     32  C   UNL A   1      38.412  29.419  29.159  1.00  0.00     0.049 A 
ATOM     33  H   UNL A   1      37.715  29.774  31.115  1.00  0.00     0.167 HD
ATOM     34  C   UNL A   1      40.279  28.465  30.392  1.00  0.00     0.074 A 
ATOM     35  C   UNL A   1      40.043  29.058  31.693  1.00  0.00     0.031 C 
ATOM     36  C   UNL A   1      39.414  28.350  29.321  1.00  0.00     0.037 A 
BRANCH  23  37
ATOM     37  C   UNL A   1      36.498  32.877  31.428  1.00  0.00     0.057 A 
ATOM     38  C   UNL A   1      36.036  32.481  32.684  1.00  0.00     0.134 A 
ATOM     39  C   UNL A   1      35.791  33.869  30.740  1.00  0.00     0.134 A 
ATOM     40  F   UNL A   1      36.693  31.546  33.388  1.00  0.00    -0.206 F 
ATOM     41  C   UNL A   1      34.914  33.080  33.253  1.00  0.00     0.040 A 
ATOM     42  C   UNL A   1      34.675  34.480  31.300  1.00  0.00     0.040 A 
ATOM     43  F   UNL A   1      36.214  34.287  29.535  1.00  0.00    -0.206 F 
ATOM     44  C   UNL A   1      34.241  34.093  32.567  1.00  0.00     0.006 A 
ENDBRANCH  23  37
BRANCH  24  45
ATOM     45  C   UNL A   1      44.366  28.493  32.865  1.00  0.00     0.057 A 
ATOM     46  C   UNL A   1      44.260  28.919  34.199  1.00  0.00     0.134 A 
ATOM     47  C   UNL A   1      45.378  27.552  32.607  1.00  0.00     0.134 A 
ATOM     48  F   UNL A   1      43.314  29.778  34.593  1.00  0.00    -0.206 F 
ATOM     49  C   UNL A   1      45.153  28.507  35.195  1.00  0.00     0.040 A 
ATOM     50  C   UNL A   1      46.272  27.123  33.598  1.00  0.00     0.040 A 
ATOM     51  F   UNL A   1      45.534  27.047  31.375  1.00  0.00    -0.206 F 
ATOM     52  C   UNL A   1      46.175  27.620  34.893  1.00  0.00     0.006 A 
ENDBRANCH  24  45
BRANCH  36  53
ATOM     53  C   UNL A   1      39.824  27.358  28.226  1.00  0.00     0.057 A 
ATOM     54  C   UNL A   1      40.403  27.687  26.992  1.00  0.00     0.134 A 
ATOM     55  C   UNL A   1      39.640  25.972  28.403  1.00  0.00     0.134 A 
ATOM     56  F   UNL A   1      40.495  28.947  26.563  1.00  0.00    -0.206 F 
ATOM     57  C   UNL A   1      40.978  26.747  26.123  1.00  0.00     0.040 A 
ATOM     58  C   UNL A   1      40.176  25.011  27.528  1.00  0.00     0.040 A 
ATOM     59  F   UNL A   1      38.900  25.508  29.423  1.00  0.00    -0.206 F 
ATOM     60  C   UNL A   1      40.898  25.398  26.409  1.00  0.00     0.006 A 
ENDBRANCH  36  53
ENDBRANCH  10  11
ENDBRANCH   3   5
ENDBRANCH   2   3
ENDBRANCH   1   2
BRANCH   1  61
ATOM     61  C   UNL A   1      42.545  41.725  25.064  1.00  0.00     0.274 C 
BRANCH  61  62
ATOM     62  O   UNL A   1      43.223  41.701  23.808  1.00  0.00    -0.458 OA
BRANCH  62  63
ATOM     63  C   UNL A   1      43.572  42.891  23.257  1.00  0.00     0.365 C 
ATOM     64  O   UNL A   1      42.836  43.870  23.218  1.00  0.00    -0.245 OA
BRANCH  63  65
ATOM     65  C   UNL A   1      44.998  42.880  22.668  1.00  0.00     0.296 C 
ATOM     66  C   UNL A   1      45.879  42.755  23.916  1.00  0.00     0.091 C 
ATOM     67  N   UNL A   1      45.532  44.190  21.827  1.00  0.00    -0.319 N 
ATOM     68  C   UNL A   1      46.132  44.148  24.446  1.00  0.00     0.036 C 
ATOM     69  C   UNL A   1      45.975  45.019  23.221  1.00  0.00     0.270 C 
ATOM     70  H   UNL A   1      45.936  44.073  20.899  1.00  0.00     0.349 HD
ATOM     71  C   UNL A   1      47.544  44.225  25.056  1.00  0.00     0.074 C 
ATOM     72  C   UNL A   1      45.200  44.712  25.547  1.00  0.00     0.074 C 
ATOM     73  C   UNL A   1      47.598  43.365  26.308  1.00  0.00     0.261 C 
ATOM     74  C   UNL A   1      45.271  43.922  26.833  1.00  0.00     0.261 C 
ATOM     75  N   UNL A   1      46.638  43.827  27.312  1.00  0.00    -0.346 N 
ATOM     76  H   UNL A   1      46.928  44.752  27.631  1.00  0.00     0.346 HD
ATOM     77  H   UNL A   1      46.638  43.132  28.058  1.00  0.00     0.346 HD
BRANCH  67  78
ATOM     78  C   UNL A   1      45.278  44.943  19.860  1.00  0.00     0.302 C 
BRANCH  78  79
ATOM     79  C   UNL A   1      43.935  44.791  18.678  1.00  0.00     0.038 A 
ATOM     80  C   UNL A   1      43.978  45.524  17.441  1.00  0.00     0.012 A 
ATOM     81  C   UNL A   1      42.615  44.353  18.990  1.00  0.00     0.144 A 
ATOM     82  C   UNL A   1      42.826  46.114  16.849  1.00  0.00     0.003 A 
ATOM     83  C   UNL A   1      41.437  44.958  18.365  1.00  0.00     0.135 A 
ATOM     84  N   UNL A   1      42.181  43.477  19.901  1.00  0.00    -0.049 NA
ATOM     85  C   UNL A   1      41.525  45.916  17.339  1.00  0.00     0.034 A 
ATOM     86  N   UNL A   1      40.346  44.507  18.993  1.00  0.00    -0.050 NA
ATOM     87  O   UNL A   1      40.801  43.583  19.917  1.00  0.00    -0.243 OA
ENDBRANCH  78  79
ENDBRANCH  67  78
ENDBRANCH  63  65
ENDBRANCH  62  63
ENDBRANCH  61  62
ENDBRANCH   1  61
TORSDOF 13
ENDMDL
MODEL 3
REMARK VINA RESULT:     -13.9      7.705     13.842
REMARK SMILES O=C(OCCOC(=O)[C@@H]1CC2(CC[NH2+]CC2)C[N@@H+]1Cc1cccc2nonc12)c1ccc(-c2c3nc(c(-c4c(F)cccc4F)c4ccc([nH]4)c(-c4c(F)cccc4F)c4nc(c(-c5c(F)cccc5F)c5ccc2[nH]5)C=C4)C=C3)cc1
REMARK SMILES IDX 4 1 3 2 2 3 1 4 29 5 30 6 82 7 31 8 81 9 32 10 33 11 34 12
REMARK SMILES IDX 75 13 35 14 80 15 74 16 76 17 36 18 79 19 73 20 72 21 37 23
REMARK SMILES IDX 63 24 46 25 62 26 47 27 50 28 61 29 77 30 48 31 49 32 60 34
REMARK SMILES IDX 78 35 51 36 38 37 39 38 44 39 40 40 41 41 43 42 45 43 42 44
REMARK SMILES IDX 64 45 65 46 70 47 66 48 67 49 69 50 71 51 68 52 52 53 53 54
REMARK SMILES IDX 58 55 54 56 55 57 57 58 59 59 56 60 5 61 6 62 7 63 8 64 9 65
REMARK SMILES IDX 10 66 18 67 11 68 17 69 12 71 16 72 13 73 15 74 14 75 19 78
REMARK SMILES IDX 20 79 21 80 28 81 22 82 24 83 27 84 23 85 25 86 26 87
REMARK H PARENT 76 22 50 33 18 70 14 76 14 77
REMARK Flexibility Score: inf
ROOT
ATOM      1  C   UNL A   1      43.661  30.675  27.150  1.00  0.00     0.275 C 
ENDROOT
BRANCH   1   2
ATOM      2  O   UNL A   1      44.501  31.830  27.266  1.00  0.00    -0.458 OA
BRANCH   2   3
ATOM      3  C   UNL A   1      44.699  32.810  26.364  1.00  0.00     0.338 C 
ATOM      4  O   UNL A   1      44.875  32.499  25.185  1.00  0.00    -0.246 OA
BRANCH   3   5
ATOM      5  C   UNL A   1      44.787  34.274  26.680  1.00  0.00     0.060 A 
ATOM      6  C   UNL A   1      43.183  35.080  26.399  1.00  0.00     0.016 A 
ATOM      7  C   UNL A   1      46.206  35.290  27.246  1.00  0.00     0.016 A 
ATOM      8  C   UNL A   1      42.985  36.841  26.672  1.00  0.00     0.010 A 
ATOM      9  C   UNL A   1      45.941  37.086  27.649  1.00  0.00     0.010 A 
ATOM     10  C   UNL A   1      44.342  37.883  27.217  1.00  0.00    -0.014 A 
BRANCH  10  11
ATOM     11  C   UNL A   1      44.268  39.366  26.956  1.00  0.00     0.031 A 
ATOM     12  C   UNL A   1      43.829  40.225  28.106  1.00  0.00     0.074 A 
ATOM     13  C   UNL A   1      45.016  40.039  26.038  1.00  0.00     0.049 A 
ATOM     14  N   UNL A   1      44.643  40.837  28.927  1.00  0.00    -0.248 NA
ATOM     15  C   UNL A   1      42.422  40.296  28.494  1.00  0.00     0.031 C 
ATOM     16  C   UNL A   1      46.091  39.534  25.174  1.00  0.00     0.029 A 
ATOM     17  N   UNL A   1      45.092  41.402  25.834  1.00  0.00    -0.354 N 
ATOM     18  C   UNL A   1      43.885  41.251  30.001  1.00  0.00     0.074 A 
ATOM     19  C   UNL A   1      42.508  40.942  29.663  1.00  0.00     0.031 C 
ATOM     20  C   UNL A   1      46.775  40.563  24.631  1.00  0.00     0.029 A 
ATOM     21  C   UNL A   1      46.150  41.810  25.041  1.00  0.00     0.049 A 
ATOM     22  H   UNL A   1      44.445  42.034  26.222  1.00  0.00     0.167 HD
ATOM     23  C   UNL A   1      44.376  41.754  31.162  1.00  0.00     0.037 A 
ATOM     24  C   UNL A   1      46.826  42.988  25.007  1.00  0.00     0.037 A 
ATOM     25  C   UNL A   1      45.787  41.938  31.335  1.00  0.00     0.049 A 
ATOM     26  C   UNL A   1      46.994  43.531  26.396  1.00  0.00     0.074 A 
ATOM     27  C   UNL A   1      46.782  41.356  32.086  1.00  0.00     0.029 A 
ATOM     28  N   UNL A   1      46.357  43.117  30.931  1.00  0.00    -0.354 N 
ATOM     29  N   UNL A   1      48.083  43.521  27.127  1.00  0.00    -0.248 NA
ATOM     30  C   UNL A   1      45.801  43.975  27.100  1.00  0.00     0.031 C 
ATOM     31  C   UNL A   1      47.989  42.064  31.780  1.00  0.00     0.029 A 
ATOM     32  C   UNL A   1      47.710  42.940  30.731  1.00  0.00     0.049 A 
ATOM     33  H   UNL A   1      45.872  43.965  30.801  1.00  0.00     0.167 HD
ATOM     34  C   UNL A   1      47.669  43.772  28.446  1.00  0.00     0.074 A 
ATOM     35  C   UNL A   1      46.263  44.106  28.332  1.00  0.00     0.031 C 
ATOM     36  C   UNL A   1      48.416  43.541  29.585  1.00  0.00     0.037 A 
BRANCH  23  37
ATOM     37  C   UNL A   1      43.508  42.123  32.295  1.00  0.00     0.057 A 
ATOM     38  C   UNL A   1      43.414  41.322  33.433  1.00  0.00     0.134 A 
ATOM     39  C   UNL A   1      42.946  43.403  32.332  1.00  0.00     0.134 A 
ATOM     40  F   UNL A   1      43.957  40.094  33.449  1.00  0.00    -0.206 F 
ATOM     41  C   UNL A   1      42.801  41.796  34.590  1.00  0.00     0.040 A 
ATOM     42  C   UNL A   1      42.338  43.892  33.482  1.00  0.00     0.040 A 
ATOM     43  F   UNL A   1      43.030  44.210  31.260  1.00  0.00    -0.206 F 
ATOM     44  C   UNL A   1      42.275  43.089  34.621  1.00  0.00     0.006 A 
ENDBRANCH  23  37
BRANCH  24  45
ATOM     45  C   UNL A   1      46.443  43.832  23.829  1.00  0.00     0.057 A 
ATOM     46  C   UNL A   1      45.151  44.334  23.597  1.00  0.00     0.134 A 
ATOM     47  C   UNL A   1      47.368  44.036  22.791  1.00  0.00     0.134 A 
ATOM     48  F   UNL A   1      44.185  44.248  24.517  1.00  0.00    -0.206 F 
ATOM     49  C   UNL A   1      44.778  44.920  22.383  1.00  0.00     0.040 A 
ATOM     50  C   UNL A   1      47.009  44.632  21.574  1.00  0.00     0.040 A 
ATOM     51  F   UNL A   1      48.641  43.635  22.930  1.00  0.00    -0.206 F 
ATOM     52  C   UNL A   1      45.703  45.054  21.358  1.00  0.00     0.006 A 
ENDBRANCH  24  45
BRANCH  36  53
ATOM     53  C   UNL A   1      49.939  43.574  29.410  1.00  0.00     0.057 A 
ATOM     54  C   UNL A   1      50.740  44.726  29.381  1.00  0.00     0.134 A 
ATOM     55  C   UNL A   1      50.675  42.381  29.266  1.00  0.00     0.134 A 
ATOM     56  F   UNL A   1      50.219  45.953  29.324  1.00  0.00    -0.206 F 
ATOM     57  C   UNL A   1      52.140  44.706  29.457  1.00  0.00     0.040 A 
ATOM     58  C   UNL A   1      52.080  42.339  29.304  1.00  0.00     0.040 A 
ATOM     59  F   UNL A   1      50.045  41.215  29.049  1.00  0.00    -0.206 F 
ATOM     60  C   UNL A   1      52.818  43.503  29.456  1.00  0.00     0.006 A 
ENDBRANCH  36  53
ENDBRANCH  10  11
ENDBRANCH   3   5
ENDBRANCH   2   3
ENDBRANCH   1   2
BRANCH   1  61
ATOM     61  C   UNL A   1      44.456  29.396  26.924  1.00  0.00     0.274 C 
BRANCH  61  62
ATOM     62  O   UNL A   1      43.788  28.620  25.929  1.00  0.00    -0.458 OA
BRANCH  62  63
ATOM     63  C   UNL A   1      43.948  27.273  25.967  1.00  0.00     0.365 C 
ATOM     64  O   UNL A   1      44.941  26.713  26.416  1.00  0.00    -0.245 OA
BRANCH  63  65
ATOM     65  C   UNL A   1      42.745  26.513  25.370  1.00  0.00     0.296 C 
ATOM     66  C   UNL A   1      41.553  27.130  26.109  1.00  0.00     0.091 C 
ATOM     67  N   UNL A   1      42.646  24.882  25.565  1.00  0.00    -0.319 N 
ATOM     68  C   UNL A   1      41.365  26.368  27.401  1.00  0.00     0.036 C 
ATOM     69  C   UNL A   1      41.965  25.015  27.097  1.00  0.00     0.270 C 
ATOM     70  H   UNL A   1      42.493  24.277  24.759  1.00  0.00     0.349 HD
ATOM     71  C   UNL A   1      39.866  26.292  27.746  1.00  0.00     0.074 C 
ATOM     72  C   UNL A   1      42.036  26.903  28.690  1.00  0.00     0.074 C 
ATOM     73  C   UNL A   1      39.358  27.683  28.090  1.00  0.00     0.261 C 
ATOM     74  C   UNL A   1      41.512  28.258  29.102  1.00  0.00     0.261 C 
ATOM     75  N   UNL A   1      40.068  28.239  29.242  1.00  0.00    -0.346 N 
ATOM     76  H   UNL A   1      39.835  27.679  30.062  1.00  0.00     0.346 HD
ATOM     77  H   UNL A   1      39.770  29.211  29.328  1.00  0.00     0.346 HD
BRANCH  67  78
ATOM     78  C   UNL A   1      43.521  23.182  24.646  1.00  0.00     0.302 C 
BRANCH  78  79
ATOM     79  C   UNL A   1      44.250  21.688  25.326  1.00  0.00     0.038 A 
ATOM     80  C   UNL A   1      45.678  21.513  25.315  1.00  0.00     0.012 A 
ATOM     81  C   UNL A   1      43.565  20.452  25.506  1.00  0.00     0.144 A 
ATOM     82  C   UNL A   1      46.303  20.260  25.065  1.00  0.00     0.003 A 
ATOM     83  C   UNL A   1      44.222  19.166  25.258  1.00  0.00     0.135 A 
ATOM     84  N   UNL A   1      42.284  20.200  25.792  1.00  0.00    -0.049 NA
ATOM     85  C   UNL A   1      45.589  19.056  24.947  1.00  0.00     0.034 A 
ATOM     86  N   UNL A   1      43.295  18.203  25.298  1.00  0.00    -0.050 NA
ATOM     87  O   UNL A   1      42.115  18.833  25.648  1.00  0.00    -0.243 OA
ENDBRANCH  78  79
ENDBRANCH  67  78
ENDBRANCH  63  65
ENDBRANCH  62  63
ENDBRANCH  61  62
ENDBRANCH   1  61
TORSDOF 13
ENDMDL
