MODEL 1
REMARK VINA RESULT:     -12.3      0.000      0.000
REMARK SMILES COc1ccc([C@@H]2[NH2+][C@H](C(=O)OCCOC(=O)c3ccc(-c4c5nc(c(-c6c(F)cccc6F)c6ccc([nH]6)c(-c6c(F)cccc6F)c6nc(c(-c7c(F)cccc7F)c7ccc4[nH]7)C=C6)C=C5)cc3)Cc3c2[nH]c2ccccc32)cc1COc1ccccc1C
REMARK SMILES IDX 13 1 12 2 10 3 11 4 9 5 7 6 8 7 74 8 73 11 75 12 72 13 81 14
REMARK SMILES IDX 76 15 80 17 77 18 79 19 78 20 6 21 3 22 4 23 83 24 5 25
REMARK SMILES IDX 82 26 2 27 1 28 84 29 85 30 86 31 87 32 91 33 88 34 90 35
REMARK SMILES IDX 92 36 89 37 14 38 15 39 16 40 17 41 18 42 19 43 71 44 20 45
REMARK SMILES IDX 70 46 21 47 22 48 23 49 64 50 24 51 69 52 63 53 65 54 25 55
REMARK SMILES IDX 68 56 62 57 61 58 26 60 52 61 35 62 51 63 36 64 39 65 50 66
REMARK SMILES IDX 66 67 37 68 38 69 49 71 67 72 40 73 27 74 28 75 33 76 29 77
REMARK SMILES IDX 30 78 32 79 34 80 31 81 53 82 54 83 59 84 55 85 56 86 58 87
REMARK SMILES IDX 60 88 57 89 41 90 42 91 47 92 43 93 44 94 46 95 48 96 45 97
REMARK H PARENT 8 9 8 10 75 16 65 59 39 70
REMARK Flexibility Score: inf
ROOT
ATOM      1  C   UNL A   1      31.642  27.706  26.699  1.00  0.00     0.274 C 
ENDROOT
BRANCH   1   2
ATOM      2  O   UNL A   1      31.799  26.355  27.165  1.00  0.00    -0.458 OA
BRANCH   2   3
ATOM      3  C   UNL A   1      30.872  25.432  26.786  1.00  0.00     0.365 C 
ATOM      4  O   UNL A   1      29.707  25.696  26.508  1.00  0.00    -0.245 OA
BRANCH   3   5
ATOM      5  C   UNL A   1      31.498  24.029  26.649  1.00  0.00     0.298 C 
ATOM      6  C   UNL A   1      31.870  22.560  24.587  1.00  0.00     0.262 C 
ATOM      7  N   UNL A   1      30.952  23.357  25.426  1.00  0.00    -0.323 N 
ATOM      8  C   UNL A   1      33.108  22.205  25.337  1.00  0.00     0.083 A 
ATOM      9  H   UNL A   1      30.207  22.732  25.734  1.00  0.00     0.347 HD
ATOM     10  H   UNL A   1      30.672  24.130  24.822  1.00  0.00     0.347 HD
ATOM     11  C   UNL A   1      33.759  23.037  26.217  1.00  0.00    -0.006 A 
ATOM     12  N   UNL A   1      33.947  21.141  25.127  1.00  0.00    -0.353 N 
ATOM     13  C   UNL A   1      33.026  24.094  26.936  1.00  0.00     0.115 C 
ATOM     14  C   UNL A   1      35.120  22.892  25.846  1.00  0.00     0.003 A 
ATOM     15  C   UNL A   1      35.238  21.608  25.304  1.00  0.00     0.046 A 
ATOM     16  H   UNL A   1      33.683  20.222  24.893  1.00  0.00     0.166 HD
ATOM     17  C   UNL A   1      36.229  23.757  25.784  1.00  0.00     0.010 A 
ATOM     18  C   UNL A   1      36.463  21.060  24.921  1.00  0.00     0.026 A 
ATOM     19  C   UNL A   1      37.419  23.280  25.221  1.00  0.00     0.001 A 
ATOM     20  C   UNL A   1      37.549  21.940  24.860  1.00  0.00     0.002 A 
BRANCH   6  21
ATOM     21  C   UNL A   1      32.155  23.330  23.270  1.00  0.00     0.016 A 
ATOM     22  C   UNL A   1      32.839  24.916  21.017  1.00  0.00     0.125 A 
ATOM     23  C   UNL A   1      33.212  23.579  21.070  1.00  0.00     0.047 A 
ATOM     24  C   UNL A   1      32.029  25.455  22.017  1.00  0.00     0.032 A 
ATOM     25  C   UNL A   1      32.864  22.800  22.177  1.00  0.00     0.014 A 
ATOM     26  C   UNL A   1      31.733  24.668  23.154  1.00  0.00     0.021 A 
BRANCH  22  27
ATOM     27  O   UNL A   1      33.208  25.648  19.922  1.00  0.00    -0.496 OA
ATOM     28  C   UNL A   1      32.295  25.402  18.849  1.00  0.00     0.278 C 
ENDBRANCH  22  27
BRANCH  24  29
ATOM     29  C   UNL A   1      31.394  26.813  21.876  1.00  0.00     0.269 C 
BRANCH  29  30
ATOM     30  O   UNL A   1      30.675  27.133  23.083  1.00  0.00    -0.488 OA
BRANCH  30  31
ATOM     31  C   UNL A   1      29.713  28.086  22.865  1.00  0.00     0.122 A 
ATOM     32  C   UNL A   1      30.126  29.312  22.341  1.00  0.00     0.047 A 
ATOM     33  C   UNL A   1      28.379  27.892  23.258  1.00  0.00    -0.009 A 
ATOM     34  C   UNL A   1      29.202  30.339  22.150  1.00  0.00     0.004 A 
ATOM     35  C   UNL A   1      27.454  28.920  23.021  1.00  0.00     0.007 A 
ATOM     36  C   UNL A   1      27.878  26.629  23.890  1.00  0.00     0.048 C 
ATOM     37  C   UNL A   1      27.863  30.137  22.477  1.00  0.00     0.001 A 
ENDBRANCH  30  31
ENDBRANCH  29  30
ENDBRANCH  24  29
ENDBRANCH   6  21
ENDBRANCH   3   5
ENDBRANCH   2   3
ENDBRANCH   1   2
BRANCH   1  38
ATOM     38  C   UNL A   1      32.368  28.695  27.616  1.00  0.00     0.275 C 
BRANCH  38  39
ATOM     39  O   UNL A   1      33.701  28.983  27.151  1.00  0.00    -0.458 OA
BRANCH  39  40
ATOM     40  C   UNL A   1      34.266  30.071  27.724  1.00  0.00     0.338 C 
ATOM     41  O   UNL A   1      33.711  31.124  27.976  1.00  0.00    -0.246 OA
BRANCH  40  42
ATOM     42  C   UNL A   1      35.669  29.829  28.089  1.00  0.00     0.060 A 
ATOM     43  C   UNL A   1      36.636  29.946  27.084  1.00  0.00     0.016 A 
ATOM     44  C   UNL A   1      36.021  29.407  29.372  1.00  0.00     0.016 A 
ATOM     45  C   UNL A   1      37.964  29.635  27.360  1.00  0.00     0.010 A 
ATOM     46  C   UNL A   1      37.355  29.109  29.651  1.00  0.00     0.010 A 
ATOM     47  C   UNL A   1      38.333  29.218  28.647  1.00  0.00    -0.014 A 
BRANCH  47  48
ATOM     48  C   UNL A   1      39.749  28.924  28.955  1.00  0.00     0.031 A 
ATOM     49  C   UNL A   1      40.618  29.961  29.602  1.00  0.00     0.074 A 
ATOM     50  C   UNL A   1      40.252  27.721  28.628  1.00  0.00     0.049 A 
ATOM     51  N   UNL A   1      41.898  29.917  29.867  1.00  0.00    -0.248 NA
ATOM     52  C   UNL A   1      39.962  31.216  29.998  1.00  0.00     0.031 C 
ATOM     53  C   UNL A   1      39.495  26.630  28.012  1.00  0.00     0.029 A 
ATOM     54  N   UNL A   1      41.522  27.218  28.756  1.00  0.00    -0.354 N 
ATOM     55  C   UNL A   1      42.206  31.136  30.454  1.00  0.00     0.074 A 
ATOM     56  C   UNL A   1      40.983  31.911  30.483  1.00  0.00     0.031 C 
ATOM     57  C   UNL A   1      40.315  25.587  27.814  1.00  0.00     0.029 A 
ATOM     58  C   UNL A   1      41.660  25.950  28.249  1.00  0.00     0.049 A 
ATOM     59  H   UNL A   1      42.261  27.717  29.173  1.00  0.00     0.167 HD
ATOM     60  C   UNL A   1      43.399  31.563  30.933  1.00  0.00     0.037 A 
ATOM     61  C   UNL A   1      42.755  25.178  28.127  1.00  0.00     0.037 A 
ATOM     62  C   UNL A   1      44.610  30.784  30.905  1.00  0.00     0.049 A 
ATOM     63  C   UNL A   1      44.077  25.699  28.615  1.00  0.00     0.074 A 
ATOM     64  C   UNL A   1      45.866  31.122  31.380  1.00  0.00     0.029 A 
ATOM     65  N   UNL A   1      44.716  29.508  30.371  1.00  0.00    -0.354 N 
ATOM     66  N   UNL A   1      44.354  26.847  29.182  1.00  0.00    -0.248 NA
ATOM     67  C   UNL A   1      45.238  24.814  28.445  1.00  0.00     0.031 C 
ATOM     68  C   UNL A   1      46.742  30.066  31.096  1.00  0.00     0.029 A 
ATOM     69  C   UNL A   1      46.021  29.053  30.485  1.00  0.00     0.049 A 
ATOM     70  H   UNL A   1      43.976  29.000  29.969  1.00  0.00     0.167 HD
ATOM     71  C   UNL A   1      45.714  26.816  29.460  1.00  0.00     0.074 A 
ATOM     72  C   UNL A   1      46.203  25.528  29.010  1.00  0.00     0.031 C 
ATOM     73  C   UNL A   1      46.489  27.767  30.036  1.00  0.00     0.037 A 
BRANCH  60  74
ATOM     74  C   UNL A   1      43.457  32.945  31.514  1.00  0.00     0.057 A 
ATOM     75  C   UNL A   1      43.701  34.072  30.717  1.00  0.00     0.134 A 
ATOM     76  C   UNL A   1      43.230  33.156  32.880  1.00  0.00     0.134 A 
ATOM     77  F   UNL A   1      43.936  33.936  29.404  1.00  0.00    -0.206 F 
ATOM     78  C   UNL A   1      43.734  35.357  31.261  1.00  0.00     0.040 A 
ATOM     79  C   UNL A   1      43.238  34.440  33.431  1.00  0.00     0.040 A 
ATOM     80  F   UNL A   1      42.985  32.122  33.698  1.00  0.00    -0.206 F 
ATOM     81  C   UNL A   1      43.496  35.543  32.622  1.00  0.00     0.006 A 
ENDBRANCH  60  74
BRANCH  61  82
ATOM     82  C   UNL A   1      42.648  23.835  27.505  1.00  0.00     0.057 A 
ATOM     83  C   UNL A   1      42.430  22.695  28.284  1.00  0.00     0.134 A 
ATOM     84  C   UNL A   1      42.765  23.662  26.122  1.00  0.00     0.134 A 
ATOM     85  F   UNL A   1      42.330  22.796  29.619  1.00  0.00    -0.206 F 
ATOM     86  C   UNL A   1      42.349  21.425  27.711  1.00  0.00     0.040 A 
ATOM     87  C   UNL A   1      42.661  22.401  25.533  1.00  0.00     0.040 A 
ATOM     88  F   UNL A   1      42.970  24.718  25.321  1.00  0.00    -0.206 F 
ATOM     89  C   UNL A   1      42.459  21.277  26.330  1.00  0.00     0.006 A 
ENDBRANCH  61  82
BRANCH  73  90
ATOM     90  C   UNL A   1      47.936  27.432  30.242  1.00  0.00     0.057 A 
ATOM     91  C   UNL A   1      48.917  27.786  29.307  1.00  0.00     0.134 A 
ATOM     92  C   UNL A   1      48.356  26.769  31.403  1.00  0.00     0.134 A 
ATOM     93  F   UNL A   1      48.578  28.409  28.168  1.00  0.00    -0.206 F 
ATOM     94  C   UNL A   1      50.262  27.473  29.509  1.00  0.00     0.040 A 
ATOM     95  C   UNL A   1      49.701  26.472  31.626  1.00  0.00     0.040 A 
ATOM     96  F   UNL A   1      47.468  26.407  32.340  1.00  0.00    -0.206 F 
ATOM     97  C   UNL A   1      50.658  26.819  30.674  1.00  0.00     0.006 A 
ENDBRANCH  73  90
ENDBRANCH  47  48
ENDBRANCH  40  42
ENDBRANCH  39  40
ENDBRANCH  38  39
ENDBRANCH   1  38
TORSDOF 16
ENDMDL
MODEL 2
REMARK VINA RESULT:     -12.0      3.353      5.507
REMARK SMILES COc1ccc([C@@H]2[NH2+][C@H](C(=O)OCCOC(=O)c3ccc(-c4c5nc(c(-c6c(F)cccc6F)c6ccc([nH]6)c(-c6c(F)cccc6F)c6nc(c(-c7c(F)cccc7F)c7ccc4[nH]7)C=C6)C=C5)cc3)Cc3c2[nH]c2ccccc32)cc1COc1ccccc1C
REMARK SMILES IDX 13 1 12 2 10 3 11 4 9 5 7 6 8 7 74 8 73 11 75 12 72 13 81 14
REMARK SMILES IDX 76 15 80 17 77 18 79 19 78 20 6 21 3 22 4 23 83 24 5 25
REMARK SMILES IDX 82 26 2 27 1 28 84 29 85 30 86 31 87 32 91 33 88 34 90 35
REMARK SMILES IDX 92 36 89 37 14 38 15 39 16 40 17 41 18 42 19 43 71 44 20 45
REMARK SMILES IDX 70 46 21 47 22 48 23 49 64 50 24 51 69 52 63 53 65 54 25 55
REMARK SMILES IDX 68 56 62 57 61 58 26 60 52 61 35 62 51 63 36 64 39 65 50 66
REMARK SMILES IDX 66 67 37 68 38 69 49 71 67 72 40 73 27 74 28 75 33 76 29 77
REMARK SMILES IDX 30 78 32 79 34 80 31 81 53 82 54 83 59 84 55 85 56 86 58 87
REMARK SMILES IDX 60 88 57 89 41 90 42 91 47 92 43 93 44 94 46 95 48 96 45 97
REMARK H PARENT 8 9 8 10 75 16 65 59 39 70
REMARK Flexibility Score: inf
ROOT
ATOM      1  C   UNL A   1      31.757  31.718  26.886  1.00  0.00     0.274 C 
ENDROOT
BRANCH   1   2
ATOM      2  O   UNL A   1      32.760  30.691  26.813  1.00  0.00    -0.458 OA
BRANCH   2   3
ATOM      3  C   UNL A   1      32.680  29.784  25.800  1.00  0.00     0.365 C 
ATOM      4  O   UNL A   1      33.452  29.739  24.849  1.00  0.00    -0.245 OA
BRANCH   3   5
ATOM      5  C   UNL A   1      31.560  28.754  26.055  1.00  0.00     0.298 C 
ATOM      6  C   UNL A   1      30.366  27.154  24.455  1.00  0.00     0.262 C 
ATOM      7  N   UNL A   1      30.793  28.528  24.789  1.00  0.00    -0.323 N 
ATOM      8  C   UNL A   1      30.403  26.275  25.658  1.00  0.00     0.083 A 
ATOM      9  H   UNL A   1      29.950  29.100  24.842  1.00  0.00     0.347 HD
ATOM     10  H   UNL A   1      31.455  28.768  24.051  1.00  0.00     0.347 HD
ATOM     11  C   UNL A   1      31.369  26.323  26.635  1.00  0.00    -0.006 A 
ATOM     12  N   UNL A   1      29.676  25.137  25.895  1.00  0.00    -0.353 N 
ATOM     13  C   UNL A   1      32.105  27.570  26.906  1.00  0.00     0.115 C 
ATOM     14  C   UNL A   1      31.685  24.955  26.839  1.00  0.00     0.003 A 
ATOM     15  C   UNL A   1      30.529  24.239  26.514  1.00  0.00     0.046 A 
ATOM     16  H   UNL A   1      28.730  24.987  25.668  1.00  0.00     0.166 HD
ATOM     17  C   UNL A   1      32.864  24.242  27.128  1.00  0.00     0.010 A 
ATOM     18  C   UNL A   1      30.420  22.859  26.693  1.00  0.00     0.026 A 
ATOM     19  C   UNL A   1      32.818  22.843  27.122  1.00  0.00     0.001 A 
ATOM     20  C   UNL A   1      31.605  22.170  26.973  1.00  0.00     0.002 A 
BRANCH   6  21
ATOM     21  C   UNL A   1      31.234  26.621  23.283  1.00  0.00     0.016 A 
ATOM     22  C   UNL A   1      32.592  25.493  21.061  1.00  0.00     0.125 A 
ATOM     23  C   UNL A   1      32.385  26.864  21.131  1.00  0.00     0.047 A 
ATOM     24  C   UNL A   1      32.236  24.677  22.135  1.00  0.00     0.032 A 
ATOM     25  C   UNL A   1      31.724  27.416  22.232  1.00  0.00     0.014 A 
ATOM     26  C   UNL A   1      31.521  25.245  23.215  1.00  0.00     0.021 A 
BRANCH  22  27
ATOM     27  O   UNL A   1      33.233  24.991  19.961  1.00  0.00    -0.496 OA
ATOM     28  C   UNL A   1      32.483  25.300  18.784  1.00  0.00     0.278 C 
ENDBRANCH  22  27
BRANCH  24  29
ATOM     29  C   UNL A   1      32.668  23.237  22.213  1.00  0.00     0.269 C 
BRANCH  29  30
ATOM     30  O   UNL A   1      32.558  22.778  23.574  1.00  0.00    -0.488 OA
BRANCH  30  31
ATOM     31  C   UNL A   1      33.733  22.228  24.022  1.00  0.00     0.122 A 
ATOM     32  C   UNL A   1      34.858  23.055  24.064  1.00  0.00     0.047 A 
ATOM     33  C   UNL A   1      33.842  20.861  24.319  1.00  0.00    -0.009 A 
ATOM     34  C   UNL A   1      36.092  22.538  24.457  1.00  0.00     0.004 A 
ATOM     35  C   UNL A   1      35.081  20.366  24.754  1.00  0.00     0.007 A 
ATOM     36  C   UNL A   1      32.695  19.901  24.231  1.00  0.00     0.048 C 
ATOM     37  C   UNL A   1      36.200  21.196  24.815  1.00  0.00     0.001 A 
ENDBRANCH  30  31
ENDBRANCH  29  30
ENDBRANCH  24  29
ENDBRANCH   6  21
ENDBRANCH   3   5
ENDBRANCH   2   3
ENDBRANCH   1   2
BRANCH   1  38
ATOM     38  C   UNL A   1      32.390  33.112  26.844  1.00  0.00     0.275 C 
BRANCH  38  39
ATOM     39  O   UNL A   1      32.192  33.833  28.076  1.00  0.00    -0.458 OA
BRANCH  39  40
ATOM     40  C   UNL A   1      33.221  34.641  28.419  1.00  0.00     0.338 C 
ATOM     41  O   UNL A   1      33.234  35.856  28.361  1.00  0.00    -0.246 OA
BRANCH  40  42
ATOM     42  C   UNL A   1      34.359  33.880  28.953  1.00  0.00     0.060 A 
ATOM     43  C   UNL A   1      34.082  32.785  29.781  1.00  0.00     0.016 A 
ATOM     44  C   UNL A   1      35.674  34.285  28.723  1.00  0.00     0.016 A 
ATOM     45  C   UNL A   1      35.125  32.092  30.386  1.00  0.00     0.010 A 
ATOM     46  C   UNL A   1      36.720  33.580  29.320  1.00  0.00     0.010 A 
ATOM     47  C   UNL A   1      36.452  32.483  30.156  1.00  0.00    -0.014 A 
BRANCH  47  48
ATOM     48  C   UNL A   1      37.566  31.724  30.766  1.00  0.00     0.031 A 
ATOM     49  C   UNL A   1      37.996  32.005  32.175  1.00  0.00     0.074 A 
ATOM     50  C   UNL A   1      38.200  30.793  30.032  1.00  0.00     0.049 A 
ATOM     51  N   UNL A   1      39.002  31.506  32.845  1.00  0.00    -0.248 NA
ATOM     52  C   UNL A   1      37.193  32.980  32.927  1.00  0.00     0.031 C 
ATOM     53  C   UNL A   1      37.855  30.424  28.658  1.00  0.00     0.029 A 
ATOM     54  N   UNL A   1      39.275  29.997  30.334  1.00  0.00    -0.354 N 
ATOM     55  C   UNL A   1      38.960  32.108  34.095  1.00  0.00     0.074 A 
ATOM     56  C   UNL A   1      37.844  33.030  34.081  1.00  0.00     0.031 C 
ATOM     57  C   UNL A   1      38.704  29.476  28.234  1.00  0.00     0.029 A 
ATOM     58  C   UNL A   1      39.675  29.201  29.289  1.00  0.00     0.049 A 
ATOM     59  H   UNL A   1      39.716  29.996  31.214  1.00  0.00     0.167 HD
ATOM     60  C   UNL A   1      39.775  31.900  35.158  1.00  0.00     0.037 A 
ATOM     61  C   UNL A   1      40.722  28.363  29.188  1.00  0.00     0.037 A 
ATOM     62  C   UNL A   1      40.881  30.977  35.164  1.00  0.00     0.049 A 
ATOM     63  C   UNL A   1      41.643  28.194  30.363  1.00  0.00     0.074 A 
ATOM     64  C   UNL A   1      41.755  30.684  36.197  1.00  0.00     0.029 A 
ATOM     65  N   UNL A   1      41.265  30.197  34.083  1.00  0.00    -0.354 N 
ATOM     66  N   UNL A   1      41.586  28.757  31.545  1.00  0.00    -0.248 NA
ATOM     67  C   UNL A   1      42.774  27.273  30.187  1.00  0.00     0.031 C 
ATOM     68  C   UNL A   1      42.693  29.756  35.728  1.00  0.00     0.029 A 
ATOM     69  C   UNL A   1      42.375  29.438  34.418  1.00  0.00     0.049 A 
ATOM     70  H   UNL A   1      40.815  30.184  33.208  1.00  0.00     0.167 HD
ATOM     71  C   UNL A   1      42.655  28.241  32.264  1.00  0.00     0.074 A 
ATOM     72  C   UNL A   1      43.338  27.310  31.388  1.00  0.00     0.031 C 
ATOM     73  C   UNL A   1      43.039  28.513  33.535  1.00  0.00     0.037 A 
BRANCH  60  74
ATOM     74  C   UNL A   1      39.510  32.700  36.400  1.00  0.00     0.057 A 
ATOM     75  C   UNL A   1      40.183  33.901  36.661  1.00  0.00     0.134 A 
ATOM     76  C   UNL A   1      38.545  32.286  37.325  1.00  0.00     0.134 A 
ATOM     77  F   UNL A   1      41.127  34.348  35.819  1.00  0.00    -0.206 F 
ATOM     78  C   UNL A   1      39.919  34.651  37.809  1.00  0.00     0.040 A 
ATOM     79  C   UNL A   1      38.255  33.039  38.465  1.00  0.00     0.040 A 
ATOM     80  F   UNL A   1      37.860  31.149  37.132  1.00  0.00    -0.206 F 
ATOM     81  C   UNL A   1      38.947  34.222  38.711  1.00  0.00     0.006 A 
ENDBRANCH  60  74
BRANCH  61  82
ATOM     82  C   UNL A   1      40.961  27.628  27.921  1.00  0.00     0.057 A 
ATOM     83  C   UNL A   1      41.705  28.200  26.885  1.00  0.00     0.134 A 
ATOM     84  C   UNL A   1      40.449  26.342  27.717  1.00  0.00     0.134 A 
ATOM     85  F   UNL A   1      42.204  29.439  27.014  1.00  0.00    -0.206 F 
ATOM     86  C   UNL A   1      41.918  27.526  25.681  1.00  0.00     0.040 A 
ATOM     87  C   UNL A   1      40.675  25.646  26.529  1.00  0.00     0.040 A 
ATOM     88  F   UNL A   1      39.731  25.738  28.675  1.00  0.00    -0.206 F 
ATOM     89  C   UNL A   1      41.406  26.241  25.504  1.00  0.00     0.006 A 
ENDBRANCH  61  82
BRANCH  73  90
ATOM     90  C   UNL A   1      44.229  27.768  34.061  1.00  0.00     0.057 A 
ATOM     91  C   UNL A   1      45.526  28.290  33.974  1.00  0.00     0.134 A 
ATOM     92  C   UNL A   1      44.072  26.522  34.683  1.00  0.00     0.134 A 
ATOM     93  F   UNL A   1      45.745  29.471  33.376  1.00  0.00    -0.206 F 
ATOM     94  C   UNL A   1      46.627  27.590  34.469  1.00  0.00     0.040 A 
ATOM     95  C   UNL A   1      45.163  25.824  35.202  1.00  0.00     0.040 A 
ATOM     96  F   UNL A   1      42.856  25.968  34.803  1.00  0.00    -0.206 F 
ATOM     97  C   UNL A   1      46.447  26.356  35.090  1.00  0.00     0.006 A 
ENDBRANCH  73  90
ENDBRANCH  47  48
ENDBRANCH  40  42
ENDBRANCH  39  40
ENDBRANCH  38  39
ENDBRANCH   1  38
TORSDOF 16
ENDMDL
MODEL 3
REMARK VINA RESULT:     -11.9      2.767      7.978
REMARK SMILES COc1ccc([C@@H]2[NH2+][C@H](C(=O)OCCOC(=O)c3ccc(-c4c5nc(c(-c6c(F)cccc6F)c6ccc([nH]6)c(-c6c(F)cccc6F)c6nc(c(-c7c(F)cccc7F)c7ccc4[nH]7)C=C6)C=C5)cc3)Cc3c2[nH]c2ccccc32)cc1COc1ccccc1C
REMARK SMILES IDX 13 1 12 2 10 3 11 4 9 5 7 6 8 7 74 8 73 11 75 12 72 13 81 14
REMARK SMILES IDX 76 15 80 17 77 18 79 19 78 20 6 21 3 22 4 23 83 24 5 25
REMARK SMILES IDX 82 26 2 27 1 28 84 29 85 30 86 31 87 32 91 33 88 34 90 35
REMARK SMILES IDX 92 36 89 37 14 38 15 39 16 40 17 41 18 42 19 43 71 44 20 45
REMARK SMILES IDX 70 46 21 47 22 48 23 49 64 50 24 51 69 52 63 53 65 54 25 55
REMARK SMILES IDX 68 56 62 57 61 58 26 60 52 61 35 62 51 63 36 64 39 65 50 66
REMARK SMILES IDX 66 67 37 68 38 69 49 71 67 72 40 73 27 74 28 75 33 76 29 77
REMARK SMILES IDX 30 78 32 79 34 80 31 81 53 82 54 83 59 84 55 85 56 86 58 87
REMARK SMILES IDX 60 88 57 89 41 90 42 91 47 92 43 93 44 94 46 95 48 96 45 97
REMARK H PARENT 8 9 8 10 75 16 65 59 39 70
REMARK Flexibility Score: inf
ROOT
ATOM      1  C   UNL A   1      35.490  22.974  23.524  1.00  0.00     0.274 C 
ENDROOT
BRANCH   1   2
ATOM      2  O   UNL A   1      35.149  24.246  22.947  1.00  0.00    -0.458 OA
BRANCH   2   3
ATOM      3  C   UNL A   1      34.071  24.307  22.117  1.00  0.00     0.365 C 
ATOM      4  O   UNL A   1      33.679  23.376  21.422  1.00  0.00    -0.245 OA
BRANCH   3   5
ATOM      5  C   UNL A   1      33.341  25.661  22.242  1.00  0.00     0.298 C 
ATOM      6  C   UNL A   1      31.047  26.238  23.217  1.00  0.00     0.262 C 
ATOM      7  N   UNL A   1      31.862  25.426  22.290  1.00  0.00    -0.323 N 
ATOM      8  C   UNL A   1      31.783  27.461  23.647  1.00  0.00     0.083 A 
ATOM      9  H   UNL A   1      31.501  25.590  21.350  1.00  0.00     0.347 HD
ATOM     10  H   UNL A   1      31.772  24.476  22.648  1.00  0.00     0.347 HD
ATOM     11  C   UNL A   1      33.130  27.511  23.920  1.00  0.00    -0.006 A 
ATOM     12  N   UNL A   1      31.261  28.651  24.082  1.00  0.00    -0.353 N 
ATOM     13  C   UNL A   1      34.063  26.565  23.283  1.00  0.00     0.115 C 
ATOM     14  C   UNL A   1      33.183  28.245  25.131  1.00  0.00     0.003 A 
ATOM     15  C   UNL A   1      32.063  29.082  25.125  1.00  0.00     0.046 A 
ATOM     16  H   UNL A   1      30.468  29.112  23.722  1.00  0.00     0.166 HD
ATOM     17  C   UNL A   1      33.980  28.191  26.291  1.00  0.00     0.010 A 
ATOM     18  C   UNL A   1      31.830  30.040  26.113  1.00  0.00     0.026 A 
ATOM     19  C   UNL A   1      33.643  29.011  27.374  1.00  0.00     0.001 A 
ATOM     20  C   UNL A   1      32.629  29.962  27.259  1.00  0.00     0.002 A 
BRANCH   6  21
ATOM     21  C   UNL A   1      30.592  25.350  24.407  1.00  0.00     0.016 A 
ATOM     22  C   UNL A   1      30.029  23.748  26.681  1.00  0.00     0.125 A 
ATOM     23  C   UNL A   1      29.374  24.959  26.500  1.00  0.00     0.047 A 
ATOM     24  C   UNL A   1      30.881  23.260  25.689  1.00  0.00     0.032 A 
ATOM     25  C   UNL A   1      29.648  25.740  25.373  1.00  0.00     0.014 A 
ATOM     26  C   UNL A   1      31.187  24.087  24.584  1.00  0.00     0.021 A 
BRANCH  22  27
ATOM     27  O   UNL A   1      29.742  23.018  27.802  1.00  0.00    -0.496 OA
ATOM     28  C   UNL A   1      28.524  22.295  27.607  1.00  0.00     0.278 C 
ENDBRANCH  22  27
BRANCH  24  29
ATOM     29  C   UNL A   1      31.410  21.851  25.723  1.00  0.00     0.269 C 
BRANCH  29  30
ATOM     30  O   UNL A   1      32.332  21.659  24.632  1.00  0.00    -0.488 OA
BRANCH  30  31
ATOM     31  C   UNL A   1      32.447  20.336  24.289  1.00  0.00     0.122 A 
ATOM     32  C   UNL A   1      32.900  19.451  25.270  1.00  0.00     0.047 A 
ATOM     33  C   UNL A   1      32.233  19.893  22.974  1.00  0.00    -0.009 A 
ATOM     34  C   UNL A   1      33.091  18.104  24.963  1.00  0.00     0.004 A 
ATOM     35  C   UNL A   1      32.388  18.527  22.693  1.00  0.00     0.007 A 
ATOM     36  C   UNL A   1      31.812  20.797  21.855  1.00  0.00     0.048 C 
ATOM     37  C   UNL A   1      32.821  17.640  23.678  1.00  0.00     0.001 A 
ENDBRANCH  30  31
ENDBRANCH  29  30
ENDBRANCH  24  29
ENDBRANCH   6  21
ENDBRANCH   3   5
ENDBRANCH   2   3
ENDBRANCH   1   2
BRANCH   1  38
ATOM     38  C   UNL A   1      36.960  22.938  23.952  1.00  0.00     0.275 C 
BRANCH  38  39
ATOM     39  O   UNL A   1      37.113  23.105  25.375  1.00  0.00    -0.458 OA
BRANCH  39  40
ATOM     40  C   UNL A   1      38.357  22.838  25.835  1.00  0.00     0.338 C 
ATOM     41  O   UNL A   1      38.991  21.816  25.649  1.00  0.00    -0.246 OA
BRANCH  40  42
ATOM     42  C   UNL A   1      38.925  23.978  26.566  1.00  0.00     0.060 A 
ATOM     43  C   UNL A   1      38.516  24.177  27.890  1.00  0.00     0.016 A 
ATOM     44  C   UNL A   1      39.775  24.891  25.939  1.00  0.00     0.016 A 
ATOM     45  C   UNL A   1      38.954  25.295  28.592  1.00  0.00     0.010 A 
ATOM     46  C   UNL A   1      40.224  26.005  26.648  1.00  0.00     0.010 A 
ATOM     47  C   UNL A   1      39.814  26.215  27.976  1.00  0.00    -0.014 A 
BRANCH  47  48
ATOM     48  C   UNL A   1      40.314  27.385  28.731  1.00  0.00     0.031 A 
ATOM     49  C   UNL A   1      41.691  27.377  29.325  1.00  0.00     0.074 A 
ATOM     50  C   UNL A   1      39.507  28.449  28.895  1.00  0.00     0.049 A 
ATOM     51  N   UNL A   1      42.266  28.269  30.088  1.00  0.00    -0.248 NA
ATOM     52  C   UNL A   1      42.530  26.207  29.025  1.00  0.00     0.031 C 
ATOM     53  C   UNL A   1      38.155  28.574  28.347  1.00  0.00     0.029 A 
ATOM     54  N   UNL A   1      39.701  29.621  29.580  1.00  0.00    -0.354 N 
ATOM     55  C   UNL A   1      43.531  27.771  30.367  1.00  0.00     0.074 A 
ATOM     56  C   UNL A   1      43.630  26.483  29.712  1.00  0.00     0.031 C 
ATOM     57  C   UNL A   1      37.641  29.756  28.720  1.00  0.00     0.029 A 
ATOM     58  C   UNL A   1      38.608  30.450  29.564  1.00  0.00     0.049 A 
ATOM     59  H   UNL A   1      40.544  29.845  30.038  1.00  0.00     0.167 HD
ATOM     60  C   UNL A   1      44.520  28.342  31.095  1.00  0.00     0.037 A 
ATOM     61  C   UNL A   1      38.402  31.627  30.182  1.00  0.00     0.037 A 
ATOM     62  C   UNL A   1      44.414  29.627  31.740  1.00  0.00     0.049 A 
ATOM     63  C   UNL A   1      39.495  32.212  31.030  1.00  0.00     0.074 A 
ATOM     64  C   UNL A   1      45.366  30.299  32.487  1.00  0.00     0.029 A 
ATOM     65  N   UNL A   1      43.286  30.433  31.713  1.00  0.00    -0.354 N 
ATOM     66  N   UNL A   1      40.693  31.739  31.275  1.00  0.00    -0.248 NA
ATOM     67  C   UNL A   1      39.207  33.494  31.687  1.00  0.00     0.031 C 
ATOM     68  C   UNL A   1      44.800  31.494  32.946  1.00  0.00     0.029 A 
ATOM     69  C   UNL A   1      43.511  31.587  32.448  1.00  0.00     0.049 A 
ATOM     70  H   UNL A   1      42.449  30.219  31.243  1.00  0.00     0.167 HD
ATOM     71  C   UNL A   1      41.311  32.675  32.093  1.00  0.00     0.074 A 
ATOM     72  C   UNL A   1      40.359  33.749  32.292  1.00  0.00     0.031 C 
ATOM     73  C   UNL A   1      42.554  32.648  32.632  1.00  0.00     0.037 A 
BRANCH  60  74
ATOM     74  C   UNL A   1      45.799  27.574  31.249  1.00  0.00     0.057 A 
ATOM     75  C   UNL A   1      45.998  26.676  32.307  1.00  0.00     0.134 A 
ATOM     76  C   UNL A   1      46.828  27.704  30.309  1.00  0.00     0.134 A 
ATOM     77  F   UNL A   1      45.055  26.514  33.247  1.00  0.00    -0.206 F 
ATOM     78  C   UNL A   1      47.183  25.949  32.433  1.00  0.00     0.040 A 
ATOM     79  C   UNL A   1      48.009  26.964  30.412  1.00  0.00     0.040 A 
ATOM     80  F   UNL A   1      46.700  28.541  29.269  1.00  0.00    -0.206 F 
ATOM     81  C   UNL A   1      48.191  26.089  31.480  1.00  0.00     0.006 A 
ENDBRANCH  60  74
BRANCH  61  82
ATOM     82  C   UNL A   1      37.101  32.324  30.029  1.00  0.00     0.057 A 
ATOM     83  C   UNL A   1      36.946  33.370  29.114  1.00  0.00     0.134 A 
ATOM     84  C   UNL A   1      35.987  31.965  30.796  1.00  0.00     0.134 A 
ATOM     85  F   UNL A   1      37.984  33.773  28.365  1.00  0.00    -0.206 F 
ATOM     86  C   UNL A   1      35.732  34.046  28.978  1.00  0.00     0.040 A 
ATOM     87  C   UNL A   1      34.761  32.615  30.653  1.00  0.00     0.040 A 
ATOM     88  F   UNL A   1      36.072  30.967  31.688  1.00  0.00    -0.206 F 
ATOM     89  C   UNL A   1      34.633  33.665  29.746  1.00  0.00     0.006 A 
ENDBRANCH  61  82
BRANCH  73  90
ATOM     90  C   UNL A   1      42.964  33.832  33.456  1.00  0.00     0.057 A 
ATOM     91  C   UNL A   1      43.466  35.001  32.872  1.00  0.00     0.134 A 
ATOM     92  C   UNL A   1      42.832  33.809  34.851  1.00  0.00     0.134 A 
ATOM     93  F   UNL A   1      43.631  35.081  31.542  1.00  0.00    -0.206 F 
ATOM     94  C   UNL A   1      43.842  36.099  33.647  1.00  0.00     0.040 A 
ATOM     95  C   UNL A   1      43.183  34.909  35.634  1.00  0.00     0.040 A 
ATOM     96  F   UNL A   1      42.353  32.722  35.473  1.00  0.00    -0.206 F 
ATOM     97  C   UNL A   1      43.696  36.057  35.032  1.00  0.00     0.006 A 
ENDBRANCH  73  90
ENDBRANCH  47  48
ENDBRANCH  40  42
ENDBRANCH  39  40
ENDBRANCH  38  39
ENDBRANCH   1  38
TORSDOF 16
ENDMDL
