MODEL 1
REMARK VINA RESULT:     -11.5      0.000      0.000
REMARK SMILES O=C(N[C@@H](Cc1c[nH]c2ccccc12)C(=O)N[C@@H](CO)C(=O)OCCOC(=O)c1ccc(-c2c3nc(c(-c4c(F)cccc4F)c4ccc([nH]4)c(-c4c(F)cccc4F)c4nc(c(-c5c(F)cccc5F)c5ccc2[nH]5)C=C4)C=C3)cc1)c1ccc(F)cc1
REMARK SMILES IDX 24 1 23 2 21 3 22 4 18 5 17 6 15 7 16 8 4 10 3 11 1 12 2 13
REMARK SMILES IDX 83 15 84 16 89 17 85 18 88 19 86 20 87 21 5 22 6 23 7 24
REMARK SMILES IDX 14 25 8 26 9 27 13 28 10 30 12 31 11 32 19 33 20 34 25 36
REMARK SMILES IDX 26 37 27 38 28 39 29 40 30 41 82 42 31 43 81 44 32 45 33 46
REMARK SMILES IDX 34 47 75 48 35 49 80 50 74 51 76 52 36 53 79 54 73 55 72 56
REMARK SMILES IDX 37 58 63 59 46 60 62 61 47 62 50 63 61 64 77 65 48 66 49 67
REMARK SMILES IDX 60 69 78 70 51 71 38 72 39 73 44 74 40 75 41 76 43 77 45 78
REMARK SMILES IDX 42 79 64 80 65 81 70 82 66 83 67 84 69 85 71 86 68 87 52 88
REMARK SMILES IDX 53 89 58 90 54 91 55 92 57 93 59 94 56 95
REMARK H PARENT 17 9 3 14 8 29 20 35 76 57 50 68
REMARK Flexibility Score: inf
ROOT
ATOM      1  C   UNL A   1      31.448  32.148  26.804  1.00  0.00     0.274 C 
ENDROOT
BRANCH   1   2
ATOM      2  O   UNL A   1      31.846  30.771  26.987  1.00  0.00    -0.460 OA
BRANCH   2   3
ATOM      3  C   UNL A   1      31.867  30.000  25.846  1.00  0.00     0.331 C 
ATOM      4  O   UNL A   1      31.097  30.166  24.904  1.00  0.00    -0.250 OA
BRANCH   3   5
ATOM      5  C   UNL A   1      33.196  29.180  25.761  1.00  0.00     0.218 C 
BRANCH   5   6
ATOM      6  N   UNL A   1      33.775  29.260  24.434  1.00  0.00    -0.339 N 
ATOM      7  C   UNL A   1      33.426  28.600  23.300  1.00  0.00     0.243 C 
ATOM      8  O   UNL A   1      33.789  29.140  22.246  1.00  0.00    -0.273 OA
ATOM      9  H   UNL A   1      34.532  29.883  24.341  1.00  0.00     0.164 HD
BRANCH   7  10
ATOM     10  C   UNL A   1      32.730  27.196  23.245  1.00  0.00     0.176 C 
BRANCH  10  11
ATOM     11  N   UNL A   1      31.269  27.270  23.280  1.00  0.00    -0.340 N 
ATOM     12  O   UNL A   1      29.159  26.679  23.799  1.00  0.00    -0.269 OA
ATOM     13  C   UNL A   1      30.361  26.502  23.990  1.00  0.00     0.251 C 
ATOM     14  H   UNL A   1      30.872  27.969  22.713  1.00  0.00     0.164 HD
BRANCH  13  15
ATOM     15  C   UNL A   1      30.764  25.442  24.958  1.00  0.00     0.040 A 
ATOM     16  C   UNL A   1      30.462  24.092  24.750  1.00  0.00     0.017 A 
ATOM     17  C   UNL A   1      31.606  25.796  26.029  1.00  0.00     0.017 A 
ATOM     18  C   UNL A   1      30.942  23.115  25.635  1.00  0.00     0.040 A 
ATOM     19  C   UNL A   1      32.088  24.817  26.909  1.00  0.00     0.040 A 
ATOM     20  C   UNL A   1      31.747  23.485  26.706  1.00  0.00     0.123 A 
ATOM     21  F   UNL A   1      32.216  22.547  27.540  1.00  0.00    -0.207 F 
ENDBRANCH  13  15
ENDBRANCH  10  11
BRANCH  10  22
ATOM     22  C   UNL A   1      33.365  26.020  22.448  1.00  0.00     0.072 C 
BRANCH  22  23
ATOM     23  C   UNL A   1      33.407  24.543  22.809  1.00  0.00    -0.020 A 
ATOM     24  C   UNL A   1      33.218  23.434  22.026  1.00  0.00     0.087 A 
ATOM     25  C   UNL A   1      34.151  23.934  23.901  1.00  0.00     0.003 A 
ATOM     26  N   UNL A   1      33.271  22.282  22.748  1.00  0.00    -0.361 N 
ATOM     27  C   UNL A   1      33.978  22.548  23.879  1.00  0.00     0.046 A 
ATOM     28  C   UNL A   1      35.092  24.409  24.823  1.00  0.00     0.010 A 
ATOM     29  H   UNL A   1      32.874  21.416  22.499  1.00  0.00     0.166 HD
ATOM     30  C   UNL A   1      34.560  21.656  24.780  1.00  0.00     0.026 A 
ATOM     31  C   UNL A   1      35.722  23.541  25.728  1.00  0.00     0.001 A 
ATOM     32  C   UNL A   1      35.437  22.182  25.721  1.00  0.00     0.002 A 
ENDBRANCH  22  23
ENDBRANCH  10  22
ENDBRANCH   7  10
ENDBRANCH   5   6
BRANCH   5  33
ATOM     33  C   UNL A   1      34.151  29.552  26.888  1.00  0.00     0.193 C 
BRANCH  33  34
ATOM     34  O   UNL A   1      33.754  28.930  28.101  1.00  0.00    -0.394 OA
ATOM     35  H   UNL A   1      33.076  28.262  27.915  1.00  0.00     0.210 HD
ENDBRANCH  33  34
ENDBRANCH   5  33
ENDBRANCH   3   5
ENDBRANCH   2   3
ENDBRANCH   1   2
BRANCH   1  36
ATOM     36  C   UNL A   1      32.616  33.096  27.133  1.00  0.00     0.275 C 
BRANCH  36  37
ATOM     37  O   UNL A   1      32.233  34.138  28.063  1.00  0.00    -0.458 OA
BRANCH  37  38
ATOM     38  C   UNL A   1      33.263  34.898  28.516  1.00  0.00     0.338 C 
ATOM     39  O   UNL A   1      33.348  36.125  28.433  1.00  0.00    -0.246 OA
BRANCH  38  40
ATOM     40  C   UNL A   1      34.334  34.068  29.119  1.00  0.00     0.060 A 
ATOM     41  C   UNL A   1      34.056  33.204  30.185  1.00  0.00     0.016 A 
ATOM     42  C   UNL A   1      35.651  34.186  28.668  1.00  0.00     0.016 A 
ATOM     43  C   UNL A   1      35.065  32.382  30.722  1.00  0.00     0.010 A 
ATOM     44  C   UNL A   1      36.669  33.399  29.241  1.00  0.00     0.010 A 
ATOM     45  C   UNL A   1      36.387  32.468  30.259  1.00  0.00    -0.014 A 
BRANCH  45  46
ATOM     46  C   UNL A   1      37.493  31.678  30.889  1.00  0.00     0.031 A 
ATOM     47  C   UNL A   1      38.047  32.089  32.218  1.00  0.00     0.074 A 
ATOM     48  C   UNL A   1      38.009  30.567  30.325  1.00  0.00     0.049 A 
ATOM     49  N   UNL A   1      38.994  31.513  32.912  1.00  0.00    -0.248 NA
ATOM     50  C   UNL A   1      37.397  33.219  32.894  1.00  0.00     0.031 C 
ATOM     51  C   UNL A   1      37.413  29.837  29.227  1.00  0.00     0.029 A 
ATOM     52  N   UNL A   1      39.152  29.848  30.583  1.00  0.00    -0.354 N 
ATOM     53  C   UNL A   1      38.973  32.131  34.149  1.00  0.00     0.074 A 
ATOM     54  C   UNL A   1      37.965  33.168  34.091  1.00  0.00     0.031 C 
ATOM     55  C   UNL A   1      38.258  28.907  28.764  1.00  0.00     0.029 A 
ATOM     56  C   UNL A   1      39.440  28.915  29.609  1.00  0.00     0.049 A 
ATOM     57  H   UNL A   1      39.710  29.986  31.384  1.00  0.00     0.167 HD
ATOM     58  C   UNL A   1      39.715  31.837  35.242  1.00  0.00     0.037 A 
ATOM     59  C   UNL A   1      40.520  28.138  29.416  1.00  0.00     0.037 A 
ATOM     60  C   UNL A   1      40.809  30.906  35.260  1.00  0.00     0.049 A 
ATOM     61  C   UNL A   1      41.557  28.096  30.492  1.00  0.00     0.074 A 
ATOM     62  C   UNL A   1      41.697  30.636  36.287  1.00  0.00     0.029 A 
ATOM     63  N   UNL A   1      41.198  30.124  34.181  1.00  0.00    -0.354 N 
ATOM     64  N   UNL A   1      41.533  28.687  31.659  1.00  0.00    -0.248 NA
ATOM     65  C   UNL A   1      42.737  27.254  30.261  1.00  0.00     0.031 C 
ATOM     66  C   UNL A   1      42.661  29.741  35.806  1.00  0.00     0.029 A 
ATOM     67  C   UNL A   1      42.351  29.422  34.494  1.00  0.00     0.049 A 
ATOM     68  H   UNL A   1      40.724  30.076  33.319  1.00  0.00     0.167 HD
ATOM     69  C   UNL A   1      42.662  28.252  32.328  1.00  0.00     0.074 A 
ATOM     70  C   UNL A   1      43.363  27.358  31.426  1.00  0.00     0.031 C 
ATOM     71  C   UNL A   1      43.059  28.552  33.588  1.00  0.00     0.037 A 
BRANCH  58  72
ATOM     72  C   UNL A   1      39.371  32.598  36.480  1.00  0.00     0.057 A 
ATOM     73  C   UNL A   1      40.030  33.792  36.802  1.00  0.00     0.134 A 
ATOM     74  C   UNL A   1      38.431  32.103  37.388  1.00  0.00     0.134 A 
ATOM     75  F   UNL A   1      40.963  34.298  35.982  1.00  0.00    -0.206 F 
ATOM     76  C   UNL A   1      39.774  34.461  38.001  1.00  0.00     0.040 A 
ATOM     77  C   UNL A   1      38.161  32.767  38.584  1.00  0.00     0.040 A 
ATOM     78  F   UNL A   1      37.787  30.953  37.139  1.00  0.00    -0.206 F 
ATOM     79  C   UNL A   1      38.837  33.946  38.896  1.00  0.00     0.006 A 
ENDBRANCH  58  72
BRANCH  59  80
ATOM     80  C   UNL A   1      40.659  27.345  28.167  1.00  0.00     0.057 A 
ATOM     81  C   UNL A   1      40.084  26.079  28.024  1.00  0.00     0.134 A 
ATOM     82  C   UNL A   1      41.387  27.849  27.080  1.00  0.00     0.134 A 
ATOM     83  F   UNL A   1      39.390  25.535  29.033  1.00  0.00    -0.206 F 
ATOM     84  C   UNL A   1      40.236  25.337  26.850  1.00  0.00     0.040 A 
ATOM     85  C   UNL A   1      41.534  27.124  25.895  1.00  0.00     0.040 A 
ATOM     86  F   UNL A   1      41.965  29.057  27.153  1.00  0.00    -0.206 F 
ATOM     87  C   UNL A   1      40.960  25.860  25.780  1.00  0.00     0.006 A 
ENDBRANCH  59  80
BRANCH  71  88
ATOM     88  C   UNL A   1      44.317  27.900  34.065  1.00  0.00     0.057 A 
ATOM     89  C   UNL A   1      45.559  28.534  33.943  1.00  0.00     0.134 A 
ATOM     90  C   UNL A   1      44.285  26.636  34.663  1.00  0.00     0.134 A 
ATOM     91  F   UNL A   1      45.654  29.737  33.357  1.00  0.00    -0.206 F 
ATOM     92  C   UNL A   1      46.732  27.924  34.388  1.00  0.00     0.040 A 
ATOM     93  C   UNL A   1      45.449  26.024  35.131  1.00  0.00     0.040 A 
ATOM     94  F   UNL A   1      43.125  25.978  34.805  1.00  0.00    -0.206 F 
ATOM     95  C   UNL A   1      46.677  26.668  34.990  1.00  0.00     0.006 A 
ENDBRANCH  71  88
ENDBRANCH  45  46
ENDBRANCH  38  40
ENDBRANCH  37  38
ENDBRANCH  36  37
ENDBRANCH   1  36
TORSDOF 19
ENDMDL
MODEL 2
REMARK VINA RESULT:     -11.3      1.103      5.957
REMARK SMILES O=C(N[C@@H](Cc1c[nH]c2ccccc12)C(=O)N[C@@H](CO)C(=O)OCCOC(=O)c1ccc(-c2c3nc(c(-c4c(F)cccc4F)c4ccc([nH]4)c(-c4c(F)cccc4F)c4nc(c(-c5c(F)cccc5F)c5ccc2[nH]5)C=C4)C=C3)cc1)c1ccc(F)cc1
REMARK SMILES IDX 24 1 23 2 21 3 22 4 18 5 17 6 15 7 16 8 4 10 3 11 1 12 2 13
REMARK SMILES IDX 83 15 84 16 89 17 85 18 88 19 86 20 87 21 5 22 6 23 7 24
REMARK SMILES IDX 14 25 8 26 9 27 13 28 10 30 12 31 11 32 19 33 20 34 25 36
REMARK SMILES IDX 26 37 27 38 28 39 29 40 30 41 82 42 31 43 81 44 32 45 33 46
REMARK SMILES IDX 34 47 75 48 35 49 80 50 74 51 76 52 36 53 79 54 73 55 72 56
REMARK SMILES IDX 37 58 63 59 46 60 62 61 47 62 50 63 61 64 77 65 48 66 49 67
REMARK SMILES IDX 60 69 78 70 51 71 38 72 39 73 44 74 40 75 41 76 43 77 45 78
REMARK SMILES IDX 42 79 64 80 65 81 70 82 66 83 67 84 69 85 71 86 68 87 52 88
REMARK SMILES IDX 53 89 58 90 54 91 55 92 57 93 59 94 56 95
REMARK H PARENT 17 9 3 14 8 29 20 35 76 57 50 68
REMARK Flexibility Score: inf
ROOT
ATOM      1  C   UNL A   1      31.973  31.975  26.922  1.00  0.00     0.274 C 
ENDROOT
BRANCH   1   2
ATOM      2  O   UNL A   1      32.224  30.576  27.183  1.00  0.00    -0.460 OA
BRANCH   2   3
ATOM      3  C   UNL A   1      32.180  29.747  26.084  1.00  0.00     0.331 C 
ATOM      4  O   UNL A   1      31.376  29.884  25.166  1.00  0.00    -0.250 OA
BRANCH   3   5
ATOM      5  C   UNL A   1      33.486  28.891  25.989  1.00  0.00     0.218 C 
BRANCH   5   6
ATOM      6  N   UNL A   1      34.078  28.986  24.669  1.00  0.00    -0.339 N 
ATOM      7  C   UNL A   1      33.702  28.385  23.511  1.00  0.00     0.243 C 
ATOM      8  O   UNL A   1      34.102  28.942  22.479  1.00  0.00    -0.273 OA
ATOM      9  H   UNL A   1      34.867  29.571  24.602  1.00  0.00     0.164 HD
BRANCH   7  10
ATOM     10  C   UNL A   1      32.934  27.023  23.403  1.00  0.00     0.176 C 
BRANCH  10  11
ATOM     11  N   UNL A   1      31.479  27.172  23.451  1.00  0.00    -0.340 N 
ATOM     12  O   UNL A   1      29.343  26.672  23.962  1.00  0.00    -0.269 OA
ATOM     13  C   UNL A   1      30.536  26.426  24.137  1.00  0.00     0.251 C 
ATOM     14  H   UNL A   1      31.116  27.912  22.915  1.00  0.00     0.164 HD
BRANCH  13  15
ATOM     15  C   UNL A   1      30.888  25.308  25.061  1.00  0.00     0.040 A 
ATOM     16  C   UNL A   1      30.551  23.979  24.781  1.00  0.00     0.017 A 
ATOM     17  C   UNL A   1      31.717  25.585  26.163  1.00  0.00     0.017 A 
ATOM     18  C   UNL A   1      30.984  22.947  25.627  1.00  0.00     0.040 A 
ATOM     19  C   UNL A   1      32.153  24.551  27.004  1.00  0.00     0.040 A 
ATOM     20  C   UNL A   1      31.777  23.241  26.730  1.00  0.00     0.123 A 
ATOM     21  F   UNL A   1      32.201  22.251  27.527  1.00  0.00    -0.207 F 
ENDBRANCH  13  15
ENDBRANCH  10  11
BRANCH  10  22
ATOM     22  C   UNL A   1      33.503  25.850  22.553  1.00  0.00     0.072 C 
BRANCH  22  23
ATOM     23  C   UNL A   1      33.501  24.362  22.869  1.00  0.00    -0.020 A 
ATOM     24  C   UNL A   1      33.274  23.284  22.054  1.00  0.00     0.087 A 
ATOM     25  C   UNL A   1      34.230  23.698  23.939  1.00  0.00     0.003 A 
ATOM     26  N   UNL A   1      33.295  22.109  22.741  1.00  0.00    -0.361 N 
ATOM     27  C   UNL A   1      34.014  22.320  23.875  1.00  0.00     0.046 A 
ATOM     28  C   UNL A   1      35.189  24.116  24.869  1.00  0.00     0.010 A 
ATOM     29  H   UNL A   1      32.870  21.264  22.467  1.00  0.00     0.166 HD
ATOM     30  C   UNL A   1      34.572  21.383  24.746  1.00  0.00     0.026 A 
ATOM     31  C   UNL A   1      35.796  23.202  25.744  1.00  0.00     0.001 A 
ATOM     32  C   UNL A   1      35.469  21.854  25.698  1.00  0.00     0.002 A 
ENDBRANCH  22  23
ENDBRANCH  10  22
ENDBRANCH   7  10
ENDBRANCH   5   6
BRANCH   5  33
ATOM     33  C   UNL A   1      34.441  29.208  27.133  1.00  0.00     0.193 C 
BRANCH  33  34
ATOM     34  O   UNL A   1      35.140  30.416  26.876  1.00  0.00    -0.394 OA
ATOM     35  H   UNL A   1      34.506  31.145  26.789  1.00  0.00     0.210 HD
ENDBRANCH  33  34
ENDBRANCH   5  33
ENDBRANCH   3   5
ENDBRANCH   2   3
ENDBRANCH   1   2
BRANCH   1  36
ATOM     36  C   UNL A   1      32.846  32.859  27.832  1.00  0.00     0.275 C 
BRANCH  36  37
ATOM     37  O   UNL A   1      32.509  34.263  27.721  1.00  0.00    -0.458 OA
BRANCH  37  38
ATOM     38  C   UNL A   1      32.947  35.032  28.751  1.00  0.00     0.338 C 
ATOM     39  O   UNL A   1      32.462  36.108  29.108  1.00  0.00    -0.246 OA
BRANCH  38  40
ATOM     40  C   UNL A   1      34.135  34.440  29.412  1.00  0.00     0.060 A 
ATOM     41  C   UNL A   1      35.366  34.375  28.748  1.00  0.00     0.016 A 
ATOM     42  C   UNL A   1      34.022  33.879  30.687  1.00  0.00     0.016 A 
ATOM     43  C   UNL A   1      36.503  33.857  29.397  1.00  0.00     0.010 A 
ATOM     44  C   UNL A   1      35.149  33.315  31.315  1.00  0.00     0.010 A 
ATOM     45  C   UNL A   1      36.412  33.317  30.690  1.00  0.00    -0.014 A 
BRANCH  45  46
ATOM     46  C   UNL A   1      37.586  32.666  31.355  1.00  0.00     0.031 A 
ATOM     47  C   UNL A   1      38.123  31.371  30.829  1.00  0.00     0.074 A 
ATOM     48  C   UNL A   1      38.225  33.215  32.408  1.00  0.00     0.049 A 
ATOM     49  N   UNL A   1      39.139  30.678  31.274  1.00  0.00    -0.248 NA
ATOM     50  C   UNL A   1      37.514  30.841  29.603  1.00  0.00     0.031 C 
ATOM     51  C   UNL A   1      38.070  34.582  32.856  1.00  0.00     0.029 A 
ATOM     52  N   UNL A   1      39.132  32.702  33.305  1.00  0.00    -0.354 N 
ATOM     53  C   UNL A   1      39.366  29.702  30.322  1.00  0.00     0.074 A 
ATOM     54  C   UNL A   1      38.344  29.851  29.307  1.00  0.00     0.031 C 
ATOM     55  C   UNL A   1      38.676  34.763  34.037  1.00  0.00     0.029 A 
ATOM     56  C   UNL A   1      39.352  33.526  34.388  1.00  0.00     0.049 A 
ATOM     57  H   UNL A   1      39.579  31.832  33.186  1.00  0.00     0.167 HD
ATOM     58  C   UNL A   1      40.356  28.781  30.288  1.00  0.00     0.037 A 
ATOM     59  C   UNL A   1      40.032  33.328  35.531  1.00  0.00     0.037 A 
ATOM     60  C   UNL A   1      41.285  28.540  31.358  1.00  0.00     0.049 A 
ATOM     61  C   UNL A   1      40.861  32.089  35.650  1.00  0.00     0.074 A 
ATOM     62  C   UNL A   1      42.241  27.546  31.466  1.00  0.00     0.029 A 
ATOM     63  N   UNL A   1      41.340  29.275  32.535  1.00  0.00    -0.354 N 
ATOM     64  N   UNL A   1      41.066  31.167  34.745  1.00  0.00    -0.248 NA
ATOM     65  C   UNL A   1      41.586  31.880  36.909  1.00  0.00     0.031 C 
ATOM     66  C   UNL A   1      42.828  27.641  32.734  1.00  0.00     0.029 A 
ATOM     67  C   UNL A   1      42.267  28.718  33.401  1.00  0.00     0.049 A 
ATOM     68  H   UNL A   1      40.799  30.076  32.725  1.00  0.00     0.167 HD
ATOM     69  C   UNL A   1      41.985  30.293  35.298  1.00  0.00     0.074 A 
ATOM     70  C   UNL A   1      42.283  30.786  36.628  1.00  0.00     0.031 C 
ATOM     71  C   UNL A   1      42.545  29.197  34.732  1.00  0.00     0.037 A 
BRANCH  58  72
ATOM     72  C   UNL A   1      40.418  27.941  29.055  1.00  0.00     0.057 A 
ATOM     73  C   UNL A   1      41.176  28.337  27.945  1.00  0.00     0.134 A 
ATOM     74  C   UNL A   1      39.664  26.769  28.948  1.00  0.00     0.134 A 
ATOM     75  F   UNL A   1      41.894  29.469  27.981  1.00  0.00    -0.206 F 
ATOM     76  C   UNL A   1      41.167  27.599  26.760  1.00  0.00     0.040 A 
ATOM     77  C   UNL A   1      39.654  26.019  27.772  1.00  0.00     0.040 A 
ATOM     78  F   UNL A   1      38.904  26.354  29.973  1.00  0.00    -0.206 F 
ATOM     79  C   UNL A   1      40.402  26.437  26.672  1.00  0.00     0.006 A 
ENDBRANCH  58  72
BRANCH  59  80
ATOM     80  C   UNL A   1      39.957  34.326  36.629  1.00  0.00     0.057 A 
ATOM     81  C   UNL A   1      39.005  34.237  37.649  1.00  0.00     0.134 A 
ATOM     82  C   UNL A   1      40.850  35.407  36.674  1.00  0.00     0.134 A 
ATOM     83  F   UNL A   1      38.114  33.237  37.654  1.00  0.00    -0.206 F 
ATOM     84  C   UNL A   1      38.935  35.190  38.668  1.00  0.00     0.040 A 
ATOM     85  C   UNL A   1      40.800  36.359  37.694  1.00  0.00     0.040 A 
ATOM     86  F   UNL A   1      41.786  35.551  35.724  1.00  0.00    -0.206 F 
ATOM     87  C   UNL A   1      39.837  36.254  38.694  1.00  0.00     0.006 A 
ENDBRANCH  59  80
BRANCH  71  88
ATOM     88  C   UNL A   1      43.545  28.455  35.560  1.00  0.00     0.057 A 
ATOM     89  C   UNL A   1      43.151  27.457  36.460  1.00  0.00     0.134 A 
ATOM     90  C   UNL A   1      44.912  28.731  35.448  1.00  0.00     0.134 A 
ATOM     91  F   UNL A   1      41.852  27.167  36.627  1.00  0.00    -0.206 F 
ATOM     92  C   UNL A   1      44.085  26.767  37.232  1.00  0.00     0.040 A 
ATOM     93  C   UNL A   1      45.857  28.032  36.200  1.00  0.00     0.040 A 
ATOM     94  F   UNL A   1      45.350  29.677  34.605  1.00  0.00    -0.206 F 
ATOM     95  C   UNL A   1      45.443  27.050  37.097  1.00  0.00     0.006 A 
ENDBRANCH  71  88
ENDBRANCH  45  46
ENDBRANCH  38  40
ENDBRANCH  37  38
ENDBRANCH  36  37
ENDBRANCH   1  36
TORSDOF 19
ENDMDL
MODEL 3
REMARK VINA RESULT:     -11.2      5.025      9.861
REMARK SMILES O=C(N[C@@H](Cc1c[nH]c2ccccc12)C(=O)N[C@@H](CO)C(=O)OCCOC(=O)c1ccc(-c2c3nc(c(-c4c(F)cccc4F)c4ccc([nH]4)c(-c4c(F)cccc4F)c4nc(c(-c5c(F)cccc5F)c5ccc2[nH]5)C=C4)C=C3)cc1)c1ccc(F)cc1
REMARK SMILES IDX 24 1 23 2 21 3 22 4 18 5 17 6 15 7 16 8 4 10 3 11 1 12 2 13
REMARK SMILES IDX 83 15 84 16 89 17 85 18 88 19 86 20 87 21 5 22 6 23 7 24
REMARK SMILES IDX 14 25 8 26 9 27 13 28 10 30 12 31 11 32 19 33 20 34 25 36
REMARK SMILES IDX 26 37 27 38 28 39 29 40 30 41 82 42 31 43 81 44 32 45 33 46
REMARK SMILES IDX 34 47 75 48 35 49 80 50 74 51 76 52 36 53 79 54 73 55 72 56
REMARK SMILES IDX 37 58 63 59 46 60 62 61 47 62 50 63 61 64 77 65 48 66 49 67
REMARK SMILES IDX 60 69 78 70 51 71 38 72 39 73 44 74 40 75 41 76 43 77 45 78
REMARK SMILES IDX 42 79 64 80 65 81 70 82 66 83 67 84 69 85 71 86 68 87 52 88
REMARK SMILES IDX 53 89 58 90 54 91 55 92 57 93 59 94 56 95
REMARK H PARENT 17 9 3 14 8 29 20 35 76 57 50 68
REMARK Flexibility Score: inf
ROOT
ATOM      1  C   UNL A   1      38.403  19.667  25.324  1.00  0.00     0.274 C 
ENDROOT
BRANCH   1   2
ATOM      2  O   UNL A   1      37.827  20.947  24.979  1.00  0.00    -0.460 OA
BRANCH   2   3
ATOM      3  C   UNL A   1      36.456  21.030  25.079  1.00  0.00     0.331 C 
ATOM      4  O   UNL A   1      35.712  20.057  24.995  1.00  0.00    -0.250 OA
BRANCH   3   5
ATOM      5  C   UNL A   1      36.031  22.412  25.677  1.00  0.00     0.218 C 
BRANCH   5   6
ATOM      6  N   UNL A   1      35.211  22.239  26.860  1.00  0.00    -0.339 N 
ATOM      7  C   UNL A   1      33.859  22.198  26.973  1.00  0.00     0.243 C 
ATOM      8  O   UNL A   1      33.436  21.638  27.994  1.00  0.00    -0.273 OA
ATOM      9  H   UNL A   1      35.706  22.138  27.705  1.00  0.00     0.164 HD
BRANCH   7  10
ATOM     10  C   UNL A   1      32.845  22.890  25.998  1.00  0.00     0.176 C 
BRANCH  10  11
ATOM     11  N   UNL A   1      32.496  22.064  24.840  1.00  0.00    -0.340 N 
ATOM     12  O   UNL A   1      31.978  21.573  22.705  1.00  0.00    -0.269 OA
ATOM     13  C   UNL A   1      32.374  22.417  23.507  1.00  0.00     0.251 C 
ATOM     14  H   UNL A   1      32.322  21.117  25.040  1.00  0.00     0.164 HD
BRANCH  13  15
ATOM     15  C   UNL A   1      32.667  23.786  22.991  1.00  0.00     0.040 A 
ATOM     16  C   UNL A   1      31.675  24.593  22.423  1.00  0.00     0.017 A 
ATOM     17  C   UNL A   1      33.941  24.333  23.226  1.00  0.00     0.017 A 
ATOM     18  C   UNL A   1      31.970  25.910  22.038  1.00  0.00     0.040 A 
ATOM     19  C   UNL A   1      34.232  25.650  22.845  1.00  0.00     0.040 A 
ATOM     20  C   UNL A   1      33.244  26.425  22.248  1.00  0.00     0.123 A 
ATOM     21  F   UNL A   1      33.517  27.687  21.892  1.00  0.00    -0.207 F 
ENDBRANCH  13  15
ENDBRANCH  10  11
BRANCH  10  22
ATOM     22  C   UNL A   1      31.753  23.859  26.536  1.00  0.00     0.072 C 
BRANCH  22  23
ATOM     23  C   UNL A   1      31.253  25.159  25.923  1.00  0.00    -0.020 A 
ATOM     24  C   UNL A   1      29.985  25.672  25.849  1.00  0.00     0.087 A 
ATOM     25  C   UNL A   1      32.014  26.386  25.743  1.00  0.00     0.003 A 
ATOM     26  N   UNL A   1      29.945  26.841  25.152  1.00  0.00    -0.361 N 
ATOM     27  C   UNL A   1      31.195  27.374  25.191  1.00  0.00     0.046 A 
ATOM     28  C   UNL A   1      33.286  26.811  26.142  1.00  0.00     0.010 A 
ATOM     29  H   UNL A   1      29.158  27.228  24.705  1.00  0.00     0.166 HD
ATOM     30  C   UNL A   1      31.602  28.676  24.897  1.00  0.00     0.026 A 
ATOM     31  C   UNL A   1      33.725  28.120  25.891  1.00  0.00     0.001 A 
ATOM     32  C   UNL A   1      32.898  29.033  25.252  1.00  0.00     0.002 A 
ENDBRANCH  22  23
ENDBRANCH  10  22
ENDBRANCH   7  10
ENDBRANCH   5   6
BRANCH   5  33
ATOM     33  C   UNL A   1      37.235  23.326  25.872  1.00  0.00     0.193 C 
BRANCH  33  34
ATOM     34  O   UNL A   1      37.796  23.682  24.618  1.00  0.00    -0.394 OA
ATOM     35  H   UNL A   1      37.175  23.453  23.909  1.00  0.00     0.210 HD
ENDBRANCH  33  34
ENDBRANCH   5  33
ENDBRANCH   3   5
ENDBRANCH   2   3
ENDBRANCH   1   2
BRANCH   1  36
ATOM     36  C   UNL A   1      39.672  19.859  26.174  1.00  0.00     0.275 C 
BRANCH  36  37
ATOM     37  O   UNL A   1      40.768  19.027  25.720  1.00  0.00    -0.458 OA
BRANCH  37  38
ATOM     38  C   UNL A   1      41.948  19.253  26.353  1.00  0.00     0.338 C 
ATOM     39  O   UNL A   1      42.727  18.388  26.762  1.00  0.00    -0.246 OA
BRANCH  38  40
ATOM     40  C   UNL A   1      42.204  20.702  26.538  1.00  0.00     0.060 A 
ATOM     41  C   UNL A   1      42.462  21.529  25.439  1.00  0.00     0.016 A 
ATOM     42  C   UNL A   1      42.254  21.247  27.824  1.00  0.00     0.016 A 
ATOM     43  C   UNL A   1      42.656  22.913  25.615  1.00  0.00     0.010 A 
ATOM     44  C   UNL A   1      42.498  22.622  28.001  1.00  0.00     0.010 A 
ATOM     45  C   UNL A   1      42.678  23.480  26.898  1.00  0.00    -0.014 A 
BRANCH  45  46
ATOM     46  C   UNL A   1      42.988  24.931  27.111  1.00  0.00     0.031 A 
ATOM     47  C   UNL A   1      44.387  25.433  26.938  1.00  0.00     0.074 A 
ATOM     48  C   UNL A   1      42.042  25.840  27.425  1.00  0.00     0.049 A 
ATOM     49  N   UNL A   1      44.829  26.657  27.070  1.00  0.00    -0.248 NA
ATOM     50  C   UNL A   1      45.391  24.471  26.467  1.00  0.00     0.031 C 
ATOM     51  C   UNL A   1      40.615  25.625  27.325  1.00  0.00     0.029 A 
ATOM     52  N   UNL A   1      42.124  27.130  27.895  1.00  0.00    -0.354 N 
ATOM     53  C   UNL A   1      46.124  26.637  26.586  1.00  0.00     0.074 A 
ATOM     54  C   UNL A   1      46.420  25.269  26.218  1.00  0.00     0.031 C 
ATOM     55  C   UNL A   1      39.945  26.635  27.896  1.00  0.00     0.029 A 
ATOM     56  C   UNL A   1      40.913  27.629  28.326  1.00  0.00     0.049 A 
ATOM     57  H   UNL A   1      42.963  27.644  27.923  1.00  0.00     0.167 HD
ATOM     58  C   UNL A   1      46.978  27.676  26.440  1.00  0.00     0.037 A 
ATOM     59  C   UNL A   1      40.602  28.763  28.978  1.00  0.00     0.037 A 
ATOM     60  C   UNL A   1      46.738  29.005  26.933  1.00  0.00     0.049 A 
ATOM     61  C   UNL A   1      41.674  29.790  29.153  1.00  0.00     0.074 A 
ATOM     62  C   UNL A   1      47.596  30.090  26.943  1.00  0.00     0.029 A 
ATOM     63  N   UNL A   1      45.566  29.418  27.551  1.00  0.00    -0.354 N 
ATOM     64  N   UNL A   1      42.900  29.761  28.696  1.00  0.00    -0.248 NA
ATOM     65  C   UNL A   1      41.323  31.016  29.879  1.00  0.00     0.031 C 
ATOM     66  C   UNL A   1      46.967  31.139  27.625  1.00  0.00     0.029 A 
ATOM     67  C   UNL A   1      45.701  30.721  28.005  1.00  0.00     0.049 A 
ATOM     68  H   UNL A   1      44.757  28.866  27.652  1.00  0.00     0.167 HD
ATOM     69  C   UNL A   1      43.456  30.983  29.029  1.00  0.00     0.074 A 
ATOM     70  C   UNL A   1      42.437  31.725  29.745  1.00  0.00     0.031 C 
ATOM     71  C   UNL A   1      44.694  31.448  28.737  1.00  0.00     0.037 A 
BRANCH  58  72
ATOM     72  C   UNL A   1      48.270  27.362  25.762  1.00  0.00     0.057 A 
ATOM     73  C   UNL A   1      48.379  27.380  24.366  1.00  0.00     0.134 A 
ATOM     74  C   UNL A   1      49.391  26.973  26.501  1.00  0.00     0.134 A 
ATOM     75  F   UNL A   1      47.326  27.716  23.605  1.00  0.00    -0.206 F 
ATOM     76  C   UNL A   1      49.561  27.002  23.725  1.00  0.00     0.040 A 
ATOM     77  C   UNL A   1      50.580  26.602  25.873  1.00  0.00     0.040 A 
ATOM     78  F   UNL A   1      49.336  26.918  27.840  1.00  0.00    -0.206 F 
ATOM     79  C   UNL A   1      50.664  26.610  24.481  1.00  0.00     0.006 A 
ENDBRANCH  58  72
BRANCH  59  80
ATOM     80  C   UNL A   1      39.226  28.975  29.496  1.00  0.00     0.057 A 
ATOM     81  C   UNL A   1      38.861  28.627  30.799  1.00  0.00     0.134 A 
ATOM     82  C   UNL A   1      38.234  29.536  28.677  1.00  0.00     0.134 A 
ATOM     83  F   UNL A   1      39.758  28.072  31.626  1.00  0.00    -0.206 F 
ATOM     84  C   UNL A   1      37.559  28.817  31.269  1.00  0.00     0.040 A 
ATOM     85  C   UNL A   1      36.932  29.745  29.139  1.00  0.00     0.040 A 
ATOM     86  F   UNL A   1      38.518  29.890  27.416  1.00  0.00    -0.206 F 
ATOM     87  C   UNL A   1      36.591  29.381  30.439  1.00  0.00     0.006 A 
ENDBRANCH  59  80
BRANCH  71  88
ATOM     88  C   UNL A   1      45.013  32.835  29.198  1.00  0.00     0.057 A 
ATOM     89  C   UNL A   1      45.652  33.069  30.421  1.00  0.00     0.134 A 
ATOM     90  C   UNL A   1      44.690  33.942  28.406  1.00  0.00     0.134 A 
ATOM     91  F   UNL A   1      45.964  32.047  31.232  1.00  0.00    -0.206 F 
ATOM     92  C   UNL A   1      45.947  34.363  30.848  1.00  0.00     0.040 A 
ATOM     93  C   UNL A   1      44.999  35.240  28.814  1.00  0.00     0.040 A 
ATOM     94  F   UNL A   1      44.075  33.781  27.225  1.00  0.00    -0.206 F 
ATOM     95  C   UNL A   1      45.626  35.453  30.040  1.00  0.00     0.006 A 
ENDBRANCH  71  88
ENDBRANCH  45  46
ENDBRANCH  38  40
ENDBRANCH  37  38
ENDBRANCH  36  37
ENDBRANCH   1  36
TORSDOF 19
ENDMDL
