MODEL 1
REMARK VINA RESULT:     -11.9      0.000      0.000
REMARK SMILES CCN1C(=O)c2cccc3cc(S(=O)(=O)NCC(=O)OCCOC(=O)c4ccc(-c5c6nc(c(-c7c(F)cccc7F)c7ccc([nH]7)c(-c7c(F)cccc7F)c7nc(c(-c8c(F)cccc8F)c8ccc5[nH]8)C=C7)C=C6)cc4)cc(c23)C1=O
REMARK SMILES IDX 21 1 20 2 18 3 19 4 17 5 16 6 13 8 14 9 15 10 12 11 3 12
REMARK SMILES IDX 4 13 83 14 5 15 6 16 81 17 84 18 7 19 82 20 80 21 8 22 10 23
REMARK SMILES IDX 9 24 11 25 2 26 1 27 22 28 23 29 24 30 25 31 26 32 27 33
REMARK SMILES IDX 79 34 28 35 78 36 29 37 30 38 31 39 72 40 32 41 77 42 71 43
REMARK SMILES IDX 73 44 33 45 76 46 70 47 69 48 34 50 60 51 43 52 59 53 44 54
REMARK SMILES IDX 47 55 58 56 74 57 45 58 46 59 57 61 75 62 48 63 35 64 36 65
REMARK SMILES IDX 41 66 37 67 38 68 40 69 42 70 39 71 61 72 62 73 67 74 63 75
REMARK SMILES IDX 64 76 66 77 68 78 65 79 49 80 50 81 55 82 51 83 52 84 54 85
REMARK SMILES IDX 56 86 53 87
REMARK H PARENT 16 7 73 49 47 60
REMARK Flexibility Score: inf
ROOT
ATOM      1  C   UNL A   1      40.586  20.668  26.278  1.00  0.00     0.274 C 
ENDROOT
BRANCH   1   2
ATOM      2  O   UNL A   1      39.659  21.736  26.036  1.00  0.00    -0.461 OA
BRANCH   2   3
ATOM      3  C   UNL A   1      38.441  21.389  25.566  1.00  0.00     0.321 C 
ATOM      4  O   UNL A   1      38.119  20.267  25.194  1.00  0.00    -0.251 OA
BRANCH   3   5
ATOM      5  C   UNL A   1      37.500  22.560  25.547  1.00  0.00     0.221 C 
BRANCH   5   6
ATOM      6  N   UNL A   1      36.416  22.636  26.559  1.00  0.00    -0.200 NA
ATOM      7  H   UNL A   1      36.723  22.076  27.355  1.00  0.00     0.142 HD
BRANCH   6   8
ATOM      8  S   UNL A   1      34.846  22.128  26.187  1.00  0.00     0.241 S 
ATOM      9  O   UNL A   1      34.106  22.064  27.425  1.00  0.00    -0.207 OA
ATOM     10  O   UNL A   1      34.964  20.977  25.321  1.00  0.00    -0.207 OA
BRANCH   8  11
ATOM     11  C   UNL A   1      34.151  23.436  25.213  1.00  0.00     0.083 A 
ATOM     12  N   UNL A   1      33.247  28.179  24.612  1.00  0.00    -0.275 N 
ATOM     13  C   UNL A   1      32.915  27.981  23.264  1.00  0.00     0.261 C 
ATOM     14  C   UNL A   1      33.733  27.172  25.444  1.00  0.00     0.261 C 
ATOM     15  O   UNL A   1      32.540  28.881  22.515  1.00  0.00    -0.269 OA
ATOM     16  C   UNL A   1      33.009  26.606  22.728  1.00  0.00     0.049 A 
ATOM     17  C   UNL A   1      33.750  25.794  24.900  1.00  0.00     0.050 A 
ATOM     18  O   UNL A   1      34.151  27.330  26.586  1.00  0.00    -0.269 OA
ATOM     19  C   UNL A   1      32.721  26.365  21.378  1.00  0.00     0.014 A 
ATOM     20  C   UNL A   1      33.367  25.559  23.576  1.00  0.00     0.007 A 
ATOM     21  C   UNL A   1      34.177  24.737  25.712  1.00  0.00     0.036 A 
ATOM     22  C   UNL A   1      32.761  25.067  20.874  1.00  0.00     0.001 A 
ATOM     23  C   UNL A   1      33.361  24.234  23.073  1.00  0.00    -0.015 A 
ATOM     24  C   UNL A   1      33.059  24.003  21.724  1.00  0.00     0.009 A 
ATOM     25  C   UNL A   1      33.689  23.174  23.923  1.00  0.00     0.030 A 
BRANCH  12  26
ATOM     26  C   UNL A   1      33.049  29.555  25.082  1.00  0.00     0.126 C 
ATOM     27  C   UNL A   1      31.925  29.866  26.058  1.00  0.00     0.028 C 
ENDBRANCH  12  26
ENDBRANCH   8  11
ENDBRANCH   6   8
ENDBRANCH   5   6
ENDBRANCH   3   5
ENDBRANCH   2   3
ENDBRANCH   1   2
BRANCH   1  28
ATOM     28  C   UNL A   1      42.019  21.134  26.000  1.00  0.00     0.275 C 
BRANCH  28  29
ATOM     29  O   UNL A   1      42.053  22.438  25.380  1.00  0.00    -0.458 OA
BRANCH  29  30
ATOM     30  C   UNL A   1      43.116  23.218  25.686  1.00  0.00     0.338 C 
ATOM     31  O   UNL A   1      44.235  23.178  25.197  1.00  0.00    -0.246 OA
BRANCH  30  32
ATOM     32  C   UNL A   1      42.704  24.292  26.603  1.00  0.00     0.060 A 
ATOM     33  C   UNL A   1      43.451  25.476  26.609  1.00  0.00     0.016 A 
ATOM     34  C   UNL A   1      41.644  24.114  27.491  1.00  0.00     0.016 A 
ATOM     35  C   UNL A   1      43.142  26.493  27.507  1.00  0.00     0.010 A 
ATOM     36  C   UNL A   1      41.337  25.135  28.392  1.00  0.00     0.010 A 
ATOM     37  C   UNL A   1      42.088  26.324  28.411  1.00  0.00    -0.014 A 
BRANCH  37  38
ATOM     38  C   UNL A   1      41.787  27.366  29.419  1.00  0.00     0.031 A 
ATOM     39  C   UNL A   1      42.542  27.372  30.715  1.00  0.00     0.074 A 
ATOM     40  C   UNL A   1      40.817  28.268  29.184  1.00  0.00     0.049 A 
ATOM     41  N   UNL A   1      42.304  28.049  31.806  1.00  0.00    -0.248 NA
ATOM     42  C   UNL A   1      43.719  26.491  30.793  1.00  0.00     0.031 C 
ATOM     43  C   UNL A   1      40.056  28.389  27.940  1.00  0.00     0.029 A 
ATOM     44  N   UNL A   1      40.286  29.236  29.999  1.00  0.00    -0.354 N 
ATOM     45  C   UNL A   1      43.273  27.647  32.716  1.00  0.00     0.074 A 
ATOM     46  C   UNL A   1      44.108  26.674  32.047  1.00  0.00     0.031 C 
ATOM     47  C   UNL A   1      39.133  29.356  28.085  1.00  0.00     0.029 A 
ATOM     48  C   UNL A   1      39.204  29.878  29.447  1.00  0.00     0.049 A 
ATOM     49  H   UNL A   1      40.644  29.450  30.890  1.00  0.00     0.167 HD
ATOM     50  C   UNL A   1      43.438  28.053  33.996  1.00  0.00     0.037 A 
ATOM     51  C   UNL A   1      38.335  30.748  29.998  1.00  0.00     0.037 A 
ATOM     52  C   UNL A   1      42.618  29.045  34.637  1.00  0.00     0.049 A 
ATOM     53  C   UNL A   1      38.513  31.144  31.439  1.00  0.00     0.074 A 
ATOM     54  C   UNL A   1      42.723  29.551  35.921  1.00  0.00     0.029 A 
ATOM     55  N   UNL A   1      41.542  29.683  34.041  1.00  0.00    -0.354 N 
ATOM     56  N   UNL A   1      39.433  30.764  32.293  1.00  0.00    -0.248 NA
ATOM     57  C   UNL A   1      37.529  32.081  31.998  1.00  0.00     0.031 C 
ATOM     58  C   UNL A   1      41.683  30.465  36.116  1.00  0.00     0.029 A 
ATOM     59  C   UNL A   1      40.961  30.562  34.937  1.00  0.00     0.049 A 
ATOM     60  H   UNL A   1      41.236  29.533  33.116  1.00  0.00     0.167 HD
ATOM     61  C   UNL A   1      39.159  31.439  33.474  1.00  0.00     0.074 A 
ATOM     62  C   UNL A   1      37.989  32.256  33.229  1.00  0.00     0.031 C 
ATOM     63  C   UNL A   1      39.816  31.390  34.658  1.00  0.00     0.037 A 
BRANCH  50  64
ATOM     64  C   UNL A   1      44.520  27.406  34.806  1.00  0.00     0.057 A 
ATOM     65  C   UNL A   1      44.307  26.222  35.520  1.00  0.00     0.134 A 
ATOM     66  C   UNL A   1      45.814  27.942  34.810  1.00  0.00     0.134 A 
ATOM     67  F   UNL A   1      43.088  25.665  35.566  1.00  0.00    -0.206 F 
ATOM     68  C   UNL A   1      45.343  25.596  36.216  1.00  0.00     0.040 A 
ATOM     69  C   UNL A   1      46.862  27.315  35.484  1.00  0.00     0.040 A 
ATOM     70  F   UNL A   1      46.084  29.074  34.142  1.00  0.00    -0.206 F 
ATOM     71  C   UNL A   1      46.628  26.138  36.191  1.00  0.00     0.006 A 
ENDBRANCH  50  64
BRANCH  51  72
ATOM     72  C   UNL A   1      37.186  31.261  29.210  1.00  0.00     0.057 A 
ATOM     73  C   UNL A   1      37.186  32.558  28.685  1.00  0.00     0.134 A 
ATOM     74  C   UNL A   1      36.045  30.478  28.992  1.00  0.00     0.134 A 
ATOM     75  F   UNL A   1      38.240  33.364  28.880  1.00  0.00    -0.206 F 
ATOM     76  C   UNL A   1      36.085  33.069  27.996  1.00  0.00     0.040 A 
ATOM     77  C   UNL A   1      34.948  30.966  28.280  1.00  0.00     0.040 A 
ATOM     78  F   UNL A   1      35.982  29.226  29.467  1.00  0.00    -0.206 F 
ATOM     79  C   UNL A   1      34.962  32.270  27.788  1.00  0.00     0.006 A 
ENDBRANCH  51  72
BRANCH  63  80
ATOM     80  C   UNL A   1      39.330  32.284  35.757  1.00  0.00     0.057 A 
ATOM     81  C   UNL A   1      39.786  33.599  35.898  1.00  0.00     0.134 A 
ATOM     82  C   UNL A   1      38.336  31.840  36.640  1.00  0.00     0.134 A 
ATOM     83  F   UNL A   1      40.745  34.076  35.091  1.00  0.00    -0.206 F 
ATOM     84  C   UNL A   1      39.273  34.442  36.886  1.00  0.00     0.040 A 
ATOM     85  C   UNL A   1      37.801  32.681  37.616  1.00  0.00     0.040 A 
ATOM     86  F   UNL A   1      37.853  30.592  36.549  1.00  0.00    -0.206 F 
ATOM     87  C   UNL A   1      38.271  33.986  37.741  1.00  0.00     0.006 A 
ENDBRANCH  63  80
ENDBRANCH  37  38
ENDBRANCH  30  32
ENDBRANCH  29  30
ENDBRANCH  28  29
ENDBRANCH   1  28
TORSDOF 15
ENDMDL
MODEL 2
REMARK VINA RESULT:     -11.9      3.926      7.444
REMARK SMILES CCN1C(=O)c2cccc3cc(S(=O)(=O)NCC(=O)OCCOC(=O)c4ccc(-c5c6nc(c(-c7c(F)cccc7F)c7ccc([nH]7)c(-c7c(F)cccc7F)c7nc(c(-c8c(F)cccc8F)c8ccc5[nH]8)C=C7)C=C6)cc4)cc(c23)C1=O
REMARK SMILES IDX 21 1 20 2 18 3 19 4 17 5 16 6 13 8 14 9 15 10 12 11 3 12
REMARK SMILES IDX 4 13 83 14 5 15 6 16 81 17 84 18 7 19 82 20 80 21 8 22 10 23
REMARK SMILES IDX 9 24 11 25 2 26 1 27 22 28 23 29 24 30 25 31 26 32 27 33
REMARK SMILES IDX 79 34 28 35 78 36 29 37 30 38 31 39 72 40 32 41 77 42 71 43
REMARK SMILES IDX 73 44 33 45 76 46 70 47 69 48 34 50 60 51 43 52 59 53 44 54
REMARK SMILES IDX 47 55 58 56 74 57 45 58 46 59 57 61 75 62 48 63 35 64 36 65
REMARK SMILES IDX 41 66 37 67 38 68 40 69 42 70 39 71 61 72 62 73 67 74 63 75
REMARK SMILES IDX 64 76 66 77 68 78 65 79 49 80 50 81 55 82 51 83 52 84 54 85
REMARK SMILES IDX 56 86 53 87
REMARK H PARENT 16 7 73 49 47 60
REMARK Flexibility Score: inf
ROOT
ATOM      1  C   UNL A   1      35.221  20.854  24.731  1.00  0.00     0.274 C 
ENDROOT
BRANCH   1   2
ATOM      2  O   UNL A   1      34.360  19.724  24.935  1.00  0.00    -0.461 OA
BRANCH   2   3
ATOM      3  C   UNL A   1      33.032  19.966  24.951  1.00  0.00     0.321 C 
ATOM      4  O   UNL A   1      32.168  19.153  25.261  1.00  0.00    -0.251 OA
BRANCH   3   5
ATOM      5  C   UNL A   1      32.719  21.376  24.537  1.00  0.00     0.221 C 
BRANCH   5   6
ATOM      6  N   UNL A   1      31.687  22.139  25.284  1.00  0.00    -0.200 NA
ATOM      7  H   UNL A   1      31.216  22.733  24.602  1.00  0.00     0.142 HD
BRANCH   6   8
ATOM      8  S   UNL A   1      32.115  23.136  26.581  1.00  0.00     0.241 S 
ATOM      9  O   UNL A   1      33.502  22.874  26.890  1.00  0.00    -0.207 OA
ATOM     10  O   UNL A   1      31.083  23.000  27.583  1.00  0.00    -0.207 OA
BRANCH   8  11
ATOM     11  C   UNL A   1      32.009  24.790  25.953  1.00  0.00     0.083 A 
ATOM     12  N   UNL A   1      29.498  28.205  23.565  1.00  0.00    -0.275 N 
ATOM     13  C   UNL A   1      30.364  29.210  24.020  1.00  0.00     0.261 C 
ATOM     14  C   UNL A   1      29.578  26.875  23.971  1.00  0.00     0.261 C 
ATOM     15  O   UNL A   1      30.259  30.394  23.705  1.00  0.00    -0.269 OA
ATOM     16  C   UNL A   1      31.471  28.810  24.914  1.00  0.00     0.049 A 
ATOM     17  C   UNL A   1      30.738  26.492  24.810  1.00  0.00     0.050 A 
ATOM     18  O   UNL A   1      28.769  25.996  23.696  1.00  0.00    -0.269 OA
ATOM     19  C   UNL A   1      32.342  29.784  25.422  1.00  0.00     0.014 A 
ATOM     20  C   UNL A   1      31.650  27.464  25.230  1.00  0.00     0.007 A 
ATOM     21  C   UNL A   1      30.895  25.157  25.201  1.00  0.00     0.036 A 
ATOM     22  C   UNL A   1      33.416  29.412  26.228  1.00  0.00     0.001 A 
ATOM     23  C   UNL A   1      32.770  27.083  26.010  1.00  0.00    -0.015 A 
ATOM     24  C   UNL A   1      33.641  28.065  26.503  1.00  0.00     0.009 A 
ATOM     25  C   UNL A   1      32.975  25.733  26.307  1.00  0.00     0.030 A 
BRANCH  12  26
ATOM     26  C   UNL A   1      28.479  28.676  22.619  1.00  0.00     0.126 C 
ATOM     27  C   UNL A   1      27.097  29.055  23.124  1.00  0.00     0.028 C 
ENDBRANCH  12  26
ENDBRANCH   8  11
ENDBRANCH   6   8
ENDBRANCH   5   6
ENDBRANCH   3   5
ENDBRANCH   2   3
ENDBRANCH   1   2
BRANCH   1  28
ATOM     28  C   UNL A   1      36.683  20.458  24.958  1.00  0.00     0.275 C 
BRANCH  28  29
ATOM     29  O   UNL A   1      37.404  21.459  25.708  1.00  0.00    -0.458 OA
BRANCH  29  30
ATOM     30  C   UNL A   1      38.691  21.169  26.009  1.00  0.00     0.338 C 
ATOM     31  O   UNL A   1      39.302  20.142  25.756  1.00  0.00    -0.246 OA
BRANCH  30  32
ATOM     32  C   UNL A   1      39.362  22.359  26.553  1.00  0.00     0.060 A 
ATOM     33  C   UNL A   1      38.919  23.618  26.130  1.00  0.00     0.016 A 
ATOM     34  C   UNL A   1      40.453  22.241  27.413  1.00  0.00     0.016 A 
ATOM     35  C   UNL A   1      39.567  24.771  26.564  1.00  0.00     0.010 A 
ATOM     36  C   UNL A   1      41.104  23.398  27.846  1.00  0.00     0.010 A 
ATOM     37  C   UNL A   1      40.670  24.666  27.419  1.00  0.00    -0.014 A 
BRANCH  37  38
ATOM     38  C   UNL A   1      41.414  25.875  27.837  1.00  0.00     0.031 A 
ATOM     39  C   UNL A   1      40.701  26.943  28.612  1.00  0.00     0.074 A 
ATOM     40  C   UNL A   1      42.704  26.026  27.485  1.00  0.00     0.049 A 
ATOM     41  N   UNL A   1      41.091  28.158  28.895  1.00  0.00    -0.248 NA
ATOM     42  C   UNL A   1      39.367  26.598  29.130  1.00  0.00     0.031 C 
ATOM     43  C   UNL A   1      43.511  25.031  26.779  1.00  0.00     0.029 A 
ATOM     44  N   UNL A   1      43.553  27.092  27.650  1.00  0.00    -0.354 N 
ATOM     45  C   UNL A   1      40.037  28.738  29.588  1.00  0.00     0.074 A 
ATOM     46  C   UNL A   1      38.993  27.740  29.690  1.00  0.00     0.031 C 
ATOM     47  C   UNL A   1      44.730  25.545  26.543  1.00  0.00     0.029 A 
ATOM     48  C   UNL A   1      44.768  26.921  27.030  1.00  0.00     0.049 A 
ATOM     49  H   UNL A   1      43.316  27.899  28.161  1.00  0.00     0.167 HD
ATOM     50  C   UNL A   1      39.951  29.994  30.083  1.00  0.00     0.037 A 
ATOM     51  C   UNL A   1      45.772  27.796  26.831  1.00  0.00     0.037 A 
ATOM     52  C   UNL A   1      41.010  30.964  30.000  1.00  0.00     0.049 A 
ATOM     53  C   UNL A   1      45.630  29.202  27.348  1.00  0.00     0.074 A 
ATOM     54  C   UNL A   1      41.035  32.255  30.498  1.00  0.00     0.029 A 
ATOM     55  N   UNL A   1      42.229  30.749  29.378  1.00  0.00    -0.354 N 
ATOM     56  N   UNL A   1      44.633  29.744  28.006  1.00  0.00    -0.248 NA
ATOM     57  C   UNL A   1      46.746  30.123  27.090  1.00  0.00     0.031 C 
ATOM     58  C   UNL A   1      42.256  32.835  30.142  1.00  0.00     0.029 A 
ATOM     59  C   UNL A   1      43.008  31.889  29.462  1.00  0.00     0.049 A 
ATOM     60  H   UNL A   1      42.502  29.909  28.941  1.00  0.00     0.167 HD
ATOM     61  C   UNL A   1      45.014  31.052  28.269  1.00  0.00     0.074 A 
ATOM     62  C   UNL A   1      46.336  31.225  27.702  1.00  0.00     0.031 C 
ATOM     63  C   UNL A   1      44.334  32.026  28.920  1.00  0.00     0.037 A 
BRANCH  50  64
ATOM     64  C   UNL A   1      38.665  30.411  30.728  1.00  0.00     0.057 A 
ATOM     65  C   UNL A   1      38.433  30.247  32.098  1.00  0.00     0.134 A 
ATOM     66  C   UNL A   1      37.674  31.053  29.973  1.00  0.00     0.134 A 
ATOM     67  F   UNL A   1      39.337  29.630  32.872  1.00  0.00    -0.206 F 
ATOM     68  C   UNL A   1      37.255  30.702  32.695  1.00  0.00     0.040 A 
ATOM     69  C   UNL A   1      36.503  31.530  30.562  1.00  0.00     0.040 A 
ATOM     70  F   UNL A   1      37.838  31.243  28.656  1.00  0.00    -0.206 F 
ATOM     71  C   UNL A   1      36.290  31.355  31.928  1.00  0.00     0.006 A 
ENDBRANCH  50  64
BRANCH  51  72
ATOM     72  C   UNL A   1      46.976  27.393  26.061  1.00  0.00     0.057 A 
ATOM     73  C   UNL A   1      47.013  27.491  24.665  1.00  0.00     0.134 A 
ATOM     74  C   UNL A   1      48.105  26.866  26.699  1.00  0.00     0.134 A 
ATOM     75  F   UNL A   1      45.953  27.967  23.995  1.00  0.00    -0.206 F 
ATOM     76  C   UNL A   1      48.117  27.058  23.930  1.00  0.00     0.040 A 
ATOM     77  C   UNL A   1      49.228  26.454  25.978  1.00  0.00     0.040 A 
ATOM     78  F   UNL A   1      48.136  26.746  28.034  1.00  0.00    -0.206 F 
ATOM     79  C   UNL A   1      49.231  26.540  24.588  1.00  0.00     0.006 A 
ENDBRANCH  51  72
BRANCH  63  80
ATOM     80  C   UNL A   1      45.024  33.341  29.113  1.00  0.00     0.057 A 
ATOM     81  C   UNL A   1      44.863  34.401  28.213  1.00  0.00     0.134 A 
ATOM     82  C   UNL A   1      45.800  33.571  30.258  1.00  0.00     0.134 A 
ATOM     83  F   UNL A   1      44.143  34.238  27.093  1.00  0.00    -0.206 F 
ATOM     84  C   UNL A   1      45.458  35.643  28.441  1.00  0.00     0.040 A 
ATOM     85  C   UNL A   1      46.379  34.814  30.507  1.00  0.00     0.040 A 
ATOM     86  F   UNL A   1      45.983  32.597  31.162  1.00  0.00    -0.206 F 
ATOM     87  C   UNL A   1      46.209  35.854  29.596  1.00  0.00     0.006 A 
ENDBRANCH  63  80
ENDBRANCH  37  38
ENDBRANCH  30  32
ENDBRANCH  29  30
ENDBRANCH  28  29
ENDBRANCH   1  28
TORSDOF 15
ENDMDL
MODEL 3
REMARK VINA RESULT:     -11.9      2.574      7.934
REMARK SMILES CCN1C(=O)c2cccc3cc(S(=O)(=O)NCC(=O)OCCOC(=O)c4ccc(-c5c6nc(c(-c7c(F)cccc7F)c7ccc([nH]7)c(-c7c(F)cccc7F)c7nc(c(-c8c(F)cccc8F)c8ccc5[nH]8)C=C7)C=C6)cc4)cc(c23)C1=O
REMARK SMILES IDX 21 1 20 2 18 3 19 4 17 5 16 6 13 8 14 9 15 10 12 11 3 12
REMARK SMILES IDX 4 13 83 14 5 15 6 16 81 17 84 18 7 19 82 20 80 21 8 22 10 23
REMARK SMILES IDX 9 24 11 25 2 26 1 27 22 28 23 29 24 30 25 31 26 32 27 33
REMARK SMILES IDX 79 34 28 35 78 36 29 37 30 38 31 39 72 40 32 41 77 42 71 43
REMARK SMILES IDX 73 44 33 45 76 46 70 47 69 48 34 50 60 51 43 52 59 53 44 54
REMARK SMILES IDX 47 55 58 56 74 57 45 58 46 59 57 61 75 62 48 63 35 64 36 65
REMARK SMILES IDX 41 66 37 67 38 68 40 69 42 70 39 71 61 72 62 73 67 74 63 75
REMARK SMILES IDX 64 76 66 77 68 78 65 79 49 80 50 81 55 82 51 83 52 84 54 85
REMARK SMILES IDX 56 86 53 87
REMARK H PARENT 16 7 73 49 47 60
REMARK Flexibility Score: inf
ROOT
ATOM      1  C   UNL A   1      31.675  29.439  24.904  1.00  0.00     0.274 C 
ENDROOT
BRANCH   1   2
ATOM      2  O   UNL A   1      31.941  28.126  24.392  1.00  0.00    -0.461 OA
BRANCH   2   3
ATOM      3  C   UNL A   1      30.905  27.473  23.823  1.00  0.00     0.321 C 
ATOM      4  O   UNL A   1      30.073  26.804  24.425  1.00  0.00    -0.251 OA
BRANCH   3   5
ATOM      5  C   UNL A   1      30.882  27.660  22.333  1.00  0.00     0.221 C 
BRANCH   5   6
ATOM      6  N   UNL A   1      31.275  26.529  21.454  1.00  0.00    -0.200 NA
ATOM      7  H   UNL A   1      30.798  25.702  21.813  1.00  0.00     0.142 HD
BRANCH   6   8
ATOM      8  S   UNL A   1      32.901  26.104  21.264  1.00  0.00     0.241 S 
ATOM      9  O   UNL A   1      33.696  27.250  21.638  1.00  0.00    -0.207 OA
ATOM     10  O   UNL A   1      33.032  25.491  19.962  1.00  0.00    -0.207 OA
BRANCH   8  11
ATOM     11  C   UNL A   1      33.195  24.832  22.463  1.00  0.00     0.083 A 
ATOM     12  N   UNL A   1      32.806  20.170  23.799  1.00  0.00    -0.275 N 
ATOM     13  C   UNL A   1      33.726  20.355  24.841  1.00  0.00     0.261 C 
ATOM     14  C   UNL A   1      32.485  21.156  22.868  1.00  0.00     0.261 C 
ATOM     15  O   UNL A   1      34.052  19.469  25.628  1.00  0.00    -0.269 OA
ATOM     16  C   UNL A   1      34.321  21.700  25.002  1.00  0.00     0.049 A 
ATOM     17  C   UNL A   1      33.041  22.510  23.097  1.00  0.00     0.050 A 
ATOM     18  O   UNL A   1      31.784  20.997  21.875  1.00  0.00    -0.269 OA
ATOM     19  C   UNL A   1      35.271  21.924  26.007  1.00  0.00     0.014 A 
ATOM     20  C   UNL A   1      33.915  22.737  24.163  1.00  0.00     0.007 A 
ATOM     21  C   UNL A   1      32.706  23.550  22.222  1.00  0.00     0.036 A 
ATOM     22  C   UNL A   1      35.803  23.197  26.197  1.00  0.00     0.001 A 
ATOM     23  C   UNL A   1      34.421  24.042  24.389  1.00  0.00    -0.015 A 
ATOM     24  C   UNL A   1      35.363  24.256  25.405  1.00  0.00     0.009 A 
ATOM     25  C   UNL A   1      33.999  25.095  23.573  1.00  0.00     0.030 A 
BRANCH  12  26
ATOM     26  C   UNL A   1      32.205  18.832  23.761  1.00  0.00     0.126 C 
ATOM     27  C   UNL A   1      32.822  17.750  22.890  1.00  0.00     0.028 C 
ENDBRANCH  12  26
ENDBRANCH   8  11
ENDBRANCH   6   8
ENDBRANCH   5   6
ENDBRANCH   3   5
ENDBRANCH   2   3
ENDBRANCH   1   2
BRANCH   1  28
ATOM     28  C   UNL A   1      32.884  29.961  25.687  1.00  0.00     0.275 C 
BRANCH  28  29
ATOM     29  O   UNL A   1      32.497  30.566  26.940  1.00  0.00    -0.458 OA
BRANCH  29  30
ATOM     30  C   UNL A   1      33.112  31.728  27.258  1.00  0.00     0.338 C 
ATOM     31  O   UNL A   1      32.639  32.854  27.228  1.00  0.00    -0.246 OA
BRANCH  30  32
ATOM     32  C   UNL A   1      34.435  31.455  27.839  1.00  0.00     0.060 A 
ATOM     33  C   UNL A   1      34.684  30.171  28.340  1.00  0.00     0.016 A 
ATOM     34  C   UNL A   1      35.394  32.461  27.953  1.00  0.00     0.016 A 
ATOM     35  C   UNL A   1      35.896  29.885  28.961  1.00  0.00     0.010 A 
ATOM     36  C   UNL A   1      36.609  32.173  28.578  1.00  0.00     0.010 A 
ATOM     37  C   UNL A   1      36.863  30.889  29.092  1.00  0.00    -0.014 A 
BRANCH  37  38
ATOM     38  C   UNL A   1      38.130  30.623  29.809  1.00  0.00     0.031 A 
ATOM     39  C   UNL A   1      39.154  29.725  29.179  1.00  0.00     0.074 A 
ATOM     40  C   UNL A   1      38.335  31.150  31.029  1.00  0.00     0.049 A 
ATOM     41  N   UNL A   1      40.224  29.194  29.709  1.00  0.00    -0.248 NA
ATOM     42  C   UNL A   1      38.938  29.372  27.767  1.00  0.00     0.031 C 
ATOM     43  C   UNL A   1      37.433  32.077  31.714  1.00  0.00     0.029 A 
ATOM     44  N   UNL A   1      39.358  30.954  31.923  1.00  0.00    -0.354 N 
ATOM     45  C   UNL A   1      40.788  28.413  28.710  1.00  0.00     0.074 A 
ATOM     46  C   UNL A   1      39.947  28.543  27.540  1.00  0.00     0.031 C 
ATOM     47  C   UNL A   1      37.928  32.346  32.934  1.00  0.00     0.029 A 
ATOM     48  C   UNL A   1      39.146  31.567  33.135  1.00  0.00     0.049 A 
ATOM     49  H   UNL A   1      40.163  30.428  31.717  1.00  0.00     0.167 HD
ATOM     50  C   UNL A   1      41.903  27.649  28.775  1.00  0.00     0.037 A 
ATOM     51  C   UNL A   1      39.829  31.465  34.291  1.00  0.00     0.037 A 
ATOM     52  C   UNL A   1      42.746  27.554  29.937  1.00  0.00     0.049 A 
ATOM     53  C   UNL A   1      41.038  30.570  34.350  1.00  0.00     0.074 A 
ATOM     54  C   UNL A   1      43.917  26.834  30.094  1.00  0.00     0.029 A 
ATOM     55  N   UNL A   1      42.507  28.201  31.139  1.00  0.00    -0.354 N 
ATOM     56  N   UNL A   1      41.569  29.835  33.401  1.00  0.00    -0.248 NA
ATOM     57  C   UNL A   1      41.738  30.479  35.639  1.00  0.00     0.031 C 
ATOM     58  C   UNL A   1      44.364  27.012  31.407  1.00  0.00     0.029 A 
ATOM     59  C   UNL A   1      43.497  27.880  32.050  1.00  0.00     0.049 A 
ATOM     60  H   UNL A   1      41.746  28.800  31.318  1.00  0.00     0.167 HD
ATOM     61  C   UNL A   1      42.680  29.226  33.967  1.00  0.00     0.074 A 
ATOM     62  C   UNL A   1      42.751  29.677  35.342  1.00  0.00     0.031 C 
ATOM     63  C   UNL A   1      43.564  28.369  33.403  1.00  0.00     0.037 A 
BRANCH  50  64
ATOM     64  C   UNL A   1      42.265  26.827  27.576  1.00  0.00     0.057 A 
ATOM     65  C   UNL A   1      41.818  25.511  27.414  1.00  0.00     0.134 A 
ATOM     66  C   UNL A   1      43.015  27.391  26.535  1.00  0.00     0.134 A 
ATOM     67  F   UNL A   1      41.106  24.911  28.379  1.00  0.00    -0.206 F 
ATOM     68  C   UNL A   1      42.109  24.782  26.260  1.00  0.00     0.040 A 
ATOM     69  C   UNL A   1      43.294  26.679  25.369  1.00  0.00     0.040 A 
ATOM     70  F   UNL A   1      43.470  28.649  26.628  1.00  0.00    -0.206 F 
ATOM     71  C   UNL A   1      42.840  25.369  25.228  1.00  0.00     0.006 A 
ENDBRANCH  50  64
BRANCH  51  72
ATOM     72  C   UNL A   1      39.361  32.181  35.504  1.00  0.00     0.057 A 
ATOM     73  C   UNL A   1      39.810  33.471  35.806  1.00  0.00     0.134 A 
ATOM     74  C   UNL A   1      38.479  31.578  36.411  1.00  0.00     0.134 A 
ATOM     75  F   UNL A   1      40.673  34.093  34.989  1.00  0.00    -0.206 F 
ATOM     76  C   UNL A   1      39.421  34.127  36.976  1.00  0.00     0.040 A 
ATOM     77  C   UNL A   1      38.060  32.233  37.570  1.00  0.00     0.040 A 
ATOM     78  F   UNL A   1      38.010  30.343  36.180  1.00  0.00    -0.206 F 
ATOM     79  C   UNL A   1      38.540  33.508  37.860  1.00  0.00     0.006 A 
ENDBRANCH  51  72
BRANCH  63  80
ATOM     80  C   UNL A   1      44.717  27.911  34.243  1.00  0.00     0.057 A 
ATOM     81  C   UNL A   1      45.906  28.643  34.330  1.00  0.00     0.134 A 
ATOM     82  C   UNL A   1      44.602  26.758  35.032  1.00  0.00     0.134 A 
ATOM     83  F   UNL A   1      46.080  29.748  33.590  1.00  0.00    -0.206 F 
ATOM     84  C   UNL A   1      46.946  28.240  35.170  1.00  0.00     0.040 A 
ATOM     85  C   UNL A   1      45.625  26.359  35.890  1.00  0.00     0.040 A 
ATOM     86  F   UNL A   1      43.482  26.019  34.998  1.00  0.00    -0.206 F 
ATOM     87  C   UNL A   1      46.802  27.101  35.960  1.00  0.00     0.006 A 
ENDBRANCH  63  80
ENDBRANCH  37  38
ENDBRANCH  30  32
ENDBRANCH  29  30
ENDBRANCH  28  29
ENDBRANCH   1  28
TORSDOF 15
ENDMDL
