MODEL 1
REMARK VINA RESULT:     -12.1      0.000      0.000
REMARK SMILES Cc1cc(C)cc(-c2ccc([C@@H](C)C(=O)OCCOC(=O)c3ccc(-c4c5nc(c(-c6c(F)cccc6F)c6ccc([nH]6)c(-c6c(F)cccc6F)c6nc(c(-c7c(F)cccc7F)c7ccc4[nH]7)C=C6)C=C5)cc3)cc2F)c1
REMARK SMILES IDX 17 1 16 2 14 3 15 4 12 5 13 6 11 7 8 8 9 9 77 10 10 11 76 12
REMARK SMILES IDX 78 13 7 14 1 15 2 16 3 17 79 18 4 19 5 20 6 21 18 22 19 23
REMARK SMILES IDX 20 24 21 25 22 26 23 27 75 28 24 29 74 30 25 31 26 32 27 33
REMARK SMILES IDX 68 34 28 35 73 36 67 37 69 38 29 39 72 40 66 41 65 42 30 44
REMARK SMILES IDX 56 45 39 46 55 47 40 48 43 49 54 50 70 51 41 52 42 53 53 55
REMARK SMILES IDX 71 56 44 57 31 58 32 59 37 60 33 61 34 62 36 63 38 64 35 65
REMARK SMILES IDX 57 66 58 67 63 68 59 69 60 70 62 71 64 72 61 73 45 74 46 75
REMARK SMILES IDX 51 76 47 77 48 78 50 79 52 80 49 81
REMARK H PARENT 69 43 43 54
REMARK Flexibility Score: inf
ROOT
ATOM      1  C   UNL A   1      44.005  21.169  25.447  1.00  0.00     0.274 C 
ENDROOT
BRANCH   1   2
ATOM      2  O   UNL A   1      42.812  20.380  25.272  1.00  0.00    -0.462 OA
BRANCH   2   3
ATOM      3  C   UNL A   1      42.012  20.228  26.360  1.00  0.00     0.313 C 
ATOM      4  O   UNL A   1      41.914  19.190  27.007  1.00  0.00    -0.252 OA
BRANCH   3   5
ATOM      5  C   UNL A   1      41.183  21.465  26.687  1.00  0.00     0.126 C 
ATOM      6  C   UNL A   1      41.205  21.718  28.194  1.00  0.00     0.025 C 
BRANCH   5   7
ATOM      7  C   UNL A   1      39.776  21.495  26.109  1.00  0.00    -0.031 A 
ATOM      8  C   UNL A   1      37.114  21.579  25.099  1.00  0.00     0.017 A 
ATOM      9  C   UNL A   1      37.909  20.429  24.966  1.00  0.00     0.012 A 
ATOM     10  C   UNL A   1      37.690  22.690  25.723  1.00  0.00     0.131 A 
ATOM     11  C   UNL A   1      39.216  20.386  25.462  1.00  0.00     0.005 A 
ATOM     12  C   UNL A   1      38.990  22.651  26.229  1.00  0.00     0.044 A 
ATOM     13  F   UNL A   1      36.985  23.821  25.885  1.00  0.00    -0.206 F 
BRANCH   8  14
ATOM     14  C   UNL A   1      35.720  21.581  24.632  1.00  0.00    -0.015 A 
ATOM     15  C   UNL A   1      32.545  19.470  24.885  1.00  0.00     0.044 C 
ATOM     16  C   UNL A   1      33.497  20.570  24.523  1.00  0.00    -0.050 A 
ATOM     17  C   UNL A   1      33.053  21.643  23.738  1.00  0.00     0.006 A 
ATOM     18  C   UNL A   1      34.830  20.546  24.960  1.00  0.00     0.012 A 
ATOM     19  C   UNL A   1      33.922  22.681  23.387  1.00  0.00    -0.050 A 
ATOM     20  C   UNL A   1      33.434  23.823  22.547  1.00  0.00     0.044 C 
ATOM     21  C   UNL A   1      35.246  22.641  23.840  1.00  0.00     0.012 A 
ENDBRANCH   8  14
ENDBRANCH   5   7
ENDBRANCH   3   5
ENDBRANCH   2   3
ENDBRANCH   1   2
BRANCH   1  22
ATOM     22  C   UNL A   1      44.110  22.269  24.388  1.00  0.00     0.275 C 
BRANCH  22  23
ATOM     23  O   UNL A   1      43.375  23.445  24.778  1.00  0.00    -0.458 OA
BRANCH  23  24
ATOM     24  C   UNL A   1      44.139  24.507  25.120  1.00  0.00     0.338 C 
ATOM     25  O   UNL A   1      45.194  24.856  24.619  1.00  0.00    -0.246 OA
BRANCH  24  26
ATOM     26  C   UNL A   1      43.445  25.306  26.140  1.00  0.00     0.060 A 
ATOM     27  C   UNL A   1      43.888  26.613  26.349  1.00  0.00     0.016 A 
ATOM     28  C   UNL A   1      42.445  24.758  26.943  1.00  0.00     0.016 A 
ATOM     29  C   UNL A   1      43.354  27.376  27.381  1.00  0.00     0.010 A 
ATOM     30  C   UNL A   1      41.897  25.530  27.975  1.00  0.00     0.010 A 
ATOM     31  C   UNL A   1      42.363  26.837  28.210  1.00  0.00    -0.014 A 
BRANCH  31  32
ATOM     32  C   UNL A   1      41.860  27.640  29.349  1.00  0.00     0.031 A 
ATOM     33  C   UNL A   1      42.591  27.624  30.660  1.00  0.00     0.074 A 
ATOM     34  C   UNL A   1      40.784  28.431  29.183  1.00  0.00     0.049 A 
ATOM     35  N   UNL A   1      42.297  28.241  31.776  1.00  0.00    -0.248 NA
ATOM     36  C   UNL A   1      43.815  26.811  30.722  1.00  0.00     0.031 C 
ATOM     37  C   UNL A   1      40.024  28.570  27.941  1.00  0.00     0.029 A 
ATOM     38  N   UNL A   1      40.155  29.277  30.061  1.00  0.00    -0.354 N 
ATOM     39  C   UNL A   1      43.289  27.882  32.677  1.00  0.00     0.074 A 
ATOM     40  C   UNL A   1      44.186  26.981  31.985  1.00  0.00     0.031 C 
ATOM     41  C   UNL A   1      39.039  29.465  28.131  1.00  0.00     0.029 A 
ATOM     42  C   UNL A   1      39.077  29.929  29.515  1.00  0.00     0.049 A 
ATOM     43  H   UNL A   1      40.449  29.405  30.991  1.00  0.00     0.167 HD
ATOM     44  C   UNL A   1      43.441  28.276  33.964  1.00  0.00     0.037 A 
ATOM     45  C   UNL A   1      38.209  30.794  30.073  1.00  0.00     0.037 A 
ATOM     46  C   UNL A   1      42.560  29.185  34.646  1.00  0.00     0.049 A 
ATOM     47  C   UNL A   1      38.370  31.174  31.518  1.00  0.00     0.074 A 
ATOM     48  C   UNL A   1      42.634  29.640  35.952  1.00  0.00     0.029 A 
ATOM     49  N   UNL A   1      41.448  29.785  34.076  1.00  0.00    -0.354 N 
ATOM     50  N   UNL A   1      39.296  30.806  32.369  1.00  0.00    -0.248 NA
ATOM     51  C   UNL A   1      37.360  32.082  32.082  1.00  0.00     0.031 C 
ATOM     52  C   UNL A   1      41.547  30.491  36.180  1.00  0.00     0.029 A 
ATOM     53  C   UNL A   1      40.819  30.594  35.007  1.00  0.00     0.049 A 
ATOM     54  H   UNL A   1      41.150  29.655  33.147  1.00  0.00     0.167 HD
ATOM     55  C   UNL A   1      38.988  31.441  33.564  1.00  0.00     0.074 A 
ATOM     56  C   UNL A   1      37.799  32.232  33.325  1.00  0.00     0.031 C 
ATOM     57  C   UNL A   1      39.632  31.370  34.754  1.00  0.00     0.037 A 
BRANCH  44  58
ATOM     58  C   UNL A   1      44.598  27.707  34.729  1.00  0.00     0.057 A 
ATOM     59  C   UNL A   1      44.452  26.523  35.463  1.00  0.00     0.134 A 
ATOM     60  C   UNL A   1      45.837  28.356  34.779  1.00  0.00     0.134 A 
ATOM     61  F   UNL A   1      43.288  25.858  35.457  1.00  0.00    -0.206 F 
ATOM     62  C   UNL A   1      45.499  26.009  36.229  1.00  0.00     0.040 A 
ATOM     63  C   UNL A   1      46.898  27.840  35.528  1.00  0.00     0.040 A 
ATOM     64  F   UNL A   1      46.042  29.487  34.087  1.00  0.00    -0.206 F 
ATOM     65  C   UNL A   1      46.727  26.667  36.260  1.00  0.00     0.006 A 
ENDBRANCH  44  58
BRANCH  45  66
ATOM     66  C   UNL A   1      37.104  31.351  29.258  1.00  0.00     0.057 A 
ATOM     67  C   UNL A   1      37.155  32.657  28.758  1.00  0.00     0.134 A 
ATOM     68  C   UNL A   1      35.961  30.595  28.978  1.00  0.00     0.134 A 
ATOM     69  F   UNL A   1      38.226  33.430  28.993  1.00  0.00    -0.206 F 
ATOM     70  C   UNL A   1      36.102  33.200  28.022  1.00  0.00     0.040 A 
ATOM     71  C   UNL A   1      34.907  31.117  28.227  1.00  0.00     0.040 A 
ATOM     72  F   UNL A   1      35.865  29.330  29.413  1.00  0.00    -0.206 F 
ATOM     73  C   UNL A   1      34.973  32.427  27.753  1.00  0.00     0.006 A 
ENDBRANCH  45  66
BRANCH  57  74
ATOM     74  C   UNL A   1      39.071  32.173  35.888  1.00  0.00     0.057 A 
ATOM     75  C   UNL A   1      39.436  33.513  36.067  1.00  0.00     0.134 A 
ATOM     76  C   UNL A   1      38.214  31.601  36.836  1.00  0.00     0.134 A 
ATOM     77  F   UNL A   1      40.261  34.116  35.198  1.00  0.00    -0.206 F 
ATOM     78  C   UNL A   1      38.974  34.255  37.155  1.00  0.00     0.040 A 
ATOM     79  C   UNL A   1      37.730  32.337  37.917  1.00  0.00     0.040 A 
ATOM     80  F   UNL A   1      37.819  30.324  36.712  1.00  0.00    -0.206 F 
ATOM     81  C   UNL A   1      38.116  33.666  38.083  1.00  0.00     0.006 A 
ENDBRANCH  57  74
ENDBRANCH  31  32
ENDBRANCH  24  26
ENDBRANCH  23  24
ENDBRANCH  22  23
ENDBRANCH   1  22
TORSDOF 13
ENDMDL
MODEL 2
REMARK VINA RESULT:     -12.0      0.330      6.316
REMARK SMILES Cc1cc(C)cc(-c2ccc([C@@H](C)C(=O)OCCOC(=O)c3ccc(-c4c5nc(c(-c6c(F)cccc6F)c6ccc([nH]6)c(-c6c(F)cccc6F)c6nc(c(-c7c(F)cccc7F)c7ccc4[nH]7)C=C6)C=C5)cc3)cc2F)c1
REMARK SMILES IDX 17 1 16 2 14 3 15 4 12 5 13 6 11 7 8 8 9 9 77 10 10 11 76 12
REMARK SMILES IDX 78 13 7 14 1 15 2 16 3 17 79 18 4 19 5 20 6 21 18 22 19 23
REMARK SMILES IDX 20 24 21 25 22 26 23 27 75 28 24 29 74 30 25 31 26 32 27 33
REMARK SMILES IDX 68 34 28 35 73 36 67 37 69 38 29 39 72 40 66 41 65 42 30 44
REMARK SMILES IDX 56 45 39 46 55 47 40 48 43 49 54 50 70 51 41 52 42 53 53 55
REMARK SMILES IDX 71 56 44 57 31 58 32 59 37 60 33 61 34 62 36 63 38 64 35 65
REMARK SMILES IDX 57 66 58 67 63 68 59 69 60 70 62 71 64 72 61 73 45 74 46 75
REMARK SMILES IDX 51 76 47 77 48 78 50 79 52 80 49 81
REMARK H PARENT 69 43 43 54
REMARK Flexibility Score: inf
ROOT
ATOM      1  C   UNL A   1      43.846  21.718  25.624  1.00  0.00     0.274 C 
ENDROOT
BRANCH   1   2
ATOM      2  O   UNL A   1      42.780  20.778  25.393  1.00  0.00    -0.462 OA
BRANCH   2   3
ATOM      3  C   UNL A   1      41.898  20.588  26.411  1.00  0.00     0.313 C 
ATOM      4  O   UNL A   1      41.755  19.528  27.012  1.00  0.00    -0.252 OA
BRANCH   3   5
ATOM      5  C   UNL A   1      41.042  21.811  26.715  1.00  0.00     0.126 C 
ATOM      6  C   UNL A   1      41.033  22.074  28.220  1.00  0.00     0.025 C 
BRANCH   5   7
ATOM      7  C   UNL A   1      39.645  21.811  26.113  1.00  0.00    -0.031 A 
ATOM      8  C   UNL A   1      37.000  21.841  25.055  1.00  0.00     0.017 A 
ATOM      9  C   UNL A   1      37.820  20.707  24.938  1.00  0.00     0.012 A 
ATOM     10  C   UNL A   1      37.542  22.963  25.688  1.00  0.00     0.131 A 
ATOM     11  C   UNL A   1      39.119  20.691  25.456  1.00  0.00     0.005 A 
ATOM     12  C   UNL A   1      38.834  22.952  26.217  1.00  0.00     0.044 A 
ATOM     13  F   UNL A   1      36.811  24.080  25.836  1.00  0.00    -0.206 F 
BRANCH   8  14
ATOM     14  C   UNL A   1      35.614  21.813  24.564  1.00  0.00    -0.015 A 
ATOM     15  C   UNL A   1      33.260  23.823  22.323  1.00  0.00     0.044 C 
ATOM     16  C   UNL A   1      33.792  22.762  23.240  1.00  0.00    -0.050 A 
ATOM     17  C   UNL A   1      32.964  21.700  23.628  1.00  0.00     0.006 A 
ATOM     18  C   UNL A   1      35.111  22.811  23.715  1.00  0.00     0.012 A 
ATOM     19  C   UNL A   1      33.436  20.698  24.482  1.00  0.00    -0.050 A 
ATOM     20  C   UNL A   1      32.539  19.569  24.890  1.00  0.00     0.044 C 
ATOM     21  C   UNL A   1      34.757  20.764  24.939  1.00  0.00     0.012 A 
ENDBRANCH   8  14
ENDBRANCH   5   7
ENDBRANCH   3   5
ENDBRANCH   2   3
ENDBRANCH   1   2
BRANCH   1  22
ATOM     22  C   UNL A   1      44.010  22.682  24.446  1.00  0.00     0.275 C 
BRANCH  22  23
ATOM     23  O   UNL A   1      43.328  23.927  24.688  1.00  0.00    -0.458 OA
BRANCH  23  24
ATOM     24  C   UNL A   1      44.121  24.938  25.110  1.00  0.00     0.338 C 
ATOM     25  O   UNL A   1      45.194  25.284  24.647  1.00  0.00    -0.246 OA
BRANCH  24  26
ATOM     26  C   UNL A   1      43.439  25.691  26.172  1.00  0.00     0.060 A 
ATOM     27  C   UNL A   1      43.845  27.007  26.395  1.00  0.00     0.016 A 
ATOM     28  C   UNL A   1      42.487  25.092  26.997  1.00  0.00     0.016 A 
ATOM     29  C   UNL A   1      43.324  27.730  27.462  1.00  0.00     0.010 A 
ATOM     30  C   UNL A   1      41.952  25.823  28.066  1.00  0.00     0.010 A 
ATOM     31  C   UNL A   1      42.382  27.139  28.313  1.00  0.00    -0.014 A 
BRANCH  31  32
ATOM     32  C   UNL A   1      41.894  27.899  29.488  1.00  0.00     0.031 A 
ATOM     33  C   UNL A   1      40.656  28.741  29.376  1.00  0.00     0.074 A 
ATOM     34  C   UNL A   1      42.529  27.781  30.668  1.00  0.00     0.049 A 
ATOM     35  N   UNL A   1      40.085  29.492  30.283  1.00  0.00    -0.248 NA
ATOM     36  C   UNL A   1      39.967  28.732  28.076  1.00  0.00     0.031 C 
ATOM     37  C   UNL A   1      43.709  26.952  30.912  1.00  0.00     0.029 A 
ATOM     38  N   UNL A   1      42.257  28.349  31.887  1.00  0.00    -0.354 N 
ATOM     39  C   UNL A   1      38.979  30.057  29.662  1.00  0.00     0.074 A 
ATOM     40  C   UNL A   1      38.966  29.574  28.297  1.00  0.00     0.031 C 
ATOM     41  C   UNL A   1      44.051  27.052  32.207  1.00  0.00     0.029 A 
ATOM     42  C   UNL A   1      43.140  27.979  32.872  1.00  0.00     0.049 A 
ATOM     43  H   UNL A   1      41.503  28.962  32.042  1.00  0.00     0.167 HD
ATOM     44  C   UNL A   1      38.055  30.896  30.187  1.00  0.00     0.037 A 
ATOM     45  C   UNL A   1      43.213  28.357  34.162  1.00  0.00     0.037 A 
ATOM     46  C   UNL A   1      38.058  31.361  31.549  1.00  0.00     0.049 A 
ATOM     47  C   UNL A   1      42.206  29.329  34.707  1.00  0.00     0.074 A 
ATOM     48  C   UNL A   1      37.162  32.214  32.169  1.00  0.00     0.029 A 
ATOM     49  N   UNL A   1      38.998  31.005  32.502  1.00  0.00    -0.354 N 
ATOM     50  N   UNL A   1      41.181  29.878  34.102  1.00  0.00    -0.248 NA
ATOM     51  C   UNL A   1      42.370  29.742  36.108  1.00  0.00     0.031 C 
ATOM     52  C   UNL A   1      37.580  32.400  33.491  1.00  0.00     0.029 A 
ATOM     53  C   UNL A   1      38.714  31.634  33.703  1.00  0.00     0.049 A 
ATOM     54  H   UNL A   1      39.756  30.396  32.349  1.00  0.00     0.167 HD
ATOM     55  C   UNL A   1      40.573  30.693  35.048  1.00  0.00     0.074 A 
ATOM     56  C   UNL A   1      41.333  30.553  36.273  1.00  0.00     0.031 C 
ATOM     57  C   UNL A   1      39.485  31.488  34.911  1.00  0.00     0.037 A 
BRANCH  44  58
ATOM     58  C   UNL A   1      36.968  31.383  29.278  1.00  0.00     0.057 A 
ATOM     59  C   UNL A   1      36.997  32.688  28.771  1.00  0.00     0.134 A 
ATOM     60  C   UNL A   1      35.871  30.580  28.945  1.00  0.00     0.134 A 
ATOM     61  F   UNL A   1      38.019  33.507  29.057  1.00  0.00    -0.206 F 
ATOM     62  C   UNL A   1      35.965  33.181  27.971  1.00  0.00     0.040 A 
ATOM     63  C   UNL A   1      34.842  31.056  28.130  1.00  0.00     0.040 A 
ATOM     64  F   UNL A   1      35.793  29.316  29.390  1.00  0.00    -0.206 F 
ATOM     65  C   UNL A   1      34.885  32.362  27.647  1.00  0.00     0.006 A 
ENDBRANCH  44  58
BRANCH  45  66
ATOM     66  C   UNL A   1      44.290  27.815  35.024  1.00  0.00     0.057 A 
ATOM     67  C   UNL A   1      45.556  28.411  35.070  1.00  0.00     0.134 A 
ATOM     68  C   UNL A   1      44.083  26.674  35.807  1.00  0.00     0.134 A 
ATOM     69  F   UNL A   1      45.814  29.507  34.342  1.00  0.00    -0.206 F 
ATOM     70  C   UNL A   1      46.584  27.883  35.850  1.00  0.00     0.040 A 
ATOM     71  C   UNL A   1      45.097  26.146  36.608  1.00  0.00     0.040 A 
ATOM     72  F   UNL A   1      42.885  26.072  35.820  1.00  0.00    -0.206 F 
ATOM     73  C   UNL A   1      46.355  26.747  36.625  1.00  0.00     0.006 A 
ENDBRANCH  45  66
BRANCH  57  74
ATOM     74  C   UNL A   1      39.045  32.264  36.115  1.00  0.00     0.057 A 
ATOM     75  C   UNL A   1      39.508  33.566  36.337  1.00  0.00     0.134 A 
ATOM     76  C   UNL A   1      38.206  31.698  37.083  1.00  0.00     0.134 A 
ATOM     77  F   UNL A   1      40.321  34.161  35.451  1.00  0.00    -0.206 F 
ATOM     78  C   UNL A   1      39.160  34.277  37.487  1.00  0.00     0.040 A 
ATOM     79  C   UNL A   1      37.835  32.406  38.227  1.00  0.00     0.040 A 
ATOM     80  F   UNL A   1      37.720  30.458  36.920  1.00  0.00    -0.206 F 
ATOM     81  C   UNL A   1      38.319  33.696  38.435  1.00  0.00     0.006 A 
ENDBRANCH  57  74
ENDBRANCH  31  32
ENDBRANCH  24  26
ENDBRANCH  23  24
ENDBRANCH  22  23
ENDBRANCH   1  22
TORSDOF 13
ENDMDL
MODEL 3
REMARK VINA RESULT:     -11.9      5.370     10.722
REMARK SMILES Cc1cc(C)cc(-c2ccc([C@@H](C)C(=O)OCCOC(=O)c3ccc(-c4c5nc(c(-c6c(F)cccc6F)c6ccc([nH]6)c(-c6c(F)cccc6F)c6nc(c(-c7c(F)cccc7F)c7ccc4[nH]7)C=C6)C=C5)cc3)cc2F)c1
REMARK SMILES IDX 17 1 16 2 14 3 15 4 12 5 13 6 11 7 8 8 9 9 77 10 10 11 76 12
REMARK SMILES IDX 78 13 7 14 1 15 2 16 3 17 79 18 4 19 5 20 6 21 18 22 19 23
REMARK SMILES IDX 20 24 21 25 22 26 23 27 75 28 24 29 74 30 25 31 26 32 27 33
REMARK SMILES IDX 68 34 28 35 73 36 67 37 69 38 29 39 72 40 66 41 65 42 30 44
REMARK SMILES IDX 56 45 39 46 55 47 40 48 43 49 54 50 70 51 41 52 42 53 53 55
REMARK SMILES IDX 71 56 44 57 31 58 32 59 37 60 33 61 34 62 36 63 38 64 35 65
REMARK SMILES IDX 57 66 58 67 63 68 59 69 60 70 62 71 64 72 61 73 45 74 46 75
REMARK SMILES IDX 51 76 47 77 48 78 50 79 52 80 49 81
REMARK H PARENT 69 43 43 54
REMARK Flexibility Score: inf
ROOT
ATOM      1  C   UNL A   1      34.645  34.281  31.483  1.00  0.00     0.274 C 
ENDROOT
BRANCH   1   2
ATOM      2  O   UNL A   1      33.650  34.199  30.444  1.00  0.00    -0.462 OA
BRANCH   2   3
ATOM      3  C   UNL A   1      34.101  34.219  29.161  1.00  0.00     0.313 C 
ATOM      4  O   UNL A   1      33.897  35.137  28.373  1.00  0.00    -0.252 OA
BRANCH   3   5
ATOM      5  C   UNL A   1      34.849  32.956  28.755  1.00  0.00     0.126 C 
ATOM      6  C   UNL A   1      36.124  33.330  28.001  1.00  0.00     0.025 C 
BRANCH   5   7
ATOM      7  C   UNL A   1      34.028  31.901  28.028  1.00  0.00    -0.031 A 
ATOM      8  C   UNL A   1      32.554  29.914  26.617  1.00  0.00     0.017 A 
ATOM      9  C   UNL A   1      32.006  31.180  26.878  1.00  0.00     0.012 A 
ATOM     10  C   UNL A   1      33.841  29.658  27.100  1.00  0.00     0.131 A 
ATOM     11  C   UNL A   1      32.729  32.157  27.571  1.00  0.00     0.005 A 
ATOM     12  C   UNL A   1      34.572  30.631  27.783  1.00  0.00     0.044 A 
ATOM     13  F   UNL A   1      34.425  28.468  26.883  1.00  0.00    -0.206 F 
BRANCH   8  14
ATOM     14  C   UNL A   1      31.804  28.925  25.828  1.00  0.00    -0.015 A 
ATOM     15  C   UNL A   1      30.433  25.371  26.126  1.00  0.00     0.044 C 
ATOM     16  C   UNL A   1      30.768  26.726  25.577  1.00  0.00    -0.050 A 
ATOM     17  C   UNL A   1      30.343  27.078  24.289  1.00  0.00     0.006 A 
ATOM     18  C   UNL A   1      31.500  27.652  26.335  1.00  0.00     0.012 A 
ATOM     19  C   UNL A   1      30.642  28.335  23.755  1.00  0.00    -0.050 A 
ATOM     20  C   UNL A   1      30.182  28.699  22.376  1.00  0.00     0.044 C 
ATOM     21  C   UNL A   1      31.368  29.247  24.531  1.00  0.00     0.012 A 
ENDBRANCH   8  14
ENDBRANCH   5   7
ENDBRANCH   3   5
ENDBRANCH   2   3
ENDBRANCH   1   2
BRANCH   1  22
ATOM     22  C   UNL A   1      34.395  33.245  32.583  1.00  0.00     0.275 C 
BRANCH  22  23
ATOM     23  O   UNL A   1      35.157  32.044  32.354  1.00  0.00    -0.458 OA
BRANCH  23  24
ATOM     24  C   UNL A   1      36.332  31.980  33.019  1.00  0.00     0.338 C 
ATOM     25  O   UNL A   1      36.545  32.274  34.183  1.00  0.00    -0.246 OA
BRANCH  24  26
ATOM     26  C   UNL A   1      37.353  31.360  32.162  1.00  0.00     0.060 A 
ATOM     27  C   UNL A   1      38.438  30.746  32.788  1.00  0.00     0.016 A 
ATOM     28  C   UNL A   1      37.299  31.460  30.771  1.00  0.00     0.016 A 
ATOM     29  C   UNL A   1      39.494  30.250  32.032  1.00  0.00     0.010 A 
ATOM     30  C   UNL A   1      38.356  30.950  30.008  1.00  0.00     0.010 A 
ATOM     31  C   UNL A   1      39.467  30.359  30.636  1.00  0.00    -0.014 A 
BRANCH  31  32
ATOM     32  C   UNL A   1      40.635  29.891  29.854  1.00  0.00     0.031 A 
ATOM     33  C   UNL A   1      41.805  30.804  29.632  1.00  0.00     0.074 A 
ATOM     34  C   UNL A   1      40.668  28.625  29.399  1.00  0.00     0.049 A 
ATOM     35  N   UNL A   1      42.906  30.586  28.959  1.00  0.00    -0.248 NA
ATOM     36  C   UNL A   1      41.728  32.137  30.251  1.00  0.00     0.031 C 
ATOM     37  C   UNL A   1      39.615  27.629  29.599  1.00  0.00     0.029 A 
ATOM     38  N   UNL A   1      41.633  27.957  28.689  1.00  0.00    -0.354 N 
ATOM     39  C   UNL A   1      43.648  31.754  29.062  1.00  0.00     0.074 A 
ATOM     40  C   UNL A   1      42.866  32.686  29.848  1.00  0.00     0.031 C 
ATOM     41  C   UNL A   1      39.999  26.470  29.038  1.00  0.00     0.029 A 
ATOM     42  C   UNL A   1      41.304  26.654  28.409  1.00  0.00     0.049 A 
ATOM     43  H   UNL A   1      42.480  28.372  28.407  1.00  0.00     0.167 HD
ATOM     44  C   UNL A   1      44.874  32.021  28.552  1.00  0.00     0.037 A 
ATOM     45  C   UNL A   1      41.974  25.718  27.712  1.00  0.00     0.037 A 
ATOM     46  C   UNL A   1      45.658  31.089  27.787  1.00  0.00     0.049 A 
ATOM     47  C   UNL A   1      43.310  26.056  27.112  1.00  0.00     0.074 A 
ATOM     48  C   UNL A   1      46.911  31.272  27.228  1.00  0.00     0.029 A 
ATOM     49  N   UNL A   1      45.268  29.795  27.480  1.00  0.00    -0.354 N 
ATOM     50  N   UNL A   1      43.989  27.174  27.192  1.00  0.00    -0.248 NA
ATOM     51  C   UNL A   1      43.967  25.007  26.319  1.00  0.00     0.031 C 
ATOM     52  C   UNL A   1      47.265  30.099  26.554  1.00  0.00     0.029 A 
ATOM     53  C   UNL A   1      46.250  29.173  26.726  1.00  0.00     0.049 A 
ATOM     54  H   UNL A   1      44.420  29.379  27.756  1.00  0.00     0.167 HD
ATOM     55  C   UNL A   1      45.155  26.963  26.468  1.00  0.00     0.074 A 
ATOM     56  C   UNL A   1      45.100  25.604  25.971  1.00  0.00     0.031 C 
ATOM     57  C   UNL A   1      46.177  27.822  26.234  1.00  0.00     0.037 A 
BRANCH  44  58
ATOM     58  C   UNL A   1      45.438  33.389  28.790  1.00  0.00     0.057 A 
ATOM     59  C   UNL A   1      45.167  34.435  27.899  1.00  0.00     0.134 A 
ATOM     60  C   UNL A   1      46.287  33.658  29.870  1.00  0.00     0.134 A 
ATOM     61  F   UNL A   1      44.364  34.239  26.843  1.00  0.00    -0.206 F 
ATOM     62  C   UNL A   1      45.730  35.700  28.069  1.00  0.00     0.040 A 
ATOM     63  C   UNL A   1      46.842  34.925  30.060  1.00  0.00     0.040 A 
ATOM     64  F   UNL A   1      46.574  32.700  30.764  1.00  0.00    -0.206 F 
ATOM     65  C   UNL A   1      46.569  35.948  29.154  1.00  0.00     0.006 A 
ENDBRANCH  44  58
BRANCH  45  66
ATOM     66  C   UNL A   1      41.382  24.370  27.538  1.00  0.00     0.057 A 
ATOM     67  C   UNL A   1      40.332  24.146  26.640  1.00  0.00     0.134 A 
ATOM     68  C   UNL A   1      41.841  23.278  28.283  1.00  0.00     0.134 A 
ATOM     69  F   UNL A   1      39.849  25.154  25.898  1.00  0.00    -0.206 F 
ATOM     70  C   UNL A   1      39.746  22.888  26.501  1.00  0.00     0.040 A 
ATOM     71  C   UNL A   1      41.278  22.010  28.140  1.00  0.00     0.040 A 
ATOM     72  F   UNL A   1      42.859  23.428  29.143  1.00  0.00    -0.206 F 
ATOM     73  C   UNL A   1      40.220  21.814  27.251  1.00  0.00     0.006 A 
ENDBRANCH  45  66
BRANCH  57  74
ATOM     74  C   UNL A   1      47.323  27.317  25.411  1.00  0.00     0.057 A 
ATOM     75  C   UNL A   1      48.388  26.633  26.009  1.00  0.00     0.134 A 
ATOM     76  C   UNL A   1      47.398  27.562  24.035  1.00  0.00     0.134 A 
ATOM     77  F   UNL A   1      48.378  26.375  27.326  1.00  0.00    -0.206 F 
ATOM     78  C   UNL A   1      49.493  26.215  25.267  1.00  0.00     0.040 A 
ATOM     79  C   UNL A   1      48.489  27.132  23.278  1.00  0.00     0.040 A 
ATOM     80  F   UNL A   1      46.403  28.203  23.403  1.00  0.00    -0.206 F 
ATOM     81  C   UNL A   1      49.545  26.463  23.897  1.00  0.00     0.006 A 
ENDBRANCH  57  74
ENDBRANCH  31  32
ENDBRANCH  24  26
ENDBRANCH  23  24
ENDBRANCH  22  23
ENDBRANCH   1  22
TORSDOF 13
ENDMDL
