MODEL 1
REMARK VINA RESULT:     -12.2      0.000      0.000
REMARK SMILES O=C(OCCOC(=O)c1ccc(-c2c3nc(c(-c4c(F)cccc4F)c4ccc([nH]4)c(-c4c(F)cccc4F)c4nc(c(-c5c(F)cccc5F)c5ccc2[nH]5)C=C4)C=C3)cc1)C1=Cc2cc(S(F)(F)(F)(F)F)cc(Br)c2O[C@@H]1C(F)(F)F
REMARK SMILES IDX 5 1 4 2 3 3 2 4 1 5 63 6 64 7 79 8 65 9 78 10 66 11 77 12
REMARK SMILES IDX 67 13 75 14 74 15 76 16 80 17 81 18 82 19 83 20 68 21 69 22
REMARK SMILES IDX 70 23 71 24 72 25 73 26 6 27 7 28 8 29 9 30 10 31 62 32
REMARK SMILES IDX 11 33 61 34 12 35 13 36 14 37 55 38 15 39 60 40 54 41 56 42
REMARK SMILES IDX 16 43 59 44 53 45 52 46 17 48 43 49 26 50 42 51 27 52 30 53
REMARK SMILES IDX 41 54 57 55 28 56 29 57 40 59 58 60 31 61 18 62 19 63 24 64
REMARK SMILES IDX 20 65 21 66 23 67 25 68 22 69 44 70 45 71 50 72 46 73 47 74
REMARK SMILES IDX 49 75 51 76 48 77 32 78 33 79 38 80 34 81 35 82 37 83 39 84
REMARK SMILES IDX 36 85
REMARK H PARENT 56 47 30 58
REMARK Flexibility Score: inf
ROOT
ATOM      1  C   UNL A   1      38.578  22.831  25.761  1.00  0.00     0.275 C 
ENDROOT
BRANCH   1   2
ATOM      2  C   UNL A   1      37.350  23.709  25.934  1.00  0.00     0.275 C 
BRANCH   2   3
ATOM      3  O   UNL A   1      36.783  23.984  24.662  1.00  0.00    -0.459 OA
BRANCH   3   4
ATOM      4  C   UNL A   1      35.887  23.056  24.068  1.00  0.00     0.338 C 
ATOM      5  O   UNL A   1      35.909  22.867  22.811  1.00  0.00    -0.246 OA
BRANCH   4   6
ATOM      6  C   UNL A   1      34.902  22.290  24.935  1.00  0.00     0.087 C 
ATOM      7  C   UNL A   1      33.828  22.929  25.472  1.00  0.00     0.027 C 
ATOM      8  C   UNL A   1      35.116  20.809  25.202  1.00  0.00     0.316 C 
ATOM      9  C   UNL A   1      33.614  24.410  25.205  1.00  0.00     0.020 A 
ATOM     10  O   UNL A   1      34.271  24.030  22.953  1.00  0.00    -0.474 OA
ATOM     11  C   UNL A   1      33.266  25.246  26.253  1.00  0.00     0.036 A 
ATOM     12  C   UNL A   1      33.760  24.878  23.970  1.00  0.00     0.142 A 
ATOM     13  C   UNL A   1      32.808  26.521  25.843  1.00  0.00     0.109 A 
ATOM     14  C   UNL A   1      33.420  26.174  23.669  1.00  0.00     0.062 A 
ATOM     15  C   UNL A   1      33.011  27.040  24.645  1.00  0.00     0.044 A 
ATOM     16  Br  UNL A   1      33.522  26.792  21.812  1.00  0.00    -0.047 Br
BRANCH   8  17
ATOM     17  C   UNL A   1      33.923  20.023  24.683  1.00  0.00     0.430 C 
ATOM     18  F   UNL A   1      33.029  19.878  25.657  1.00  0.00    -0.167 F 
ATOM     19  F   UNL A   1      33.368  20.677  23.667  1.00  0.00    -0.167 F 
ATOM     20  F   UNL A   1      34.328  18.825  24.271  1.00  0.00    -0.167 F 
ENDBRANCH   8  17
BRANCH  13  21
ATOM     21  S   UNL A   1      31.879  27.507  27.042  1.00  0.00     0.310 S 
ATOM     22  F   UNL A   1      31.604  28.653  25.979  1.00  0.00    -0.094 F 
ATOM     23  F   UNL A   1      33.211  28.263  27.410  1.00  0.00    -0.094 F 
ATOM     24  F   UNL A   1      31.081  28.357  28.072  1.00  0.00    -0.094 F 
ATOM     25  F   UNL A   1      30.532  26.839  26.561  1.00  0.00    -0.094 F 
ATOM     26  F   UNL A   1      32.656  26.720  25.913  1.00  0.00    -0.094 F 
ENDBRANCH  13  21
ENDBRANCH   4   6
ENDBRANCH   3   4
ENDBRANCH   2   3
ENDBRANCH   1   2
BRANCH   1  27
ATOM     27  O   UNL A   1      39.510  23.109  26.797  1.00  0.00    -0.458 OA
BRANCH  27  28
ATOM     28  C   UNL A   1      40.365  24.239  26.697  1.00  0.00     0.338 C 
ATOM     29  O   UNL A   1      41.184  24.332  25.730  1.00  0.00    -0.246 OA
BRANCH  28  30
ATOM     30  C   UNL A   1      40.301  25.336  27.746  1.00  0.00     0.060 A 
ATOM     31  C   UNL A   1      39.322  25.283  28.725  1.00  0.00     0.016 A 
ATOM     32  C   UNL A   1      41.188  26.324  27.712  1.00  0.00     0.016 A 
ATOM     33  C   UNL A   1      39.182  26.484  29.461  1.00  0.00     0.010 A 
ATOM     34  C   UNL A   1      41.066  27.403  28.553  1.00  0.00     0.010 A 
ATOM     35  C   UNL A   1      40.087  27.445  29.506  1.00  0.00    -0.014 A 
BRANCH  35  36
ATOM     36  C   UNL A   1      40.041  28.539  30.561  1.00  0.00     0.031 A 
ATOM     37  C   UNL A   1      40.910  28.439  31.647  1.00  0.00     0.074 A 
ATOM     38  C   UNL A   1      39.133  29.569  30.388  1.00  0.00     0.049 A 
ATOM     39  N   UNL A   1      41.048  29.295  32.661  1.00  0.00    -0.248 NA
ATOM     40  C   UNL A   1      41.852  27.328  31.851  1.00  0.00     0.031 C 
ATOM     41  C   UNL A   1      38.258  29.681  29.290  1.00  0.00     0.029 A 
ATOM     42  N   UNL A   1      38.908  30.645  31.217  1.00  0.00    -0.354 N 
ATOM     43  C   UNL A   1      41.995  28.870  33.499  1.00  0.00     0.074 A 
ATOM     44  C   UNL A   1      42.521  27.595  32.994  1.00  0.00     0.031 C 
ATOM     45  C   UNL A   1      37.509  30.802  29.459  1.00  0.00     0.029 A 
ATOM     46  C   UNL A   1      37.903  31.411  30.666  1.00  0.00     0.049 A 
ATOM     47  H   UNL A   1      39.383  30.836  32.058  1.00  0.00     0.167 HD
ATOM     48  C   UNL A   1      42.441  29.496  34.664  1.00  0.00     0.037 A 
ATOM     49  C   UNL A   1      37.348  32.574  31.174  1.00  0.00     0.037 A 
ATOM     50  C   UNL A   1      41.916  30.683  35.150  1.00  0.00     0.049 A 
ATOM     51  C   UNL A   1      37.755  33.170  32.371  1.00  0.00     0.074 A 
ATOM     52  C   UNL A   1      42.359  31.330  36.317  1.00  0.00     0.029 A 
ATOM     53  N   UNL A   1      40.894  31.434  34.611  1.00  0.00    -0.354 N 
ATOM     54  N   UNL A   1      38.728  32.764  33.188  1.00  0.00    -0.248 NA
ATOM     55  C   UNL A   1      37.152  34.385  32.934  1.00  0.00     0.031 C 
ATOM     56  C   UNL A   1      41.610  32.452  36.489  1.00  0.00     0.029 A 
ATOM     57  C   UNL A   1      40.685  32.523  35.429  1.00  0.00     0.049 A 
ATOM     58  H   UNL A   1      40.399  31.229  33.786  1.00  0.00     0.167 HD
ATOM     59  C   UNL A   1      38.837  33.600  34.223  1.00  0.00     0.074 A 
ATOM     60  C   UNL A   1      37.819  34.650  34.079  1.00  0.00     0.031 C 
ATOM     61  C   UNL A   1      39.746  33.532  35.279  1.00  0.00     0.037 A 
BRANCH  48  62
ATOM     62  C   UNL A   1      43.568  28.839  35.445  1.00  0.00     0.057 A 
ATOM     63  C   UNL A   1      44.867  29.242  35.180  1.00  0.00     0.134 A 
ATOM     64  C   UNL A   1      43.307  27.912  36.360  1.00  0.00     0.134 A 
ATOM     65  F   UNL A   1      45.160  30.326  34.469  1.00  0.00    -0.206 F 
ATOM     66  C   UNL A   1      45.854  28.394  35.736  1.00  0.00     0.040 A 
ATOM     67  C   UNL A   1      44.327  27.216  36.962  1.00  0.00     0.040 A 
ATOM     68  F   UNL A   1      42.047  27.655  36.696  1.00  0.00    -0.206 F 
ATOM     69  C   UNL A   1      45.635  27.522  36.703  1.00  0.00     0.006 A 
ENDBRANCH  48  62
BRANCH  49  70
ATOM     70  C   UNL A   1      36.233  33.240  30.384  1.00  0.00     0.057 A 
ATOM     71  C   UNL A   1      34.923  32.964  30.740  1.00  0.00     0.134 A 
ATOM     72  C   UNL A   1      36.515  34.075  29.391  1.00  0.00     0.134 A 
ATOM     73  F   UNL A   1      34.594  32.344  31.870  1.00  0.00    -0.206 F 
ATOM     74  C   UNL A   1      33.967  33.399  29.793  1.00  0.00     0.040 A 
ATOM     75  C   UNL A   1      35.517  34.571  28.589  1.00  0.00     0.040 A 
ATOM     76  F   UNL A   1      37.777  34.435  29.172  1.00  0.00    -0.206 F 
ATOM     77  C   UNL A   1      34.202  34.291  28.846  1.00  0.00     0.006 A 
ENDBRANCH  49  70
BRANCH  61  78
ATOM     78  C   UNL A   1      39.705  34.629  36.329  1.00  0.00     0.057 A 
ATOM     79  C   UNL A   1      40.407  35.803  36.111  1.00  0.00     0.134 A 
ATOM     80  C   UNL A   1      38.991  34.450  37.435  1.00  0.00     0.134 A 
ATOM     81  F   UNL A   1      40.922  36.132  34.930  1.00  0.00    -0.206 F 
ATOM     82  C   UNL A   1      40.527  36.622  37.260  1.00  0.00     0.040 A 
ATOM     83  C   UNL A   1      39.050  35.359  38.462  1.00  0.00     0.040 A 
ATOM     84  F   UNL A   1      38.209  33.379  37.546  1.00  0.00    -0.206 F 
ATOM     85  C   UNL A   1      39.773  36.514  38.339  1.00  0.00     0.006 A 
ENDBRANCH  61  78
ENDBRANCH  35  36
ENDBRANCH  28  30
ENDBRANCH  27  28
ENDBRANCH   1  27
TORSDOF 13
ENDMDL
MODEL 2
REMARK VINA RESULT:     -12.1      3.687      4.586
REMARK SMILES O=C(OCCOC(=O)c1ccc(-c2c3nc(c(-c4c(F)cccc4F)c4ccc([nH]4)c(-c4c(F)cccc4F)c4nc(c(-c5c(F)cccc5F)c5ccc2[nH]5)C=C4)C=C3)cc1)C1=Cc2cc(S(F)(F)(F)(F)F)cc(Br)c2O[C@@H]1C(F)(F)F
REMARK SMILES IDX 5 1 4 2 3 3 2 4 1 5 63 6 64 7 79 8 65 9 78 10 66 11 77 12
REMARK SMILES IDX 67 13 75 14 74 15 76 16 80 17 81 18 82 19 83 20 68 21 69 22
REMARK SMILES IDX 70 23 71 24 72 25 73 26 6 27 7 28 8 29 9 30 10 31 62 32
REMARK SMILES IDX 11 33 61 34 12 35 13 36 14 37 55 38 15 39 60 40 54 41 56 42
REMARK SMILES IDX 16 43 59 44 53 45 52 46 17 48 43 49 26 50 42 51 27 52 30 53
REMARK SMILES IDX 41 54 57 55 28 56 29 57 40 59 58 60 31 61 18 62 19 63 24 64
REMARK SMILES IDX 20 65 21 66 23 67 25 68 22 69 44 70 45 71 50 72 46 73 47 74
REMARK SMILES IDX 49 75 51 76 48 77 32 78 33 79 38 80 34 81 35 82 37 83 39 84
REMARK SMILES IDX 36 85
REMARK H PARENT 56 47 30 58
REMARK Flexibility Score: inf
ROOT
ATOM      1  C   UNL A   1      37.392  21.985  25.645  1.00  0.00     0.275 C 
ENDROOT
BRANCH   1   2
ATOM      2  C   UNL A   1      36.677  23.309  25.863  1.00  0.00     0.275 C 
BRANCH   2   3
ATOM      3  O   UNL A   1      36.243  23.824  24.613  1.00  0.00    -0.459 OA
BRANCH   3   4
ATOM      4  C   UNL A   1      35.307  23.096  23.832  1.00  0.00     0.338 C 
ATOM      5  O   UNL A   1      35.458  23.013  22.573  1.00  0.00    -0.246 OA
BRANCH   4   6
ATOM      6  C   UNL A   1      34.124  22.416  24.502  1.00  0.00     0.087 C 
ATOM      7  C   UNL A   1      33.135  23.166  25.058  1.00  0.00     0.027 C 
ATOM      8  C   UNL A   1      34.046  20.899  24.550  1.00  0.00     0.316 C 
ATOM      9  C   UNL A   1      33.212  24.683  25.010  1.00  0.00     0.020 A 
ATOM     10  O   UNL A   1      34.001  24.504  22.776  1.00  0.00    -0.474 OA
ATOM     11  C   UNL A   1      32.921  25.414  26.149  1.00  0.00     0.036 A 
ATOM     12  C   UNL A   1      33.554  25.282  23.875  1.00  0.00     0.142 A 
ATOM     13  C   UNL A   1      32.736  26.797  25.912  1.00  0.00     0.109 A 
ATOM     14  C   UNL A   1      33.479  26.649  23.756  1.00  0.00     0.062 A 
ATOM     15  C   UNL A   1      33.140  27.431  24.825  1.00  0.00     0.044 A 
ATOM     16  Br  UNL A   1      33.865  27.490  22.028  1.00  0.00    -0.047 Br
BRANCH   8  17
ATOM     17  C   UNL A   1      32.787  20.433  23.837  1.00  0.00     0.430 C 
ATOM     18  F   UNL A   1      32.544  21.230  22.800  1.00  0.00    -0.167 F 
ATOM     19  F   UNL A   1      32.957  19.186  23.407  1.00  0.00    -0.167 F 
ATOM     20  F   UNL A   1      31.760  20.476  24.679  1.00  0.00    -0.167 F 
ENDBRANCH   8  17
BRANCH  13  21
ATOM     21  S   UNL A   1      31.887  27.765  27.184  1.00  0.00     0.310 S 
ATOM     22  F   UNL A   1      31.660  28.983  26.193  1.00  0.00    -0.094 F 
ATOM     23  F   UNL A   1      33.268  28.422  27.564  1.00  0.00    -0.094 F 
ATOM     24  F   UNL A   1      31.158  28.598  28.277  1.00  0.00    -0.094 F 
ATOM     25  F   UNL A   1      30.496  27.202  26.695  1.00  0.00    -0.094 F 
ATOM     26  F   UNL A   1      32.597  27.000  25.996  1.00  0.00    -0.094 F 
ENDBRANCH  13  21
ENDBRANCH   4   6
ENDBRANCH   3   4
ENDBRANCH   2   3
ENDBRANCH   1   2
BRANCH   1  27
ATOM     27  O   UNL A   1      38.775  22.225  25.429  1.00  0.00    -0.458 OA
BRANCH  27  28
ATOM     28  C   UNL A   1      39.652  22.372  26.537  1.00  0.00     0.338 C 
ATOM     29  O   UNL A   1      40.089  21.343  27.142  1.00  0.00    -0.246 OA
BRANCH  28  30
ATOM     30  C   UNL A   1      40.067  23.759  26.999  1.00  0.00     0.060 A 
ATOM     31  C   UNL A   1      40.462  23.947  28.312  1.00  0.00     0.016 A 
ATOM     32  C   UNL A   1      40.050  24.766  26.133  1.00  0.00     0.016 A 
ATOM     33  C   UNL A   1      40.549  25.307  28.696  1.00  0.00     0.010 A 
ATOM     34  C   UNL A   1      40.277  26.054  26.554  1.00  0.00     0.010 A 
ATOM     35  C   UNL A   1      40.615  26.320  27.852  1.00  0.00    -0.014 A 
BRANCH  35  36
ATOM     36  C   UNL A   1      41.044  27.708  28.300  1.00  0.00     0.031 A 
ATOM     37  C   UNL A   1      42.404  28.016  28.268  1.00  0.00     0.074 A 
ATOM     38  C   UNL A   1      40.061  28.586  28.723  1.00  0.00     0.049 A 
ATOM     39  N   UNL A   1      42.984  29.173  28.592  1.00  0.00    -0.248 NA
ATOM     40  C   UNL A   1      43.454  27.075  27.852  1.00  0.00     0.031 C 
ATOM     41  C   UNL A   1      38.685  28.285  28.749  1.00  0.00     0.029 A 
ATOM     42  N   UNL A   1      40.219  29.874  29.183  1.00  0.00    -0.354 N 
ATOM     43  C   UNL A   1      44.305  29.094  28.415  1.00  0.00     0.074 A 
ATOM     44  C   UNL A   1      44.626  27.740  27.943  1.00  0.00     0.031 C 
ATOM     45  C   UNL A   1      38.025  29.371  29.230  1.00  0.00     0.029 A 
ATOM     46  C   UNL A   1      38.976  30.370  29.511  1.00  0.00     0.049 A 
ATOM     47  H   UNL A   1      41.073  30.358  29.265  1.00  0.00     0.167 HD
ATOM     48  C   UNL A   1      45.252  30.096  28.627  1.00  0.00     0.037 A 
ATOM     49  C   UNL A   1      38.671  31.619  30.028  1.00  0.00     0.037 A 
ATOM     50  C   UNL A   1      44.941  31.360  29.103  1.00  0.00     0.049 A 
ATOM     51  C   UNL A   1      39.626  32.603  30.295  1.00  0.00     0.074 A 
ATOM     52  C   UNL A   1      45.883  32.384  29.315  1.00  0.00     0.029 A 
ATOM     53  N   UNL A   1      43.701  31.846  29.454  1.00  0.00    -0.354 N 
ATOM     54  N   UNL A   1      40.941  32.535  30.082  1.00  0.00    -0.248 NA
ATOM     55  C   UNL A   1      39.317  33.917  30.873  1.00  0.00     0.031 C 
ATOM     56  C   UNL A   1      45.223  33.471  29.797  1.00  0.00     0.029 A 
ATOM     57  C   UNL A   1      43.857  33.143  29.893  1.00  0.00     0.049 A 
ATOM     58  H   UNL A   1      42.851  31.354  29.400  1.00  0.00     0.167 HD
ATOM     59  C   UNL A   1      41.525  33.679  30.444  1.00  0.00     0.074 A 
ATOM     60  C   UNL A   1      40.490  34.582  30.966  1.00  0.00     0.031 C 
ATOM     61  C   UNL A   1      42.878  34.008  30.357  1.00  0.00     0.037 A 
BRANCH  48  62
ATOM     62  C   UNL A   1      46.707  29.785  28.318  1.00  0.00     0.057 A 
ATOM     63  C   UNL A   1      47.164  30.012  27.029  1.00  0.00     0.134 A 
ATOM     64  C   UNL A   1      47.515  29.317  29.262  1.00  0.00     0.134 A 
ATOM     65  F   UNL A   1      46.476  30.706  26.128  1.00  0.00    -0.206 F 
ATOM     66  C   UNL A   1      48.429  29.438  26.760  1.00  0.00     0.040 A 
ATOM     67  C   UNL A   1      48.787  28.900  28.952  1.00  0.00     0.040 A 
ATOM     68  F   UNL A   1      47.089  29.251  30.520  1.00  0.00    -0.206 F 
ATOM     69  C   UNL A   1      49.284  29.041  27.686  1.00  0.00     0.006 A 
ENDBRANCH  48  62
BRANCH  49  70
ATOM     70  C   UNL A   1      37.213  31.936  30.321  1.00  0.00     0.057 A 
ATOM     71  C   UNL A   1      36.453  32.511  29.316  1.00  0.00     0.134 A 
ATOM     72  C   UNL A   1      36.686  31.653  31.507  1.00  0.00     0.134 A 
ATOM     73  F   UNL A   1      36.858  32.579  28.051  1.00  0.00    -0.206 F 
ATOM     74  C   UNL A   1      35.209  33.019  29.756  1.00  0.00     0.040 A 
ATOM     75  C   UNL A   1      35.412  32.062  31.821  1.00  0.00     0.040 A 
ATOM     76  F   UNL A   1      37.396  30.967  32.397  1.00  0.00    -0.206 F 
ATOM     77  C   UNL A   1      34.625  32.689  30.894  1.00  0.00     0.006 A 
ENDBRANCH  49  70
BRANCH  61  78
ATOM     78  C   UNL A   1      43.305  35.398  30.799  1.00  0.00     0.057 A 
ATOM     79  C   UNL A   1      43.354  36.420  29.866  1.00  0.00     0.134 A 
ATOM     80  C   UNL A   1      43.617  35.612  32.072  1.00  0.00     0.134 A 
ATOM     81  F   UNL A   1      42.817  36.322  28.653  1.00  0.00    -0.206 F 
ATOM     82  C   UNL A   1      44.027  37.580  30.320  1.00  0.00     0.040 A 
ATOM     83  C   UNL A   1      44.143  36.817  32.470  1.00  0.00     0.040 A 
ATOM     84  F   UNL A   1      43.416  34.652  32.969  1.00  0.00    -0.206 F 
ATOM     85  C   UNL A   1      44.276  37.853  31.588  1.00  0.00     0.006 A 
ENDBRANCH  61  78
ENDBRANCH  35  36
ENDBRANCH  28  30
ENDBRANCH  27  28
ENDBRANCH   1  27
TORSDOF 13
ENDMDL
MODEL 3
REMARK VINA RESULT:     -12.1      3.665      6.730
REMARK SMILES O=C(OCCOC(=O)c1ccc(-c2c3nc(c(-c4c(F)cccc4F)c4ccc([nH]4)c(-c4c(F)cccc4F)c4nc(c(-c5c(F)cccc5F)c5ccc2[nH]5)C=C4)C=C3)cc1)C1=Cc2cc(S(F)(F)(F)(F)F)cc(Br)c2O[C@@H]1C(F)(F)F
REMARK SMILES IDX 5 1 4 2 3 3 2 4 1 5 63 6 64 7 79 8 65 9 78 10 66 11 77 12
REMARK SMILES IDX 67 13 75 14 74 15 76 16 80 17 81 18 82 19 83 20 68 21 69 22
REMARK SMILES IDX 70 23 71 24 72 25 73 26 6 27 7 28 8 29 9 30 10 31 62 32
REMARK SMILES IDX 11 33 61 34 12 35 13 36 14 37 55 38 15 39 60 40 54 41 56 42
REMARK SMILES IDX 16 43 59 44 53 45 52 46 17 48 43 49 26 50 42 51 27 52 30 53
REMARK SMILES IDX 41 54 57 55 28 56 29 57 40 59 58 60 31 61 18 62 19 63 24 64
REMARK SMILES IDX 20 65 21 66 23 67 25 68 22 69 44 70 45 71 50 72 46 73 47 74
REMARK SMILES IDX 49 75 51 76 48 77 32 78 33 79 38 80 34 81 35 82 37 83 39 84
REMARK SMILES IDX 36 85
REMARK H PARENT 56 47 30 58
REMARK Flexibility Score: inf
ROOT
ATOM      1  C   UNL A   1      37.419  21.966  25.678  1.00  0.00     0.275 C 
ENDROOT
BRANCH   1   2
ATOM      2  C   UNL A   1      36.654  23.264  25.879  1.00  0.00     0.275 C 
BRANCH   2   3
ATOM      3  O   UNL A   1      36.251  23.774  24.617  1.00  0.00    -0.459 OA
BRANCH   3   4
ATOM      4  C   UNL A   1      35.297  23.068  23.837  1.00  0.00     0.338 C 
ATOM      5  O   UNL A   1      35.431  23.002  22.575  1.00  0.00    -0.246 OA
BRANCH   4   6
ATOM      6  C   UNL A   1      34.115  22.391  24.512  1.00  0.00     0.087 C 
ATOM      7  C   UNL A   1      33.128  23.143  25.068  1.00  0.00     0.027 C 
ATOM      8  C   UNL A   1      34.037  20.874  24.565  1.00  0.00     0.316 C 
ATOM      9  C   UNL A   1      33.206  24.660  25.016  1.00  0.00     0.020 A 
ATOM     10  O   UNL A   1      33.990  24.473  22.780  1.00  0.00    -0.474 OA
ATOM     11  C   UNL A   1      32.918  25.395  26.153  1.00  0.00     0.036 A 
ATOM     12  C   UNL A   1      33.546  25.255  23.878  1.00  0.00     0.142 A 
ATOM     13  C   UNL A   1      32.734  26.777  25.912  1.00  0.00     0.109 A 
ATOM     14  C   UNL A   1      33.471  26.622  23.754  1.00  0.00     0.062 A 
ATOM     15  C   UNL A   1      33.135  27.408  24.822  1.00  0.00     0.044 A 
ATOM     16  Br  UNL A   1      33.853  27.457  22.023  1.00  0.00    -0.047 Br
BRANCH   8  17
ATOM     17  C   UNL A   1      32.776  20.407  23.856  1.00  0.00     0.430 C 
ATOM     18  F   UNL A   1      32.532  21.199  22.816  1.00  0.00    -0.167 F 
ATOM     19  F   UNL A   1      32.943  19.157  23.431  1.00  0.00    -0.167 F 
ATOM     20  F   UNL A   1      31.750  20.454  24.701  1.00  0.00    -0.167 F 
ENDBRANCH   8  17
BRANCH  13  21
ATOM     21  S   UNL A   1      31.888  27.749  27.183  1.00  0.00     0.310 S 
ATOM     22  F   UNL A   1      31.668  28.968  26.192  1.00  0.00    -0.094 F 
ATOM     23  F   UNL A   1      33.271  28.399  27.565  1.00  0.00    -0.094 F 
ATOM     24  F   UNL A   1      31.162  28.586  28.275  1.00  0.00    -0.094 F 
ATOM     25  F   UNL A   1      30.494  27.193  26.693  1.00  0.00    -0.094 F 
ATOM     26  F   UNL A   1      32.595  26.981  25.996  1.00  0.00    -0.094 F 
ENDBRANCH  13  21
ENDBRANCH   4   6
ENDBRANCH   3   4
ENDBRANCH   2   3
ENDBRANCH   1   2
BRANCH   1  27
ATOM     27  O   UNL A   1      38.795  22.252  25.480  1.00  0.00    -0.458 OA
BRANCH  27  28
ATOM     28  C   UNL A   1      39.652  22.428  26.598  1.00  0.00     0.338 C 
ATOM     29  O   UNL A   1      40.109  21.414  27.214  1.00  0.00    -0.246 OA
BRANCH  28  30
ATOM     30  C   UNL A   1      40.024  23.827  27.059  1.00  0.00     0.060 A 
ATOM     31  C   UNL A   1      39.792  24.903  26.218  1.00  0.00     0.016 A 
ATOM     32  C   UNL A   1      40.558  23.997  28.263  1.00  0.00     0.016 A 
ATOM     33  C   UNL A   1      40.429  26.099  26.628  1.00  0.00     0.010 A 
ATOM     34  C   UNL A   1      41.038  25.225  28.649  1.00  0.00     0.010 A 
ATOM     35  C   UNL A   1      40.896  26.320  27.843  1.00  0.00    -0.014 A 
BRANCH  35  36
ATOM     36  C   UNL A   1      41.257  27.718  28.320  1.00  0.00     0.031 A 
ATOM     37  C   UNL A   1      40.222  28.557  28.735  1.00  0.00     0.074 A 
ATOM     38  C   UNL A   1      42.592  28.084  28.307  1.00  0.00     0.049 A 
ATOM     39  N   UNL A   1      40.322  29.800  29.208  1.00  0.00    -0.248 NA
ATOM     40  C   UNL A   1      38.799  28.183  28.717  1.00  0.00     0.031 C 
ATOM     41  C   UNL A   1      43.643  27.240  27.898  1.00  0.00     0.029 A 
ATOM     42  N   UNL A   1      43.141  29.292  28.675  1.00  0.00    -0.354 N 
ATOM     43  C   UNL A   1      39.114  30.274  29.519  1.00  0.00     0.074 A 
ATOM     44  C   UNL A   1      38.117  29.243  29.201  1.00  0.00     0.031 C 
ATOM     45  C   UNL A   1      44.806  27.933  28.006  1.00  0.00     0.029 A 
ATOM     46  C   UNL A   1      44.503  29.222  28.485  1.00  0.00     0.049 A 
ATOM     47  H   UNL A   1      42.645  30.072  29.014  1.00  0.00     0.167 HD
ATOM     48  C   UNL A   1      38.805  31.525  30.056  1.00  0.00     0.037 A 
ATOM     49  C   UNL A   1      45.443  30.214  28.710  1.00  0.00     0.037 A 
ATOM     50  C   UNL A   1      39.750  32.502  30.323  1.00  0.00     0.049 A 
ATOM     51  C   UNL A   1      45.128  31.487  29.194  1.00  0.00     0.074 A 
ATOM     52  C   UNL A   1      39.457  33.764  30.871  1.00  0.00     0.029 A 
ATOM     53  N   UNL A   1      41.110  32.440  30.109  1.00  0.00    -0.354 N 
ATOM     54  N   UNL A   1      43.925  31.947  29.540  1.00  0.00    -0.248 NA
ATOM     55  C   UNL A   1      46.111  32.556  29.405  1.00  0.00     0.031 C 
ATOM     56  C   UNL A   1      40.621  34.459  30.979  1.00  0.00     0.029 A 
ATOM     57  C   UNL A   1      41.661  33.640  30.499  1.00  0.00     0.049 A 
ATOM     58  H   UNL A   1      41.602  31.671  29.743  1.00  0.00     0.167 HD
ATOM     59  C   UNL A   1      44.021  33.204  29.976  1.00  0.00     0.074 A 
ATOM     60  C   UNL A   1      45.428  33.617  29.887  1.00  0.00     0.031 C 
ATOM     61  C   UNL A   1      42.993  34.022  30.446  1.00  0.00     0.037 A 
BRANCH  48  62
ATOM     62  C   UNL A   1      37.349  31.832  30.368  1.00  0.00     0.057 A 
ATOM     63  C   UNL A   1      36.589  32.450  29.388  1.00  0.00     0.134 A 
ATOM     64  C   UNL A   1      36.825  31.505  31.543  1.00  0.00     0.134 A 
ATOM     65  F   UNL A   1      36.988  32.566  28.125  1.00  0.00    -0.206 F 
ATOM     66  C   UNL A   1      35.348  32.947  29.854  1.00  0.00     0.040 A 
ATOM     67  C   UNL A   1      35.555  31.909  31.880  1.00  0.00     0.040 A 
ATOM     68  F   UNL A   1      37.535  30.782  32.403  1.00  0.00    -0.206 F 
ATOM     69  C   UNL A   1      34.768  32.576  30.981  1.00  0.00     0.006 A 
ENDBRANCH  48  62
BRANCH  49  70
ATOM     70  C   UNL A   1      46.902  29.901  28.415  1.00  0.00     0.057 A 
ATOM     71  C   UNL A   1      47.670  29.349  29.427  1.00  0.00     0.134 A 
ATOM     72  C   UNL A   1      47.413  30.139  27.213  1.00  0.00     0.134 A 
ATOM     73  F   UNL A   1      47.149  28.864  30.550  1.00  0.00    -0.206 F 
ATOM     74  C   UNL A   1      49.059  29.349  29.157  1.00  0.00     0.040 A 
ATOM     75  C   UNL A   1      48.759  29.986  26.983  1.00  0.00     0.040 A 
ATOM     76  F   UNL A   1      46.615  30.527  26.222  1.00  0.00    -0.206 F 
ATOM     77  C   UNL A   1      49.589  29.501  27.956  1.00  0.00     0.006 A 
ENDBRANCH  49  70
BRANCH  61  78
ATOM     78  C   UNL A   1      43.355  35.417  30.929  1.00  0.00     0.057 A 
ATOM     79  C   UNL A   1      43.382  36.463  30.021  1.00  0.00     0.134 A 
ATOM     80  C   UNL A   1      43.631  35.613  32.213  1.00  0.00     0.134 A 
ATOM     81  F   UNL A   1      42.875  36.374  28.795  1.00  0.00    -0.206 F 
ATOM     82  C   UNL A   1      43.999  37.637  30.518  1.00  0.00     0.040 A 
ATOM     83  C   UNL A   1      44.101  36.827  32.651  1.00  0.00     0.040 A 
ATOM     84  F   UNL A   1      43.450  34.623  33.083  1.00  0.00    -0.206 F 
ATOM     85  C   UNL A   1      44.210  37.889  31.797  1.00  0.00     0.006 A 
ENDBRANCH  61  78
ENDBRANCH  35  36
ENDBRANCH  28  30
ENDBRANCH  27  28
ENDBRANCH   1  27
TORSDOF 13
ENDMDL
