MODEL 1
REMARK VINA RESULT:      -9.7      0.000      0.000
REMARK SMILES [NH3+][C@H](c1cc(F)c(F)cc1C(=O)OCCOC(=O)c1ccc(-c2c3nc(c(-c4c(F)cccc4F)c4ccc([nH]4)c(-c4c(F)cccc4F)c4nc(c(-c5c(F)cccc5F)c5ccc2[nH]5)C=C4)C=C3)cc1)C(F)(F)F
REMARK SMILES IDX 14 1 13 2 11 3 12 4 10 5 3 6 4 7 5 8 9 9 6 10 7 11 8 12 2 13
REMARK SMILES IDX 1 14 73 18 74 19 75 20 76 21 15 22 16 23 17 24 18 25 19 26
REMARK SMILES IDX 20 27 72 28 21 29 71 30 22 31 23 32 24 33 65 34 25 35 70 36
REMARK SMILES IDX 64 37 66 38 26 39 69 40 63 41 62 42 27 44 53 45 36 46 52 47
REMARK SMILES IDX 37 48 40 49 51 50 67 51 38 52 39 53 50 55 68 56 41 57 28 58
REMARK SMILES IDX 29 59 34 60 30 61 31 62 33 63 35 64 32 65 54 66 55 67 60 68
REMARK SMILES IDX 56 69 57 70 59 71 61 72 58 73 42 74 43 75 48 76 44 77 45 78
REMARK SMILES IDX 47 79 49 80 46 81
REMARK H PARENT 1 15 1 16 1 17 66 43 40 54
REMARK Flexibility Score: inf
ROOT
ATOM      1  C   UNL A   1      34.668  34.611  28.882  1.00  0.00     0.275 C 
ENDROOT
BRANCH   1   2
ATOM      2  O   UNL A   1      34.329  34.420  30.273  1.00  0.00    -0.458 OA
BRANCH   2   3
ATOM      3  C   UNL A   1      34.902  33.371  30.913  1.00  0.00     0.338 C 
ATOM      4  O   UNL A   1      34.375  32.316  31.204  1.00  0.00    -0.246 OA
BRANCH   3   5
ATOM      5  C   UNL A   1      36.347  33.641  31.158  1.00  0.00     0.072 A 
ATOM      6  C   UNL A   1      36.831  34.395  32.249  1.00  0.00     0.036 A 
ATOM      7  C   UNL A   1      38.230  34.580  32.362  1.00  0.00     0.053 A 
ATOM      8  C   UNL A   1      39.109  34.029  31.432  1.00  0.00     0.159 A 
ATOM      9  C   UNL A   1      37.257  33.048  30.265  1.00  0.00     0.058 A 
ATOM     10  F   UNL A   1      40.426  34.218  31.577  1.00  0.00    -0.204 F 
ATOM     11  C   UNL A   1      38.622  33.265  30.390  1.00  0.00     0.159 A 
ATOM     12  F   UNL A   1      39.459  32.712  29.501  1.00  0.00    -0.204 F 
BRANCH   6  13
ATOM     13  C   UNL A   1      35.918  34.956  33.337  1.00  0.00     0.319 C 
BRANCH  13  14
ATOM     14  N   UNL A   1      34.895  35.836  32.709  1.00  0.00    -0.344 N 
ATOM     15  H   UNL A   1      34.207  35.263  32.220  1.00  0.00     0.345 HD
ATOM     16  H   UNL A   1      35.348  36.465  32.044  1.00  0.00     0.345 HD
ATOM     17  H   UNL A   1      34.428  36.385  33.431  1.00  0.00     0.345 HD
ENDBRANCH  13  14
BRANCH  13  18
ATOM     18  C   UNL A   1      35.392  33.823  34.278  1.00  0.00     0.445 C 
ATOM     19  F   UNL A   1      36.133  32.698  34.163  1.00  0.00    -0.165 F 
ATOM     20  F   UNL A   1      35.439  34.202  35.575  1.00  0.00    -0.165 F 
ATOM     21  F   UNL A   1      34.108  33.499  33.993  1.00  0.00    -0.165 F 
ENDBRANCH  13  18
ENDBRANCH   6  13
ENDBRANCH   3   5
ENDBRANCH   2   3
ENDBRANCH   1   2
BRANCH   1  22
ATOM     22  C   UNL A   1      34.037  33.530  28.003  1.00  0.00     0.275 C 
BRANCH  22  23
ATOM     23  O   UNL A   1      35.023  32.560  27.613  1.00  0.00    -0.458 OA
BRANCH  23  24
ATOM     24  C   UNL A   1      34.651  31.278  27.813  1.00  0.00     0.338 C 
ATOM     25  O   UNL A   1      33.558  30.773  27.616  1.00  0.00    -0.246 OA
BRANCH  24  26
ATOM     26  C   UNL A   1      35.823  30.482  28.174  1.00  0.00     0.060 A 
ATOM     27  C   UNL A   1      35.736  29.712  29.328  1.00  0.00     0.016 A 
ATOM     28  C   UNL A   1      37.029  30.617  27.499  1.00  0.00     0.016 A 
ATOM     29  C   UNL A   1      36.878  29.173  29.900  1.00  0.00     0.010 A 
ATOM     30  C   UNL A   1      38.159  29.971  28.010  1.00  0.00     0.010 A 
ATOM     31  C   UNL A   1      38.104  29.276  29.236  1.00  0.00    -0.014 A 
BRANCH  31  32
ATOM     32  C   UNL A   1      39.333  28.676  29.818  1.00  0.00     0.031 A 
ATOM     33  C   UNL A   1      39.938  29.273  31.058  1.00  0.00     0.074 A 
ATOM     34  C   UNL A   1      39.919  27.618  29.223  1.00  0.00     0.049 A 
ATOM     35  N   UNL A   1      41.125  29.086  31.575  1.00  0.00    -0.248 NA
ATOM     36  C   UNL A   1      39.102  30.228  31.805  1.00  0.00     0.031 C 
ATOM     37  C   UNL A   1      39.402  26.903  28.054  1.00  0.00     0.029 A 
ATOM     38  N   UNL A   1      41.094  26.970  29.511  1.00  0.00    -0.354 N 
ATOM     39  C   UNL A   1      41.201  29.941  32.668  1.00  0.00     0.074 A 
ATOM     40  C   UNL A   1      39.945  30.655  32.735  1.00  0.00     0.031 C 
ATOM     41  C   UNL A   1      40.244  25.910  27.733  1.00  0.00     0.029 A 
ATOM     42  C   UNL A   1      41.408  25.985  28.605  1.00  0.00     0.049 A 
ATOM     43  H   UNL A   1      41.656  27.187  30.290  1.00  0.00     0.167 HD
ATOM     44  C   UNL A   1      42.232  30.113  33.528  1.00  0.00     0.037 A 
ATOM     45  C   UNL A   1      42.535  25.267  28.448  1.00  0.00     0.037 A 
ATOM     46  C   UNL A   1      43.460  29.362  33.467  1.00  0.00     0.049 A 
ATOM     47  C   UNL A   1      43.689  25.519  29.374  1.00  0.00     0.074 A 
ATOM     48  C   UNL A   1      44.565  29.444  34.296  1.00  0.00     0.029 A 
ATOM     49  N   UNL A   1      43.739  28.382  32.524  1.00  0.00    -0.354 N 
ATOM     50  N   UNL A   1      43.776  26.363  30.374  1.00  0.00    -0.248 NA
ATOM     51  C   UNL A   1      44.907  24.731  29.143  1.00  0.00     0.031 C 
ATOM     52  C   UNL A   1      45.532  28.551  33.824  1.00  0.00     0.029 A 
ATOM     53  C   UNL A   1      45.006  27.866  32.741  1.00  0.00     0.049 A 
ATOM     54  H   UNL A   1      43.127  28.096  31.808  1.00  0.00     0.167 HD
ATOM     55  C   UNL A   1      45.041  26.184  30.914  1.00  0.00     0.074 A 
ATOM     56  C   UNL A   1      45.685  25.146  30.132  1.00  0.00     0.031 C 
ATOM     57  C   UNL A   1      45.619  26.817  31.964  1.00  0.00     0.037 A 
BRANCH  44  58
ATOM     58  C   UNL A   1      42.096  31.178  34.580  1.00  0.00     0.057 A 
ATOM     59  C   UNL A   1      41.674  30.897  35.885  1.00  0.00     0.134 A 
ATOM     60  C   UNL A   1      42.427  32.509  34.285  1.00  0.00     0.134 A 
ATOM     61  F   UNL A   1      41.329  29.648  36.234  1.00  0.00    -0.206 F 
ATOM     62  C   UNL A   1      41.557  31.902  36.849  1.00  0.00     0.040 A 
ATOM     63  C   UNL A   1      42.345  33.516  35.249  1.00  0.00     0.040 A 
ATOM     64  F   UNL A   1      42.846  32.851  33.057  1.00  0.00    -0.206 F 
ATOM     65  C   UNL A   1      41.902  33.215  36.533  1.00  0.00     0.006 A 
ENDBRANCH  44  58
BRANCH  45  66
ATOM     66  C   UNL A   1      42.638  24.279  27.343  1.00  0.00     0.057 A 
ATOM     67  C   UNL A   1      42.237  22.950  27.522  1.00  0.00     0.134 A 
ATOM     68  C   UNL A   1      43.131  24.638  26.081  1.00  0.00     0.134 A 
ATOM     69  F   UNL A   1      41.775  22.540  28.712  1.00  0.00    -0.206 F 
ATOM     70  C   UNL A   1      42.336  22.012  26.493  1.00  0.00     0.040 A 
ATOM     71  C   UNL A   1      43.205  23.718  25.034  1.00  0.00     0.040 A 
ATOM     72  F   UNL A   1      43.525  25.897  25.840  1.00  0.00    -0.206 F 
ATOM     73  C   UNL A   1      42.813  22.397  25.242  1.00  0.00     0.006 A 
ENDBRANCH  45  66
BRANCH  57  74
ATOM     74  C   UNL A   1      46.987  26.359  32.373  1.00  0.00     0.057 A 
ATOM     75  C   UNL A   1      47.182  25.315  33.285  1.00  0.00     0.134 A 
ATOM     76  C   UNL A   1      48.124  26.946  31.804  1.00  0.00     0.134 A 
ATOM     77  F   UNL A   1      46.134  24.723  33.877  1.00  0.00    -0.206 F 
ATOM     78  C   UNL A   1      48.463  24.884  33.633  1.00  0.00     0.040 A 
ATOM     79  C   UNL A   1      49.408  26.504  32.121  1.00  0.00     0.040 A 
ATOM     80  F   UNL A   1      48.005  27.946  30.919  1.00  0.00    -0.206 F 
ATOM     81  C   UNL A   1      49.581  25.473  33.042  1.00  0.00     0.006 A 
ENDBRANCH  57  74
ENDBRANCH  31  32
ENDBRANCH  24  26
ENDBRANCH  23  24
ENDBRANCH  22  23
ENDBRANCH   1  22
TORSDOF 14
ENDMDL
MODEL 2
REMARK VINA RESULT:      -9.6      4.472      8.984
REMARK SMILES [NH3+][C@H](c1cc(F)c(F)cc1C(=O)OCCOC(=O)c1ccc(-c2c3nc(c(-c4c(F)cccc4F)c4ccc([nH]4)c(-c4c(F)cccc4F)c4nc(c(-c5c(F)cccc5F)c5ccc2[nH]5)C=C4)C=C3)cc1)C(F)(F)F
REMARK SMILES IDX 14 1 13 2 11 3 12 4 10 5 3 6 4 7 5 8 9 9 6 10 7 11 8 12 2 13
REMARK SMILES IDX 1 14 73 18 74 19 75 20 76 21 15 22 16 23 17 24 18 25 19 26
REMARK SMILES IDX 20 27 72 28 21 29 71 30 22 31 23 32 24 33 65 34 25 35 70 36
REMARK SMILES IDX 64 37 66 38 26 39 69 40 63 41 62 42 27 44 53 45 36 46 52 47
REMARK SMILES IDX 37 48 40 49 51 50 67 51 38 52 39 53 50 55 68 56 41 57 28 58
REMARK SMILES IDX 29 59 34 60 30 61 31 62 33 63 35 64 32 65 54 66 55 67 60 68
REMARK SMILES IDX 56 69 57 70 59 71 61 72 58 73 42 74 43 75 48 76 44 77 45 78
REMARK SMILES IDX 47 79 49 80 46 81
REMARK H PARENT 1 15 1 16 1 17 66 43 40 54
REMARK Flexibility Score: inf
ROOT
ATOM      1  C   UNL A   1      32.785  29.272  24.663  1.00  0.00     0.275 C 
ENDROOT
BRANCH   1   2
ATOM      2  O   UNL A   1      33.178  27.982  25.182  1.00  0.00    -0.458 OA
BRANCH   2   3
ATOM      3  C   UNL A   1      33.474  27.014  24.281  1.00  0.00     0.338 C 
ATOM      4  O   UNL A   1      33.950  27.169  23.173  1.00  0.00    -0.246 OA
BRANCH   3   5
ATOM      5  C   UNL A   1      33.215  25.668  24.862  1.00  0.00     0.072 A 
ATOM      6  C   UNL A   1      32.007  24.958  24.693  1.00  0.00     0.036 A 
ATOM      7  C   UNL A   1      31.890  23.686  25.304  1.00  0.00     0.053 A 
ATOM      8  C   UNL A   1      32.938  23.142  26.044  1.00  0.00     0.159 A 
ATOM      9  C   UNL A   1      34.278  25.073  25.567  1.00  0.00     0.058 A 
ATOM     10  F   UNL A   1      32.793  21.933  26.601  1.00  0.00    -0.204 F 
ATOM     11  C   UNL A   1      34.126  23.834  26.172  1.00  0.00     0.159 A 
ATOM     12  F   UNL A   1      35.147  23.312  26.864  1.00  0.00    -0.204 F 
BRANCH   6  13
ATOM     13  C   UNL A   1      30.859  25.474  23.829  1.00  0.00     0.319 C 
BRANCH  13  14
ATOM     14  N   UNL A   1      30.174  24.319  23.188  1.00  0.00    -0.344 N 
ATOM     15  H   UNL A   1      30.613  23.450  23.494  1.00  0.00     0.345 HD
ATOM     16  H   UNL A   1      30.249  24.398  22.173  1.00  0.00     0.345 HD
ATOM     17  H   UNL A   1      29.190  24.314  23.456  1.00  0.00     0.345 HD
ENDBRANCH  13  14
BRANCH  13  18
ATOM     18  C   UNL A   1      29.958  26.478  24.622  1.00  0.00     0.445 C 
ATOM     19  F   UNL A   1      30.421  26.677  25.876  1.00  0.00    -0.165 F 
ATOM     20  F   UNL A   1      29.917  27.685  24.014  1.00  0.00    -0.165 F 
ATOM     21  F   UNL A   1      28.684  26.027  24.721  1.00  0.00    -0.165 F 
ENDBRANCH  13  18
ENDBRANCH   6  13
ENDBRANCH   3   5
ENDBRANCH   2   3
ENDBRANCH   1   2
BRANCH   1  22
ATOM     22  C   UNL A   1      31.831  29.989  25.620  1.00  0.00     0.275 C 
BRANCH  22  23
ATOM     23  O   UNL A   1      32.435  30.133  26.916  1.00  0.00    -0.458 OA
BRANCH  23  24
ATOM     24  C   UNL A   1      33.013  31.334  27.128  1.00  0.00     0.338 C 
ATOM     25  O   UNL A   1      32.493  32.438  27.086  1.00  0.00    -0.246 OA
BRANCH  24  26
ATOM     26  C   UNL A   1      34.386  31.139  27.590  1.00  0.00     0.060 A 
ATOM     27  C   UNL A   1      34.764  29.844  27.928  1.00  0.00     0.016 A 
ATOM     28  C   UNL A   1      35.227  32.214  27.850  1.00  0.00     0.016 A 
ATOM     29  C   UNL A   1      35.927  29.617  28.648  1.00  0.00     0.010 A 
ATOM     30  C   UNL A   1      36.457  31.971  28.467  1.00  0.00     0.010 A 
ATOM     31  C   UNL A   1      36.803  30.676  28.908  1.00  0.00    -0.014 A 
BRANCH  31  32
ATOM     32  C   UNL A   1      38.069  30.446  29.649  1.00  0.00     0.031 A 
ATOM     33  C   UNL A   1      39.144  29.588  29.040  1.00  0.00     0.074 A 
ATOM     34  C   UNL A   1      38.246  30.979  30.874  1.00  0.00     0.049 A 
ATOM     35  N   UNL A   1      40.192  29.046  29.604  1.00  0.00    -0.248 NA
ATOM     36  C   UNL A   1      39.007  29.279  27.607  1.00  0.00     0.031 C 
ATOM     37  C   UNL A   1      37.313  31.881  31.553  1.00  0.00     0.029 A 
ATOM     38  N   UNL A   1      39.268  30.824  31.777  1.00  0.00    -0.354 N 
ATOM     39  C   UNL A   1      40.804  28.286  28.615  1.00  0.00     0.074 A 
ATOM     40  C   UNL A   1      40.006  28.429  27.417  1.00  0.00     0.031 C 
ATOM     41  C   UNL A   1      37.808  32.209  32.755  1.00  0.00     0.029 A 
ATOM     42  C   UNL A   1      39.038  31.460  32.974  1.00  0.00     0.049 A 
ATOM     43  H   UNL A   1      40.085  30.309  31.587  1.00  0.00     0.167 HD
ATOM     44  C   UNL A   1      41.927  27.535  28.707  1.00  0.00     0.037 A 
ATOM     45  C   UNL A   1      39.704  31.397  34.141  1.00  0.00     0.037 A 
ATOM     46  C   UNL A   1      42.730  27.438  29.899  1.00  0.00     0.049 A 
ATOM     47  C   UNL A   1      40.910  30.509  34.239  1.00  0.00     0.074 A 
ATOM     48  C   UNL A   1      43.894  26.719  30.101  1.00  0.00     0.029 A 
ATOM     49  N   UNL A   1      42.452  28.092  31.092  1.00  0.00    -0.354 N 
ATOM     50  N   UNL A   1      41.456  29.754  33.317  1.00  0.00    -0.248 NA
ATOM     51  C   UNL A   1      41.585  30.452  35.542  1.00  0.00     0.031 C 
ATOM     52  C   UNL A   1      44.293  26.896  31.430  1.00  0.00     0.029 A 
ATOM     53  C   UNL A   1      43.413  27.777  32.038  1.00  0.00     0.049 A 
ATOM     54  H   UNL A   1      41.686  28.691  31.243  1.00  0.00     0.167 HD
ATOM     55  C   UNL A   1      42.558  29.160  33.916  1.00  0.00     0.074 A 
ATOM     56  C   UNL A   1      42.604  29.647  35.280  1.00  0.00     0.031 C 
ATOM     57  C   UNL A   1      43.453  28.291  33.384  1.00  0.00     0.037 A 
BRANCH  44  58
ATOM     58  C   UNL A   1      42.330  26.727  27.506  1.00  0.00     0.057 A 
ATOM     59  C   UNL A   1      43.147  27.243  26.492  1.00  0.00     0.134 A 
ATOM     60  C   UNL A   1      41.916  25.392  27.380  1.00  0.00     0.134 A 
ATOM     61  F   UNL A   1      43.569  28.516  26.541  1.00  0.00    -0.206 F 
ATOM     62  C   UNL A   1      43.513  26.474  25.384  1.00  0.00     0.040 A 
ATOM     63  C   UNL A   1      42.302  24.604  26.293  1.00  0.00     0.040 A 
ATOM     64  F   UNL A   1      41.138  24.829  28.316  1.00  0.00    -0.206 F 
ATOM     65  C   UNL A   1      43.096  25.148  25.288  1.00  0.00     0.006 A 
ENDBRANCH  44  58
BRANCH  45  66
ATOM     66  C   UNL A   1      39.215  32.162  35.317  1.00  0.00     0.057 A 
ATOM     67  C   UNL A   1      38.369  31.571  36.262  1.00  0.00     0.134 A 
ATOM     68  C   UNL A   1      39.587  33.497  35.531  1.00  0.00     0.134 A 
ATOM     69  F   UNL A   1      37.963  30.304  36.104  1.00  0.00    -0.206 F 
ATOM     70  C   UNL A   1      37.898  32.283  37.367  1.00  0.00     0.040 A 
ATOM     71  C   UNL A   1      39.149  34.210  36.648  1.00  0.00     0.040 A 
ATOM     72  F   UNL A   1      40.402  34.121  34.667  1.00  0.00    -0.206 F 
ATOM     73  C   UNL A   1      38.295  33.604  37.567  1.00  0.00     0.006 A 
ENDBRANCH  45  66
BRANCH  57  74
ATOM     74  C   UNL A   1      44.598  27.868  34.256  1.00  0.00     0.057 A 
ATOM     75  C   UNL A   1      44.547  26.711  35.043  1.00  0.00     0.134 A 
ATOM     76  C   UNL A   1      45.785  28.610  34.267  1.00  0.00     0.134 A 
ATOM     77  F   UNL A   1      43.433  25.966  35.089  1.00  0.00    -0.206 F 
ATOM     78  C   UNL A   1      45.633  26.319  35.827  1.00  0.00     0.040 A 
ATOM     79  C   UNL A   1      46.887  28.211  35.023  1.00  0.00     0.040 A 
ATOM     80  F   UNL A   1      45.900  29.724  33.529  1.00  0.00    -0.206 F 
ATOM     81  C   UNL A   1      46.811  27.065  35.810  1.00  0.00     0.006 A 
ENDBRANCH  57  74
ENDBRANCH  31  32
ENDBRANCH  24  26
ENDBRANCH  23  24
ENDBRANCH  22  23
ENDBRANCH   1  22
TORSDOF 14
ENDMDL
MODEL 3
REMARK VINA RESULT:      -9.6      5.619      8.822
REMARK SMILES [NH3+][C@H](c1cc(F)c(F)cc1C(=O)OCCOC(=O)c1ccc(-c2c3nc(c(-c4c(F)cccc4F)c4ccc([nH]4)c(-c4c(F)cccc4F)c4nc(c(-c5c(F)cccc5F)c5ccc2[nH]5)C=C4)C=C3)cc1)C(F)(F)F
REMARK SMILES IDX 14 1 13 2 11 3 12 4 10 5 3 6 4 7 5 8 9 9 6 10 7 11 8 12 2 13
REMARK SMILES IDX 1 14 73 18 74 19 75 20 76 21 15 22 16 23 17 24 18 25 19 26
REMARK SMILES IDX 20 27 72 28 21 29 71 30 22 31 23 32 24 33 65 34 25 35 70 36
REMARK SMILES IDX 64 37 66 38 26 39 69 40 63 41 62 42 27 44 53 45 36 46 52 47
REMARK SMILES IDX 37 48 40 49 51 50 67 51 38 52 39 53 50 55 68 56 41 57 28 58
REMARK SMILES IDX 29 59 34 60 30 61 31 62 33 63 35 64 32 65 54 66 55 67 60 68
REMARK SMILES IDX 56 69 57 70 59 71 61 72 58 73 42 74 43 75 48 76 44 77 45 78
REMARK SMILES IDX 47 79 49 80 46 81
REMARK H PARENT 1 15 1 16 1 17 66 43 40 54
REMARK Flexibility Score: inf
ROOT
ATOM      1  C   UNL A   1      35.106  21.877  26.284  1.00  0.00     0.275 C 
ENDROOT
BRANCH   1   2
ATOM      2  O   UNL A   1      34.850  23.181  25.716  1.00  0.00    -0.458 OA
BRANCH   2   3
ATOM      3  C   UNL A   1      33.674  23.776  26.033  1.00  0.00     0.338 C 
ATOM      4  O   UNL A   1      32.911  23.457  26.923  1.00  0.00    -0.246 OA
BRANCH   3   5
ATOM      5  C   UNL A   1      33.452  24.973  25.176  1.00  0.00     0.072 A 
ATOM      6  C   UNL A   1      32.784  24.937  23.932  1.00  0.00     0.036 A 
ATOM      7  C   UNL A   1      32.645  26.150  23.215  1.00  0.00     0.053 A 
ATOM      8  C   UNL A   1      33.141  27.349  23.722  1.00  0.00     0.159 A 
ATOM      9  C   UNL A   1      33.895  26.205  25.691  1.00  0.00     0.058 A 
ATOM     10  F   UNL A   1      32.983  28.478  23.019  1.00  0.00    -0.204 F 
ATOM     11  C   UNL A   1      33.762  27.374  24.956  1.00  0.00     0.159 A 
ATOM     12  F   UNL A   1      34.225  28.525  25.462  1.00  0.00    -0.204 F 
BRANCH   6  13
ATOM     13  C   UNL A   1      32.155  23.665  23.368  1.00  0.00     0.319 C 
BRANCH  13  14
ATOM     14  N   UNL A   1      30.763  23.963  22.933  1.00  0.00    -0.344 N 
ATOM     15  H   UNL A   1      30.443  23.234  22.294  1.00  0.00     0.345 HD
ATOM     16  H   UNL A   1      30.739  24.865  22.458  1.00  0.00     0.345 HD
ATOM     17  H   UNL A   1      30.150  23.992  23.748  1.00  0.00     0.345 HD
ENDBRANCH  13  14
BRANCH  13  18
ATOM     18  C   UNL A   1      33.093  22.984  22.318  1.00  0.00     0.445 C 
ATOM     19  F   UNL A   1      33.085  23.648  21.141  1.00  0.00    -0.165 F 
ATOM     20  F   UNL A   1      34.373  22.954  22.752  1.00  0.00    -0.165 F 
ATOM     21  F   UNL A   1      32.715  21.707  22.072  1.00  0.00    -0.165 F 
ENDBRANCH  13  18
ENDBRANCH   6  13
ENDBRANCH   3   5
ENDBRANCH   2   3
ENDBRANCH   1   2
BRANCH   1  22
ATOM     22  C   UNL A   1      36.063  21.068  25.407  1.00  0.00     0.275 C 
BRANCH  22  23
ATOM     23  O   UNL A   1      37.234  21.841  25.096  1.00  0.00    -0.458 OA
BRANCH  23  24
ATOM     24  C   UNL A   1      38.368  21.387  25.671  1.00  0.00     0.338 C 
ATOM     25  O   UNL A   1      38.887  20.290  25.547  1.00  0.00    -0.246 OA
BRANCH  24  26
ATOM     26  C   UNL A   1      39.024  22.482  26.385  1.00  0.00     0.060 A 
ATOM     27  C   UNL A   1      38.583  23.772  26.113  1.00  0.00     0.016 A 
ATOM     28  C   UNL A   1      40.152  22.267  27.167  1.00  0.00     0.016 A 
ATOM     29  C   UNL A   1      39.334  24.868  26.507  1.00  0.00     0.010 A 
ATOM     30  C   UNL A   1      40.842  23.375  27.667  1.00  0.00     0.010 A 
ATOM     31  C   UNL A   1      40.464  24.686  27.310  1.00  0.00    -0.014 A 
BRANCH  31  32
ATOM     32  C   UNL A   1      41.262  25.852  27.769  1.00  0.00     0.031 A 
ATOM     33  C   UNL A   1      40.612  26.917  28.608  1.00  0.00     0.074 A 
ATOM     34  C   UNL A   1      42.557  25.971  27.413  1.00  0.00     0.049 A 
ATOM     35  N   UNL A   1      41.032  28.123  28.889  1.00  0.00    -0.248 NA
ATOM     36  C   UNL A   1      39.299  26.588  29.189  1.00  0.00     0.031 C 
ATOM     37  C   UNL A   1      43.327  24.980  26.657  1.00  0.00     0.029 A 
ATOM     38  N   UNL A   1      43.451  26.990  27.625  1.00  0.00    -0.354 N 
ATOM     39  C   UNL A   1      40.014  28.717  29.626  1.00  0.00     0.074 A 
ATOM     40  C   UNL A   1      38.951  27.741  29.741  1.00  0.00     0.031 C 
ATOM     41  C   UNL A   1      44.577  25.431  26.481  1.00  0.00     0.029 A 
ATOM     42  C   UNL A   1      44.667  26.783  27.017  1.00  0.00     0.049 A 
ATOM     43  H   UNL A   1      43.244  27.790  28.161  1.00  0.00     0.167 HD
ATOM     44  C   UNL A   1      39.974  29.964  30.150  1.00  0.00     0.037 A 
ATOM     45  C   UNL A   1      45.713  27.610  26.848  1.00  0.00     0.037 A 
ATOM     46  C   UNL A   1      41.060  30.906  30.058  1.00  0.00     0.049 A 
ATOM     47  C   UNL A   1      45.623  29.010  27.382  1.00  0.00     0.074 A 
ATOM     48  C   UNL A   1      41.134  32.192  30.565  1.00  0.00     0.029 A 
ATOM     49  N   UNL A   1      42.269  30.657  29.422  1.00  0.00    -0.354 N 
ATOM     50  N   UNL A   1      44.640  29.583  28.034  1.00  0.00    -0.248 NA
ATOM     51  C   UNL A   1      46.780  29.884  27.146  1.00  0.00     0.031 C 
ATOM     52  C   UNL A   1      42.367  32.738  30.191  1.00  0.00     0.029 A 
ATOM     53  C   UNL A   1      43.086  31.771  29.508  1.00  0.00     0.049 A 
ATOM     54  H   UNL A   1      42.509  29.812  28.977  1.00  0.00     0.167 HD
ATOM     55  C   UNL A   1      45.072  30.871  28.318  1.00  0.00     0.074 A 
ATOM     56  C   UNL A   1      46.408  30.993  27.770  1.00  0.00     0.031 C 
ATOM     57  C   UNL A   1      44.423  31.863  28.975  1.00  0.00     0.037 A 
BRANCH  44  58
ATOM     58  C   UNL A   1      38.706  30.399  30.831  1.00  0.00     0.057 A 
ATOM     59  C   UNL A   1      37.667  31.040  30.145  1.00  0.00     0.134 A 
ATOM     60  C   UNL A   1      38.511  30.138  32.195  1.00  0.00     0.134 A 
ATOM     61  F   UNL A   1      37.791  31.332  28.841  1.00  0.00    -0.206 F 
ATOM     62  C   UNL A   1      36.495  31.433  30.796  1.00  0.00     0.040 A 
ATOM     63  C   UNL A   1      37.331  30.498  32.849  1.00  0.00     0.040 A 
ATOM     64  F   UNL A   1      39.461  29.521  32.914  1.00  0.00    -0.206 F 
ATOM     65  C   UNL A   1      36.322  31.154  32.150  1.00  0.00     0.006 A 
ENDBRANCH  44  58
BRANCH  45  66
ATOM     66  C   UNL A   1      46.912  27.148  26.101  1.00  0.00     0.057 A 
ATOM     67  C   UNL A   1      47.963  26.495  26.755  1.00  0.00     0.134 A 
ATOM     68  C   UNL A   1      47.035  27.340  24.718  1.00  0.00     0.134 A 
ATOM     69  F   UNL A   1      47.914  26.298  28.080  1.00  0.00    -0.206 F 
ATOM     70  C   UNL A   1      49.097  26.063  26.065  1.00  0.00     0.040 A 
ATOM     71  C   UNL A   1      48.148  26.885  24.011  1.00  0.00     0.040 A 
ATOM     72  F   UNL A   1      46.060  27.953  24.030  1.00  0.00    -0.206 F 
ATOM     73  C   UNL A   1      49.188  26.250  24.687  1.00  0.00     0.006 A 
ENDBRANCH  45  66
BRANCH  57  74
ATOM     74  C   UNL A   1      45.174  33.142  29.200  1.00  0.00     0.057 A 
ATOM     75  C   UNL A   1      45.073  34.230  28.326  1.00  0.00     0.134 A 
ATOM     76  C   UNL A   1      45.975  33.295  30.340  1.00  0.00     0.134 A 
ATOM     77  F   UNL A   1      44.335  34.141  27.209  1.00  0.00    -0.206 F 
ATOM     78  C   UNL A   1      45.758  35.422  28.568  1.00  0.00     0.040 A 
ATOM     79  C   UNL A   1      46.640  34.491  30.607  1.00  0.00     0.040 A 
ATOM     80  F   UNL A   1      46.107  32.292  31.219  1.00  0.00    -0.206 F 
ATOM     81  C   UNL A   1      46.537  35.557  29.717  1.00  0.00     0.006 A 
ENDBRANCH  57  74
ENDBRANCH  31  32
ENDBRANCH  24  26
ENDBRANCH  23  24
ENDBRANCH  22  23
ENDBRANCH   1  22
TORSDOF 14
ENDMDL
