MODEL 1
REMARK VINA RESULT:     -10.9      0.000      0.000
REMARK SMILES Cc1cccc([C@@H](CC(=O)OCCOC(=O)c2ccc(-c3c4nc(c(-c5c(F)cccc5F)c5ccc([nH]5)c(-c5c(F)cccc5F)c5nc(c(-c6c(F)cccc6F)c6ccc3[nH]6)C=C5)C=C4)cc2)NC(=O)OC(C)(C)C)c1
REMARK SMILES IDX 12 1 11 2 9 3 10 4 8 5 7 6 6 7 1 8 2 9 3 10 79 11 4 12 5 13
REMARK SMILES IDX 71 14 72 15 73 17 74 18 75 19 76 20 77 21 78 22 13 23 14 24
REMARK SMILES IDX 15 25 16 26 17 27 18 28 70 29 19 30 69 31 20 32 21 33 22 34
REMARK SMILES IDX 63 35 23 36 68 37 62 38 64 39 24 40 67 41 61 42 60 43 25 45
REMARK SMILES IDX 51 46 34 47 50 48 35 49 38 50 49 51 65 52 36 53 37 54 48 56
REMARK SMILES IDX 66 57 39 58 26 59 27 60 32 61 28 62 29 63 31 64 33 65 30 66
REMARK SMILES IDX 52 67 53 68 58 69 54 70 55 71 57 72 59 73 56 74 40 75 41 76
REMARK SMILES IDX 46 77 42 78 43 79 45 80 47 81 44 82
REMARK H PARENT 71 16 64 44 38 55
REMARK Flexibility Score: inf
ROOT
ATOM      1  C   UNL A   1      33.119  28.572  27.621  1.00  0.00     0.274 C 
ENDROOT
BRANCH   1   2
ATOM      2  O   UNL A   1      31.792  28.040  27.427  1.00  0.00    -0.462 OA
BRANCH   2   3
ATOM      3  C   UNL A   1      31.744  26.914  26.702  1.00  0.00     0.308 C 
ATOM      4  O   UNL A   1      30.690  26.307  26.554  1.00  0.00    -0.252 OA
BRANCH   3   5
ATOM      5  C   UNL A   1      33.079  26.436  26.157  1.00  0.00     0.152 C 
BRANCH   5   6
ATOM      6  C   UNL A   1      32.899  26.058  24.658  1.00  0.00     0.127 C 
BRANCH   6   7
ATOM      7  C   UNL A   1      33.592  24.692  24.553  1.00  0.00    -0.025 A 
ATOM      8  C   UNL A   1      37.084  23.607  25.581  1.00  0.00     0.044 C 
ATOM      9  C   UNL A   1      35.818  23.769  24.800  1.00  0.00    -0.051 A 
ATOM     10  C   UNL A   1      35.721  23.232  23.511  1.00  0.00     0.003 A 
ATOM     11  C   UNL A   1      34.754  24.515  25.314  1.00  0.00     0.009 A 
ATOM     12  C   UNL A   1      34.511  23.264  22.831  1.00  0.00     0.001 A 
ATOM     13  C   UNL A   1      33.415  23.896  23.409  1.00  0.00     0.006 A 
ENDBRANCH   6   7
BRANCH   6  14
ATOM     14  N   UNL A   1      33.462  27.097  23.813  1.00  0.00    -0.314 N 
ATOM     15  C   UNL A   1      32.946  27.925  22.886  1.00  0.00     0.408 C 
ATOM     16  H   UNL A   1      34.428  27.224  23.950  1.00  0.00     0.167 HD
ATOM     17  O   UNL A   1      33.660  28.750  22.346  1.00  0.00    -0.225 OA
BRANCH  15  18
ATOM     18  O   UNL A   1      31.647  27.686  22.603  1.00  0.00    -0.444 OA
BRANCH  18  19
ATOM     19  C   UNL A   1      30.682  28.638  23.113  1.00  0.00     0.106 C 
ATOM     20  C   UNL A   1      31.177  29.378  24.365  1.00  0.00     0.056 C 
ATOM     21  C   UNL A   1      30.267  29.611  21.998  1.00  0.00     0.056 C 
ATOM     22  C   UNL A   1      29.467  27.788  23.501  1.00  0.00     0.056 C 
ENDBRANCH  18  19
ENDBRANCH  15  18
ENDBRANCH   6  14
ENDBRANCH   5   6
ENDBRANCH   3   5
ENDBRANCH   2   3
ENDBRANCH   1   2
BRANCH   1  23
ATOM     23  C   UNL A   1      33.526  30.030  27.149  1.00  0.00     0.275 C 
BRANCH  23  24
ATOM     24  O   UNL A   1      34.768  30.818  27.481  1.00  0.00    -0.458 OA
BRANCH  24  25
ATOM     25  C   UNL A   1      35.518  31.241  28.542  1.00  0.00     0.338 C 
ATOM     26  O   UNL A   1      35.319  32.298  29.123  1.00  0.00    -0.246 OA
BRANCH  25  27
ATOM     27  C   UNL A   1      36.618  30.379  28.976  1.00  0.00     0.060 A 
ATOM     28  C   UNL A   1      36.655  29.515  30.087  1.00  0.00     0.016 A 
ATOM     29  C   UNL A   1      37.672  30.408  28.122  1.00  0.00     0.016 A 
ATOM     30  C   UNL A   1      37.758  28.650  30.229  1.00  0.00     0.010 A 
ATOM     31  C   UNL A   1      38.370  29.258  27.988  1.00  0.00     0.010 A 
ATOM     32  C   UNL A   1      38.614  28.535  29.136  1.00  0.00    -0.014 A 
BRANCH  32  33
ATOM     33  C   UNL A   1      39.983  28.044  29.034  1.00  0.00     0.031 A 
ATOM     34  C   UNL A   1      40.259  26.712  28.510  1.00  0.00     0.074 A 
ATOM     35  C   UNL A   1      40.897  29.056  29.072  1.00  0.00     0.049 A 
ATOM     36  N   UNL A   1      41.092  25.888  29.036  1.00  0.00    -0.248 NA
ATOM     37  C   UNL A   1      39.620  26.203  27.292  1.00  0.00     0.031 C 
ATOM     38  C   UNL A   1      42.291  29.175  28.703  1.00  0.00     0.029 A 
ATOM     39  N   UNL A   1      40.603  30.371  29.498  1.00  0.00    -0.354 N 
ATOM     40  C   UNL A   1      41.412  25.013  28.022  1.00  0.00     0.074 A 
ATOM     41  C   UNL A   1      40.325  25.085  27.071  1.00  0.00     0.031 C 
ATOM     42  C   UNL A   1      42.791  30.284  29.302  1.00  0.00     0.029 A 
ATOM     43  C   UNL A   1      41.729  30.905  30.095  1.00  0.00     0.049 A 
ATOM     44  H   UNL A   1      39.739  30.830  29.389  1.00  0.00     0.167 HD
ATOM     45  C   UNL A   1      42.711  24.628  27.845  1.00  0.00     0.037 A 
ATOM     46  C   UNL A   1      41.612  31.069  31.443  1.00  0.00     0.037 A 
ATOM     47  C   UNL A   1      43.596  25.480  28.646  1.00  0.00     0.049 A 
ATOM     48  C   UNL A   1      42.378  29.967  32.127  1.00  0.00     0.074 A 
ATOM     49  C   UNL A   1      44.436  26.526  28.298  1.00  0.00     0.029 A 
ATOM     50  N   UNL A   1      43.419  25.578  30.022  1.00  0.00    -0.354 N 
ATOM     51  N   UNL A   1      42.726  28.854  31.542  1.00  0.00    -0.248 NA
ATOM     52  C   UNL A   1      42.876  30.064  33.488  1.00  0.00     0.031 C 
ATOM     53  C   UNL A   1      44.749  27.260  29.472  1.00  0.00     0.029 A 
ATOM     54  C   UNL A   1      44.081  26.677  30.534  1.00  0.00     0.049 A 
ATOM     55  H   UNL A   1      42.890  24.945  30.562  1.00  0.00     0.167 HD
ATOM     56  C   UNL A   1      43.527  28.123  32.369  1.00  0.00     0.074 A 
ATOM     57  C   UNL A   1      43.592  28.928  33.577  1.00  0.00     0.031 C 
ATOM     58  C   UNL A   1      44.077  26.934  31.971  1.00  0.00     0.037 A 
BRANCH  45  59
ATOM     59  C   UNL A   1      43.196  23.735  26.726  1.00  0.00     0.057 A 
ATOM     60  C   UNL A   1      43.129  22.330  26.805  1.00  0.00     0.134 A 
ATOM     61  C   UNL A   1      43.646  24.227  25.484  1.00  0.00     0.134 A 
ATOM     62  F   UNL A   1      42.664  21.701  27.891  1.00  0.00    -0.206 F 
ATOM     63  C   UNL A   1      43.517  21.481  25.761  1.00  0.00     0.040 A 
ATOM     64  C   UNL A   1      44.060  23.386  24.436  1.00  0.00     0.040 A 
ATOM     65  F   UNL A   1      43.665  25.543  25.223  1.00  0.00    -0.206 F 
ATOM     66  C   UNL A   1      43.994  22.008  24.572  1.00  0.00     0.006 A 
ENDBRANCH  45  59
BRANCH  46  67
ATOM     67  C   UNL A   1      40.260  31.624  31.847  1.00  0.00     0.057 A 
ATOM     68  C   UNL A   1      39.372  30.784  32.565  1.00  0.00     0.134 A 
ATOM     69  C   UNL A   1      39.931  32.986  31.845  1.00  0.00     0.134 A 
ATOM     70  F   UNL A   1      39.619  29.467  32.654  1.00  0.00    -0.206 F 
ATOM     71  C   UNL A   1      38.278  31.272  33.295  1.00  0.00     0.040 A 
ATOM     72  C   UNL A   1      38.818  33.483  32.554  1.00  0.00     0.040 A 
ATOM     73  F   UNL A   1      40.719  33.878  31.229  1.00  0.00    -0.206 F 
ATOM     74  C   UNL A   1      38.006  32.632  33.304  1.00  0.00     0.006 A 
ENDBRANCH  46  67
BRANCH  58  75
ATOM     75  C   UNL A   1      44.751  25.917  32.858  1.00  0.00     0.057 A 
ATOM     76  C   UNL A   1      46.098  25.552  32.764  1.00  0.00     0.134 A 
ATOM     77  C   UNL A   1      44.064  25.363  33.969  1.00  0.00     0.134 A 
ATOM     78  F   UNL A   1      46.921  26.096  31.861  1.00  0.00    -0.206 F 
ATOM     79  C   UNL A   1      46.694  24.646  33.649  1.00  0.00     0.040 A 
ATOM     80  C   UNL A   1      44.673  24.530  34.907  1.00  0.00     0.040 A 
ATOM     81  F   UNL A   1      42.772  25.620  34.219  1.00  0.00    -0.206 F 
ATOM     82  C   UNL A   1      45.988  24.146  34.734  1.00  0.00     0.006 A 
ENDBRANCH  58  75
ENDBRANCH  32  33
ENDBRANCH  25  27
ENDBRANCH  24  25
ENDBRANCH  23  24
ENDBRANCH   1  23
TORSDOF 16
ENDMDL
MODEL 2
REMARK VINA RESULT:     -10.7      3.266      8.000
REMARK SMILES Cc1cccc([C@@H](CC(=O)OCCOC(=O)c2ccc(-c3c4nc(c(-c5c(F)cccc5F)c5ccc([nH]5)c(-c5c(F)cccc5F)c5nc(c(-c6c(F)cccc6F)c6ccc3[nH]6)C=C5)C=C4)cc2)NC(=O)OC(C)(C)C)c1
REMARK SMILES IDX 12 1 11 2 9 3 10 4 8 5 7 6 6 7 1 8 2 9 3 10 79 11 4 12 5 13
REMARK SMILES IDX 71 14 72 15 73 17 74 18 75 19 76 20 77 21 78 22 13 23 14 24
REMARK SMILES IDX 15 25 16 26 17 27 18 28 70 29 19 30 69 31 20 32 21 33 22 34
REMARK SMILES IDX 63 35 23 36 68 37 62 38 64 39 24 40 67 41 61 42 60 43 25 45
REMARK SMILES IDX 51 46 34 47 50 48 35 49 38 50 49 51 65 52 36 53 37 54 48 56
REMARK SMILES IDX 66 57 39 58 26 59 27 60 32 61 28 62 29 63 31 64 33 65 30 66
REMARK SMILES IDX 52 67 53 68 58 69 54 70 55 71 57 72 59 73 56 74 40 75 41 76
REMARK SMILES IDX 46 77 42 78 43 79 45 80 47 81 44 82
REMARK H PARENT 71 16 64 44 38 55
REMARK Flexibility Score: inf
ROOT
ATOM      1  C   UNL A   1      36.979  23.758  25.785  1.00  0.00     0.274 C 
ENDROOT
BRANCH   1   2
ATOM      2  O   UNL A   1      36.214  24.070  24.602  1.00  0.00    -0.462 OA
BRANCH   2   3
ATOM      3  C   UNL A   1      35.998  23.029  23.787  1.00  0.00     0.308 C 
ATOM      4  O   UNL A   1      36.625  22.908  22.742  1.00  0.00    -0.252 OA
BRANCH   3   5
ATOM      5  C   UNL A   1      34.896  22.080  24.225  1.00  0.00     0.152 C 
BRANCH   5   6
ATOM      6  C   UNL A   1      33.522  22.689  23.818  1.00  0.00     0.127 C 
BRANCH   6   7
ATOM      7  C   UNL A   1      32.601  21.462  23.743  1.00  0.00    -0.025 A 
ATOM      8  C   UNL A   1      32.712  18.172  25.638  1.00  0.00     0.044 C 
ATOM      9  C   UNL A   1      32.572  19.172  24.535  1.00  0.00    -0.051 A 
ATOM     10  C   UNL A   1      32.390  18.736  23.218  1.00  0.00     0.003 A 
ATOM     11  C   UNL A   1      32.694  20.540  24.794  1.00  0.00     0.009 A 
ATOM     12  C   UNL A   1      32.130  19.654  22.208  1.00  0.00     0.001 A 
ATOM     13  C   UNL A   1      32.122  21.013  22.501  1.00  0.00     0.006 A 
ENDBRANCH   6   7
BRANCH   6  14
ATOM     14  N   UNL A   1      33.657  23.431  22.577  1.00  0.00    -0.314 N 
ATOM     15  C   UNL A   1      32.981  24.457  22.027  1.00  0.00     0.408 C 
ATOM     16  H   UNL A   1      34.404  23.117  22.019  1.00  0.00     0.167 HD
ATOM     17  O   UNL A   1      33.346  24.922  20.962  1.00  0.00    -0.225 OA
BRANCH  15  18
ATOM     18  O   UNL A   1      31.883  24.823  22.724  1.00  0.00    -0.444 OA
BRANCH  18  19
ATOM     19  C   UNL A   1      31.939  26.099  23.407  1.00  0.00     0.106 C 
ATOM     20  C   UNL A   1      31.055  26.145  24.661  1.00  0.00     0.056 C 
ATOM     21  C   UNL A   1      33.401  26.461  23.721  1.00  0.00     0.056 C 
ATOM     22  C   UNL A   1      31.392  27.107  22.390  1.00  0.00     0.056 C 
ENDBRANCH  18  19
ENDBRANCH  15  18
ENDBRANCH   6  14
ENDBRANCH   5   6
ENDBRANCH   3   5
ENDBRANCH   2   3
ENDBRANCH   1   2
BRANCH   1  23
ATOM     23  C   UNL A   1      38.052  22.592  25.819  1.00  0.00     0.275 C 
BRANCH  23  24
ATOM     24  O   UNL A   1      39.359  22.533  26.569  1.00  0.00    -0.458 OA
BRANCH  24  25
ATOM     25  C   UNL A   1      40.601  23.101  26.606  1.00  0.00     0.338 C 
ATOM     26  O   UNL A   1      41.631  22.474  26.401  1.00  0.00    -0.246 OA
BRANCH  25  27
ATOM     27  C   UNL A   1      40.680  24.528  26.923  1.00  0.00     0.060 A 
ATOM     28  C   UNL A   1      40.935  25.598  26.045  1.00  0.00     0.016 A 
ATOM     29  C   UNL A   1      40.391  24.790  28.223  1.00  0.00     0.016 A 
ATOM     30  C   UNL A   1      40.803  26.913  26.532  1.00  0.00     0.010 A 
ATOM     31  C   UNL A   1      39.765  25.961  28.475  1.00  0.00     0.010 A 
ATOM     32  C   UNL A   1      40.196  27.067  27.776  1.00  0.00    -0.014 A 
BRANCH  32  33
ATOM     33  C   UNL A   1      40.204  28.178  28.720  1.00  0.00     0.031 A 
ATOM     34  C   UNL A   1      39.130  29.163  28.721  1.00  0.00     0.074 A 
ATOM     35  C   UNL A   1      41.030  27.945  29.781  1.00  0.00     0.049 A 
ATOM     36  N   UNL A   1      39.314  30.431  28.806  1.00  0.00    -0.248 NA
ATOM     37  C   UNL A   1      37.716  28.778  28.656  1.00  0.00     0.031 C 
ATOM     38  C   UNL A   1      41.168  28.521  31.101  1.00  0.00     0.029 A 
ATOM     39  N   UNL A   1      42.013  26.929  29.810  1.00  0.00    -0.354 N 
ATOM     40  C   UNL A   1      38.113  30.934  29.256  1.00  0.00     0.074 A 
ATOM     41  C   UNL A   1      37.112  29.946  28.916  1.00  0.00     0.031 C 
ATOM     42  C   UNL A   1      42.383  28.168  31.588  1.00  0.00     0.029 A 
ATOM     43  C   UNL A   1      43.075  27.364  30.579  1.00  0.00     0.049 A 
ATOM     44  H   UNL A   1      41.951  26.058  29.356  1.00  0.00     0.167 HD
ATOM     45  C   UNL A   1      38.102  31.900  30.222  1.00  0.00     0.037 A 
ATOM     46  C   UNL A   1      44.204  27.624  29.861  1.00  0.00     0.037 A 
ATOM     47  C   UNL A   1      39.439  32.026  30.814  1.00  0.00     0.049 A 
ATOM     48  C   UNL A   1      44.343  29.116  29.714  1.00  0.00     0.074 A 
ATOM     49  C   UNL A   1      39.956  31.596  32.026  1.00  0.00     0.029 A 
ATOM     50  N   UNL A   1      40.538  32.311  30.011  1.00  0.00    -0.354 N 
ATOM     51  N   UNL A   1      43.360  29.958  29.881  1.00  0.00    -0.248 NA
ATOM     52  C   UNL A   1      45.607  29.780  29.446  1.00  0.00     0.031 C 
ATOM     53  C   UNL A   1      41.373  31.612  31.939  1.00  0.00     0.029 A 
ATOM     54  C   UNL A   1      41.721  32.028  30.665  1.00  0.00     0.049 A 
ATOM     55  H   UNL A   1      40.480  32.669  29.095  1.00  0.00     0.167 HD
ATOM     56  C   UNL A   1      43.825  31.238  29.823  1.00  0.00     0.074 A 
ATOM     57  C   UNL A   1      45.243  31.071  29.550  1.00  0.00     0.031 C 
ATOM     58  C   UNL A   1      43.001  32.312  30.025  1.00  0.00     0.037 A 
BRANCH  45  59
ATOM     59  C   UNL A   1      36.852  32.473  30.848  1.00  0.00     0.057 A 
ATOM     60  C   UNL A   1      36.159  33.559  30.277  1.00  0.00     0.134 A 
ATOM     61  C   UNL A   1      36.221  31.909  31.974  1.00  0.00     0.134 A 
ATOM     62  F   UNL A   1      36.587  34.171  29.166  1.00  0.00    -0.206 F 
ATOM     63  C   UNL A   1      34.967  34.073  30.803  1.00  0.00     0.040 A 
ATOM     64  C   UNL A   1      35.037  32.428  32.526  1.00  0.00     0.040 A 
ATOM     65  F   UNL A   1      36.708  30.805  32.563  1.00  0.00    -0.206 F 
ATOM     66  C   UNL A   1      34.404  33.513  31.938  1.00  0.00     0.006 A 
ENDBRANCH  45  59
BRANCH  46  67
ATOM     67  C   UNL A   1      44.474  26.575  28.800  1.00  0.00     0.057 A 
ATOM     68  C   UNL A   1      44.306  26.933  27.439  1.00  0.00     0.134 A 
ATOM     69  C   UNL A   1      45.170  25.381  29.027  1.00  0.00     0.134 A 
ATOM     70  F   UNL A   1      43.681  28.078  27.119  1.00  0.00    -0.206 F 
ATOM     71  C   UNL A   1      44.858  26.198  26.379  1.00  0.00     0.040 A 
ATOM     72  C   UNL A   1      45.707  24.620  27.968  1.00  0.00     0.040 A 
ATOM     73  F   UNL A   1      45.421  24.963  30.275  1.00  0.00    -0.206 F 
ATOM     74  C   UNL A   1      45.577  25.041  26.644  1.00  0.00     0.006 A 
ENDBRANCH  46  67
BRANCH  58  75
ATOM     75  C   UNL A   1      43.324  33.757  29.733  1.00  0.00     0.057 A 
ATOM     76  C   UNL A   1      43.421  34.759  30.703  1.00  0.00     0.134 A 
ATOM     77  C   UNL A   1      43.702  34.160  28.426  1.00  0.00     0.134 A 
ATOM     78  F   UNL A   1      43.239  34.509  32.005  1.00  0.00    -0.206 F 
ATOM     79  C   UNL A   1      43.783  36.075  30.391  1.00  0.00     0.040 A 
ATOM     80  C   UNL A   1      44.149  35.445  28.121  1.00  0.00     0.040 A 
ATOM     81  F   UNL A   1      43.684  33.322  27.379  1.00  0.00    -0.206 F 
ATOM     82  C   UNL A   1      44.165  36.417  29.102  1.00  0.00     0.006 A 
ENDBRANCH  58  75
ENDBRANCH  32  33
ENDBRANCH  25  27
ENDBRANCH  24  25
ENDBRANCH  23  24
ENDBRANCH   1  23
TORSDOF 16
ENDMDL
MODEL 3
REMARK VINA RESULT:     -10.7      1.811      3.179
REMARK SMILES Cc1cccc([C@@H](CC(=O)OCCOC(=O)c2ccc(-c3c4nc(c(-c5c(F)cccc5F)c5ccc([nH]5)c(-c5c(F)cccc5F)c5nc(c(-c6c(F)cccc6F)c6ccc3[nH]6)C=C5)C=C4)cc2)NC(=O)OC(C)(C)C)c1
REMARK SMILES IDX 12 1 11 2 9 3 10 4 8 5 7 6 6 7 1 8 2 9 3 10 79 11 4 12 5 13
REMARK SMILES IDX 71 14 72 15 73 17 74 18 75 19 76 20 77 21 78 22 13 23 14 24
REMARK SMILES IDX 15 25 16 26 17 27 18 28 70 29 19 30 69 31 20 32 21 33 22 34
REMARK SMILES IDX 63 35 23 36 68 37 62 38 64 39 24 40 67 41 61 42 60 43 25 45
REMARK SMILES IDX 51 46 34 47 50 48 35 49 38 50 49 51 65 52 36 53 37 54 48 56
REMARK SMILES IDX 66 57 39 58 26 59 27 60 32 61 28 62 29 63 31 64 33 65 30 66
REMARK SMILES IDX 52 67 53 68 58 69 54 70 55 71 57 72 59 73 56 74 40 75 41 76
REMARK SMILES IDX 46 77 42 78 43 79 45 80 47 81 44 82
REMARK H PARENT 71 16 64 44 38 55
REMARK Flexibility Score: inf
ROOT
ATOM      1  C   UNL A   1      32.102  29.626  27.067  1.00  0.00     0.274 C 
ENDROOT
BRANCH   1   2
ATOM      2  O   UNL A   1      31.747  29.055  25.791  1.00  0.00    -0.462 OA
BRANCH   2   3
ATOM      3  C   UNL A   1      32.782  28.580  25.084  1.00  0.00     0.308 C 
ATOM      4  O   UNL A   1      32.908  28.848  23.896  1.00  0.00    -0.252 OA
BRANCH   3   5
ATOM      5  C   UNL A   1      33.715  27.654  25.846  1.00  0.00     0.152 C 
BRANCH   5   6
ATOM      6  C   UNL A   1      33.106  26.221  25.846  1.00  0.00     0.127 C 
BRANCH   6   7
ATOM      7  C   UNL A   1      34.063  25.431  24.941  1.00  0.00    -0.025 A 
ATOM      8  C   UNL A   1      33.371  23.316  21.864  1.00  0.00     0.044 C 
ATOM      9  C   UNL A   1      33.930  23.784  23.170  1.00  0.00    -0.051 A 
ATOM     10  C   UNL A   1      34.773  22.946  23.908  1.00  0.00     0.003 A 
ATOM     11  C   UNL A   1      33.562  25.025  23.698  1.00  0.00     0.009 A 
ATOM     12  C   UNL A   1      35.399  23.419  25.054  1.00  0.00     0.001 A 
ATOM     13  C   UNL A   1      35.128  24.707  25.502  1.00  0.00     0.006 A 
ENDBRANCH   6   7
BRANCH   6  14
ATOM     14  N   UNL A   1      31.728  26.268  25.390  1.00  0.00    -0.314 N 
ATOM     15  C   UNL A   1      30.580  25.726  25.836  1.00  0.00     0.408 C 
ATOM     16  H   UNL A   1      31.608  26.815  24.581  1.00  0.00     0.167 HD
ATOM     17  O   UNL A   1      29.532  25.970  25.266  1.00  0.00    -0.225 OA
BRANCH  15  18
ATOM     18  O   UNL A   1      30.744  24.879  26.877  1.00  0.00    -0.444 OA
BRANCH  18  19
ATOM     19  C   UNL A   1      30.879  23.473  26.559  1.00  0.00     0.106 C 
ATOM     20  C   UNL A   1      30.842  23.196  25.048  1.00  0.00     0.056 C 
ATOM     21  C   UNL A   1      32.149  22.907  27.215  1.00  0.00     0.056 C 
ATOM     22  C   UNL A   1      29.657  22.811  27.204  1.00  0.00     0.056 C 
ENDBRANCH  18  19
ENDBRANCH  15  18
ENDBRANCH   6  14
ENDBRANCH   5   6
ENDBRANCH   3   5
ENDBRANCH   2   3
ENDBRANCH   1   2
BRANCH   1  23
ATOM     23  C   UNL A   1      33.143  30.814  27.205  1.00  0.00     0.275 C 
BRANCH  23  24
ATOM     24  O   UNL A   1      34.395  30.879  28.044  1.00  0.00    -0.458 OA
BRANCH  24  25
ATOM     25  C   UNL A   1      34.982  31.607  29.040  1.00  0.00     0.338 C 
ATOM     26  O   UNL A   1      34.354  32.333  29.797  1.00  0.00    -0.246 OA
BRANCH  25  27
ATOM     27  C   UNL A   1      36.435  31.511  29.178  1.00  0.00     0.060 A 
ATOM     28  C   UNL A   1      37.374  32.560  29.209  1.00  0.00     0.016 A 
ATOM     29  C   UNL A   1      36.859  30.235  29.368  1.00  0.00     0.016 A 
ATOM     30  C   UNL A   1      38.714  32.253  29.515  1.00  0.00     0.010 A 
ATOM     31  C   UNL A   1      37.943  30.073  30.158  1.00  0.00     0.010 A 
ATOM     32  C   UNL A   1      38.973  30.975  30.003  1.00  0.00    -0.014 A 
BRANCH  32  33
ATOM     33  C   UNL A   1      40.211  30.210  30.088  1.00  0.00     0.031 A 
ATOM     34  C   UNL A   1      40.425  29.043  29.240  1.00  0.00     0.074 A 
ATOM     35  C   UNL A   1      41.215  30.918  30.682  1.00  0.00     0.049 A 
ATOM     36  N   UNL A   1      40.912  27.929  29.654  1.00  0.00    -0.248 NA
ATOM     37  C   UNL A   1      40.125  29.054  27.805  1.00  0.00     0.031 C 
ATOM     38  C   UNL A   1      42.655  30.786  30.730  1.00  0.00     0.029 A 
ATOM     39  N   UNL A   1      41.013  32.100  31.430  1.00  0.00    -0.354 N 
ATOM     40  C   UNL A   1      41.392  27.309  28.522  1.00  0.00     0.074 A 
ATOM     41  C   UNL A   1      40.680  27.900  27.409  1.00  0.00     0.031 C 
ATOM     42  C   UNL A   1      43.111  31.535  31.764  1.00  0.00     0.029 A 
ATOM     43  C   UNL A   1      41.966  32.159  32.428  1.00  0.00     0.049 A 
ATOM     44  H   UNL A   1      40.309  32.768  31.267  1.00  0.00     0.167 HD
ATOM     45  C   UNL A   1      42.603  26.680  28.555  1.00  0.00     0.037 A 
ATOM     46  C   UNL A   1      41.462  31.978  33.681  1.00  0.00     0.037 A 
ATOM     47  C   UNL A   1      43.317  27.041  29.785  1.00  0.00     0.049 A 
ATOM     48  C   UNL A   1      41.794  30.579  34.132  1.00  0.00     0.074 A 
ATOM     49  C   UNL A   1      44.377  27.903  30.020  1.00  0.00     0.029 A 
ATOM     50  N   UNL A   1      42.738  26.804  31.027  1.00  0.00    -0.354 N 
ATOM     51  N   UNL A   1      42.129  29.615  33.319  1.00  0.00    -0.248 NA
ATOM     52  C   UNL A   1      41.853  30.180  35.527  1.00  0.00     0.031 C 
ATOM     53  C   UNL A   1      44.420  28.193  31.409  1.00  0.00     0.029 A 
ATOM     54  C   UNL A   1      43.371  27.528  32.020  1.00  0.00     0.049 A 
ATOM     55  H   UNL A   1      41.976  26.199  31.180  1.00  0.00     0.167 HD
ATOM     56  C   UNL A   1      42.508  28.515  34.030  1.00  0.00     0.074 A 
ATOM     57  C   UNL A   1      42.318  28.923  35.412  1.00  0.00     0.031 C 
ATOM     58  C   UNL A   1      42.961  27.380  33.412  1.00  0.00     0.037 A 
BRANCH  45  59
ATOM     59  C   UNL A   1      43.267  26.032  27.362  1.00  0.00     0.057 A 
ATOM     60  C   UNL A   1      43.004  24.699  26.991  1.00  0.00     0.134 A 
ATOM     61  C   UNL A   1      44.105  26.729  26.469  1.00  0.00     0.134 A 
ATOM     62  F   UNL A   1      42.178  23.915  27.695  1.00  0.00    -0.206 F 
ATOM     63  C   UNL A   1      43.560  24.091  25.858  1.00  0.00     0.040 A 
ATOM     64  C   UNL A   1      44.687  26.126  25.341  1.00  0.00     0.040 A 
ATOM     65  F   UNL A   1      44.362  28.036  26.634  1.00  0.00    -0.206 F 
ATOM     66  C   UNL A   1      44.413  24.802  25.031  1.00  0.00     0.006 A 
ENDBRANCH  45  59
BRANCH  46  67
ATOM     67  C   UNL A   1      40.156  32.717  33.897  1.00  0.00     0.057 A 
ATOM     68  C   UNL A   1      40.202  34.115  34.126  1.00  0.00     0.134 A 
ATOM     69  C   UNL A   1      38.892  32.199  33.588  1.00  0.00     0.134 A 
ATOM     70  F   UNL A   1      41.374  34.713  34.397  1.00  0.00    -0.206 F 
ATOM     71  C   UNL A   1      39.086  34.953  33.979  1.00  0.00     0.040 A 
ATOM     72  C   UNL A   1      37.758  33.028  33.463  1.00  0.00     0.040 A 
ATOM     73  F   UNL A   1      38.736  30.896  33.315  1.00  0.00    -0.206 F 
ATOM     74  C   UNL A   1      37.858  34.410  33.630  1.00  0.00     0.006 A 
ENDBRANCH  46  67
BRANCH  58  75
ATOM     75  C   UNL A   1      43.157  26.028  34.053  1.00  0.00     0.057 A 
ATOM     76  C   UNL A   1      42.193  25.369  34.823  1.00  0.00     0.134 A 
ATOM     77  C   UNL A   1      44.321  25.264  33.780  1.00  0.00     0.134 A 
ATOM     78  F   UNL A   1      40.984  25.893  35.051  1.00  0.00    -0.206 F 
ATOM     79  C   UNL A   1      42.400  24.088  35.348  1.00  0.00     0.040 A 
ATOM     80  C   UNL A   1      44.498  23.955  34.224  1.00  0.00     0.040 A 
ATOM     81  F   UNL A   1      45.337  25.737  33.044  1.00  0.00    -0.206 F 
ATOM     82  C   UNL A   1      43.546  23.370  35.036  1.00  0.00     0.006 A 
ENDBRANCH  58  75
ENDBRANCH  32  33
ENDBRANCH  25  27
ENDBRANCH  24  25
ENDBRANCH  23  24
ENDBRANCH   1  23
TORSDOF 16
ENDMDL
