MODEL 1
REMARK VINA RESULT:     -11.8      0.000      0.000
REMARK SMILES CC(C)(C)OC(=O)N1CC(Cc2ccc(C(=O)OCCOC(=O)c3ccc(-c4c5nc(c(-c6c(F)cccc6F)c6ccc([nH]6)c(-c6c(F)cccc6F)c6nc(c(-c7c(F)cccc7F)c7ccc4[nH]7)C=C6)C=C5)cc3)cc2)C1
REMARK SMILES IDX 19 1 18 2 16 3 17 4 15 5 12 6 13 7 79 8 14 9 78 10 11 11
REMARK SMILES IDX 10 12 6 13 7 14 8 15 9 16 80 17 5 18 2 19 1 20 3 21 4 22
REMARK SMILES IDX 20 23 21 24 22 25 23 26 24 27 25 28 77 29 26 30 76 31 27 32
REMARK SMILES IDX 28 33 29 34 70 35 30 36 75 37 69 38 71 39 31 40 74 41 68 42
REMARK SMILES IDX 67 43 32 45 58 46 41 47 57 48 42 49 45 50 56 51 72 52 43 53
REMARK SMILES IDX 44 54 55 56 73 57 46 58 33 59 34 60 39 61 35 62 36 63 38 64
REMARK SMILES IDX 40 65 37 66 59 67 60 68 65 69 61 70 62 71 64 72 66 73 63 74
REMARK SMILES IDX 47 75 48 76 53 77 49 78 50 79 52 80 54 81 51 82
REMARK H PARENT 71 44 45 55
REMARK Flexibility Score: inf
ROOT
ATOM      1  C   UNL A   1      42.621  20.847  26.305  1.00  0.00     0.275 C 
ENDROOT
BRANCH   1   2
ATOM      2  O   UNL A   1      41.251  20.945  25.868  1.00  0.00    -0.458 OA
BRANCH   2   3
ATOM      3  C   UNL A   1      40.374  21.385  26.804  1.00  0.00     0.338 C 
ATOM      4  O   UNL A   1      40.556  21.422  28.011  1.00  0.00    -0.246 OA
BRANCH   3   5
ATOM      5  C   UNL A   1      39.140  21.910  26.170  1.00  0.00     0.060 A 
ATOM      6  C   UNL A   1      36.843  22.820  24.842  1.00  0.00    -0.048 A 
ATOM      7  C   UNL A   1      37.244  21.488  24.715  1.00  0.00     0.004 A 
ATOM      8  C   UNL A   1      37.588  23.689  25.656  1.00  0.00     0.004 A 
ATOM      9  C   UNL A   1      38.395  21.041  25.363  1.00  0.00     0.016 A 
ATOM     10  C   UNL A   1      38.728  23.236  26.324  1.00  0.00     0.016 A 
BRANCH   6  11
ATOM     11  C   UNL A   1      35.674  23.336  24.042  1.00  0.00     0.042 C 
BRANCH  11  12
ATOM     12  C   UNL A   1      34.816  24.218  24.934  1.00  0.00     0.033 C 
ATOM     13  C   UNL A   1      32.079  25.692  25.946  1.00  0.00     0.410 C 
ATOM     14  O   UNL A   1      31.528  25.200  26.927  1.00  0.00    -0.224 OA
ATOM     15  N   UNL A   1      32.958  25.001  25.175  1.00  0.00    -0.307 N 
ATOM     16  C   UNL A   1      33.436  23.640  25.303  1.00  0.00     0.128 C 
ATOM     17  C   UNL A   1      34.043  25.414  24.309  1.00  0.00     0.128 C 
BRANCH  13  18
ATOM     18  O   UNL A   1      31.889  26.954  25.488  1.00  0.00    -0.444 OA
BRANCH  18  19
ATOM     19  C   UNL A   1      32.237  28.108  26.301  1.00  0.00     0.106 C 
ATOM     20  C   UNL A   1      31.919  29.327  25.422  1.00  0.00     0.056 C 
ATOM     21  C   UNL A   1      33.739  28.076  26.596  1.00  0.00     0.056 C 
ATOM     22  C   UNL A   1      31.415  28.233  27.593  1.00  0.00     0.056 C 
ENDBRANCH  18  19
ENDBRANCH  13  18
ENDBRANCH  11  12
ENDBRANCH   6  11
ENDBRANCH   3   5
ENDBRANCH   2   3
ENDBRANCH   1   2
BRANCH   1  23
ATOM     23  C   UNL A   1      43.550  21.559  25.324  1.00  0.00     0.275 C 
BRANCH  23  24
ATOM     24  O   UNL A   1      42.933  22.782  24.885  1.00  0.00    -0.458 OA
BRANCH  24  25
ATOM     25  C   UNL A   1      43.692  23.896  24.996  1.00  0.00     0.338 C 
ATOM     26  O   UNL A   1      44.751  24.126  24.438  1.00  0.00    -0.246 OA
BRANCH  25  27
ATOM     27  C   UNL A   1      43.052  24.839  25.935  1.00  0.00     0.060 A 
ATOM     28  C   UNL A   1      43.420  26.185  25.947  1.00  0.00     0.016 A 
ATOM     29  C   UNL A   1      42.154  24.356  26.887  1.00  0.00     0.016 A 
ATOM     30  C   UNL A   1      42.945  27.036  26.947  1.00  0.00     0.010 A 
ATOM     31  C   UNL A   1      41.622  25.225  27.846  1.00  0.00     0.010 A 
ATOM     32  C   UNL A   1      42.043  26.567  27.915  1.00  0.00    -0.014 A 
BRANCH  32  33
ATOM     33  C   UNL A   1      41.617  27.442  29.045  1.00  0.00     0.031 A 
ATOM     34  C   UNL A   1      42.414  27.458  30.327  1.00  0.00     0.074 A 
ATOM     35  C   UNL A   1      40.546  28.255  28.934  1.00  0.00     0.049 A 
ATOM     36  N   UNL A   1      42.131  28.023  31.475  1.00  0.00    -0.248 NA
ATOM     37  C   UNL A   1      43.694  26.731  30.318  1.00  0.00     0.031 C 
ATOM     38  C   UNL A   1      39.698  28.387  27.750  1.00  0.00     0.029 A 
ATOM     39  N   UNL A   1      40.000  29.140  29.833  1.00  0.00    -0.354 N 
ATOM     40  C   UNL A   1      43.162  27.669  32.337  1.00  0.00     0.074 A 
ATOM     41  C   UNL A   1      44.080  26.843  31.581  1.00  0.00     0.031 C 
ATOM     42  C   UNL A   1      38.771  29.332  27.977  1.00  0.00     0.029 A 
ATOM     43  C   UNL A   1      38.914  29.824  29.344  1.00  0.00     0.049 A 
ATOM     44  H   UNL A   1      40.355  29.271  30.742  1.00  0.00     0.167 HD
ATOM     45  C   UNL A   1      43.334  28.002  33.639  1.00  0.00     0.037 A 
ATOM     46  C   UNL A   1      38.108  30.728  29.935  1.00  0.00     0.037 A 
ATOM     47  C   UNL A   1      42.465  28.875  34.383  1.00  0.00     0.049 A 
ATOM     48  C   UNL A   1      38.331  31.099  31.373  1.00  0.00     0.074 A 
ATOM     49  C   UNL A   1      42.542  29.245  35.715  1.00  0.00     0.029 A 
ATOM     50  N   UNL A   1      41.378  29.545  33.846  1.00  0.00    -0.354 N 
ATOM     51  N   UNL A   1      39.256  30.680  32.202  1.00  0.00    -0.248 NA
ATOM     52  C   UNL A   1      37.385  32.058  31.964  1.00  0.00     0.031 C 
ATOM     53  C   UNL A   1      41.498  30.137  35.986  1.00  0.00     0.029 A 
ATOM     54  C   UNL A   1      40.786  30.339  34.816  1.00  0.00     0.049 A 
ATOM     55  H   UNL A   1      41.070  29.468  32.914  1.00  0.00     0.167 HD
ATOM     56  C   UNL A   1      39.003  31.321  33.408  1.00  0.00     0.074 A 
ATOM     57  C   UNL A   1      37.858  32.180  33.196  1.00  0.00     0.031 C 
ATOM     58  C   UNL A   1      39.654  31.196  34.589  1.00  0.00     0.037 A 
BRANCH  45  59
ATOM     59  C   UNL A   1      44.505  27.398  34.356  1.00  0.00     0.057 A 
ATOM     60  C   UNL A   1      44.430  26.144  34.972  1.00  0.00     0.134 A 
ATOM     61  C   UNL A   1      45.733  28.070  34.398  1.00  0.00     0.134 A 
ATOM     62  F   UNL A   1      43.276  25.459  34.980  1.00  0.00    -0.206 F 
ATOM     63  C   UNL A   1      45.533  25.585  35.619  1.00  0.00     0.040 A 
ATOM     64  C   UNL A   1      46.849  27.512  35.024  1.00  0.00     0.040 A 
ATOM     65  F   UNL A   1      45.871  29.275  33.822  1.00  0.00    -0.206 F 
ATOM     66  C   UNL A   1      46.749  26.267  35.641  1.00  0.00     0.006 A 
ENDBRANCH  45  59
BRANCH  46  67
ATOM     67  C   UNL A   1      36.990  31.335  29.171  1.00  0.00     0.057 A 
ATOM     68  C   UNL A   1      37.073  32.648  28.694  1.00  0.00     0.134 A 
ATOM     69  C   UNL A   1      35.809  30.629  28.919  1.00  0.00     0.134 A 
ATOM     70  F   UNL A   1      38.170  33.384  28.931  1.00  0.00    -0.206 F 
ATOM     71  C   UNL A   1      36.017  33.242  28.002  1.00  0.00     0.040 A 
ATOM     72  C   UNL A   1      34.755  31.201  28.207  1.00  0.00     0.040 A 
ATOM     73  F   UNL A   1      35.668  29.367  29.352  1.00  0.00    -0.206 F 
ATOM     74  C   UNL A   1      34.855  32.514  27.751  1.00  0.00     0.006 A 
ENDBRANCH  46  67
BRANCH  58  75
ATOM     75  C   UNL A   1      39.153  32.026  35.732  1.00  0.00     0.057 A 
ATOM     76  C   UNL A   1      38.246  31.513  36.667  1.00  0.00     0.134 A 
ATOM     77  C   UNL A   1      39.591  33.343  35.904  1.00  0.00     0.134 A 
ATOM     78  F   UNL A   1      37.781  30.261  36.547  1.00  0.00    -0.206 F 
ATOM     79  C   UNL A   1      37.773  32.292  37.724  1.00  0.00     0.040 A 
ATOM     80  C   UNL A   1      39.138  34.127  36.966  1.00  0.00     0.040 A 
ATOM     81  F   UNL A   1      40.463  33.890  35.043  1.00  0.00    -0.206 F 
ATOM     82  C   UNL A   1      38.221  33.603  37.877  1.00  0.00     0.006 A 
ENDBRANCH  58  75
ENDBRANCH  32  33
ENDBRANCH  25  27
ENDBRANCH  24  25
ENDBRANCH  23  24
ENDBRANCH   1  23
TORSDOF 15
ENDMDL
MODEL 2
REMARK VINA RESULT:     -11.3      0.552      6.267
REMARK SMILES CC(C)(C)OC(=O)N1CC(Cc2ccc(C(=O)OCCOC(=O)c3ccc(-c4c5nc(c(-c6c(F)cccc6F)c6ccc([nH]6)c(-c6c(F)cccc6F)c6nc(c(-c7c(F)cccc7F)c7ccc4[nH]7)C=C6)C=C5)cc3)cc2)C1
REMARK SMILES IDX 19 1 18 2 16 3 17 4 15 5 12 6 13 7 79 8 14 9 78 10 11 11
REMARK SMILES IDX 10 12 6 13 7 14 8 15 9 16 80 17 5 18 2 19 1 20 3 21 4 22
REMARK SMILES IDX 20 23 21 24 22 25 23 26 24 27 25 28 77 29 26 30 76 31 27 32
REMARK SMILES IDX 28 33 29 34 70 35 30 36 75 37 69 38 71 39 31 40 74 41 68 42
REMARK SMILES IDX 67 43 32 45 58 46 41 47 57 48 42 49 45 50 56 51 72 52 43 53
REMARK SMILES IDX 44 54 55 56 73 57 46 58 33 59 34 60 39 61 35 62 36 63 38 64
REMARK SMILES IDX 40 65 37 66 59 67 60 68 65 69 61 70 62 71 64 72 66 73 63 74
REMARK SMILES IDX 47 75 48 76 53 77 49 78 50 79 52 80 54 81 51 82
REMARK H PARENT 71 44 45 55
REMARK Flexibility Score: inf
ROOT
ATOM      1  C   UNL A   1      42.674  21.362  26.301  1.00  0.00     0.275 C 
ENDROOT
BRANCH   1   2
ATOM      2  O   UNL A   1      41.317  21.352  25.817  1.00  0.00    -0.458 OA
BRANCH   2   3
ATOM      3  C   UNL A   1      40.363  21.543  26.762  1.00  0.00     0.338 C 
ATOM      4  O   UNL A   1      40.500  21.421  27.969  1.00  0.00    -0.246 OA
BRANCH   3   5
ATOM      5  C   UNL A   1      39.096  22.013  26.149  1.00  0.00     0.060 A 
ATOM      6  C   UNL A   1      36.737  22.818  24.862  1.00  0.00    -0.048 A 
ATOM      7  C   UNL A   1      37.180  21.497  24.751  1.00  0.00     0.004 A 
ATOM      8  C   UNL A   1      37.472  23.728  25.640  1.00  0.00     0.004 A 
ATOM      9  C   UNL A   1      38.362  21.103  25.378  1.00  0.00     0.016 A 
ATOM     10  C   UNL A   1      38.643  23.328  26.288  1.00  0.00     0.016 A 
BRANCH   6  11
ATOM     11  C   UNL A   1      35.531  23.276  24.082  1.00  0.00     0.042 C 
BRANCH  11  12
ATOM     12  C   UNL A   1      34.692  24.190  24.962  1.00  0.00     0.033 C 
ATOM     13  C   UNL A   1      32.006  25.793  25.911  1.00  0.00     0.410 C 
ATOM     14  O   UNL A   1      31.396  25.315  26.864  1.00  0.00    -0.224 OA
ATOM     15  N   UNL A   1      32.872  25.067  25.157  1.00  0.00    -0.307 N 
ATOM     16  C   UNL A   1      33.272  23.681  25.275  1.00  0.00     0.128 C 
ATOM     17  C   UNL A   1      34.006  25.435  24.333  1.00  0.00     0.128 C 
BRANCH  13  18
ATOM     18  O   UNL A   1      31.899  27.070  25.470  1.00  0.00    -0.444 OA
BRANCH  18  19
ATOM     19  C   UNL A   1      32.254  28.191  26.324  1.00  0.00     0.106 C 
ATOM     20  C   UNL A   1      31.935  29.444  25.494  1.00  0.00     0.056 C 
ATOM     21  C   UNL A   1      33.758  28.144  26.609  1.00  0.00     0.056 C 
ATOM     22  C   UNL A   1      31.440  28.269  27.625  1.00  0.00     0.056 C 
ENDBRANCH  18  19
ENDBRANCH  13  18
ENDBRANCH  11  12
ENDBRANCH   6  11
ENDBRANCH   3   5
ENDBRANCH   2   3
ENDBRANCH   1   2
BRANCH   1  23
ATOM     23  C   UNL A   1      43.577  22.145  25.349  1.00  0.00     0.275 C 
BRANCH  23  24
ATOM     24  O   UNL A   1      42.953  23.398  25.022  1.00  0.00    -0.458 OA
BRANCH  24  25
ATOM     25  C   UNL A   1      43.715  24.500  25.205  1.00  0.00     0.338 C 
ATOM     26  O   UNL A   1      44.769  24.767  24.656  1.00  0.00    -0.246 OA
BRANCH  25  27
ATOM     27  C   UNL A   1      43.084  25.377  26.213  1.00  0.00     0.060 A 
ATOM     28  C   UNL A   1      43.525  26.689  26.384  1.00  0.00     0.016 A 
ATOM     29  C   UNL A   1      42.117  24.851  27.069  1.00  0.00     0.016 A 
ATOM     30  C   UNL A   1      43.051  27.457  27.450  1.00  0.00     0.010 A 
ATOM     31  C   UNL A   1      41.589  25.645  28.093  1.00  0.00     0.010 A 
ATOM     32  C   UNL A   1      42.080  26.944  28.323  1.00  0.00    -0.014 A 
BRANCH  32  33
ATOM     33  C   UNL A   1      41.649  27.720  29.523  1.00  0.00     0.031 A 
ATOM     34  C   UNL A   1      40.417  28.589  29.454  1.00  0.00     0.074 A 
ATOM     35  C   UNL A   1      42.321  27.635  30.689  1.00  0.00     0.049 A 
ATOM     36  N   UNL A   1      39.961  29.457  30.324  1.00  0.00    -0.248 NA
ATOM     37  C   UNL A   1      39.594  28.474  28.239  1.00  0.00     0.031 C 
ATOM     38  C   UNL A   1      43.505  26.810  30.930  1.00  0.00     0.029 A 
ATOM     39  N   UNL A   1      42.089  28.242  31.900  1.00  0.00    -0.354 N 
ATOM     40  C   UNL A   1      38.840  30.032  29.737  1.00  0.00     0.074 A 
ATOM     41  C   UNL A   1      38.681  29.414  28.438  1.00  0.00     0.031 C 
ATOM     42  C   UNL A   1      43.865  26.924  32.219  1.00  0.00     0.029 A 
ATOM     43  C   UNL A   1      42.983  27.882  32.879  1.00  0.00     0.049 A 
ATOM     44  H   UNL A   1      41.350  28.876  32.051  1.00  0.00     0.167 HD
ATOM     45  C   UNL A   1      38.016  30.986  30.232  1.00  0.00     0.037 A 
ATOM     46  C   UNL A   1      43.096  28.292  34.157  1.00  0.00     0.037 A 
ATOM     47  C   UNL A   1      38.125  31.560  31.547  1.00  0.00     0.049 A 
ATOM     48  C   UNL A   1      42.156  29.334  34.693  1.00  0.00     0.074 A 
ATOM     49  C   UNL A   1      37.353  32.554  32.125  1.00  0.00     0.029 A 
ATOM     50  N   UNL A   1      39.045  31.164  32.505  1.00  0.00    -0.354 N 
ATOM     51  N   UNL A   1      41.160  29.938  34.091  1.00  0.00    -0.248 NA
ATOM     52  C   UNL A   1      42.368  29.766  36.083  1.00  0.00     0.031 C 
ATOM     53  C   UNL A   1      37.810  32.763  33.432  1.00  0.00     0.029 A 
ATOM     54  C   UNL A   1      38.850  31.882  33.673  1.00  0.00     0.049 A 
ATOM     55  H   UNL A   1      39.736  30.475  32.373  1.00  0.00     0.167 HD
ATOM     56  C   UNL A   1      40.629  30.817  35.025  1.00  0.00     0.074 A 
ATOM     57  C   UNL A   1      41.392  30.648  36.243  1.00  0.00     0.031 C 
ATOM     58  C   UNL A   1      39.610  31.697  34.880  1.00  0.00     0.037 A 
BRANCH  45  59
ATOM     59  C   UNL A   1      36.925  31.488  29.334  1.00  0.00     0.057 A 
ATOM     60  C   UNL A   1      35.783  30.727  29.060  1.00  0.00     0.134 A 
ATOM     61  C   UNL A   1      37.006  32.765  28.766  1.00  0.00     0.134 A 
ATOM     62  F   UNL A   1      35.655  29.488  29.561  1.00  0.00    -0.206 F 
ATOM     63  C   UNL A   1      34.765  31.212  28.238  1.00  0.00     0.040 A 
ATOM     64  C   UNL A   1      35.986  33.270  27.959  1.00  0.00     0.040 A 
ATOM     65  F   UNL A   1      38.073  33.546  28.994  1.00  0.00    -0.206 F 
ATOM     66  C   UNL A   1      34.863  32.491  27.690  1.00  0.00     0.006 A 
ENDBRANCH  45  59
BRANCH  46  67
ATOM     67  C   UNL A   1      44.162  27.732  35.024  1.00  0.00     0.057 A 
ATOM     68  C   UNL A   1      43.937  26.583  35.790  1.00  0.00     0.134 A 
ATOM     69  C   UNL A   1      45.418  28.340  35.123  1.00  0.00     0.134 A 
ATOM     70  F   UNL A   1      42.742  25.972  35.758  1.00  0.00    -0.206 F 
ATOM     71  C   UNL A   1      44.920  26.063  36.633  1.00  0.00     0.040 A 
ATOM     72  C   UNL A   1      46.419  27.818  35.943  1.00  0.00     0.040 A 
ATOM     73  F   UNL A   1      45.693  29.445  34.415  1.00  0.00    -0.206 F 
ATOM     74  C   UNL A   1      46.169  26.679  36.705  1.00  0.00     0.006 A 
ENDBRANCH  46  67
BRANCH  58  75
ATOM     75  C   UNL A   1      39.251  32.524  36.077  1.00  0.00     0.057 A 
ATOM     76  C   UNL A   1      39.805  33.794  36.283  1.00  0.00     0.134 A 
ATOM     77  C   UNL A   1      38.336  32.052  37.024  1.00  0.00     0.134 A 
ATOM     78  F   UNL A   1      40.698  34.295  35.416  1.00  0.00    -0.206 F 
ATOM     79  C   UNL A   1      39.476  34.557  37.404  1.00  0.00     0.040 A 
ATOM     80  C   UNL A   1      37.987  32.813  38.141  1.00  0.00     0.040 A 
ATOM     81  F   UNL A   1      37.768  30.845  36.881  1.00  0.00    -0.206 F 
ATOM     82  C   UNL A   1      38.564  34.067  38.336  1.00  0.00     0.006 A 
ENDBRANCH  58  75
ENDBRANCH  32  33
ENDBRANCH  25  27
ENDBRANCH  24  25
ENDBRANCH  23  24
ENDBRANCH   1  23
TORSDOF 15
ENDMDL
MODEL 3
REMARK VINA RESULT:     -11.3      4.346      9.954
REMARK SMILES CC(C)(C)OC(=O)N1CC(Cc2ccc(C(=O)OCCOC(=O)c3ccc(-c4c5nc(c(-c6c(F)cccc6F)c6ccc([nH]6)c(-c6c(F)cccc6F)c6nc(c(-c7c(F)cccc7F)c7ccc4[nH]7)C=C6)C=C5)cc3)cc2)C1
REMARK SMILES IDX 19 1 18 2 16 3 17 4 15 5 12 6 13 7 79 8 14 9 78 10 11 11
REMARK SMILES IDX 10 12 6 13 7 14 8 15 9 16 80 17 5 18 2 19 1 20 3 21 4 22
REMARK SMILES IDX 20 23 21 24 22 25 23 26 24 27 25 28 77 29 26 30 76 31 27 32
REMARK SMILES IDX 28 33 29 34 70 35 30 36 75 37 69 38 71 39 31 40 74 41 68 42
REMARK SMILES IDX 67 43 32 45 58 46 41 47 57 48 42 49 45 50 56 51 72 52 43 53
REMARK SMILES IDX 44 54 55 56 73 57 46 58 33 59 34 60 39 61 35 62 36 63 38 64
REMARK SMILES IDX 40 65 37 66 59 67 60 68 65 69 61 70 62 71 64 72 66 73 63 74
REMARK SMILES IDX 47 75 48 76 53 77 49 78 50 79 52 80 54 81 51 82
REMARK H PARENT 71 44 45 55
REMARK Flexibility Score: inf
ROOT
ATOM      1  C   UNL A   1      34.610  34.060  29.758  1.00  0.00     0.275 C 
ENDROOT
BRANCH   1   2
ATOM      2  O   UNL A   1      33.822  33.119  29.002  1.00  0.00    -0.458 OA
BRANCH   2   3
ATOM      3  C   UNL A   1      34.486  32.467  28.016  1.00  0.00     0.338 C 
ATOM      4  O   UNL A   1      35.563  32.779  27.535  1.00  0.00    -0.246 OA
BRANCH   3   5
ATOM      5  C   UNL A   1      33.765  31.232  27.619  1.00  0.00     0.060 A 
ATOM      6  C   UNL A   1      32.529  28.858  26.782  1.00  0.00    -0.048 A 
ATOM      7  C   UNL A   1      33.883  28.859  27.126  1.00  0.00     0.004 A 
ATOM      8  C   UNL A   1      31.792  30.049  26.881  1.00  0.00     0.004 A 
ATOM      9  C   UNL A   1      34.500  30.043  27.526  1.00  0.00     0.016 A 
ATOM     10  C   UNL A   1      32.404  31.231  27.304  1.00  0.00     0.016 A 
BRANCH   6  11
ATOM     11  C   UNL A   1      31.892  27.608  26.228  1.00  0.00     0.042 C 
BRANCH  11  12
ATOM     12  C   UNL A   1      32.965  26.762  25.560  1.00  0.00     0.033 C 
ATOM     13  C   UNL A   1      34.163  24.228  23.879  1.00  0.00     0.410 C 
ATOM     14  O   UNL A   1      34.454  24.443  22.705  1.00  0.00    -0.224 OA
ATOM     15  N   UNL A   1      33.310  25.018  24.579  1.00  0.00    -0.307 N 
ATOM     16  C   UNL A   1      32.597  26.210  24.169  1.00  0.00     0.128 C 
ATOM     17  C   UNL A   1      33.150  25.281  25.995  1.00  0.00     0.128 C 
BRANCH  13  18
ATOM     18  O   UNL A   1      34.623  23.194  24.626  1.00  0.00    -0.444 OA
BRANCH  18  19
ATOM     19  C   UNL A   1      36.044  22.901  24.708  1.00  0.00     0.106 C 
ATOM     20  C   UNL A   1      36.127  21.461  25.238  1.00  0.00     0.056 C 
ATOM     21  C   UNL A   1      36.691  23.849  25.722  1.00  0.00     0.056 C 
ATOM     22  C   UNL A   1      36.772  22.947  23.356  1.00  0.00     0.056 C 
ENDBRANCH  18  19
ENDBRANCH  13  18
ENDBRANCH  11  12
ENDBRANCH   6  11
ENDBRANCH   3   5
ENDBRANCH   2   3
ENDBRANCH   1   2
BRANCH   1  23
ATOM     23  C   UNL A   1      34.496  33.776  31.255  1.00  0.00     0.275 C 
BRANCH  23  24
ATOM     24  O   UNL A   1      34.716  32.375  31.493  1.00  0.00    -0.458 OA
BRANCH  24  25
ATOM     25  C   UNL A   1      35.675  32.076  32.397  1.00  0.00     0.338 C 
ATOM     26  O   UNL A   1      35.685  32.357  33.583  1.00  0.00    -0.246 OA
BRANCH  25  27
ATOM     27  C   UNL A   1      36.771  31.341  31.733  1.00  0.00     0.060 A 
ATOM     28  C   UNL A   1      37.751  30.697  32.488  1.00  0.00     0.016 A 
ATOM     29  C   UNL A   1      36.882  31.385  30.343  1.00  0.00     0.016 A 
ATOM     30  C   UNL A   1      38.877  30.155  31.864  1.00  0.00     0.010 A 
ATOM     31  C   UNL A   1      37.974  30.778  29.713  1.00  0.00     0.010 A 
ATOM     32  C   UNL A   1      39.007  30.192  30.468  1.00  0.00    -0.014 A 
BRANCH  32  33
ATOM     33  C   UNL A   1      40.254  29.709  29.807  1.00  0.00     0.031 A 
ATOM     34  C   UNL A   1      41.435  30.638  29.659  1.00  0.00     0.074 A 
ATOM     35  C   UNL A   1      40.365  28.440  29.366  1.00  0.00     0.049 A 
ATOM     36  N   UNL A   1      42.547  30.469  28.985  1.00  0.00    -0.248 NA
ATOM     37  C   UNL A   1      41.349  31.933  30.353  1.00  0.00     0.031 C 
ATOM     38  C   UNL A   1      39.332  27.409  29.471  1.00  0.00     0.029 A 
ATOM     39  N   UNL A   1      41.414  27.796  28.754  1.00  0.00    -0.354 N 
ATOM     40  C   UNL A   1      43.259  31.655  29.123  1.00  0.00     0.074 A 
ATOM     41  C   UNL A   1      42.458  32.535  29.947  1.00  0.00     0.031 C 
ATOM     42  C   UNL A   1      39.815  26.253  28.986  1.00  0.00     0.029 A 
ATOM     43  C   UNL A   1      41.163  26.474  28.474  1.00  0.00     0.049 A 
ATOM     44  H   UNL A   1      42.265  28.240  28.536  1.00  0.00     0.167 HD
ATOM     45  C   UNL A   1      44.470  31.983  28.614  1.00  0.00     0.037 A 
ATOM     46  C   UNL A   1      41.922  25.549  27.855  1.00  0.00     0.037 A 
ATOM     47  C   UNL A   1      45.305  31.095  27.849  1.00  0.00     0.049 A 
ATOM     48  C   UNL A   1      43.273  25.929  27.319  1.00  0.00     0.074 A 
ATOM     49  C   UNL A   1      46.535  31.349  27.266  1.00  0.00     0.029 A 
ATOM     50  N   UNL A   1      45.011  29.766  27.592  1.00  0.00    -0.354 N 
ATOM     51  N   UNL A   1      43.890  27.084  27.375  1.00  0.00    -0.248 NA
ATOM     52  C   UNL A   1      44.026  24.879  26.615  1.00  0.00     0.031 C 
ATOM     53  C   UNL A   1      46.984  30.174  26.651  1.00  0.00     0.029 A 
ATOM     54  C   UNL A   1      46.043  29.183  26.874  1.00  0.00     0.049 A 
ATOM     55  H   UNL A   1      44.189  29.304  27.877  1.00  0.00     0.167 HD
ATOM     56  C   UNL A   1      45.099  26.900  26.716  1.00  0.00     0.074 A 
ATOM     57  C   UNL A   1      45.143  25.517  26.295  1.00  0.00     0.031 C 
ATOM     58  C   UNL A   1      46.078  27.804  26.469  1.00  0.00     0.037 A 
BRANCH  45  59
ATOM     59  C   UNL A   1      44.963  33.380  28.852  1.00  0.00     0.057 A 
ATOM     60  C   UNL A   1      45.861  33.683  29.881  1.00  0.00     0.134 A 
ATOM     61  C   UNL A   1      44.555  34.427  28.016  1.00  0.00     0.134 A 
ATOM     62  F   UNL A   1      46.274  32.726  30.726  1.00  0.00    -0.206 F 
ATOM     63  C   UNL A   1      46.326  34.983  30.081  1.00  0.00     0.040 A 
ATOM     64  C   UNL A   1      45.030  35.727  28.192  1.00  0.00     0.040 A 
ATOM     65  F   UNL A   1      43.699  34.201  27.008  1.00  0.00    -0.206 F 
ATOM     66  C   UNL A   1      45.915  36.009  29.230  1.00  0.00     0.006 A 
ENDBRANCH  45  59
BRANCH  46  67
ATOM     67  C   UNL A   1      41.414  24.166  27.685  1.00  0.00     0.057 A 
ATOM     68  C   UNL A   1      41.908  23.115  28.465  1.00  0.00     0.134 A 
ATOM     69  C   UNL A   1      40.439  23.858  26.728  1.00  0.00     0.134 A 
ATOM     70  F   UNL A   1      42.864  23.344  29.379  1.00  0.00    -0.206 F 
ATOM     71  C   UNL A   1      41.461  21.804  28.294  1.00  0.00     0.040 A 
ATOM     72  C   UNL A   1      39.965  22.557  26.563  1.00  0.00     0.040 A 
ATOM     73  F   UNL A   1      39.927  24.822  25.949  1.00  0.00    -0.206 F 
ATOM     74  C   UNL A   1      40.481  21.524  27.343  1.00  0.00     0.006 A 
ENDBRANCH  46  67
BRANCH  58  75
ATOM     75  C   UNL A   1      47.285  27.312  25.731  1.00  0.00     0.057 A 
ATOM     76  C   UNL A   1      47.418  27.486  24.347  1.00  0.00     0.134 A 
ATOM     77  C   UNL A   1      48.327  26.671  26.409  1.00  0.00     0.134 A 
ATOM     78  F   UNL A   1      46.446  28.081  23.640  1.00  0.00    -0.206 F 
ATOM     79  C   UNL A   1      48.539  27.017  23.661  1.00  0.00     0.040 A 
ATOM     80  C   UNL A   1      49.460  26.213  25.736  1.00  0.00     0.040 A 
ATOM     81  F   UNL A   1      48.260  26.479  27.736  1.00  0.00    -0.206 F 
ATOM     82  C   UNL A   1      49.565  26.380  24.356  1.00  0.00     0.006 A 
ENDBRANCH  58  75
ENDBRANCH  32  33
ENDBRANCH  25  27
ENDBRANCH  24  25
ENDBRANCH  23  24
ENDBRANCH   1  23
TORSDOF 15
ENDMDL
