MODEL 1
REMARK VINA RESULT:     -11.2      0.000      0.000
REMARK SMILES CC(C)CN(C)c1cc2c(cc1Cl)C=C(C(=O)OCCOC(=O)c1ccc(-c3c4nc(c(-c5c(F)cccc5F)c5ccc([nH]5)c(-c5c(F)cccc5F)c5nc(c(-c6c(F)cccc6F)c6ccc3[nH]6)C=C5)C=C4)cc1)[C@H](C(F)(F)F)O2
REMARK SMILES IDX 19 1 18 2 16 3 17 4 15 5 7 6 8 7 12 8 9 9 11 10 13 11 10 12
REMARK SMILES IDX 83 13 14 14 78 15 5 16 6 17 4 18 2 19 1 20 3 21 79 22 80 23
REMARK SMILES IDX 81 24 82 25 20 26 21 27 22 28 23 29 24 30 25 31 77 32 26 33
REMARK SMILES IDX 76 34 27 35 28 36 29 37 70 38 30 39 75 40 69 41 71 42 31 43
REMARK SMILES IDX 74 44 68 45 67 46 32 48 58 49 41 50 57 51 42 52 45 53 56 54
REMARK SMILES IDX 72 55 43 56 44 57 55 59 73 60 46 61 33 62 34 63 39 64 35 65
REMARK SMILES IDX 36 66 38 67 40 68 37 69 59 70 60 71 65 72 61 73 62 74 64 75
REMARK SMILES IDX 66 76 63 77 47 78 48 79 53 80 49 81 50 82 52 83 54 84 51 85
REMARK H PARENT 71 47 45 58
REMARK Flexibility Score: inf
ROOT
ATOM      1  C   UNL A   1      42.708  21.292  25.891  1.00  0.00     0.275 C 
ENDROOT
BRANCH   1   2
ATOM      2  O   UNL A   1      41.391  21.774  25.543  1.00  0.00    -0.459 OA
BRANCH   2   3
ATOM      3  C   UNL A   1      40.415  21.523  26.433  1.00  0.00     0.338 C 
ATOM      4  O   UNL A   1      40.584  20.985  27.521  1.00  0.00    -0.246 OA
BRANCH   3   5
ATOM      5  C   UNL A   1      39.099  22.051  25.998  1.00  0.00     0.087 C 
ATOM      6  C   UNL A   1      34.273  22.077  24.441  1.00  0.00     0.059 A 
ATOM      7  C   UNL A   1      35.255  23.073  24.643  1.00  0.00     0.074 A 
ATOM      8  C   UNL A   1      34.661  20.737  24.644  1.00  0.00     0.065 A 
ATOM      9  C   UNL A   1      36.557  22.749  25.051  1.00  0.00     0.130 A 
ATOM     10  C   UNL A   1      35.935  20.420  25.112  1.00  0.00     0.034 A 
ATOM     11  Cl  UNL A   1      33.638  19.397  24.251  1.00  0.00    -0.082 Cl
ATOM     12  C   UNL A   1      36.880  21.426  25.310  1.00  0.00     0.019 A 
ATOM     13  O   UNL A   1      37.472  23.761  25.130  1.00  0.00    -0.475 OA
ATOM     14  C   UNL A   1      38.210  21.079  25.751  1.00  0.00     0.027 C 
ATOM     15  C   UNL A   1      38.799  23.509  25.720  1.00  0.00     0.316 C 
BRANCH   6  16
ATOM     16  N   UNL A   1      32.985  22.413  24.009  1.00  0.00    -0.373 N 
ATOM     17  C   UNL A   1      32.829  22.580  22.569  1.00  0.00     0.143 C 
BRANCH  16  18
ATOM     18  C   UNL A   1      32.142  23.254  24.882  1.00  0.00     0.119 C 
BRANCH  18  19
ATOM     19  C   UNL A   1      31.687  22.514  26.159  1.00  0.00     0.002 C 
ATOM     20  C   UNL A   1      32.668  22.728  27.316  1.00  0.00     0.009 C 
ATOM     21  C   UNL A   1      30.289  22.957  26.601  1.00  0.00     0.009 C 
ENDBRANCH  18  19
ENDBRANCH  16  18
ENDBRANCH   6  16
BRANCH  15  22
ATOM     22  C   UNL A   1      38.957  24.525  26.869  1.00  0.00     0.430 C 
ATOM     23  F   UNL A   1      39.427  23.956  27.998  1.00  0.00    -0.167 F 
ATOM     24  F   UNL A   1      39.743  25.576  26.556  1.00  0.00    -0.167 F 
ATOM     25  F   UNL A   1      37.743  25.066  27.174  1.00  0.00    -0.167 F 
ENDBRANCH  15  22
ENDBRANCH   3   5
ENDBRANCH   2   3
ENDBRANCH   1   2
BRANCH   1  26
ATOM     26  C   UNL A   1      43.803  22.112  25.202  1.00  0.00     0.275 C 
BRANCH  26  27
ATOM     27  O   UNL A   1      43.334  23.418  24.807  1.00  0.00    -0.458 OA
BRANCH  27  28
ATOM     28  C   UNL A   1      44.122  24.450  25.190  1.00  0.00     0.338 C 
ATOM     29  O   UNL A   1      45.150  24.829  24.661  1.00  0.00    -0.246 OA
BRANCH  28  30
ATOM     30  C   UNL A   1      43.478  25.190  26.289  1.00  0.00     0.060 A 
ATOM     31  C   UNL A   1      42.787  24.550  27.317  1.00  0.00     0.016 A 
ATOM     32  C   UNL A   1      43.676  26.569  26.331  1.00  0.00     0.016 A 
ATOM     33  C   UNL A   1      42.274  25.315  28.376  1.00  0.00     0.010 A 
ATOM     34  C   UNL A   1      43.189  27.325  27.395  1.00  0.00     0.010 A 
ATOM     35  C   UNL A   1      42.470  26.710  28.426  1.00  0.00    -0.014 A 
BRANCH  35  36
ATOM     36  C   UNL A   1      41.964  27.530  29.561  1.00  0.00     0.031 A 
ATOM     37  C   UNL A   1      42.623  27.472  30.915  1.00  0.00     0.074 A 
ATOM     38  C   UNL A   1      40.854  28.277  29.399  1.00  0.00     0.049 A 
ATOM     39  N   UNL A   1      42.319  28.121  32.013  1.00  0.00    -0.248 NA
ATOM     40  C   UNL A   1      43.749  26.537  31.068  1.00  0.00     0.031 C 
ATOM     41  C   UNL A   1      40.048  28.341  28.179  1.00  0.00     0.029 A 
ATOM     42  N   UNL A   1      40.211  29.125  30.268  1.00  0.00    -0.354 N 
ATOM     43  C   UNL A   1      43.197  27.659  32.986  1.00  0.00     0.074 A 
ATOM     44  C   UNL A   1      44.013  26.638  32.363  1.00  0.00     0.031 C 
ATOM     45  C   UNL A   1      39.046  29.216  28.362  1.00  0.00     0.029 A 
ATOM     46  C   UNL A   1      39.127  29.761  29.713  1.00  0.00     0.049 A 
ATOM     47  H   UNL A   1      40.500  29.263  31.199  1.00  0.00     0.167 HD
ATOM     48  C   UNL A   1      43.334  28.064  34.272  1.00  0.00     0.037 A 
ATOM     49  C   UNL A   1      38.304  30.693  30.229  1.00  0.00     0.037 A 
ATOM     50  C   UNL A   1      42.555  29.111  34.884  1.00  0.00     0.049 A 
ATOM     51  C   UNL A   1      38.528  31.189  31.629  1.00  0.00     0.074 A 
ATOM     52  C   UNL A   1      42.685  29.657  36.149  1.00  0.00     0.029 A 
ATOM     53  N   UNL A   1      41.502  29.769  34.271  1.00  0.00    -0.354 N 
ATOM     54  N   UNL A   1      39.429  30.818  32.503  1.00  0.00    -0.248 NA
ATOM     55  C   UNL A   1      37.625  32.247  32.109  1.00  0.00     0.031 C 
ATOM     56  C   UNL A   1      41.693  30.631  36.311  1.00  0.00     0.029 A 
ATOM     57  C   UNL A   1      40.967  30.713  35.134  1.00  0.00     0.049 A 
ATOM     58  H   UNL A   1      41.179  29.593  33.357  1.00  0.00     0.167 HD
ATOM     59  C   UNL A   1      39.214  31.603  33.628  1.00  0.00     0.074 A 
ATOM     60  C   UNL A   1      38.111  32.489  33.318  1.00  0.00     0.031 C 
ATOM     61  C   UNL A   1      39.869  31.587  34.815  1.00  0.00     0.037 A 
BRANCH  48  62
ATOM     62  C   UNL A   1      44.389  27.392  35.102  1.00  0.00     0.057 A 
ATOM     63  C   UNL A   1      44.116  26.200  35.787  1.00  0.00     0.134 A 
ATOM     64  C   UNL A   1      45.667  27.945  35.255  1.00  0.00     0.134 A 
ATOM     65  F   UNL A   1      42.909  25.623  35.697  1.00  0.00    -0.206 F 
ATOM     66  C   UNL A   1      45.078  25.583  36.589  1.00  0.00     0.040 A 
ATOM     67  C   UNL A   1      46.646  27.323  36.033  1.00  0.00     0.040 A 
ATOM     68  F   UNL A   1      45.997  29.081  34.621  1.00  0.00    -0.206 F 
ATOM     69  C   UNL A   1      46.349  26.141  36.708  1.00  0.00     0.006 A 
ENDBRANCH  48  62
BRANCH  49  70
ATOM     70  C   UNL A   1      37.225  31.269  29.389  1.00  0.00     0.057 A 
ATOM     71  C   UNL A   1      37.340  32.540  28.816  1.00  0.00     0.134 A 
ATOM     72  C   UNL A   1      36.049  30.552  29.143  1.00  0.00     0.134 A 
ATOM     73  F   UNL A   1      38.440  33.279  29.021  1.00  0.00    -0.206 F 
ATOM     74  C   UNL A   1      36.320  33.080  28.031  1.00  0.00     0.040 A 
ATOM     75  C   UNL A   1      35.031  31.069  28.343  1.00  0.00     0.040 A 
ATOM     76  F   UNL A   1      35.892  29.320  29.651  1.00  0.00    -0.206 F 
ATOM     77  C   UNL A   1      35.163  32.340  27.788  1.00  0.00     0.006 A 
ENDBRANCH  49  70
BRANCH  61  78
ATOM     78  C   UNL A   1      39.419  32.567  35.856  1.00  0.00     0.057 A 
ATOM     79  C   UNL A   1      40.015  33.831  35.955  1.00  0.00     0.134 A 
ATOM     80  C   UNL A   1      38.412  32.251  36.777  1.00  0.00     0.134 A 
ATOM     81  F   UNL A   1      40.989  34.193  35.107  1.00  0.00    -0.206 F 
ATOM     82  C   UNL A   1      39.622  34.746  36.933  1.00  0.00     0.040 A 
ATOM     83  C   UNL A   1      37.997  33.166  37.745  1.00  0.00     0.040 A 
ATOM     84  F   UNL A   1      37.793  31.062  36.725  1.00  0.00    -0.206 F 
ATOM     85  C   UNL A   1      38.607  34.417  37.828  1.00  0.00     0.006 A 
ENDBRANCH  61  78
ENDBRANCH  35  36
ENDBRANCH  28  30
ENDBRANCH  27  28
ENDBRANCH  26  27
ENDBRANCH   1  26
TORSDOF 15
ENDMDL
MODEL 2
REMARK VINA RESULT:     -10.9      4.556      7.292
REMARK SMILES CC(C)CN(C)c1cc2c(cc1Cl)C=C(C(=O)OCCOC(=O)c1ccc(-c3c4nc(c(-c5c(F)cccc5F)c5ccc([nH]5)c(-c5c(F)cccc5F)c5nc(c(-c6c(F)cccc6F)c6ccc3[nH]6)C=C5)C=C4)cc1)[C@H](C(F)(F)F)O2
REMARK SMILES IDX 19 1 18 2 16 3 17 4 15 5 7 6 8 7 12 8 9 9 11 10 13 11 10 12
REMARK SMILES IDX 83 13 14 14 78 15 5 16 6 17 4 18 2 19 1 20 3 21 79 22 80 23
REMARK SMILES IDX 81 24 82 25 20 26 21 27 22 28 23 29 24 30 25 31 77 32 26 33
REMARK SMILES IDX 76 34 27 35 28 36 29 37 70 38 30 39 75 40 69 41 71 42 31 43
REMARK SMILES IDX 74 44 68 45 67 46 32 48 58 49 41 50 57 51 42 52 45 53 56 54
REMARK SMILES IDX 72 55 43 56 44 57 55 59 73 60 46 61 33 62 34 63 39 64 35 65
REMARK SMILES IDX 36 66 38 67 40 68 37 69 59 70 60 71 65 72 61 73 62 74 64 75
REMARK SMILES IDX 66 76 63 77 47 78 48 79 53 80 49 81 50 82 52 83 54 84 51 85
REMARK H PARENT 71 47 45 58
REMARK Flexibility Score: inf
ROOT
ATOM      1  C   UNL A   1      34.966  20.782  25.063  1.00  0.00     0.275 C 
ENDROOT
BRANCH   1   2
ATOM      2  O   UNL A   1      34.876  22.194  25.357  1.00  0.00    -0.459 OA
BRANCH   2   3
ATOM      3  C   UNL A   1      34.157  22.527  26.442  1.00  0.00     0.338 C 
ATOM      4  O   UNL A   1      34.260  21.993  27.540  1.00  0.00    -0.246 OA
BRANCH   3   5
ATOM      5  C   UNL A   1      33.268  23.690  26.200  1.00  0.00     0.087 C 
ATOM      6  C   UNL A   1      31.732  28.230  24.546  1.00  0.00     0.059 A 
ATOM      7  C   UNL A   1      31.156  27.222  25.351  1.00  0.00     0.074 A 
ATOM      8  C   UNL A   1      33.056  28.028  24.106  1.00  0.00     0.065 A 
ATOM      9  C   UNL A   1      31.861  26.056  25.684  1.00  0.00     0.130 A 
ATOM     10  C   UNL A   1      33.733  26.842  24.382  1.00  0.00     0.034 A 
ATOM     11  Cl  UNL A   1      33.964  29.250  23.281  1.00  0.00    -0.082 Cl
ATOM     12  C   UNL A   1      33.135  25.862  25.173  1.00  0.00     0.019 A 
ATOM     13  O   UNL A   1      31.268  25.176  26.546  1.00  0.00    -0.475 OA
ATOM     14  C   UNL A   1      33.865  24.657  25.489  1.00  0.00     0.027 C 
ATOM     15  C   UNL A   1      31.883  23.859  26.790  1.00  0.00     0.316 C 
BRANCH   6  16
ATOM     16  N   UNL A   1      31.026  29.400  24.243  1.00  0.00    -0.373 N 
ATOM     17  C   UNL A   1      31.149  30.479  25.217  1.00  0.00     0.143 C 
BRANCH  16  18
ATOM     18  C   UNL A   1      29.744  29.287  23.520  1.00  0.00     0.119 C 
BRANCH  18  19
ATOM     19  C   UNL A   1      29.231  30.649  23.004  1.00  0.00     0.002 C 
ATOM     20  C   UNL A   1      29.095  30.660  21.478  1.00  0.00     0.009 C 
ATOM     21  C   UNL A   1      27.881  31.018  23.627  1.00  0.00     0.009 C 
ENDBRANCH  18  19
ENDBRANCH  16  18
ENDBRANCH   6  16
BRANCH  15  22
ATOM     22  C   UNL A   1      30.804  22.813  26.446  1.00  0.00     0.430 C 
ATOM     23  F   UNL A   1      31.334  21.651  26.011  1.00  0.00    -0.167 F 
ATOM     24  F   UNL A   1      29.964  22.548  27.467  1.00  0.00    -0.167 F 
ATOM     25  F   UNL A   1      30.009  23.285  25.444  1.00  0.00    -0.167 F 
ENDBRANCH  15  22
ENDBRANCH   3   5
ENDBRANCH   2   3
ENDBRANCH   1   2
BRANCH   1  26
ATOM     26  C   UNL A   1      36.424  20.315  25.003  1.00  0.00     0.275 C 
BRANCH  26  27
ATOM     27  O   UNL A   1      37.349  21.397  25.239  1.00  0.00    -0.458 OA
BRANCH  27  28
ATOM     28  C   UNL A   1      38.553  21.024  25.732  1.00  0.00     0.338 C 
ATOM     29  O   UNL A   1      39.079  19.931  25.646  1.00  0.00    -0.246 OA
BRANCH  28  30
ATOM     30  C   UNL A   1      39.252  22.197  26.286  1.00  0.00     0.060 A 
ATOM     31  C   UNL A   1      40.480  22.097  26.937  1.00  0.00     0.016 A 
ATOM     32  C   UNL A   1      38.690  23.449  26.040  1.00  0.00     0.016 A 
ATOM     33  C   UNL A   1      41.127  23.267  27.362  1.00  0.00     0.010 A 
ATOM     34  C   UNL A   1      39.343  24.613  26.439  1.00  0.00     0.010 A 
ATOM     35  C   UNL A   1      40.565  24.537  27.117  1.00  0.00    -0.014 A 
BRANCH  35  36
ATOM     36  C   UNL A   1      41.256  25.790  27.529  1.00  0.00     0.031 A 
ATOM     37  C   UNL A   1      42.660  26.090  27.068  1.00  0.00     0.074 A 
ATOM     38  C   UNL A   1      40.650  26.633  28.387  1.00  0.00     0.049 A 
ATOM     39  N   UNL A   1      43.411  27.133  27.324  1.00  0.00    -0.248 NA
ATOM     40  C   UNL A   1      43.321  25.069  26.240  1.00  0.00     0.031 C 
ATOM     41  C   UNL A   1      39.341  26.416  29.004  1.00  0.00     0.029 A 
ATOM     42  N   UNL A   1      41.059  27.843  28.892  1.00  0.00    -0.354 N 
ATOM     43  C   UNL A   1      44.633  26.885  26.711  1.00  0.00     0.074 A 
ATOM     44  C   UNL A   1      44.541  25.570  26.111  1.00  0.00     0.031 C 
ATOM     45  C   UNL A   1      39.034  27.477  29.766  1.00  0.00     0.029 A 
ATOM     46  C   UNL A   1      40.129  28.440  29.709  1.00  0.00     0.049 A 
ATOM     47  H   UNL A   1      41.934  28.244  28.689  1.00  0.00     0.167 HD
ATOM     48  C   UNL A   1      45.723  27.687  26.627  1.00  0.00     0.037 A 
ATOM     49  C   UNL A   1      40.148  29.637  30.325  1.00  0.00     0.037 A 
ATOM     50  C   UNL A   1      45.803  29.014  27.183  1.00  0.00     0.049 A 
ATOM     51  C   UNL A   1      41.332  30.545  30.148  1.00  0.00     0.074 A 
ATOM     52  C   UNL A   1      46.827  29.938  27.068  1.00  0.00     0.029 A 
ATOM     53  N   UNL A   1      44.818  29.604  27.957  1.00  0.00    -0.354 N 
ATOM     54  N   UNL A   1      42.438  30.340  29.477  1.00  0.00    -0.248 NA
ATOM     55  C   UNL A   1      41.261  31.860  30.803  1.00  0.00     0.031 C 
ATOM     56  C   UNL A   1      46.471  31.080  27.793  1.00  0.00     0.029 A 
ATOM     57  C   UNL A   1      45.212  30.879  28.332  1.00  0.00     0.049 A 
ATOM     58  H   UNL A   1      43.964  29.181  28.204  1.00  0.00     0.167 HD
ATOM     59  C   UNL A   1      43.187  31.500  29.617  1.00  0.00     0.074 A 
ATOM     60  C   UNL A   1      42.401  32.416  30.417  1.00  0.00     0.031 C 
ATOM     61  C   UNL A   1      44.421  31.780  29.130  1.00  0.00     0.037 A 
BRANCH  48  62
ATOM     62  C   UNL A   1      46.914  27.161  25.879  1.00  0.00     0.057 A 
ATOM     63  C   UNL A   1      47.936  26.471  26.547  1.00  0.00     0.134 A 
ATOM     64  C   UNL A   1      47.070  27.370  24.503  1.00  0.00     0.134 A 
ATOM     65  F   UNL A   1      47.859  26.248  27.867  1.00  0.00    -0.206 F 
ATOM     66  C   UNL A   1      49.064  26.006  25.869  1.00  0.00     0.040 A 
ATOM     67  C   UNL A   1      48.181  26.887  23.810  1.00  0.00     0.040 A 
ATOM     68  F   UNL A   1      46.125  28.016  23.803  1.00  0.00    -0.206 F 
ATOM     69  C   UNL A   1      49.186  26.207  24.495  1.00  0.00     0.006 A 
ENDBRANCH  48  62
BRANCH  49  70
ATOM     70  C   UNL A   1      38.973  30.076  31.117  1.00  0.00     0.057 A 
ATOM     71  C   UNL A   1      38.842  29.757  32.473  1.00  0.00     0.134 A 
ATOM     72  C   UNL A   1      37.953  30.830  30.527  1.00  0.00     0.134 A 
ATOM     73  F   UNL A   1      39.783  29.032  33.093  1.00  0.00    -0.206 F 
ATOM     74  C   UNL A   1      37.732  30.168  33.213  1.00  0.00     0.040 A 
ATOM     75  C   UNL A   1      36.849  31.266  31.259  1.00  0.00     0.040 A 
ATOM     76  F   UNL A   1      38.035  31.182  29.235  1.00  0.00    -0.206 F 
ATOM     77  C   UNL A   1      36.734  30.931  32.606  1.00  0.00     0.006 A 
ENDBRANCH  49  70
BRANCH  61  78
ATOM     78  C   UNL A   1      44.986  33.134  29.436  1.00  0.00     0.057 A 
ATOM     79  C   UNL A   1      45.759  33.344  30.585  1.00  0.00     0.134 A 
ATOM     80  C   UNL A   1      44.745  34.237  28.607  1.00  0.00     0.134 A 
ATOM     81  F   UNL A   1      46.022  32.331  31.424  1.00  0.00    -0.206 F 
ATOM     82  C   UNL A   1      46.274  34.603  30.896  1.00  0.00     0.040 A 
ATOM     83  C   UNL A   1      45.272  35.496  28.897  1.00  0.00     0.040 A 
ATOM     84  F   UNL A   1      44.023  34.097  27.484  1.00  0.00    -0.206 F 
ATOM     85  C   UNL A   1      46.035  35.683  30.048  1.00  0.00     0.006 A 
ENDBRANCH  61  78
ENDBRANCH  35  36
ENDBRANCH  28  30
ENDBRANCH  27  28
ENDBRANCH  26  27
ENDBRANCH   1  26
TORSDOF 15
ENDMDL
MODEL 3
REMARK VINA RESULT:     -10.9      3.867      7.794
REMARK SMILES CC(C)CN(C)c1cc2c(cc1Cl)C=C(C(=O)OCCOC(=O)c1ccc(-c3c4nc(c(-c5c(F)cccc5F)c5ccc([nH]5)c(-c5c(F)cccc5F)c5nc(c(-c6c(F)cccc6F)c6ccc3[nH]6)C=C5)C=C4)cc1)[C@H](C(F)(F)F)O2
REMARK SMILES IDX 19 1 18 2 16 3 17 4 15 5 7 6 8 7 12 8 9 9 11 10 13 11 10 12
REMARK SMILES IDX 83 13 14 14 78 15 5 16 6 17 4 18 2 19 1 20 3 21 79 22 80 23
REMARK SMILES IDX 81 24 82 25 20 26 21 27 22 28 23 29 24 30 25 31 77 32 26 33
REMARK SMILES IDX 76 34 27 35 28 36 29 37 70 38 30 39 75 40 69 41 71 42 31 43
REMARK SMILES IDX 74 44 68 45 67 46 32 48 58 49 41 50 57 51 42 52 45 53 56 54
REMARK SMILES IDX 72 55 43 56 44 57 55 59 73 60 46 61 33 62 34 63 39 64 35 65
REMARK SMILES IDX 36 66 38 67 40 68 37 69 59 70 60 71 65 72 61 73 62 74 64 75
REMARK SMILES IDX 66 76 63 77 47 78 48 79 53 80 49 81 50 82 52 83 54 84 51 85
REMARK H PARENT 71 47 45 58
REMARK Flexibility Score: inf
ROOT
ATOM      1  C   UNL A   1      37.841  21.212  25.403  1.00  0.00     0.275 C 
ENDROOT
BRANCH   1   2
ATOM      2  O   UNL A   1      36.879  21.424  24.347  1.00  0.00    -0.459 OA
BRANCH   2   3
ATOM      3  C   UNL A   1      35.587  21.267  24.684  1.00  0.00     0.338 C 
ATOM      4  O   UNL A   1      35.011  20.188  24.760  1.00  0.00    -0.246 OA
BRANCH   3   5
ATOM      5  C   UNL A   1      34.934  22.548  25.046  1.00  0.00     0.087 C 
ATOM      6  C   UNL A   1      33.104  27.252  24.553  1.00  0.00     0.059 A 
ATOM      7  C   UNL A   1      33.248  26.353  25.633  1.00  0.00     0.074 A 
ATOM      8  C   UNL A   1      33.611  26.845  23.302  1.00  0.00     0.065 A 
ATOM      9  C   UNL A   1      33.848  25.096  25.468  1.00  0.00     0.130 A 
ATOM     10  C   UNL A   1      34.150  25.572  23.123  1.00  0.00     0.034 A 
ATOM     11  Cl  UNL A   1      33.689  27.904  21.935  1.00  0.00    -0.082 Cl
ATOM     12  C   UNL A   1      34.271  24.704  24.207  1.00  0.00     0.019 A 
ATOM     13  O   UNL A   1      34.035  24.327  26.582  1.00  0.00    -0.475 OA
ATOM     14  C   UNL A   1      34.872  23.405  24.017  1.00  0.00     0.027 C 
ATOM     15  C   UNL A   1      34.497  22.933  26.445  1.00  0.00     0.316 C 
BRANCH   6  16
ATOM     16  N   UNL A   1      32.525  28.513  24.737  1.00  0.00    -0.373 N 
ATOM     17  C   UNL A   1      33.244  29.409  25.636  1.00  0.00     0.143 C 
BRANCH  16  18
ATOM     18  C   UNL A   1      31.054  28.628  24.703  1.00  0.00     0.119 C 
BRANCH  18  19
ATOM     19  C   UNL A   1      30.420  27.795  23.567  1.00  0.00     0.002 C 
ATOM     20  C   UNL A   1      29.606  26.619  24.116  1.00  0.00     0.009 C 
ATOM     21  C   UNL A   1      29.517  28.652  22.674  1.00  0.00     0.009 C 
ENDBRANCH  18  19
ENDBRANCH  16  18
ENDBRANCH   6  16
BRANCH  15  22
ATOM     22  C   UNL A   1      33.442  22.061  27.153  1.00  0.00     0.430 C 
ATOM     23  F   UNL A   1      33.997  21.064  27.872  1.00  0.00    -0.167 F 
ATOM     24  F   UNL A   1      32.613  22.760  27.955  1.00  0.00    -0.167 F 
ATOM     25  F   UNL A   1      32.632  21.476  26.226  1.00  0.00    -0.167 F 
ENDBRANCH  15  22
ENDBRANCH   3   5
ENDBRANCH   2   3
ENDBRANCH   1   2
BRANCH   1  26
ATOM     26  C   UNL A   1      38.863  20.135  25.021  1.00  0.00     0.275 C 
BRANCH  26  27
ATOM     27  O   UNL A   1      39.571  19.629  26.172  1.00  0.00    -0.458 OA
BRANCH  27  28
ATOM     28  C   UNL A   1      40.921  19.657  26.073  1.00  0.00     0.338 C 
ATOM     29  O   UNL A   1      41.639  18.828  25.547  1.00  0.00    -0.246 OA
BRANCH  28  30
ATOM     30  C   UNL A   1      41.432  20.946  26.570  1.00  0.00     0.060 A 
ATOM     31  C   UNL A   1      41.978  21.911  25.724  1.00  0.00     0.016 A 
ATOM     32  C   UNL A   1      41.253  21.224  27.924  1.00  0.00     0.016 A 
ATOM     33  C   UNL A   1      42.365  23.149  26.258  1.00  0.00     0.010 A 
ATOM     34  C   UNL A   1      41.614  22.462  28.451  1.00  0.00     0.010 A 
ATOM     35  C   UNL A   1      42.187  23.437  27.627  1.00  0.00    -0.014 A 
BRANCH  35  36
ATOM     36  C   UNL A   1      42.559  24.759  28.202  1.00  0.00     0.031 A 
ATOM     37  C   UNL A   1      41.523  25.834  28.412  1.00  0.00     0.074 A 
ATOM     38  C   UNL A   1      43.852  25.029  28.467  1.00  0.00     0.049 A 
ATOM     39  N   UNL A   1      41.668  27.039  28.906  1.00  0.00    -0.248 NA
ATOM     40  C   UNL A   1      40.150  25.529  27.979  1.00  0.00     0.031 C 
ATOM     41  C   UNL A   1      44.975  24.127  28.207  1.00  0.00     0.029 A 
ATOM     42  N   UNL A   1      44.440  26.144  29.014  1.00  0.00    -0.354 N 
ATOM     43  C   UNL A   1      40.418  27.640  28.823  1.00  0.00     0.074 A 
ATOM     44  C   UNL A   1      39.536  26.685  28.185  1.00  0.00     0.031 C 
ATOM     45  C   UNL A   1      46.109  24.704  28.636  1.00  0.00     0.029 A 
ATOM     46  C   UNL A   1      45.798  26.022  29.183  1.00  0.00     0.049 A 
ATOM     47  H   UNL A   1      43.937  26.953  29.260  1.00  0.00     0.167 HD
ATOM     48  C   UNL A   1      40.029  28.862  29.262  1.00  0.00     0.037 A 
ATOM     49  C   UNL A   1      46.689  26.867  29.734  1.00  0.00     0.037 A 
ATOM     50  C   UNL A   1      40.892  29.798  29.937  1.00  0.00     0.049 A 
ATOM     51  C   UNL A   1      46.220  28.181  30.291  1.00  0.00     0.074 A 
ATOM     52  C   UNL A   1      40.567  31.019  30.503  1.00  0.00     0.029 A 
ATOM     53  N   UNL A   1      42.250  29.614  30.138  1.00  0.00    -0.354 N 
ATOM     54  N   UNL A   1      45.014  28.692  30.300  1.00  0.00    -0.248 NA
ATOM     55  C   UNL A   1      47.237  29.031  30.929  1.00  0.00     0.031 C 
ATOM     56  C   UNL A   1      41.734  31.585  31.027  1.00  0.00     0.029 A 
ATOM     57  C   UNL A   1      42.780  30.702  30.815  1.00  0.00     0.049 A 
ATOM     58  H   UNL A   1      42.763  28.827  29.844  1.00  0.00     0.167 HD
ATOM     59  C   UNL A   1      45.123  29.912  30.954  1.00  0.00     0.074 A 
ATOM     60  C   UNL A   1      46.509  30.055  31.349  1.00  0.00     0.031 C 
ATOM     61  C   UNL A   1      44.160  30.834  31.200  1.00  0.00     0.037 A 
BRANCH  48  62
ATOM     62  C   UNL A   1      38.594  29.250  29.051  1.00  0.00     0.057 A 
ATOM     63  C   UNL A   1      37.667  29.178  30.099  1.00  0.00     0.134 A 
ATOM     64  C   UNL A   1      38.120  29.659  27.797  1.00  0.00     0.134 A 
ATOM     65  F   UNL A   1      38.048  28.781  31.321  1.00  0.00    -0.206 F 
ATOM     66  C   UNL A   1      36.322  29.503  29.906  1.00  0.00     0.040 A 
ATOM     67  C   UNL A   1      36.784  30.012  27.599  1.00  0.00     0.040 A 
ATOM     68  F   UNL A   1      38.957  29.756  26.753  1.00  0.00    -0.206 F 
ATOM     69  C   UNL A   1      35.879  29.929  28.655  1.00  0.00     0.006 A 
ENDBRANCH  48  62
BRANCH  49  70
ATOM     70  C   UNL A   1      48.113  26.466  29.848  1.00  0.00     0.057 A 
ATOM     71  C   UNL A   1      48.595  25.775  30.964  1.00  0.00     0.134 A 
ATOM     72  C   UNL A   1      49.025  26.770  28.831  1.00  0.00     0.134 A 
ATOM     73  F   UNL A   1      47.771  25.461  31.974  1.00  0.00    -0.206 F 
ATOM     74  C   UNL A   1      49.936  25.405  31.068  1.00  0.00     0.040 A 
ATOM     75  C   UNL A   1      50.364  26.388  28.911  1.00  0.00     0.040 A 
ATOM     76  F   UNL A   1      48.615  27.415  27.728  1.00  0.00    -0.206 F 
ATOM     77  C   UNL A   1      50.824  25.707  30.036  1.00  0.00     0.006 A 
ENDBRANCH  49  70
BRANCH  61  78
ATOM     78  C   UNL A   1      44.572  32.069  31.944  1.00  0.00     0.057 A 
ATOM     79  C   UNL A   1      45.027  33.201  31.255  1.00  0.00     0.134 A 
ATOM     80  C   UNL A   1      44.539  32.131  33.343  1.00  0.00     0.134 A 
ATOM     81  F   UNL A   1      45.088  33.204  29.915  1.00  0.00    -0.206 F 
ATOM     82  C   UNL A   1      45.435  34.350  31.933  1.00  0.00     0.040 A 
ATOM     83  C   UNL A   1      44.925  33.282  34.030  1.00  0.00     0.040 A 
ATOM     84  F   UNL A   1      44.100  31.085  34.058  1.00  0.00    -0.206 F 
ATOM     85  C   UNL A   1      45.379  34.395  33.325  1.00  0.00     0.006 A 
ENDBRANCH  61  78
ENDBRANCH  35  36
ENDBRANCH  28  30
ENDBRANCH  27  28
ENDBRANCH  26  27
ENDBRANCH   1  26
TORSDOF 15
ENDMDL
