MODEL 1
REMARK VINA RESULT:     -12.0      0.000      0.000
REMARK SMILES Cc1cc2c(c(C)c1Br)C=C(C(=O)OCCOC(=O)c1ccc(-c3c4nc(c(-c5c(F)cccc5F)c5ccc([nH]5)c(-c5c(F)cccc5F)c5nc(c(-c6c(F)cccc6F)c6ccc3[nH]6)C=C5)C=C4)cc1)[C@@H](C(F)(F)F)O2
REMARK SMILES IDX 16 1 15 2 14 3 12 4 13 5 11 6 1 7 2 8 3 9 8 10 4 11 6 12
REMARK SMILES IDX 9 13 5 14 79 15 7 16 10 17 74 18 75 19 76 20 77 21 78 22
REMARK SMILES IDX 17 23 18 24 19 25 20 26 21 27 73 28 22 29 72 30 23 31 24 32
REMARK SMILES IDX 25 33 66 34 26 35 71 36 65 37 67 38 27 39 70 40 64 41 63 42
REMARK SMILES IDX 28 44 54 45 37 46 53 47 38 48 41 49 52 50 68 51 39 52 40 53
REMARK SMILES IDX 51 55 69 56 42 57 29 58 30 59 35 60 31 61 32 62 34 63 36 64
REMARK SMILES IDX 33 65 55 66 56 67 61 68 57 69 58 70 60 71 62 72 59 73 43 74
REMARK SMILES IDX 44 75 49 76 45 77 46 78 48 79 50 80 47 81
REMARK H PARENT 67 43 41 54
REMARK Flexibility Score: inf
ROOT
ATOM      1  C   UNL A   1      36.452  20.465  25.001  1.00  0.00     0.275 C 
ENDROOT
BRANCH   1   2
ATOM      2  C   UNL A   1      35.095  21.146  24.822  1.00  0.00     0.275 C 
BRANCH   2   3
ATOM      3  O   UNL A   1      35.237  22.583  24.801  1.00  0.00    -0.459 OA
BRANCH   3   4
ATOM      4  C   UNL A   1      34.493  23.255  25.709  1.00  0.00     0.338 C 
ATOM      5  O   UNL A   1      34.403  23.017  26.903  1.00  0.00    -0.246 OA
BRANCH   4   6
ATOM      6  C   UNL A   1      33.773  24.366  25.061  1.00  0.00     0.087 C 
ATOM      7  C   UNL A   1      30.150  29.541  23.623  1.00  0.00     0.046 C 
ATOM      8  C   UNL A   1      31.179  28.579  24.155  1.00  0.00    -0.033 A 
ATOM      9  C   UNL A   1      31.306  27.331  23.530  1.00  0.00     0.051 A 
ATOM     10  C   UNL A   1      31.994  28.874  25.268  1.00  0.00     0.024 A 
ATOM     11  C   UNL A   1      32.193  26.374  24.014  1.00  0.00     0.128 A 
ATOM     12  C   UNL A   1      32.926  27.926  25.755  1.00  0.00    -0.026 A 
ATOM     13  Br  UNL A   1      31.783  30.573  26.126  1.00  0.00    -0.050 Br
ATOM     14  C   UNL A   1      32.993  26.651  25.128  1.00  0.00     0.021 A 
ATOM     15  O   UNL A   1      32.217  25.196  23.318  1.00  0.00    -0.475 OA
ATOM     16  C   UNL A   1      33.828  28.222  26.934  1.00  0.00     0.046 C 
ATOM     17  C   UNL A   1      33.839  25.573  25.634  1.00  0.00     0.027 C 
ATOM     18  C   UNL A   1      32.891  24.049  23.895  1.00  0.00     0.316 C 
BRANCH  18  19
ATOM     19  C   UNL A   1      31.848  22.976  24.246  1.00  0.00     0.430 C 
ATOM     20  F   UNL A   1      30.653  23.240  23.665  1.00  0.00    -0.167 F 
ATOM     21  F   UNL A   1      32.228  21.753  23.803  1.00  0.00    -0.167 F 
ATOM     22  F   UNL A   1      31.641  22.879  25.578  1.00  0.00    -0.167 F 
ENDBRANCH  18  19
ENDBRANCH   4   6
ENDBRANCH   3   4
ENDBRANCH   2   3
ENDBRANCH   1   2
BRANCH   1  23
ATOM     23  O   UNL A   1      37.493  21.459  25.012  1.00  0.00    -0.458 OA
BRANCH  23  24
ATOM     24  C   UNL A   1      38.610  21.135  25.701  1.00  0.00     0.338 C 
ATOM     25  O   UNL A   1      39.165  20.051  25.751  1.00  0.00    -0.246 OA
BRANCH  24  26
ATOM     26  C   UNL A   1      39.144  22.331  26.377  1.00  0.00     0.060 A 
ATOM     27  C   UNL A   1      38.567  23.571  26.125  1.00  0.00     0.016 A 
ATOM     28  C   UNL A   1      40.318  22.250  27.122  1.00  0.00     0.016 A 
ATOM     29  C   UNL A   1      39.243  24.736  26.477  1.00  0.00     0.010 A 
ATOM     30  C   UNL A   1      40.922  23.424  27.595  1.00  0.00     0.010 A 
ATOM     31  C   UNL A   1      40.428  24.688  27.224  1.00  0.00    -0.014 A 
BRANCH  31  32
ATOM     32  C   UNL A   1      41.168  25.947  27.545  1.00  0.00     0.031 A 
ATOM     33  C   UNL A   1      40.544  26.996  28.438  1.00  0.00     0.074 A 
ATOM     34  C   UNL A   1      42.426  26.141  27.094  1.00  0.00     0.049 A 
ATOM     35  N   UNL A   1      40.964  28.209  28.708  1.00  0.00    -0.248 NA
ATOM     36  C   UNL A   1      39.277  26.647  29.101  1.00  0.00     0.031 C 
ATOM     37  C   UNL A   1      43.186  25.202  26.267  1.00  0.00     0.029 A 
ATOM     38  N   UNL A   1      43.304  27.181  27.296  1.00  0.00    -0.354 N 
ATOM     39  C   UNL A   1      39.984  28.783  29.510  1.00  0.00     0.074 A 
ATOM     40  C   UNL A   1      38.944  27.793  29.678  1.00  0.00     0.031 C 
ATOM     41  C   UNL A   1      44.435  25.662  26.108  1.00  0.00     0.029 A 
ATOM     42  C   UNL A   1      44.536  26.982  26.718  1.00  0.00     0.049 A 
ATOM     43  H   UNL A   1      43.072  27.991  27.805  1.00  0.00     0.167 HD
ATOM     44  C   UNL A   1      39.956  30.019  30.063  1.00  0.00     0.037 A 
ATOM     45  C   UNL A   1      45.618  27.781  26.645  1.00  0.00     0.037 A 
ATOM     46  C   UNL A   1      41.030  30.975  29.970  1.00  0.00     0.049 A 
ATOM     47  C   UNL A   1      45.550  29.163  27.229  1.00  0.00     0.074 A 
ATOM     48  C   UNL A   1      41.103  32.242  30.522  1.00  0.00     0.029 A 
ATOM     49  N   UNL A   1      42.226  30.756  29.306  1.00  0.00    -0.354 N 
ATOM     50  N   UNL A   1      44.584  29.718  27.919  1.00  0.00    -0.248 NA
ATOM     51  C   UNL A   1      46.701  30.045  26.986  1.00  0.00     0.031 C 
ATOM     52  C   UNL A   1      42.330  32.806  30.162  1.00  0.00     0.029 A 
ATOM     53  C   UNL A   1      43.036  31.874  29.417  1.00  0.00     0.049 A 
ATOM     54  H   UNL A   1      42.466  29.930  28.828  1.00  0.00     0.167 HD
ATOM     55  C   UNL A   1      45.005  31.014  28.186  1.00  0.00     0.074 A 
ATOM     56  C   UNL A   1      46.327  31.153  27.612  1.00  0.00     0.031 C 
ATOM     57  C   UNL A   1      44.347  32.002  28.836  1.00  0.00     0.037 A 
BRANCH  44  58
ATOM     58  C   UNL A   1      38.721  30.429  30.812  1.00  0.00     0.057 A 
ATOM     59  C   UNL A   1      37.646  31.069  30.183  1.00  0.00     0.134 A 
ATOM     60  C   UNL A   1      38.581  30.115  32.171  1.00  0.00     0.134 A 
ATOM     61  F   UNL A   1      37.720  31.406  28.887  1.00  0.00    -0.206 F 
ATOM     62  C   UNL A   1      36.483  31.398  30.884  1.00  0.00     0.040 A 
ATOM     63  C   UNL A   1      37.413  30.416  32.875  1.00  0.00     0.040 A 
ATOM     64  F   UNL A   1      39.568  29.491  32.832  1.00  0.00    -0.206 F 
ATOM     65  C   UNL A   1      36.361  31.063  32.231  1.00  0.00     0.006 A 
ENDBRANCH  44  58
BRANCH  45  66
ATOM     66  C   UNL A   1      46.843  27.307  25.951  1.00  0.00     0.057 A 
ATOM     67  C   UNL A   1      47.832  26.598  26.642  1.00  0.00     0.134 A 
ATOM     68  C   UNL A   1      47.045  27.526  24.582  1.00  0.00     0.134 A 
ATOM     69  F   UNL A   1      47.712  26.379  27.958  1.00  0.00    -0.206 F 
ATOM     70  C   UNL A   1      48.974  26.118  25.995  1.00  0.00     0.040 A 
ATOM     71  C   UNL A   1      48.166  27.027  23.918  1.00  0.00     0.040 A 
ATOM     72  F   UNL A   1      46.136  28.201  23.863  1.00  0.00    -0.206 F 
ATOM     73  C   UNL A   1      49.135  26.323  24.626  1.00  0.00     0.006 A 
ENDBRANCH  45  66
BRANCH  57  74
ATOM     74  C   UNL A   1      45.031  33.330  28.955  1.00  0.00     0.057 A 
ATOM     75  C   UNL A   1      45.932  33.591  29.993  1.00  0.00     0.134 A 
ATOM     76  C   UNL A   1      44.855  34.319  27.981  1.00  0.00     0.134 A 
ATOM     77  F   UNL A   1      46.134  32.686  30.963  1.00  0.00    -0.206 F 
ATOM     78  C   UNL A   1      46.637  34.793  30.058  1.00  0.00     0.040 A 
ATOM     79  C   UNL A   1      45.569  35.517  28.024  1.00  0.00     0.040 A 
ATOM     80  F   UNL A   1      44.010  34.126  26.957  1.00  0.00    -0.206 F 
ATOM     81  C   UNL A   1      46.464  35.755  29.065  1.00  0.00     0.006 A 
ENDBRANCH  57  74
ENDBRANCH  31  32
ENDBRANCH  24  26
ENDBRANCH  23  24
ENDBRANCH   1  23
TORSDOF 12
ENDMDL
MODEL 2
REMARK VINA RESULT:     -12.0      1.280      1.658
REMARK SMILES Cc1cc2c(c(C)c1Br)C=C(C(=O)OCCOC(=O)c1ccc(-c3c4nc(c(-c5c(F)cccc5F)c5ccc([nH]5)c(-c5c(F)cccc5F)c5nc(c(-c6c(F)cccc6F)c6ccc3[nH]6)C=C5)C=C4)cc1)[C@@H](C(F)(F)F)O2
REMARK SMILES IDX 16 1 15 2 14 3 12 4 13 5 11 6 1 7 2 8 3 9 8 10 4 11 6 12
REMARK SMILES IDX 9 13 5 14 79 15 7 16 10 17 74 18 75 19 76 20 77 21 78 22
REMARK SMILES IDX 17 23 18 24 19 25 20 26 21 27 73 28 22 29 72 30 23 31 24 32
REMARK SMILES IDX 25 33 66 34 26 35 71 36 65 37 67 38 27 39 70 40 64 41 63 42
REMARK SMILES IDX 28 44 54 45 37 46 53 47 38 48 41 49 52 50 68 51 39 52 40 53
REMARK SMILES IDX 51 55 69 56 42 57 29 58 30 59 35 60 31 61 32 62 34 63 36 64
REMARK SMILES IDX 33 65 55 66 56 67 61 68 57 69 58 70 60 71 62 72 59 73 43 74
REMARK SMILES IDX 44 75 49 76 45 77 46 78 48 79 50 80 47 81
REMARK H PARENT 67 43 41 54
REMARK Flexibility Score: inf
ROOT
ATOM      1  C   UNL A   1      36.928  20.222  24.660  1.00  0.00     0.275 C 
ENDROOT
BRANCH   1   2
ATOM      2  C   UNL A   1      35.446  20.156  25.026  1.00  0.00     0.275 C 
BRANCH   2   3
ATOM      3  O   UNL A   1      34.710  21.230  24.398  1.00  0.00    -0.459 OA
BRANCH   3   4
ATOM      4  C   UNL A   1      33.370  21.194  24.570  1.00  0.00     0.338 C 
ATOM      5  O   UNL A   1      32.634  20.235  24.405  1.00  0.00    -0.246 OA
BRANCH   4   6
ATOM      6  C   UNL A   1      32.874  22.511  25.009  1.00  0.00     0.087 C 
ATOM      7  C   UNL A   1      32.043  28.773  26.453  1.00  0.00     0.046 C 
ATOM      8  C   UNL A   1      32.264  27.445  25.778  1.00  0.00    -0.033 A 
ATOM      9  C   UNL A   1      31.967  26.278  26.496  1.00  0.00     0.051 A 
ATOM     10  C   UNL A   1      32.782  27.331  24.471  1.00  0.00     0.024 A 
ATOM     11  C   UNL A   1      32.210  25.021  25.952  1.00  0.00     0.128 A 
ATOM     12  C   UNL A   1      33.005  26.061  23.887  1.00  0.00    -0.026 A 
ATOM     13  Br  UNL A   1      33.210  28.937  23.519  1.00  0.00    -0.050 Br
ATOM     14  C   UNL A   1      32.740  24.899  24.663  1.00  0.00     0.021 A 
ATOM     15  O   UNL A   1      31.882  23.964  26.758  1.00  0.00    -0.475 OA
ATOM     16  C   UNL A   1      33.539  25.908  22.480  1.00  0.00     0.046 C 
ATOM     17  C   UNL A   1      33.048  23.552  24.187  1.00  0.00     0.027 C 
ATOM     18  C   UNL A   1      32.346  22.637  26.404  1.00  0.00     0.316 C 
BRANCH  18  19
ATOM     19  C   UNL A   1      33.375  22.169  27.446  1.00  0.00     0.430 C 
ATOM     20  F   UNL A   1      33.503  20.821  27.443  1.00  0.00    -0.167 F 
ATOM     21  F   UNL A   1      34.606  22.673  27.185  1.00  0.00    -0.167 F 
ATOM     22  F   UNL A   1      33.041  22.544  28.701  1.00  0.00    -0.167 F 
ENDBRANCH  18  19
ENDBRANCH   4   6
ENDBRANCH   3   4
ENDBRANCH   2   3
ENDBRANCH   1   2
BRANCH   1  23
ATOM     23  O   UNL A   1      37.546  21.327  25.345  1.00  0.00    -0.458 OA
BRANCH  23  24
ATOM     24  C   UNL A   1      38.767  21.085  25.872  1.00  0.00     0.338 C 
ATOM     25  O   UNL A   1      39.416  20.055  25.805  1.00  0.00    -0.246 OA
BRANCH  24  26
ATOM     26  C   UNL A   1      39.280  22.303  26.525  1.00  0.00     0.060 A 
ATOM     27  C   UNL A   1      38.730  23.537  26.194  1.00  0.00     0.016 A 
ATOM     28  C   UNL A   1      40.416  22.242  27.330  1.00  0.00     0.016 A 
ATOM     29  C   UNL A   1      39.399  24.709  26.531  1.00  0.00     0.010 A 
ATOM     30  C   UNL A   1      41.008  23.430  27.783  1.00  0.00     0.010 A 
ATOM     31  C   UNL A   1      40.547  24.681  27.337  1.00  0.00    -0.014 A 
BRANCH  31  32
ATOM     32  C   UNL A   1      41.283  25.947  27.643  1.00  0.00     0.031 A 
ATOM     33  C   UNL A   1      40.662  26.999  28.533  1.00  0.00     0.074 A 
ATOM     34  C   UNL A   1      42.536  26.143  27.180  1.00  0.00     0.049 A 
ATOM     35  N   UNL A   1      41.078  28.215  28.791  1.00  0.00    -0.248 NA
ATOM     36  C   UNL A   1      39.402  26.649  29.209  1.00  0.00     0.031 C 
ATOM     37  C   UNL A   1      43.293  25.202  26.353  1.00  0.00     0.029 A 
ATOM     38  N   UNL A   1      43.411  27.189  27.366  1.00  0.00    -0.354 N 
ATOM     39  C   UNL A   1      40.102  28.791  29.597  1.00  0.00     0.074 A 
ATOM     40  C   UNL A   1      39.068  27.798  29.781  1.00  0.00     0.031 C 
ATOM     41  C   UNL A   1      44.539  25.666  26.180  1.00  0.00     0.029 A 
ATOM     42  C   UNL A   1      44.639  26.991  26.779  1.00  0.00     0.049 A 
ATOM     43  H   UNL A   1      43.179  28.001  27.871  1.00  0.00     0.167 HD
ATOM     44  C   UNL A   1      40.073  30.031  30.141  1.00  0.00     0.037 A 
ATOM     45  C   UNL A   1      45.716  27.795  26.691  1.00  0.00     0.037 A 
ATOM     46  C   UNL A   1      41.142  30.991  30.032  1.00  0.00     0.049 A 
ATOM     47  C   UNL A   1      45.646  29.180  27.265  1.00  0.00     0.074 A 
ATOM     48  C   UNL A   1      41.213  32.263  30.574  1.00  0.00     0.029 A 
ATOM     49  N   UNL A   1      42.333  30.774  29.360  1.00  0.00    -0.354 N 
ATOM     50  N   UNL A   1      44.684  29.736  27.960  1.00  0.00    -0.248 NA
ATOM     51  C   UNL A   1      46.791  30.066  27.007  1.00  0.00     0.031 C 
ATOM     52  C   UNL A   1      42.435  32.829  30.200  1.00  0.00     0.029 A 
ATOM     53  C   UNL A   1      43.139  31.896  29.455  1.00  0.00     0.049 A 
ATOM     54  H   UNL A   1      42.572  29.945  28.885  1.00  0.00     0.167 HD
ATOM     55  C   UNL A   1      45.101  31.036  28.214  1.00  0.00     0.074 A 
ATOM     56  C   UNL A   1      46.417  31.177  27.628  1.00  0.00     0.031 C 
ATOM     57  C   UNL A   1      44.444  32.026  28.862  1.00  0.00     0.037 A 
BRANCH  44  58
ATOM     58  C   UNL A   1      38.842  30.440  30.897  1.00  0.00     0.057 A 
ATOM     59  C   UNL A   1      37.758  31.067  30.273  1.00  0.00     0.134 A 
ATOM     60  C   UNL A   1      38.717  30.140  32.261  1.00  0.00     0.134 A 
ATOM     61  F   UNL A   1      37.817  31.391  28.973  1.00  0.00    -0.206 F 
ATOM     62  C   UNL A   1      36.599  31.396  30.981  1.00  0.00     0.040 A 
ATOM     63  C   UNL A   1      37.554  30.440  32.973  1.00  0.00     0.040 A 
ATOM     64  F   UNL A   1      39.715  29.529  32.918  1.00  0.00    -0.206 F 
ATOM     65  C   UNL A   1      36.492  31.074  32.332  1.00  0.00     0.006 A 
ENDBRANCH  44  58
BRANCH  45  66
ATOM     66  C   UNL A   1      46.938  27.322  25.990  1.00  0.00     0.057 A 
ATOM     67  C   UNL A   1      47.955  26.659  26.686  1.00  0.00     0.134 A 
ATOM     68  C   UNL A   1      47.108  27.494  24.610  1.00  0.00     0.134 A 
ATOM     69  F   UNL A   1      47.865  26.486  28.012  1.00  0.00    -0.206 F 
ATOM     70  C   UNL A   1      49.094  26.180  26.034  1.00  0.00     0.040 A 
ATOM     71  C   UNL A   1      48.226  26.995  23.942  1.00  0.00     0.040 A 
ATOM     72  F   UNL A   1      46.171  28.123  23.886  1.00  0.00    -0.206 F 
ATOM     73  C   UNL A   1      49.225  26.337  24.656  1.00  0.00     0.006 A 
ENDBRANCH  45  66
BRANCH  57  74
ATOM     74  C   UNL A   1      45.122  33.357  28.966  1.00  0.00     0.057 A 
ATOM     75  C   UNL A   1      46.038  33.628  29.988  1.00  0.00     0.134 A 
ATOM     76  C   UNL A   1      44.926  34.342  27.991  1.00  0.00     0.134 A 
ATOM     77  F   UNL A   1      46.260  32.727  30.958  1.00  0.00    -0.206 F 
ATOM     78  C   UNL A   1      46.738  34.833  30.038  1.00  0.00     0.040 A 
ATOM     79  C   UNL A   1      45.634  35.544  28.018  1.00  0.00     0.040 A 
ATOM     80  F   UNL A   1      44.066  34.141  26.981  1.00  0.00    -0.206 F 
ATOM     81  C   UNL A   1      46.544  35.791  29.044  1.00  0.00     0.006 A 
ENDBRANCH  57  74
ENDBRANCH  31  32
ENDBRANCH  24  26
ENDBRANCH  23  24
ENDBRANCH   1  23
TORSDOF 12
ENDMDL
MODEL 3
REMARK VINA RESULT:     -12.0      4.008      8.796
REMARK SMILES Cc1cc2c(c(C)c1Br)C=C(C(=O)OCCOC(=O)c1ccc(-c3c4nc(c(-c5c(F)cccc5F)c5ccc([nH]5)c(-c5c(F)cccc5F)c5nc(c(-c6c(F)cccc6F)c6ccc3[nH]6)C=C5)C=C4)cc1)[C@@H](C(F)(F)F)O2
REMARK SMILES IDX 16 1 15 2 14 3 12 4 13 5 11 6 1 7 2 8 3 9 8 10 4 11 6 12
REMARK SMILES IDX 9 13 5 14 79 15 7 16 10 17 74 18 75 19 76 20 77 21 78 22
REMARK SMILES IDX 17 23 18 24 19 25 20 26 21 27 73 28 22 29 72 30 23 31 24 32
REMARK SMILES IDX 25 33 66 34 26 35 71 36 65 37 67 38 27 39 70 40 64 41 63 42
REMARK SMILES IDX 28 44 54 45 37 46 53 47 38 48 41 49 52 50 68 51 39 52 40 53
REMARK SMILES IDX 51 55 69 56 42 57 29 58 30 59 35 60 31 61 32 62 34 63 36 64
REMARK SMILES IDX 33 65 55 66 56 67 61 68 57 69 58 70 60 71 62 72 59 73 43 74
REMARK SMILES IDX 44 75 49 76 45 77 46 78 48 79 50 80 47 81
REMARK H PARENT 67 43 41 54
REMARK Flexibility Score: inf
ROOT
ATOM      1  C   UNL A   1      31.714  30.078  25.376  1.00  0.00     0.275 C 
ENDROOT
BRANCH   1   2
ATOM      2  C   UNL A   1      31.398  28.642  24.960  1.00  0.00     0.275 C 
BRANCH   2   3
ATOM      3  O   UNL A   1      32.379  27.723  25.490  1.00  0.00    -0.459 OA
BRANCH   3   4
ATOM      4  C   UNL A   1      33.182  27.137  24.573  1.00  0.00     0.338 C 
ATOM      5  O   UNL A   1      33.828  27.695  23.701  1.00  0.00    -0.246 OA
BRANCH   4   6
ATOM      6  C   UNL A   1      33.195  25.676  24.762  1.00  0.00     0.087 C 
ATOM      7  C   UNL A   1      34.411  19.313  24.626  1.00  0.00     0.046 C 
ATOM      8  C   UNL A   1      34.465  20.809  24.792  1.00  0.00    -0.033 A 
ATOM      9  C   UNL A   1      33.263  21.526  24.742  1.00  0.00     0.051 A 
ATOM     10  C   UNL A   1      35.676  21.512  24.965  1.00  0.00     0.024 A 
ATOM     11  C   UNL A   1      33.252  22.915  24.824  1.00  0.00     0.128 A 
ATOM     12  C   UNL A   1      35.683  22.923  25.084  1.00  0.00    -0.026 A 
ATOM     13  Br  UNL A   1      37.311  20.516  25.001  1.00  0.00    -0.050 Br
ATOM     14  C   UNL A   1      34.450  23.622  24.978  1.00  0.00     0.021 A 
ATOM     15  O   UNL A   1      32.014  23.494  24.757  1.00  0.00    -0.475 OA
ATOM     16  C   UNL A   1      36.964  23.702  25.292  1.00  0.00     0.046 C 
ATOM     17  C   UNL A   1      34.375  25.081  24.973  1.00  0.00     0.027 C 
ATOM     18  C   UNL A   1      31.916  24.927  24.556  1.00  0.00     0.316 C 
BRANCH  18  19
ATOM     19  C   UNL A   1      31.315  25.200  23.167  1.00  0.00     0.430 C 
ATOM     20  F   UNL A   1      32.282  25.353  22.232  1.00  0.00    -0.167 F 
ATOM     21  F   UNL A   1      30.540  24.168  22.753  1.00  0.00    -0.167 F 
ATOM     22  F   UNL A   1      30.551  26.315  23.149  1.00  0.00    -0.167 F 
ENDBRANCH  18  19
ENDBRANCH   4   6
ENDBRANCH   3   4
ENDBRANCH   2   3
ENDBRANCH   1   2
BRANCH   1  23
ATOM     23  O   UNL A   1      32.265  30.086  26.706  1.00  0.00    -0.458 OA
BRANCH  23  24
ATOM     24  C   UNL A   1      32.868  31.233  27.087  1.00  0.00     0.338 C 
ATOM     25  O   UNL A   1      32.386  32.353  27.118  1.00  0.00    -0.246 OA
BRANCH  24  26
ATOM     26  C   UNL A   1      34.240  30.949  27.546  1.00  0.00     0.060 A 
ATOM     27  C   UNL A   1      34.651  29.628  27.686  1.00  0.00     0.016 A 
ATOM     28  C   UNL A   1      35.056  31.982  28.000  1.00  0.00     0.016 A 
ATOM     29  C   UNL A   1      35.796  29.331  28.419  1.00  0.00     0.010 A 
ATOM     30  C   UNL A   1      36.280  31.679  28.615  1.00  0.00     0.010 A 
ATOM     31  C   UNL A   1      36.637  30.348  28.891  1.00  0.00    -0.014 A 
BRANCH  31  32
ATOM     32  C   UNL A   1      37.834  30.010  29.723  1.00  0.00     0.031 A 
ATOM     33  C   UNL A   1      38.967  29.197  29.140  1.00  0.00     0.074 A 
ATOM     34  C   UNL A   1      37.949  30.477  30.985  1.00  0.00     0.049 A 
ATOM     35  N   UNL A   1      40.011  28.681  29.743  1.00  0.00    -0.248 NA
ATOM     36  C   UNL A   1      38.917  28.910  27.697  1.00  0.00     0.031 C 
ATOM     37  C   UNL A   1      36.967  31.317  31.673  1.00  0.00     0.029 A 
ATOM     38  N   UNL A   1      38.961  30.337  31.907  1.00  0.00    -0.354 N 
ATOM     39  C   UNL A   1      40.696  27.959  28.773  1.00  0.00     0.074 A 
ATOM     40  C   UNL A   1      39.949  28.093  27.542  1.00  0.00     0.031 C 
ATOM     41  C   UNL A   1      37.460  31.691  32.862  1.00  0.00     0.029 A 
ATOM     42  C   UNL A   1      38.738  31.024  33.078  1.00  0.00     0.049 A 
ATOM     43  H   UNL A   1      39.768  29.798  31.744  1.00  0.00     0.167 HD
ATOM     44  C   UNL A   1      41.847  27.254  28.893  1.00  0.00     0.037 A 
ATOM     45  C   UNL A   1      39.454  31.084  34.217  1.00  0.00     0.037 A 
ATOM     46  C   UNL A   1      42.639  27.191  30.094  1.00  0.00     0.049 A 
ATOM     47  C   UNL A   1      40.704  30.262  34.342  1.00  0.00     0.074 A 
ATOM     48  C   UNL A   1      43.834  26.524  30.301  1.00  0.00     0.029 A 
ATOM     49  N   UNL A   1      42.330  27.839  31.279  1.00  0.00    -0.354 N 
ATOM     50  N   UNL A   1      41.297  29.522  33.437  1.00  0.00    -0.248 NA
ATOM     51  C   UNL A   1      41.360  30.245  35.658  1.00  0.00     0.031 C 
ATOM     52  C   UNL A   1      44.232  26.740  31.623  1.00  0.00     0.029 A 
ATOM     53  C   UNL A   1      43.301  27.571  32.228  1.00  0.00     0.049 A 
ATOM     54  H   UNL A   1      41.538  28.405  31.424  1.00  0.00     0.167 HD
ATOM     55  C   UNL A   1      42.389  28.947  34.074  1.00  0.00     0.074 A 
ATOM     56  C   UNL A   1      42.396  29.447  35.432  1.00  0.00     0.031 C 
ATOM     57  C   UNL A   1      43.293  28.071  33.578  1.00  0.00     0.037 A 
BRANCH  44  58
ATOM     58  C   UNL A   1      42.324  26.475  27.700  1.00  0.00     0.057 A 
ATOM     59  C   UNL A   1      41.940  25.148  27.475  1.00  0.00     0.134 A 
ATOM     60  C   UNL A   1      43.127  27.090  26.730  1.00  0.00     0.134 A 
ATOM     61  F   UNL A   1      41.179  24.499  28.369  1.00  0.00    -0.206 F 
ATOM     62  C   UNL A   1      42.352  24.454  26.334  1.00  0.00     0.040 A 
ATOM     63  C   UNL A   1      43.524  26.415  25.574  1.00  0.00     0.040 A 
ATOM     64  F   UNL A   1      43.522  28.363  26.879  1.00  0.00    -0.206 F 
ATOM     65  C   UNL A   1      43.138  25.091  25.376  1.00  0.00     0.006 A 
ENDBRANCH  44  58
BRANCH  45  66
ATOM     66  C   UNL A   1      38.977  31.921  35.348  1.00  0.00     0.057 A 
ATOM     67  C   UNL A   1      38.211  31.368  36.380  1.00  0.00     0.134 A 
ATOM     68  C   UNL A   1      39.294  33.283  35.440  1.00  0.00     0.134 A 
ATOM     69  F   UNL A   1      37.851  30.078  36.337  1.00  0.00    -0.206 F 
ATOM     70  C   UNL A   1      37.782  32.137  37.465  1.00  0.00     0.040 A 
ATOM     71  C   UNL A   1      38.898  34.055  36.532  1.00  0.00     0.040 A 
ATOM     72  F   UNL A   1      40.023  33.875  34.482  1.00  0.00    -0.206 F 
ATOM     73  C   UNL A   1      38.137  33.482  37.548  1.00  0.00     0.006 A 
ENDBRANCH  45  66
BRANCH  57  74
ATOM     74  C   UNL A   1      44.364  27.580  34.504  1.00  0.00     0.057 A 
ATOM     75  C   UNL A   1      44.240  26.357  35.174  1.00  0.00     0.134 A 
ATOM     76  C   UNL A   1      45.560  28.289  34.660  1.00  0.00     0.134 A 
ATOM     77  F   UNL A   1      43.111  25.638  35.072  1.00  0.00    -0.206 F 
ATOM     78  C   UNL A   1      45.271  25.854  35.967  1.00  0.00     0.040 A 
ATOM     79  C   UNL A   1      46.607  27.787  35.435  1.00  0.00     0.040 A 
ATOM     80  F   UNL A   1      45.744  29.463  34.039  1.00  0.00    -0.206 F 
ATOM     81  C   UNL A   1      46.463  26.565  36.090  1.00  0.00     0.006 A 
ENDBRANCH  57  74
ENDBRANCH  31  32
ENDBRANCH  24  26
ENDBRANCH  23  24
ENDBRANCH   1  23
TORSDOF 12
ENDMDL
