MODEL 1
REMARK VINA RESULT:     -12.4      0.000      0.000
REMARK SMILES O=C(OCCOC(=O)[C@@H]1[C@@H](C(=O)Nc2cccc([N+](=O)[O-])c2)[C@@H]2C=C[C@H]1O2)c1ccc(-c2c3nc(c(-c4c(F)cccc4F)c4ccc([nH]4)c(-c4c(F)cccc4F)c4nc(c(-c5c(F)cccc5F)c5ccc2[nH]5)C=C4)C=C3)cc1
REMARK SMILES IDX 5 1 4 2 3 3 2 4 1 5 28 6 29 7 81 8 30 9 80 10 31 11 32 12
REMARK SMILES IDX 33 13 74 14 34 15 79 16 73 17 75 18 35 19 78 20 72 21 71 22
REMARK SMILES IDX 36 24 62 25 45 26 61 27 46 28 49 29 60 30 76 31 47 32 48 33
REMARK SMILES IDX 59 35 77 36 50 37 37 38 38 39 43 40 39 41 40 42 42 43 44 44
REMARK SMILES IDX 41 45 63 46 64 47 69 48 65 49 66 50 68 51 70 52 67 53 51 54
REMARK SMILES IDX 52 55 57 56 53 57 54 58 56 59 58 60 55 61 6 62 7 63 8 64
REMARK SMILES IDX 9 65 10 66 26 67 23 68 25 69 27 70 24 71 11 72 12 73 13 74
REMARK SMILES IDX 14 76 15 77 22 78 16 79 18 80 17 81 19 82 20 83 21 84
REMARK H PARENT 75 23 49 34 13 75
REMARK Flexibility Score: inf
ROOT
ATOM      1  C   UNL A   1      31.337  31.771  26.865  1.00  0.00     0.274 C 
ENDROOT
BRANCH   1   2
ATOM      2  C   UNL A   1      32.169  33.034  26.649  1.00  0.00     0.275 C 
BRANCH   2   3
ATOM      3  O   UNL A   1      32.013  34.016  27.696  1.00  0.00    -0.458 OA
BRANCH   3   4
ATOM      4  C   UNL A   1      32.899  34.612  28.530  1.00  0.00     0.338 C 
ATOM      5  O   UNL A   1      32.658  35.766  28.885  1.00  0.00    -0.246 OA
BRANCH   4   6
ATOM      6  C   UNL A   1      34.187  34.011  29.024  1.00  0.00     0.060 A 
ATOM      7  C   UNL A   1      35.480  34.464  28.744  1.00  0.00     0.016 A 
ATOM      8  C   UNL A   1      34.070  32.882  29.870  1.00  0.00     0.016 A 
ATOM      9  C   UNL A   1      36.608  33.868  29.340  1.00  0.00     0.010 A 
ATOM     10  C   UNL A   1      35.193  32.283  30.471  1.00  0.00     0.010 A 
ATOM     11  C   UNL A   1      36.477  32.782  30.217  1.00  0.00    -0.014 A 
BRANCH  11  12
ATOM     12  C   UNL A   1      37.699  32.086  30.703  1.00  0.00     0.031 A 
ATOM     13  C   UNL A   1      38.162  32.406  32.082  1.00  0.00     0.074 A 
ATOM     14  C   UNL A   1      38.348  31.150  29.981  1.00  0.00     0.049 A 
ATOM     15  N   UNL A   1      39.088  31.826  32.794  1.00  0.00    -0.248 NA
ATOM     16  C   UNL A   1      37.486  33.530  32.750  1.00  0.00     0.031 C 
ATOM     17  C   UNL A   1      38.007  30.795  28.620  1.00  0.00     0.029 A 
ATOM     18  N   UNL A   1      39.406  30.320  30.262  1.00  0.00    -0.354 N 
ATOM     19  C   UNL A   1      39.089  32.498  34.004  1.00  0.00     0.074 A 
ATOM     20  C   UNL A   1      38.118  33.564  33.911  1.00  0.00     0.031 C 
ATOM     21  C   UNL A   1      38.798  29.811  28.171  1.00  0.00     0.029 A 
ATOM     22  C   UNL A   1      39.730  29.462  29.228  1.00  0.00     0.049 A 
ATOM     23  H   UNL A   1      39.889  30.336  31.120  1.00  0.00     0.167 HD
ATOM     24  C   UNL A   1      39.829  32.232  35.103  1.00  0.00     0.037 A 
ATOM     25  C   UNL A   1      40.667  28.498  29.148  1.00  0.00     0.037 A 
ATOM     26  C   UNL A   1      40.837  31.210  35.151  1.00  0.00     0.049 A 
ATOM     27  C   UNL A   1      41.518  28.262  30.363  1.00  0.00     0.074 A 
ATOM     28  C   UNL A   1      41.675  30.872  36.195  1.00  0.00     0.029 A 
ATOM     29  N   UNL A   1      41.161  30.378  34.085  1.00  0.00    -0.354 N 
ATOM     30  N   UNL A   1      41.464  28.861  31.529  1.00  0.00    -0.248 NA
ATOM     31  C   UNL A   1      42.553  27.226  30.262  1.00  0.00     0.031 C 
ATOM     32  C   UNL A   1      42.539  29.867  35.745  1.00  0.00     0.029 A 
ATOM     33  C   UNL A   1      42.201  29.537  34.440  1.00  0.00     0.049 A 
ATOM     34  H   UNL A   1      40.715  30.386  33.207  1.00  0.00     0.167 HD
ATOM     35  C   UNL A   1      42.436  28.259  32.312  1.00  0.00     0.074 A 
ATOM     36  C   UNL A   1      43.054  27.236  31.490  1.00  0.00     0.031 C 
ATOM     37  C   UNL A   1      42.786  28.526  33.593  1.00  0.00     0.037 A 
BRANCH  24  38
ATOM     38  C   UNL A   1      39.577  33.114  36.285  1.00  0.00     0.057 A 
ATOM     39  C   UNL A   1      40.324  34.283  36.502  1.00  0.00     0.134 A 
ATOM     40  C   UNL A   1      38.667  32.733  37.275  1.00  0.00     0.134 A 
ATOM     41  F   UNL A   1      41.243  34.678  35.607  1.00  0.00    -0.206 F 
ATOM     42  C   UNL A   1      40.205  35.014  37.684  1.00  0.00     0.040 A 
ATOM     43  C   UNL A   1      38.521  33.471  38.450  1.00  0.00     0.040 A 
ATOM     44  F   UNL A   1      37.936  31.616  37.136  1.00  0.00    -0.206 F 
ATOM     45  C   UNL A   1      39.302  34.607  38.663  1.00  0.00     0.006 A 
ENDBRANCH  24  38
BRANCH  25  46
ATOM     46  C   UNL A   1      40.839  27.678  27.914  1.00  0.00     0.057 A 
ATOM     47  C   UNL A   1      40.199  26.440  27.763  1.00  0.00     0.134 A 
ATOM     48  C   UNL A   1      41.672  28.091  26.865  1.00  0.00     0.134 A 
ATOM     49  F   UNL A   1      39.399  25.972  28.732  1.00  0.00    -0.206 F 
ATOM     50  C   UNL A   1      40.401  25.636  26.636  1.00  0.00     0.040 A 
ATOM     51  C   UNL A   1      41.864  27.309  25.722  1.00  0.00     0.040 A 
ATOM     52  F   UNL A   1      42.316  29.266  26.932  1.00  0.00    -0.206 F 
ATOM     53  C   UNL A   1      41.235  26.072  25.610  1.00  0.00     0.006 A 
ENDBRANCH  25  46
BRANCH  37  54
ATOM     54  C   UNL A   1      43.854  27.661  34.187  1.00  0.00     0.057 A 
ATOM     55  C   UNL A   1      45.204  28.028  34.169  1.00  0.00     0.134 A 
ATOM     56  C   UNL A   1      43.512  26.456  34.814  1.00  0.00     0.134 A 
ATOM     57  F   UNL A   1      45.595  29.162  33.567  1.00  0.00    -0.206 F 
ATOM     58  C   UNL A   1      46.184  27.213  34.734  1.00  0.00     0.040 A 
ATOM     59  C   UNL A   1      44.480  25.648  35.409  1.00  0.00     0.040 A 
ATOM     60  F   UNL A   1      42.235  26.054  34.867  1.00  0.00    -0.206 F 
ATOM     61  C   UNL A   1      45.821  26.023  35.363  1.00  0.00     0.006 A 
ENDBRANCH  37  54
ENDBRANCH  11  12
ENDBRANCH   4   6
ENDBRANCH   3   4
ENDBRANCH   2   3
ENDBRANCH   1   2
BRANCH   1  62
ATOM     62  O   UNL A   1      31.757  30.759  25.947  1.00  0.00    -0.462 OA
BRANCH  62  63
ATOM     63  C   UNL A   1      32.914  30.075  26.196  1.00  0.00     0.312 C 
ATOM     64  O   UNL A   1      33.684  30.299  27.117  1.00  0.00    -0.252 OA
BRANCH  63  65
ATOM     65  C   UNL A   1      33.067  28.963  25.187  1.00  0.00     0.147 C 
ATOM     66  C   UNL A   1      31.847  28.671  24.248  1.00  0.00     0.129 C 
ATOM     67  C   UNL A   1      33.163  27.637  25.926  1.00  0.00     0.157 C 
ATOM     68  C   UNL A   1      31.547  27.196  24.610  1.00  0.00     0.155 C 
ATOM     69  C   UNL A   1      31.979  27.374  26.815  1.00  0.00     0.004 C 
ATOM     70  O   UNL A   1      32.887  26.725  24.854  1.00  0.00    -0.365 OA
ATOM     71  C   UNL A   1      30.968  27.103  25.988  1.00  0.00     0.004 C 
BRANCH  66  72
ATOM     72  C   UNL A   1      32.209  28.790  22.766  1.00  0.00     0.231 C 
ATOM     73  O   UNL A   1      33.323  28.468  22.346  1.00  0.00    -0.274 OA
ATOM     74  N   UNL A   1      31.291  29.239  21.842  1.00  0.00    -0.325 N 
ATOM     75  H   UNL A   1      31.596  29.230  20.906  1.00  0.00     0.169 HD
BRANCH  74  76
ATOM     76  C   UNL A   1      29.982  29.707  22.043  1.00  0.00     0.048 A 
ATOM     77  C   UNL A   1      29.109  28.898  22.778  1.00  0.00     0.026 A 
ATOM     78  C   UNL A   1      29.597  31.002  21.694  1.00  0.00     0.111 A 
ATOM     79  C   UNL A   1      27.924  29.434  23.294  1.00  0.00     0.009 A 
ATOM     80  C   UNL A   1      28.437  31.549  22.257  1.00  0.00     0.271 A 
ATOM     81  C   UNL A   1      27.600  30.772  23.065  1.00  0.00     0.086 A 
BRANCH  80  82
ATOM     82  N   UNL A   1      28.188  32.987  22.113  1.00  0.00     0.062 N 
ATOM     83  O   UNL A   1      28.645  33.741  22.982  1.00  0.00    -0.258 OA
ATOM     84  O   UNL A   1      27.579  33.364  21.102  1.00  0.00    -0.258 OA
ENDBRANCH  80  82
ENDBRANCH  74  76
ENDBRANCH  66  72
ENDBRANCH  63  65
ENDBRANCH  62  63
ENDBRANCH   1  62
TORSDOF 14
ENDMDL
MODEL 2
REMARK VINA RESULT:     -12.4      0.672      1.569
REMARK SMILES O=C(OCCOC(=O)[C@@H]1[C@@H](C(=O)Nc2cccc([N+](=O)[O-])c2)[C@@H]2C=C[C@H]1O2)c1ccc(-c2c3nc(c(-c4c(F)cccc4F)c4ccc([nH]4)c(-c4c(F)cccc4F)c4nc(c(-c5c(F)cccc5F)c5ccc2[nH]5)C=C4)C=C3)cc1
REMARK SMILES IDX 5 1 4 2 3 3 2 4 1 5 28 6 29 7 81 8 30 9 80 10 31 11 32 12
REMARK SMILES IDX 33 13 74 14 34 15 79 16 73 17 75 18 35 19 78 20 72 21 71 22
REMARK SMILES IDX 36 24 62 25 45 26 61 27 46 28 49 29 60 30 76 31 47 32 48 33
REMARK SMILES IDX 59 35 77 36 50 37 37 38 38 39 43 40 39 41 40 42 42 43 44 44
REMARK SMILES IDX 41 45 63 46 64 47 69 48 65 49 66 50 68 51 70 52 67 53 51 54
REMARK SMILES IDX 52 55 57 56 53 57 54 58 56 59 58 60 55 61 6 62 7 63 8 64
REMARK SMILES IDX 9 65 10 66 26 67 23 68 25 69 27 70 24 71 11 72 12 73 13 74
REMARK SMILES IDX 14 76 15 77 22 78 16 79 18 80 17 81 19 82 20 83 21 84
REMARK H PARENT 75 23 49 34 13 75
REMARK Flexibility Score: inf
ROOT
ATOM      1  C   UNL A   1      31.414  31.993  27.114  1.00  0.00     0.274 C 
ENDROOT
BRANCH   1   2
ATOM      2  C   UNL A   1      32.141  33.317  26.881  1.00  0.00     0.275 C 
BRANCH   2   3
ATOM      3  O   UNL A   1      32.252  34.133  28.067  1.00  0.00    -0.458 OA
BRANCH   3   4
ATOM      4  C   UNL A   1      33.318  34.628  28.740  1.00  0.00     0.338 C 
ATOM      5  O   UNL A   1      33.376  35.848  28.898  1.00  0.00    -0.246 OA
BRANCH   4   6
ATOM      6  C   UNL A   1      34.475  33.825  29.272  1.00  0.00     0.060 A 
ATOM      7  C   UNL A   1      34.402  32.739  30.150  1.00  0.00     0.016 A 
ATOM      8  C   UNL A   1      35.762  34.201  28.819  1.00  0.00     0.016 A 
ATOM      9  C   UNL A   1      35.553  32.010  30.506  1.00  0.00     0.010 A 
ATOM     10  C   UNL A   1      36.916  33.476  29.170  1.00  0.00     0.010 A 
ATOM     11  C   UNL A   1      36.817  32.361  30.013  1.00  0.00    -0.014 A 
BRANCH  11  12
ATOM     12  C   UNL A   1      38.023  31.662  30.534  1.00  0.00     0.031 A 
ATOM     13  C   UNL A   1      38.430  31.961  31.935  1.00  0.00     0.074 A 
ATOM     14  C   UNL A   1      38.703  30.740  29.823  1.00  0.00     0.049 A 
ATOM     15  N   UNL A   1      39.331  31.372  32.673  1.00  0.00    -0.248 NA
ATOM     16  C   UNL A   1      37.725  33.071  32.596  1.00  0.00     0.031 C 
ATOM     17  C   UNL A   1      38.416  30.407  28.444  1.00  0.00     0.029 A 
ATOM     18  N   UNL A   1      39.753  29.910  30.130  1.00  0.00    -0.354 N 
ATOM     19  C   UNL A   1      39.283  32.024  33.892  1.00  0.00     0.074 A 
ATOM     20  C   UNL A   1      38.311  33.088  33.779  1.00  0.00     0.031 C 
ATOM     21  C   UNL A   1      39.228  29.434  28.009  1.00  0.00     0.029 A 
ATOM     22  C   UNL A   1      40.120  29.070  29.096  1.00  0.00     0.049 A 
ATOM     23  H   UNL A   1      40.202  29.913  31.006  1.00  0.00     0.167 HD
ATOM     24  C   UNL A   1      39.981  31.742  35.014  1.00  0.00     0.037 A 
ATOM     25  C   UNL A   1      41.064  28.111  29.036  1.00  0.00     0.037 A 
ATOM     26  C   UNL A   1      40.991  30.724  35.084  1.00  0.00     0.049 A 
ATOM     27  C   UNL A   1      41.868  27.858  30.279  1.00  0.00     0.074 A 
ATOM     28  C   UNL A   1      41.790  30.372  36.155  1.00  0.00     0.029 A 
ATOM     29  N   UNL A   1      41.359  29.911  34.019  1.00  0.00    -0.354 N 
ATOM     30  N   UNL A   1      41.767  28.438  31.451  1.00  0.00    -0.248 NA
ATOM     31  C   UNL A   1      42.911  26.828  30.201  1.00  0.00     0.031 C 
ATOM     32  C   UNL A   1      42.674  29.377  35.722  1.00  0.00     0.029 A 
ATOM     33  C   UNL A   1      42.388  29.068  34.399  1.00  0.00     0.049 A 
ATOM     34  H   UNL A   1      40.947  29.931  33.125  1.00  0.00     0.167 HD
ATOM     35  C   UNL A   1      42.711  27.827  32.261  1.00  0.00     0.074 A 
ATOM     36  C   UNL A   1      43.364  26.819  31.447  1.00  0.00     0.031 C 
ATOM     37  C   UNL A   1      43.010  28.073  33.559  1.00  0.00     0.037 A 
BRANCH  24  38
ATOM     38  C   UNL A   1      39.679  32.604  36.201  1.00  0.00     0.057 A 
ATOM     39  C   UNL A   1      38.668  32.267  37.114  1.00  0.00     0.134 A 
ATOM     40  C   UNL A   1      40.319  33.835  36.365  1.00  0.00     0.134 A 
ATOM     41  F   UNL A   1      37.988  31.117  36.984  1.00  0.00    -0.206 F 
ATOM     42  C   UNL A   1      38.275  33.149  38.123  1.00  0.00     0.040 A 
ATOM     43  C   UNL A   1      39.952  34.714  37.386  1.00  0.00     0.040 A 
ATOM     44  F   UNL A   1      41.281  34.223  35.515  1.00  0.00    -0.206 F 
ATOM     45  C   UNL A   1      38.918  34.377  38.259  1.00  0.00     0.006 A 
ENDBRANCH  24  38
BRANCH  25  46
ATOM     46  C   UNL A   1      41.287  27.313  27.796  1.00  0.00     0.057 A 
ATOM     47  C   UNL A   1      42.127  27.771  26.772  1.00  0.00     0.134 A 
ATOM     48  C   UNL A   1      40.642  26.087  27.583  1.00  0.00     0.134 A 
ATOM     49  F   UNL A   1      42.766  28.944  26.898  1.00  0.00    -0.206 F 
ATOM     50  C   UNL A   1      42.297  27.059  25.580  1.00  0.00     0.040 A 
ATOM     51  C   UNL A   1      40.822  25.352  26.407  1.00  0.00     0.040 A 
ATOM     52  F   UNL A   1      39.826  25.578  28.518  1.00  0.00    -0.206 F 
ATOM     53  C   UNL A   1      41.644  25.843  25.396  1.00  0.00     0.006 A 
ENDBRANCH  25  46
BRANCH  37  54
ATOM     54  C   UNL A   1      44.059  27.203  34.180  1.00  0.00     0.057 A 
ATOM     55  C   UNL A   1      45.411  27.559  34.190  1.00  0.00     0.134 A 
ATOM     56  C   UNL A   1      43.694  26.003  34.804  1.00  0.00     0.134 A 
ATOM     57  F   UNL A   1      45.824  28.688  33.592  1.00  0.00    -0.206 F 
ATOM     58  C   UNL A   1      46.373  26.739  34.779  1.00  0.00     0.040 A 
ATOM     59  C   UNL A   1      44.642  25.190  35.422  1.00  0.00     0.040 A 
ATOM     60  F   UNL A   1      42.412  25.611  34.831  1.00  0.00    -0.206 F 
ATOM     61  C   UNL A   1      45.987  25.554  35.405  1.00  0.00     0.006 A 
ENDBRANCH  37  54
ENDBRANCH  11  12
ENDBRANCH   4   6
ENDBRANCH   3   4
ENDBRANCH   2   3
ENDBRANCH   1   2
BRANCH   1  62
ATOM     62  O   UNL A   1      31.944  30.996  26.238  1.00  0.00    -0.462 OA
BRANCH  62  63
ATOM     63  C   UNL A   1      33.093  30.345  26.589  1.00  0.00     0.312 C 
ATOM     64  O   UNL A   1      33.781  30.602  27.565  1.00  0.00    -0.252 OA
BRANCH  63  65
ATOM     65  C   UNL A   1      33.353  29.225  25.613  1.00  0.00     0.147 C 
ATOM     66  C   UNL A   1      32.186  28.826  24.646  1.00  0.00     0.129 C 
ATOM     67  C   UNL A   1      33.519  27.926  26.387  1.00  0.00     0.157 C 
ATOM     68  C   UNL A   1      31.979  27.343  25.036  1.00  0.00     0.155 C 
ATOM     69  C   UNL A   1      32.329  27.601  27.248  1.00  0.00     0.004 C 
ATOM     70  O   UNL A   1      33.339  26.972  25.330  1.00  0.00    -0.365 OA
ATOM     71  C   UNL A   1      31.365  27.241  26.399  1.00  0.00     0.004 C 
BRANCH  66  72
ATOM     72  C   UNL A   1      32.584  28.936  23.173  1.00  0.00     0.231 C 
ATOM     73  O   UNL A   1      33.765  28.916  22.820  1.00  0.00    -0.274 OA
ATOM     74  N   UNL A   1      31.631  29.036  22.183  1.00  0.00    -0.325 N 
ATOM     75  H   UNL A   1      31.979  29.048  21.262  1.00  0.00     0.169 HD
BRANCH  74  76
ATOM     76  C   UNL A   1      30.233  29.124  22.298  1.00  0.00     0.048 A 
ATOM     77  C   UNL A   1      29.540  27.969  22.675  1.00  0.00     0.026 A 
ATOM     78  C   UNL A   1      29.560  30.344  22.226  1.00  0.00     0.111 A 
ATOM     79  C   UNL A   1      28.219  28.062  23.126  1.00  0.00     0.009 A 
ATOM     80  C   UNL A   1      28.257  30.439  22.729  1.00  0.00     0.271 A 
ATOM     81  C   UNL A   1      27.582  29.303  23.188  1.00  0.00     0.086 A 
BRANCH  80  82
ATOM     82  N   UNL A   1      27.660  31.767  22.909  1.00  0.00     0.062 N 
ATOM     83  O   UNL A   1      26.902  31.933  23.874  1.00  0.00    -0.258 OA
ATOM     84  O   UNL A   1      27.994  32.657  22.113  1.00  0.00    -0.258 OA
ENDBRANCH  80  82
ENDBRANCH  74  76
ENDBRANCH  66  72
ENDBRANCH  63  65
ENDBRANCH  62  63
ENDBRANCH   1  62
TORSDOF 14
ENDMDL
MODEL 3
REMARK VINA RESULT:     -12.2      6.270     10.994
REMARK SMILES O=C(OCCOC(=O)[C@@H]1[C@@H](C(=O)Nc2cccc([N+](=O)[O-])c2)[C@@H]2C=C[C@H]1O2)c1ccc(-c2c3nc(c(-c4c(F)cccc4F)c4ccc([nH]4)c(-c4c(F)cccc4F)c4nc(c(-c5c(F)cccc5F)c5ccc2[nH]5)C=C4)C=C3)cc1
REMARK SMILES IDX 5 1 4 2 3 3 2 4 1 5 28 6 29 7 81 8 30 9 80 10 31 11 32 12
REMARK SMILES IDX 33 13 74 14 34 15 79 16 73 17 75 18 35 19 78 20 72 21 71 22
REMARK SMILES IDX 36 24 62 25 45 26 61 27 46 28 49 29 60 30 76 31 47 32 48 33
REMARK SMILES IDX 59 35 77 36 50 37 37 38 38 39 43 40 39 41 40 42 42 43 44 44
REMARK SMILES IDX 41 45 63 46 64 47 69 48 65 49 66 50 68 51 70 52 67 53 51 54
REMARK SMILES IDX 52 55 57 56 53 57 54 58 56 59 58 60 55 61 6 62 7 63 8 64
REMARK SMILES IDX 9 65 10 66 26 67 23 68 25 69 27 70 24 71 11 72 12 73 13 74
REMARK SMILES IDX 14 76 15 77 22 78 16 79 18 80 17 81 19 82 20 83 21 84
REMARK H PARENT 75 23 49 34 13 75
REMARK Flexibility Score: inf
ROOT
ATOM      1  C   UNL A   1      38.155  19.732  24.620  1.00  0.00     0.274 C 
ENDROOT
BRANCH   1   2
ATOM      2  C   UNL A   1      38.938  19.159  25.801  1.00  0.00     0.275 C 
BRANCH   2   3
ATOM      3  O   UNL A   1      40.312  18.847  25.487  1.00  0.00    -0.458 OA
BRANCH   3   4
ATOM      4  C   UNL A   1      41.488  19.275  26.005  1.00  0.00     0.338 C 
ATOM      5  O   UNL A   1      42.375  18.437  26.173  1.00  0.00    -0.246 OA
BRANCH   4   6
ATOM      6  C   UNL A   1      41.797  20.680  26.448  1.00  0.00     0.060 A 
ATOM      7  C   UNL A   1      42.094  21.768  25.622  1.00  0.00     0.016 A 
ATOM      8  C   UNL A   1      41.766  20.920  27.843  1.00  0.00     0.016 A 
ATOM      9  C   UNL A   1      42.278  23.059  26.153  1.00  0.00     0.010 A 
ATOM     10  C   UNL A   1      41.948  22.208  28.380  1.00  0.00     0.010 A 
ATOM     11  C   UNL A   1      42.196  23.295  27.532  1.00  0.00    -0.014 A 
BRANCH  11  12
ATOM     12  C   UNL A   1      42.548  24.640  28.064  1.00  0.00     0.031 A 
ATOM     13  C   UNL A   1      43.997  24.972  28.168  1.00  0.00     0.074 A 
ATOM     14  C   UNL A   1      41.625  25.570  28.382  1.00  0.00     0.049 A 
ATOM     15  N   UNL A   1      44.560  26.117  28.439  1.00  0.00    -0.248 NA
ATOM     16  C   UNL A   1      44.937  23.865  27.932  1.00  0.00     0.031 C 
ATOM     17  C   UNL A   1      40.197  25.336  28.356  1.00  0.00     0.029 A 
ATOM     18  N   UNL A   1      41.717  26.882  28.779  1.00  0.00    -0.354 N 
ATOM     19  C   UNL A   1      45.921  25.874  28.381  1.00  0.00     0.074 A 
ATOM     20  C   UNL A   1      46.100  24.465  28.110  1.00  0.00     0.031 C 
ATOM     21  C   UNL A   1      39.526  26.448  28.686  1.00  0.00     0.029 A 
ATOM     22  C   UNL A   1      40.493  27.495  28.963  1.00  0.00     0.049 A 
ATOM     23  H   UNL A   1      42.576  27.342  28.919  1.00  0.00     0.167 HD
ATOM     24  C   UNL A   1      46.931  26.759  28.526  1.00  0.00     0.037 A 
ATOM     25  C   UNL A   1      40.187  28.760  29.308  1.00  0.00     0.037 A 
ATOM     26  C   UNL A   1      46.732  28.141  28.863  1.00  0.00     0.049 A 
ATOM     27  C   UNL A   1      41.330  29.711  29.523  1.00  0.00     0.074 A 
ATOM     28  C   UNL A   1      47.679  29.124  29.072  1.00  0.00     0.029 A 
ATOM     29  N   UNL A   1      45.488  28.725  29.069  1.00  0.00    -0.354 N 
ATOM     30  N   UNL A   1      42.617  29.485  29.399  1.00  0.00    -0.248 NA
ATOM     31  C   UNL A   1      40.992  31.082  29.921  1.00  0.00     0.031 C 
ATOM     32  C   UNL A   1      47.008  30.293  29.452  1.00  0.00     0.029 A 
ATOM     33  C   UNL A   1      45.641  30.054  29.422  1.00  0.00     0.049 A 
ATOM     34  H   UNL A   1      44.624  28.262  28.977  1.00  0.00     0.167 HD
ATOM     35  C   UNL A   1      43.243  30.689  29.675  1.00  0.00     0.074 A 
ATOM     36  C   UNL A   1      42.191  31.647  29.959  1.00  0.00     0.031 C 
ATOM     37  C   UNL A   1      44.567  30.979  29.693  1.00  0.00     0.037 A 
BRANCH  24  38
ATOM     38  C   UNL A   1      48.311  26.202  28.366  1.00  0.00     0.057 A 
ATOM     39  C   UNL A   1      49.037  25.712  29.463  1.00  0.00     0.134 A 
ATOM     40  C   UNL A   1      48.965  26.266  27.132  1.00  0.00     0.134 A 
ATOM     41  F   UNL A   1      48.478  25.665  30.682  1.00  0.00    -0.206 F 
ATOM     42  C   UNL A   1      50.379  25.348  29.345  1.00  0.00     0.040 A 
ATOM     43  C   UNL A   1      50.299  25.880  26.996  1.00  0.00     0.040 A 
ATOM     44  F   UNL A   1      48.333  26.742  26.049  1.00  0.00    -0.206 F 
ATOM     45  C   UNL A   1      51.013  25.433  28.108  1.00  0.00     0.006 A 
ENDBRANCH  24  38
BRANCH  25  46
ATOM     46  C   UNL A   1      38.772  29.211  29.448  1.00  0.00     0.057 A 
ATOM     47  C   UNL A   1      38.104  29.153  30.679  1.00  0.00     0.134 A 
ATOM     48  C   UNL A   1      38.037  29.680  28.350  1.00  0.00     0.134 A 
ATOM     49  F   UNL A   1      38.738  28.700  31.770  1.00  0.00    -0.206 F 
ATOM     50  C   UNL A   1      36.759  29.517  30.808  1.00  0.00     0.040 A 
ATOM     51  C   UNL A   1      36.699  30.071  28.470  1.00  0.00     0.040 A 
ATOM     52  F   UNL A   1      38.607  29.770  27.140  1.00  0.00    -0.206 F 
ATOM     53  C   UNL A   1      36.053  29.979  29.700  1.00  0.00     0.006 A 
ENDBRANCH  25  46
BRANCH  37  54
ATOM     54  C   UNL A   1      44.936  32.400  29.983  1.00  0.00     0.057 A 
ATOM     55  C   UNL A   1      45.214  32.847  31.279  1.00  0.00     0.134 A 
ATOM     56  C   UNL A   1      45.041  33.325  28.937  1.00  0.00     0.134 A 
ATOM     57  F   UNL A   1      45.112  32.011  32.325  1.00  0.00    -0.206 F 
ATOM     58  C   UNL A   1      45.563  34.173  31.530  1.00  0.00     0.040 A 
ATOM     59  C   UNL A   1      45.418  34.646  29.172  1.00  0.00     0.040 A 
ATOM     60  F   UNL A   1      44.790  32.956  27.673  1.00  0.00    -0.206 F 
ATOM     61  C   UNL A   1      45.674  35.075  30.473  1.00  0.00     0.006 A 
ENDBRANCH  37  54
ENDBRANCH  11  12
ENDBRANCH   4   6
ENDBRANCH   3   4
ENDBRANCH   2   3
ENDBRANCH   1   2
BRANCH   1  62
ATOM     62  O   UNL A   1      36.987  20.401  25.100  1.00  0.00    -0.462 OA
BRANCH  62  63
ATOM     63  C   UNL A   1      37.082  21.705  25.494  1.00  0.00     0.312 C 
ATOM     64  O   UNL A   1      38.117  22.353  25.550  1.00  0.00    -0.252 OA
BRANCH  63  65
ATOM     65  C   UNL A   1      35.705  22.240  25.799  1.00  0.00     0.147 C 
ATOM     66  C   UNL A   1      34.480  21.384  25.329  1.00  0.00     0.129 C 
ATOM     67  C   UNL A   1      35.478  23.507  24.989  1.00  0.00     0.157 C 
ATOM     68  C   UNL A   1      33.769  22.386  24.388  1.00  0.00     0.155 C 
ATOM     69  C   UNL A   1      35.637  23.292  23.509  1.00  0.00     0.004 C 
ATOM     70  O   UNL A   1      34.050  23.618  25.080  1.00  0.00    -0.365 OA
ATOM     71  C   UNL A   1      34.568  22.586  23.136  1.00  0.00     0.004 C 
BRANCH  66  72
ATOM     72  C   UNL A   1      33.557  20.998  26.487  1.00  0.00     0.231 C 
ATOM     73  O   UNL A   1      33.411  21.731  27.467  1.00  0.00    -0.274 OA
ATOM     74  N   UNL A   1      32.835  19.826  26.461  1.00  0.00    -0.325 N 
ATOM     75  H   UNL A   1      32.228  19.688  27.224  1.00  0.00     0.169 HD
BRANCH  74  76
ATOM     76  C   UNL A   1      32.840  18.797  25.504  1.00  0.00     0.048 A 
ATOM     77  C   UNL A   1      32.638  19.155  24.167  1.00  0.00     0.026 A 
ATOM     78  C   UNL A   1      33.211  17.491  25.823  1.00  0.00     0.111 A 
ATOM     79  C   UNL A   1      32.957  18.254  23.145  1.00  0.00     0.009 A 
ATOM     80  C   UNL A   1      33.580  16.612  24.797  1.00  0.00     0.271 A 
ATOM     81  C   UNL A   1      33.463  16.990  23.455  1.00  0.00     0.086 A 
BRANCH  80  82
ATOM     82  N   UNL A   1      34.232  15.345  25.147  1.00  0.00     0.062 N 
ATOM     83  O   UNL A   1      35.460  15.353  25.305  1.00  0.00    -0.258 OA
ATOM     84  O   UNL A   1      33.506  14.355  25.314  1.00  0.00    -0.258 OA
ENDBRANCH  80  82
ENDBRANCH  74  76
ENDBRANCH  66  72
ENDBRANCH  63  65
ENDBRANCH  62  63
ENDBRANCH   1  62
TORSDOF 14
ENDMDL
