MODEL 1
REMARK VINA RESULT:     -11.1      0.000      0.000
REMARK SMILES CC[NH2+][C@@]1(C(=O)OCCOC(=O)c2ccc(-c3c4nc(c(-c5c(F)cccc5F)c5ccc([nH]5)c(-c5c(F)cccc5F)c5nc(c(-c6c(F)cccc6F)c6ccc3[nH]6)C=C5)C=C4)cc2)CC[C@H](Oc2ccc3c(c2)OCO3)C1
REMARK SMILES IDX 8 1 7 2 5 3 6 4 4 5 67 6 80 7 68 8 69 9 3 10 2 13 1 14 70 15
REMARK SMILES IDX 71 16 72 17 76 18 73 19 75 20 74 21 77 22 79 23 78 24 9 25
REMARK SMILES IDX 10 26 11 27 12 28 13 29 14 30 66 31 15 32 65 33 16 34 17 35
REMARK SMILES IDX 18 36 59 37 19 38 64 39 58 40 60 41 20 42 63 43 57 44 56 45
REMARK SMILES IDX 21 47 47 48 30 49 46 50 31 51 34 52 45 53 61 54 32 55 33 56
REMARK SMILES IDX 44 58 62 59 35 60 22 61 23 62 28 63 24 64 25 65 27 66 29 67
REMARK SMILES IDX 26 68 48 69 49 70 54 71 50 72 51 73 53 74 55 75 52 76 36 77
REMARK SMILES IDX 37 78 42 79 38 80 39 81 41 82 43 83 40 84
REMARK H PARENT 3 11 3 12 60 46 34 57
REMARK Flexibility Score: inf
ROOT
ATOM      1  C   UNL A   1      31.677  28.764  27.124  1.00  0.00     0.274 C 
ENDROOT
BRANCH   1   2
ATOM      2  O   UNL A   1      32.268  27.754  26.285  1.00  0.00    -0.457 OA
BRANCH   2   3
ATOM      3  C   UNL A   1      31.430  26.823  25.754  1.00  0.00     0.368 C 
ATOM      4  O   UNL A   1      30.495  26.336  26.382  1.00  0.00    -0.245 OA
BRANCH   3   5
ATOM      5  C   UNL A   1      31.851  26.387  24.299  1.00  0.00     0.198 C 
ATOM      6  C   UNL A   1      32.821  27.403  23.693  1.00  0.00     0.085 C 
ATOM      7  C   UNL A   1      30.687  26.420  23.283  1.00  0.00     0.126 C 
ATOM      8  C   UNL A   1      31.927  28.529  23.196  1.00  0.00     0.052 C 
ATOM      9  C   UNL A   1      30.615  27.866  22.749  1.00  0.00     0.180 C 
BRANCH   5  10
ATOM     10  N   UNL A   1      32.404  25.003  24.339  1.00  0.00    -0.332 N 
ATOM     11  H   UNL A   1      31.654  24.372  24.621  1.00  0.00     0.347 HD
ATOM     12  H   UNL A   1      32.765  24.815  23.405  1.00  0.00     0.347 HD
BRANCH  10  13
ATOM     13  C   UNL A   1      33.529  24.808  25.257  1.00  0.00     0.257 C 
ATOM     14  C   UNL A   1      34.753  24.382  24.461  1.00  0.00     0.071 C 
ENDBRANCH  10  13
ENDBRANCH   5  10
BRANCH   9  15
ATOM     15  O   UNL A   1      29.449  28.457  23.315  1.00  0.00    -0.490 OA
BRANCH  15  16
ATOM     16  C   UNL A   1      29.109  29.742  23.020  1.00  0.00     0.123 A 
ATOM     17  C   UNL A   1      29.250  30.851  23.870  1.00  0.00     0.050 A 
ATOM     18  C   UNL A   1      28.576  29.900  21.736  1.00  0.00     0.097 A 
ATOM     19  C   UNL A   1      28.825  32.119  23.454  1.00  0.00     0.054 A 
ATOM     20  C   UNL A   1      28.181  31.158  21.347  1.00  0.00     0.169 A 
ATOM     21  C   UNL A   1      28.298  32.240  22.186  1.00  0.00     0.166 A 
ATOM     22  O   UNL A   1      27.650  31.488  20.141  1.00  0.00    -0.453 OA
ATOM     23  O   UNL A   1      27.856  33.389  21.610  1.00  0.00    -0.454 OA
ATOM     24  C   UNL A   1      27.554  32.921  20.277  1.00  0.00     0.468 C 
ENDBRANCH  15  16
ENDBRANCH   9  15
ENDBRANCH   3   5
ENDBRANCH   2   3
ENDBRANCH   1   2
BRANCH   1  25
ATOM     25  C   UNL A   1      31.780  30.151  26.488  1.00  0.00     0.275 C 
BRANCH  25  26
ATOM     26  O   UNL A   1      33.155  30.554  26.342  1.00  0.00    -0.458 OA
BRANCH  26  27
ATOM     27  C   UNL A   1      33.532  31.585  27.132  1.00  0.00     0.338 C 
ATOM     28  O   UNL A   1      32.900  32.606  27.370  1.00  0.00    -0.246 OA
BRANCH  27  29
ATOM     29  C   UNL A   1      34.789  31.253  27.819  1.00  0.00     0.060 A 
ATOM     30  C   UNL A   1      34.905  29.967  28.351  1.00  0.00     0.016 A 
ATOM     31  C   UNL A   1      35.814  32.185  27.993  1.00  0.00     0.016 A 
ATOM     32  C   UNL A   1      36.054  29.593  29.039  1.00  0.00     0.010 A 
ATOM     33  C   UNL A   1      36.960  31.818  28.710  1.00  0.00     0.010 A 
ATOM     34  C   UNL A   1      37.083  30.520  29.237  1.00  0.00    -0.014 A 
BRANCH  34  35
ATOM     35  C   UNL A   1      38.240  30.133  30.076  1.00  0.00     0.031 A 
ATOM     36  C   UNL A   1      39.287  29.222  29.506  1.00  0.00     0.074 A 
ATOM     37  C   UNL A   1      38.392  30.651  31.307  1.00  0.00     0.049 A 
ATOM     38  N   UNL A   1      40.378  28.762  30.063  1.00  0.00    -0.248 NA
ATOM     39  C   UNL A   1      39.083  28.781  28.117  1.00  0.00     0.031 C 
ATOM     40  C   UNL A   1      37.479  31.600  31.941  1.00  0.00     0.029 A 
ATOM     41  N   UNL A   1      39.379  30.458  32.240  1.00  0.00    -0.354 N 
ATOM     42  C   UNL A   1      40.995  27.984  29.093  1.00  0.00     0.074 A 
ATOM     43  C   UNL A   1      40.148  28.017  27.919  1.00  0.00     0.031 C 
ATOM     44  C   UNL A   1      37.953  31.913  33.160  1.00  0.00     0.029 A 
ATOM     45  C   UNL A   1      39.178  31.153  33.406  1.00  0.00     0.049 A 
ATOM     46  H   UNL A   1      40.159  29.876  32.088  1.00  0.00     0.167 HD
ATOM     47  C   UNL A   1      42.163  27.302  29.175  1.00  0.00     0.037 A 
ATOM     48  C   UNL A   1      39.889  31.155  34.550  1.00  0.00     0.037 A 
ATOM     49  C   UNL A   1      42.988  27.243  30.352  1.00  0.00     0.049 A 
ATOM     50  C   UNL A   1      41.124  30.298  34.651  1.00  0.00     0.074 A 
ATOM     51  C   UNL A   1      44.163  26.538  30.549  1.00  0.00     0.029 A 
ATOM     52  N   UNL A   1      42.717  27.907  31.539  1.00  0.00    -0.354 N 
ATOM     53  N   UNL A   1      41.693  29.553  33.735  1.00  0.00    -0.248 NA
ATOM     54  C   UNL A   1      41.809  30.275  35.952  1.00  0.00     0.031 C 
ATOM     55  C   UNL A   1      44.582  26.745  31.868  1.00  0.00     0.029 A 
ATOM     56  C   UNL A   1      43.693  27.614  32.478  1.00  0.00     0.049 A 
ATOM     57  H   UNL A   1      41.946  28.500  31.691  1.00  0.00     0.167 HD
ATOM     58  C   UNL A   1      42.813  28.995  34.340  1.00  0.00     0.074 A 
ATOM     59  C   UNL A   1      42.853  29.501  35.696  1.00  0.00     0.031 C 
ATOM     60  C   UNL A   1      43.725  28.137  33.820  1.00  0.00     0.037 A 
BRANCH  47  61
ATOM     61  C   UNL A   1      42.589  26.534  27.961  1.00  0.00     0.057 A 
ATOM     62  C   UNL A   1      42.153  25.224  27.728  1.00  0.00     0.134 A 
ATOM     63  C   UNL A   1      43.435  27.115  27.009  1.00  0.00     0.134 A 
ATOM     64  F   UNL A   1      41.355  24.605  28.611  1.00  0.00    -0.206 F 
ATOM     65  C   UNL A   1      42.563  24.510  26.600  1.00  0.00     0.040 A 
ATOM     66  C   UNL A   1      43.833  26.420  25.867  1.00  0.00     0.040 A 
ATOM     67  F   UNL A   1      43.886  28.368  27.174  1.00  0.00    -0.206 F 
ATOM     68  C   UNL A   1      43.402  25.111  25.663  1.00  0.00     0.006 A 
ENDBRANCH  47  61
BRANCH  48  69
ATOM     69  C   UNL A   1      39.440  31.961  35.715  1.00  0.00     0.057 A 
ATOM     70  C   UNL A   1      38.467  31.482  36.599  1.00  0.00     0.134 A 
ATOM     71  C   UNL A   1      39.933  33.252  35.938  1.00  0.00     0.134 A 
ATOM     72  F   UNL A   1      37.935  30.264  36.423  1.00  0.00    -0.206 F 
ATOM     73  C   UNL A   1      37.982  32.267  37.648  1.00  0.00     0.040 A 
ATOM     74  C   UNL A   1      39.478  34.037  36.998  1.00  0.00     0.040 A 
ATOM     75  F   UNL A   1      40.862  33.773  35.122  1.00  0.00    -0.206 F 
ATOM     76  C   UNL A   1      38.492  33.548  37.851  1.00  0.00     0.006 A 
ENDBRANCH  48  69
BRANCH  60  77
ATOM     77  C   UNL A   1      44.862  27.721  34.708  1.00  0.00     0.057 A 
ATOM     78  C   UNL A   1      44.793  26.576  35.512  1.00  0.00     0.134 A 
ATOM     79  C   UNL A   1      46.055  28.456  34.728  1.00  0.00     0.134 A 
ATOM     80  F   UNL A   1      43.675  25.837  35.548  1.00  0.00    -0.206 F 
ATOM     81  C   UNL A   1      45.863  26.189  36.322  1.00  0.00     0.040 A 
ATOM     82  C   UNL A   1      47.140  28.065  35.515  1.00  0.00     0.040 A 
ATOM     83  F   UNL A   1      46.189  29.559  33.975  1.00  0.00    -0.206 F 
ATOM     84  C   UNL A   1      47.042  26.932  36.319  1.00  0.00     0.006 A 
ENDBRANCH  60  77
ENDBRANCH  34  35
ENDBRANCH  27  29
ENDBRANCH  26  27
ENDBRANCH  25  26
ENDBRANCH   1  25
TORSDOF 15
ENDMDL
MODEL 2
REMARK VINA RESULT:     -11.1      0.566      6.286
REMARK SMILES CC[NH2+][C@@]1(C(=O)OCCOC(=O)c2ccc(-c3c4nc(c(-c5c(F)cccc5F)c5ccc([nH]5)c(-c5c(F)cccc5F)c5nc(c(-c6c(F)cccc6F)c6ccc3[nH]6)C=C5)C=C4)cc2)CC[C@H](Oc2ccc3c(c2)OCO3)C1
REMARK SMILES IDX 8 1 7 2 5 3 6 4 4 5 67 6 80 7 68 8 69 9 3 10 2 13 1 14 70 15
REMARK SMILES IDX 71 16 72 17 76 18 73 19 75 20 74 21 77 22 79 23 78 24 9 25
REMARK SMILES IDX 10 26 11 27 12 28 13 29 14 30 66 31 15 32 65 33 16 34 17 35
REMARK SMILES IDX 18 36 59 37 19 38 64 39 58 40 60 41 20 42 63 43 57 44 56 45
REMARK SMILES IDX 21 47 47 48 30 49 46 50 31 51 34 52 45 53 61 54 32 55 33 56
REMARK SMILES IDX 44 58 62 59 35 60 22 61 23 62 28 63 24 64 25 65 27 66 29 67
REMARK SMILES IDX 26 68 48 69 49 70 54 71 50 72 51 73 53 74 55 75 52 76 36 77
REMARK SMILES IDX 37 78 42 79 38 80 39 81 41 82 43 83 40 84
REMARK H PARENT 3 11 3 12 60 46 34 57
REMARK Flexibility Score: inf
ROOT
ATOM      1  C   UNL A   1      31.774  28.553  27.251  1.00  0.00     0.274 C 
ENDROOT
BRANCH   1   2
ATOM      2  O   UNL A   1      32.272  27.564  26.330  1.00  0.00    -0.457 OA
BRANCH   2   3
ATOM      3  C   UNL A   1      31.356  26.738  25.755  1.00  0.00     0.368 C 
ATOM      4  O   UNL A   1      30.365  26.328  26.351  1.00  0.00    -0.245 OA
BRANCH   3   5
ATOM      5  C   UNL A   1      31.762  26.307  24.294  1.00  0.00     0.198 C 
ATOM      6  C   UNL A   1      32.749  27.309  23.692  1.00  0.00     0.085 C 
ATOM      7  C   UNL A   1      30.593  26.374  23.284  1.00  0.00     0.126 C 
ATOM      8  C   UNL A   1      31.875  28.458  23.211  1.00  0.00     0.052 C 
ATOM      9  C   UNL A   1      30.549  27.825  22.764  1.00  0.00     0.180 C 
BRANCH   5  10
ATOM     10  N   UNL A   1      32.286  24.913  24.319  1.00  0.00    -0.332 N 
ATOM     11  H   UNL A   1      33.303  24.960  24.391  1.00  0.00     0.347 HD
ATOM     12  H   UNL A   1      31.843  24.457  25.115  1.00  0.00     0.347 HD
BRANCH  10  13
ATOM     13  C   UNL A   1      31.952  24.100  23.147  1.00  0.00     0.257 C 
ATOM     14  C   UNL A   1      33.230  23.766  22.392  1.00  0.00     0.071 C 
ENDBRANCH  10  13
ENDBRANCH   5  10
BRANCH   9  15
ATOM     15  O   UNL A   1      29.397  28.435  23.341  1.00  0.00    -0.490 OA
BRANCH  15  16
ATOM     16  C   UNL A   1      29.072  29.723  23.045  1.00  0.00     0.123 A 
ATOM     17  C   UNL A   1      29.229  30.832  23.893  1.00  0.00     0.050 A 
ATOM     18  C   UNL A   1      28.537  29.886  21.763  1.00  0.00     0.097 A 
ATOM     19  C   UNL A   1      28.818  32.105  23.477  1.00  0.00     0.054 A 
ATOM     20  C   UNL A   1      28.155  31.149  21.374  1.00  0.00     0.169 A 
ATOM     21  C   UNL A   1      28.289  32.230  22.210  1.00  0.00     0.166 A 
ATOM     22  O   UNL A   1      27.625  31.483  20.169  1.00  0.00    -0.453 OA
ATOM     23  O   UNL A   1      27.858  33.384  21.634  1.00  0.00    -0.454 OA
ATOM     24  C   UNL A   1      27.547  32.917  20.303  1.00  0.00     0.468 C 
ENDBRANCH  15  16
ENDBRANCH   9  15
ENDBRANCH   3   5
ENDBRANCH   2   3
ENDBRANCH   1   2
BRANCH   1  25
ATOM     25  C   UNL A   1      31.770  29.949  26.627  1.00  0.00     0.275 C 
BRANCH  25  26
ATOM     26  O   UNL A   1      33.112  30.409  26.379  1.00  0.00    -0.458 OA
BRANCH  26  27
ATOM     27  C   UNL A   1      33.509  31.447  27.150  1.00  0.00     0.338 C 
ATOM     28  O   UNL A   1      32.868  32.454  27.425  1.00  0.00    -0.246 OA
BRANCH  27  29
ATOM     29  C   UNL A   1      34.808  31.143  27.768  1.00  0.00     0.060 A 
ATOM     30  C   UNL A   1      35.027  29.827  28.178  1.00  0.00     0.016 A 
ATOM     31  C   UNL A   1      35.776  32.124  27.994  1.00  0.00     0.016 A 
ATOM     32  C   UNL A   1      36.221  29.473  28.795  1.00  0.00     0.010 A 
ATOM     33  C   UNL A   1      36.968  31.775  28.641  1.00  0.00     0.010 A 
ATOM     34  C   UNL A   1      37.195  30.447  29.045  1.00  0.00    -0.014 A 
BRANCH  34  35
ATOM     35  C   UNL A   1      38.404  30.068  29.811  1.00  0.00     0.031 A 
ATOM     36  C   UNL A   1      38.589  30.600  31.201  1.00  0.00     0.074 A 
ATOM     37  C   UNL A   1      39.287  29.195  29.297  1.00  0.00     0.049 A 
ATOM     38  N   UNL A   1      39.568  30.393  32.044  1.00  0.00    -0.248 NA
ATOM     39  C   UNL A   1      37.522  31.474  31.713  1.00  0.00     0.031 C 
ATOM     40  C   UNL A   1      39.178  28.555  27.988  1.00  0.00     0.029 A 
ATOM     41  N   UNL A   1      40.448  28.687  29.824  1.00  0.00    -0.354 N 
ATOM     42  C   UNL A   1      39.233  31.103  33.189  1.00  0.00     0.074 A 
ATOM     43  C   UNL A   1      37.971  31.763  32.927  1.00  0.00     0.031 C 
ATOM     44  C   UNL A   1      40.228  27.734  27.815  1.00  0.00     0.029 A 
ATOM     45  C   UNL A   1      41.103  27.823  28.982  1.00  0.00     0.049 A 
ATOM     46  H   UNL A   1      40.781  28.921  30.721  1.00  0.00     0.167 HD
ATOM     47  C   UNL A   1      39.917  31.197  34.355  1.00  0.00     0.037 A 
ATOM     48  C   UNL A   1      42.286  27.197  29.130  1.00  0.00     0.037 A 
ATOM     49  C   UNL A   1      41.187  30.567  34.604  1.00  0.00     0.049 A 
ATOM     50  C   UNL A   1      43.080  27.409  30.393  1.00  0.00     0.074 A 
ATOM     51  C   UNL A   1      41.981  30.644  35.734  1.00  0.00     0.029 A 
ATOM     52  N   UNL A   1      41.853  29.752  33.702  1.00  0.00    -0.354 N 
ATOM     53  N   UNL A   1      42.764  28.094  31.465  1.00  0.00    -0.248 NA
ATOM     54  C   UNL A   1      44.402  26.768  30.460  1.00  0.00     0.031 C 
ATOM     55  C   UNL A   1      43.148  29.906  35.501  1.00  0.00     0.029 A 
ATOM     56  C   UNL A   1      43.058  29.334  34.243  1.00  0.00     0.049 A 
ATOM     57  H   UNL A   1      41.519  29.506  32.809  1.00  0.00     0.167 HD
ATOM     58  C   UNL A   1      43.833  27.945  32.341  1.00  0.00     0.074 A 
ATOM     59  C   UNL A   1      44.799  27.092  31.681  1.00  0.00     0.031 C 
ATOM     60  C   UNL A   1      44.003  28.473  33.578  1.00  0.00     0.037 A 
BRANCH  47  61
ATOM     61  C   UNL A   1      39.315  32.047  35.431  1.00  0.00     0.057 A 
ATOM     62  C   UNL A   1      39.600  33.414  35.536  1.00  0.00     0.134 A 
ATOM     63  C   UNL A   1      38.430  31.495  36.366  1.00  0.00     0.134 A 
ATOM     64  F   UNL A   1      40.452  33.999  34.681  1.00  0.00    -0.206 F 
ATOM     65  C   UNL A   1      39.043  34.198  36.548  1.00  0.00     0.040 A 
ATOM     66  C   UNL A   1      37.851  32.273  37.368  1.00  0.00     0.040 A 
ATOM     67  F   UNL A   1      38.115  30.192  36.318  1.00  0.00    -0.206 F 
ATOM     68  C   UNL A   1      38.162  33.628  37.465  1.00  0.00     0.006 A 
ENDBRANCH  47  61
BRANCH  48  69
ATOM     69  C   UNL A   1      42.824  26.337  28.044  1.00  0.00     0.057 A 
ATOM     70  C   UNL A   1      43.519  26.885  26.960  1.00  0.00     0.134 A 
ATOM     71  C   UNL A   1      42.606  24.954  28.037  1.00  0.00     0.134 A 
ATOM     72  F   UNL A   1      43.737  28.207  26.895  1.00  0.00    -0.206 F 
ATOM     73  C   UNL A   1      43.957  26.092  25.896  1.00  0.00     0.040 A 
ATOM     74  C   UNL A   1      43.060  24.147  26.994  1.00  0.00     0.040 A 
ATOM     75  F   UNL A   1      41.940  24.368  29.042  1.00  0.00    -0.206 F 
ATOM     76  C   UNL A   1      43.730  24.717  25.914  1.00  0.00     0.006 A 
ENDBRANCH  48  69
BRANCH  60  77
ATOM     77  C   UNL A   1      45.261  28.111  34.314  1.00  0.00     0.057 A 
ATOM     78  C   UNL A   1      45.371  26.929  35.056  1.00  0.00     0.134 A 
ATOM     79  C   UNL A   1      46.388  28.940  34.245  1.00  0.00     0.134 A 
ATOM     80  F   UNL A   1      44.324  26.099  35.173  1.00  0.00    -0.206 F 
ATOM     81  C   UNL A   1      46.551  26.594  35.723  1.00  0.00     0.040 A 
ATOM     82  C   UNL A   1      47.581  28.604  34.886  1.00  0.00     0.040 A 
ATOM     83  F   UNL A   1      46.352  30.083  33.543  1.00  0.00    -0.206 F 
ATOM     84  C   UNL A   1      47.663  27.430  35.632  1.00  0.00     0.006 A 
ENDBRANCH  60  77
ENDBRANCH  34  35
ENDBRANCH  27  29
ENDBRANCH  26  27
ENDBRANCH  25  26
ENDBRANCH   1  25
TORSDOF 15
ENDMDL
MODEL 3
REMARK VINA RESULT:     -10.9      3.203      6.778
REMARK SMILES CC[NH2+][C@@]1(C(=O)OCCOC(=O)c2ccc(-c3c4nc(c(-c5c(F)cccc5F)c5ccc([nH]5)c(-c5c(F)cccc5F)c5nc(c(-c6c(F)cccc6F)c6ccc3[nH]6)C=C5)C=C4)cc2)CC[C@H](Oc2ccc3c(c2)OCO3)C1
REMARK SMILES IDX 8 1 7 2 5 3 6 4 4 5 67 6 80 7 68 8 69 9 3 10 2 13 1 14 70 15
REMARK SMILES IDX 71 16 72 17 76 18 73 19 75 20 74 21 77 22 79 23 78 24 9 25
REMARK SMILES IDX 10 26 11 27 12 28 13 29 14 30 66 31 15 32 65 33 16 34 17 35
REMARK SMILES IDX 18 36 59 37 19 38 64 39 58 40 60 41 20 42 63 43 57 44 56 45
REMARK SMILES IDX 21 47 47 48 30 49 46 50 31 51 34 52 45 53 61 54 32 55 33 56
REMARK SMILES IDX 44 58 62 59 35 60 22 61 23 62 28 63 24 64 25 65 27 66 29 67
REMARK SMILES IDX 26 68 48 69 49 70 54 71 50 72 51 73 53 74 55 75 52 76 36 77
REMARK SMILES IDX 37 78 42 79 38 80 39 81 41 82 43 83 40 84
REMARK H PARENT 3 11 3 12 60 46 34 57
REMARK Flexibility Score: inf
ROOT
ATOM      1  C   UNL A   1      31.982  28.532  26.832  1.00  0.00     0.274 C 
ENDROOT
BRANCH   1   2
ATOM      2  O   UNL A   1      32.294  27.233  26.294  1.00  0.00    -0.457 OA
BRANCH   2   3
ATOM      3  C   UNL A   1      31.274  26.539  25.722  1.00  0.00     0.368 C 
ATOM      4  O   UNL A   1      30.254  26.235  26.332  1.00  0.00    -0.245 OA
BRANCH   3   5
ATOM      5  C   UNL A   1      31.592  26.103  24.241  1.00  0.00     0.198 C 
ATOM      6  C   UNL A   1      32.627  27.039  23.615  1.00  0.00     0.085 C 
ATOM      7  C   UNL A   1      30.395  26.269  23.277  1.00  0.00     0.126 C 
ATOM      8  C   UNL A   1      31.822  28.256  23.182  1.00  0.00     0.052 C 
ATOM      9  C   UNL A   1      30.438  27.728  22.778  1.00  0.00     0.180 C 
BRANCH   5  10
ATOM     10  N   UNL A   1      32.014  24.674  24.228  1.00  0.00    -0.332 N 
ATOM     11  H   UNL A   1      32.911  24.614  23.745  1.00  0.00     0.347 HD
ATOM     12  H   UNL A   1      32.057  24.382  25.204  1.00  0.00     0.347 HD
BRANCH  10  13
ATOM     13  C   UNL A   1      31.084  23.754  23.569  1.00  0.00     0.257 C 
ATOM     14  C   UNL A   1      31.860  22.564  23.026  1.00  0.00     0.071 C 
ENDBRANCH  10  13
ENDBRANCH   5  10
BRANCH   9  15
ATOM     15  O   UNL A   1      29.356  28.411  23.406  1.00  0.00    -0.490 OA
BRANCH  15  16
ATOM     16  C   UNL A   1      29.067  29.701  23.081  1.00  0.00     0.123 A 
ATOM     17  C   UNL A   1      29.280  30.826  23.894  1.00  0.00     0.050 A 
ATOM     18  C   UNL A   1      28.507  29.846  21.807  1.00  0.00     0.097 A 
ATOM     19  C   UNL A   1      28.902  32.100  23.452  1.00  0.00     0.054 A 
ATOM     20  C   UNL A   1      28.159  31.110  21.392  1.00  0.00     0.169 A 
ATOM     21  C   UNL A   1      28.348  32.209  22.194  1.00  0.00     0.166 A 
ATOM     22  O   UNL A   1      27.611  31.429  20.190  1.00  0.00    -0.453 OA
ATOM     23  O   UNL A   1      27.943  33.360  21.596  1.00  0.00    -0.454 OA
ATOM     24  C   UNL A   1      27.584  32.868  20.286  1.00  0.00     0.468 C 
ENDBRANCH  15  16
ENDBRANCH   9  15
ENDBRANCH   3   5
ENDBRANCH   2   3
ENDBRANCH   1   2
BRANCH   1  25
ATOM     25  C   UNL A   1      33.160  29.496  26.689  1.00  0.00     0.275 C 
BRANCH  25  26
ATOM     26  O   UNL A   1      34.153  29.255  27.703  1.00  0.00    -0.458 OA
BRANCH  26  27
ATOM     27  C   UNL A   1      34.800  30.361  28.140  1.00  0.00     0.338 C 
ATOM     28  O   UNL A   1      34.314  31.459  28.378  1.00  0.00    -0.246 OA
BRANCH  27  29
ATOM     29  C   UNL A   1      36.199  30.031  28.449  1.00  0.00     0.060 A 
ATOM     30  C   UNL A   1      37.126  30.147  27.412  1.00  0.00     0.016 A 
ATOM     31  C   UNL A   1      36.598  29.566  29.704  1.00  0.00     0.016 A 
ATOM     32  C   UNL A   1      38.462  29.826  27.624  1.00  0.00     0.010 A 
ATOM     33  C   UNL A   1      37.938  29.214  29.912  1.00  0.00     0.010 A 
ATOM     34  C   UNL A   1      38.875  29.342  28.871  1.00  0.00    -0.014 A 
BRANCH  34  35
ATOM     35  C   UNL A   1      40.276  28.893  29.034  1.00  0.00     0.031 A 
ATOM     36  C   UNL A   1      41.262  29.798  29.710  1.00  0.00     0.074 A 
ATOM     37  C   UNL A   1      40.643  27.658  28.649  1.00  0.00     0.049 A 
ATOM     38  N   UNL A   1      42.533  29.602  29.957  1.00  0.00    -0.248 NA
ATOM     39  C   UNL A   1      40.746  31.092  30.181  1.00  0.00     0.031 C 
ATOM     40  C   UNL A   1      39.758  26.664  28.046  1.00  0.00     0.029 A 
ATOM     41  N   UNL A   1      41.860  27.027  28.721  1.00  0.00    -0.354 N 
ATOM     42  C   UNL A   1      42.966  30.743  30.619  1.00  0.00     0.074 A 
ATOM     43  C   UNL A   1      41.830  31.635  30.717  1.00  0.00     0.031 C 
ATOM     44  C   UNL A   1      40.461  25.542  27.807  1.00  0.00     0.029 A 
ATOM     45  C   UNL A   1      41.852  25.756  28.201  1.00  0.00     0.049 A 
ATOM     46  H   UNL A   1      42.663  27.446  29.107  1.00  0.00     0.167 HD
ATOM     47  C   UNL A   1      44.201  31.022  31.101  1.00  0.00     0.037 A 
ATOM     48  C   UNL A   1      42.860  24.878  28.040  1.00  0.00     0.037 A 
ATOM     49  C   UNL A   1      45.338  30.149  30.974  1.00  0.00     0.049 A 
ATOM     50  C   UNL A   1      44.248  25.260  28.484  1.00  0.00     0.074 A 
ATOM     51  C   UNL A   1      46.642  30.364  31.385  1.00  0.00     0.029 A 
ATOM     52  N   UNL A   1      45.308  28.896  30.382  1.00  0.00    -0.354 N 
ATOM     53  N   UNL A   1      44.654  26.346  29.095  1.00  0.00    -0.248 NA
ATOM     54  C   UNL A   1      45.322  24.295  28.204  1.00  0.00     0.031 C 
ATOM     55  C   UNL A   1      47.410  29.257  31.006  1.00  0.00     0.029 A 
ATOM     56  C   UNL A   1      46.574  28.334  30.399  1.00  0.00     0.049 A 
ATOM     57  H   UNL A   1      44.505  28.468  30.005  1.00  0.00     0.167 HD
ATOM     58  C   UNL A   1      46.019  26.184  29.295  1.00  0.00     0.074 A 
ATOM     59  C   UNL A   1      46.371  24.888  28.754  1.00  0.00     0.031 C 
ATOM     60  C   UNL A   1      46.905  27.036  29.870  1.00  0.00     0.037 A 
BRANCH  47  61
ATOM     61  C   UNL A   1      44.386  32.348  31.773  1.00  0.00     0.057 A 
ATOM     62  C   UNL A   1      44.215  32.504  33.153  1.00  0.00     0.134 A 
ATOM     63  C   UNL A   1      44.751  33.479  31.031  1.00  0.00     0.134 A 
ATOM     64  F   UNL A   1      43.850  31.463  33.916  1.00  0.00    -0.206 F 
ATOM     65  C   UNL A   1      44.379  33.746  33.771  1.00  0.00     0.040 A 
ATOM     66  C   UNL A   1      44.939  34.719  31.641  1.00  0.00     0.040 A 
ATOM     67  F   UNL A   1      44.932  33.394  29.705  1.00  0.00    -0.206 F 
ATOM     68  C   UNL A   1      44.747  34.856  33.014  1.00  0.00     0.006 A 
ENDBRANCH  47  61
BRANCH  48  69
ATOM     69  C   UNL A   1      42.617  23.562  27.395  1.00  0.00     0.057 A 
ATOM     70  C   UNL A   1      42.284  22.432  28.152  1.00  0.00     0.134 A 
ATOM     71  C   UNL A   1      42.767  23.390  26.014  1.00  0.00     0.134 A 
ATOM     72  F   UNL A   1      42.153  22.525  29.483  1.00  0.00    -0.206 F 
ATOM     73  C   UNL A   1      42.134  21.175  27.561  1.00  0.00     0.040 A 
ATOM     74  C   UNL A   1      42.593  22.146  25.407  1.00  0.00     0.040 A 
ATOM     75  F   UNL A   1      43.092  24.431  25.233  1.00  0.00    -0.206 F 
ATOM     76  C   UNL A   1      42.285  21.031  26.183  1.00  0.00     0.006 A 
ENDBRANCH  48  69
BRANCH  60  77
ATOM     77  C   UNL A   1      48.330  26.576  29.977  1.00  0.00     0.057 A 
ATOM     78  C   UNL A   1      48.782  25.811  31.060  1.00  0.00     0.134 A 
ATOM     79  C   UNL A   1      49.251  26.871  28.964  1.00  0.00     0.134 A 
ATOM     80  F   UNL A   1      47.953  25.506  32.069  1.00  0.00    -0.206 F 
ATOM     81  C   UNL A   1      50.106  25.374  31.142  1.00  0.00     0.040 A 
ATOM     82  C   UNL A   1      50.570  26.419  29.022  1.00  0.00     0.040 A 
ATOM     83  F   UNL A   1      48.881  27.592  27.895  1.00  0.00    -0.206 F 
ATOM     84  C   UNL A   1      51.001  25.673  30.117  1.00  0.00     0.006 A 
ENDBRANCH  60  77
ENDBRANCH  34  35
ENDBRANCH  27  29
ENDBRANCH  26  27
ENDBRANCH  25  26
ENDBRANCH   1  25
TORSDOF 15
ENDMDL
