MODEL 1
REMARK VINA RESULT:     -11.0      0.000      0.000
REMARK SMILES CCNc1nc(C)c(C(=O)N2CC[NH2+][C@H](C(=O)OCCOC(=O)c3ccc(-c4c5nc(c(-c6c(F)cccc6F)c6ccc([nH]6)c(-c6c(F)cccc6F)c6nc(c(-c7c(F)cccc7F)c7ccc4[nH]7)C=C6)C=C5)cc3)C2)s1
REMARK SMILES IDX 19 1 18 2 16 3 17 4 15 5 11 6 12 7 78 8 13 9 14 10 9 13
REMARK SMILES IDX 10 14 8 15 4 16 5 17 79 18 6 19 7 20 3 21 2 23 1 24 20 25
REMARK SMILES IDX 21 26 22 27 23 28 24 29 25 30 77 31 26 32 76 33 27 34 28 35
REMARK SMILES IDX 29 36 70 37 30 38 75 39 69 40 71 41 31 42 74 43 68 44 67 45
REMARK SMILES IDX 32 47 58 48 41 49 57 50 42 51 45 52 56 53 72 54 43 55 44 56
REMARK SMILES IDX 55 58 73 59 46 60 33 61 34 62 39 63 35 64 36 65 38 66 40 67
REMARK SMILES IDX 37 68 59 69 60 70 65 71 61 72 62 73 64 74 66 75 63 76 47 77
REMARK SMILES IDX 48 78 53 79 49 80 50 81 52 82 54 83 51 84
REMARK H PARENT 14 11 14 12 3 22 71 46 45 57
REMARK Flexibility Score: inf
ROOT
ATOM      1  C   UNL A   1      42.621  20.364  26.082  1.00  0.00     0.274 C 
ENDROOT
BRANCH   1   2
ATOM      2  O   UNL A   1      41.386  20.891  26.600  1.00  0.00    -0.458 OA
BRANCH   2   3
ATOM      3  C   UNL A   1      40.252  20.327  26.107  1.00  0.00     0.366 C 
ATOM      4  O   UNL A   1      40.157  19.162  25.733  1.00  0.00    -0.245 OA
BRANCH   3   5
ATOM      5  C   UNL A   1      39.055  21.271  26.102  1.00  0.00     0.313 C 
ATOM      6  N   UNL A   1      36.800  21.615  25.157  1.00  0.00    -0.326 N 
ATOM      7  C   UNL A   1      37.065  23.048  25.008  1.00  0.00     0.181 C 
ATOM      8  C   UNL A   1      37.990  20.758  25.123  1.00  0.00     0.197 C 
ATOM      9  C   UNL A   1      38.163  23.513  25.987  1.00  0.00     0.283 C 
ATOM     10  N   UNL A   1      39.397  22.708  25.914  1.00  0.00    -0.332 N 
ATOM     11  H   UNL A   1      40.043  23.004  26.645  1.00  0.00     0.347 HD
ATOM     12  H   UNL A   1      39.838  22.839  25.003  1.00  0.00     0.347 HD
BRANCH   6  13
ATOM     13  C   UNL A   1      35.494  21.147  25.020  1.00  0.00     0.266 C 
ATOM     14  O   UNL A   1      35.302  19.950  24.799  1.00  0.00    -0.268 OA
BRANCH  13  15
ATOM     15  C   UNL A   1      34.408  22.115  25.030  1.00  0.00     0.117 A 
ATOM     16  C   UNL A   1      32.911  23.938  24.401  1.00  0.00     0.183 A 
ATOM     17  N   UNL A   1      32.943  23.804  25.702  1.00  0.00    -0.225 NA
ATOM     18  S   UNL A   1      33.828  22.766  23.542  1.00  0.00    -0.092 S 
ATOM     19  C   UNL A   1      33.789  22.780  26.079  1.00  0.00     0.063 A 
ATOM     20  C   UNL A   1      33.969  22.613  27.537  1.00  0.00     0.068 C 
BRANCH  16  21
ATOM     21  N   UNL A   1      32.257  24.982  23.856  1.00  0.00    -0.362 N 
ATOM     22  H   UNL A   1      31.282  25.032  23.983  1.00  0.00     0.162 HD
BRANCH  21  23
ATOM     23  C   UNL A   1      32.897  26.029  23.099  1.00  0.00     0.112 C 
ATOM     24  C   UNL A   1      32.370  25.990  21.670  1.00  0.00     0.027 C 
ENDBRANCH  21  23
ENDBRANCH  16  21
ENDBRANCH  13  15
ENDBRANCH   6  13
ENDBRANCH   3   5
ENDBRANCH   2   3
ENDBRANCH   1   2
BRANCH   1  25
ATOM     25  C   UNL A   1      43.499  21.501  25.561  1.00  0.00     0.275 C 
BRANCH  25  26
ATOM     26  O   UNL A   1      42.703  22.670  25.283  1.00  0.00    -0.458 OA
BRANCH  26  27
ATOM     27  C   UNL A   1      43.393  23.827  25.144  1.00  0.00     0.338 C 
ATOM     28  O   UNL A   1      44.302  24.070  24.371  1.00  0.00    -0.246 OA
BRANCH  27  29
ATOM     29  C   UNL A   1      42.891  24.809  26.115  1.00  0.00     0.060 A 
ATOM     30  C   UNL A   1      43.334  26.129  26.051  1.00  0.00     0.016 A 
ATOM     31  C   UNL A   1      42.066  24.394  27.160  1.00  0.00     0.016 A 
ATOM     32  C   UNL A   1      42.977  27.040  27.043  1.00  0.00     0.010 A 
ATOM     33  C   UNL A   1      41.674  25.318  28.133  1.00  0.00     0.010 A 
ATOM     34  C   UNL A   1      42.141  26.644  28.091  1.00  0.00    -0.014 A 
BRANCH  34  35
ATOM     35  C   UNL A   1      41.787  27.598  29.171  1.00  0.00     0.031 A 
ATOM     36  C   UNL A   1      42.561  27.589  30.457  1.00  0.00     0.074 A 
ATOM     37  C   UNL A   1      40.767  28.462  29.008  1.00  0.00     0.049 A 
ATOM     38  N   UNL A   1      42.303  28.201  31.585  1.00  0.00    -0.248 NA
ATOM     39  C   UNL A   1      43.789  26.780  30.478  1.00  0.00     0.031 C 
ATOM     40  C   UNL A   1      39.976  28.617  27.788  1.00  0.00     0.029 A 
ATOM     41  N   UNL A   1      40.213  29.362  29.884  1.00  0.00    -0.354 N 
ATOM     42  C   UNL A   1      43.311  27.820  32.461  1.00  0.00     0.074 A 
ATOM     43  C   UNL A   1      44.186  26.924  31.734  1.00  0.00     0.031 C 
ATOM     44  C   UNL A   1      39.030  29.547  27.996  1.00  0.00     0.029 A 
ATOM     45  C   UNL A   1      39.110  30.006  29.380  1.00  0.00     0.049 A 
ATOM     46  H   UNL A   1      40.571  29.529  30.786  1.00  0.00     0.167 HD
ATOM     47  C   UNL A   1      43.484  28.181  33.754  1.00  0.00     0.037 A 
ATOM     48  C   UNL A   1      38.234  30.836  29.978  1.00  0.00     0.037 A 
ATOM     49  C   UNL A   1      42.629  29.095  34.464  1.00  0.00     0.049 A 
ATOM     50  C   UNL A   1      38.415  31.179  31.430  1.00  0.00     0.074 A 
ATOM     51  C   UNL A   1      42.733  29.536  35.772  1.00  0.00     0.029 A 
ATOM     52  N   UNL A   1      41.513  29.713  33.921  1.00  0.00    -0.354 N 
ATOM     53  N   UNL A   1      39.351  30.788  32.260  1.00  0.00    -0.248 NA
ATOM     54  C   UNL A   1      37.409  32.067  32.031  1.00  0.00     0.031 C 
ATOM     55  C   UNL A   1      41.657  30.392  36.032  1.00  0.00     0.029 A 
ATOM     56  C   UNL A   1      40.907  30.516  34.874  1.00  0.00     0.049 A 
ATOM     57  H   UNL A   1      41.197  29.598  32.996  1.00  0.00     0.167 HD
ATOM     58  C   UNL A   1      39.060  31.397  33.474  1.00  0.00     0.074 A 
ATOM     59  C   UNL A   1      37.866  32.190  33.269  1.00  0.00     0.031 C 
ATOM     60  C   UNL A   1      39.723  31.305  34.653  1.00  0.00     0.037 A 
BRANCH  47  61
ATOM     61  C   UNL A   1      44.623  27.550  34.498  1.00  0.00     0.057 A 
ATOM     62  C   UNL A   1      44.491  26.326  35.164  1.00  0.00     0.134 A 
ATOM     63  C   UNL A   1      45.879  28.170  34.525  1.00  0.00     0.134 A 
ATOM     64  F   UNL A   1      43.311  25.690  35.189  1.00  0.00    -0.206 F 
ATOM     65  C   UNL A   1      45.563  25.751  35.850  1.00  0.00     0.040 A 
ATOM     66  C   UNL A   1      46.964  27.594  35.187  1.00  0.00     0.040 A 
ATOM     67  F   UNL A   1      46.073  29.343  33.904  1.00  0.00    -0.206 F 
ATOM     68  C   UNL A   1      46.806  26.383  35.856  1.00  0.00     0.006 A 
ENDBRANCH  47  61
BRANCH  48  69
ATOM     69  C   UNL A   1      37.078  31.360  29.212  1.00  0.00     0.057 A 
ATOM     70  C   UNL A   1      37.075  32.664  28.704  1.00  0.00     0.134 A 
ATOM     71  C   UNL A   1      35.946  30.571  28.972  1.00  0.00     0.134 A 
ATOM     72  F   UNL A   1      38.119  33.476  28.923  1.00  0.00    -0.206 F 
ATOM     73  C   UNL A   1      35.985  33.166  27.990  1.00  0.00     0.040 A 
ATOM     74  C   UNL A   1      34.860  31.052  28.239  1.00  0.00     0.040 A 
ATOM     75  F   UNL A   1      35.888  29.313  29.434  1.00  0.00    -0.206 F 
ATOM     76  C   UNL A   1      34.877  32.356  27.750  1.00  0.00     0.006 A 
ENDBRANCH  48  69
BRANCH  60  77
ATOM     77  C   UNL A   1      39.191  32.108  35.803  1.00  0.00     0.057 A 
ATOM     78  C   UNL A   1      39.538  33.451  35.987  1.00  0.00     0.134 A 
ATOM     79  C   UNL A   1      38.288  31.539  36.710  1.00  0.00     0.134 A 
ATOM     80  F   UNL A   1      40.409  34.048  35.161  1.00  0.00    -0.206 F 
ATOM     81  C   UNL A   1      39.018  34.197  37.046  1.00  0.00     0.040 A 
ATOM     82  C   UNL A   1      37.744  32.282  37.758  1.00  0.00     0.040 A 
ATOM     83  F   UNL A   1      37.909  30.258  36.583  1.00  0.00    -0.206 F 
ATOM     84  C   UNL A   1      38.113  33.614  37.931  1.00  0.00     0.006 A 
ENDBRANCH  60  77
ENDBRANCH  34  35
ENDBRANCH  27  29
ENDBRANCH  26  27
ENDBRANCH  25  26
ENDBRANCH   1  25
TORSDOF 15
ENDMDL
MODEL 2
REMARK VINA RESULT:     -10.8      4.826      7.168
REMARK SMILES CCNc1nc(C)c(C(=O)N2CC[NH2+][C@H](C(=O)OCCOC(=O)c3ccc(-c4c5nc(c(-c6c(F)cccc6F)c6ccc([nH]6)c(-c6c(F)cccc6F)c6nc(c(-c7c(F)cccc7F)c7ccc4[nH]7)C=C6)C=C5)cc3)C2)s1
REMARK SMILES IDX 19 1 18 2 16 3 17 4 15 5 11 6 12 7 78 8 13 9 14 10 9 13
REMARK SMILES IDX 10 14 8 15 4 16 5 17 79 18 6 19 7 20 3 21 2 23 1 24 20 25
REMARK SMILES IDX 21 26 22 27 23 28 24 29 25 30 77 31 26 32 76 33 27 34 28 35
REMARK SMILES IDX 29 36 70 37 30 38 75 39 69 40 71 41 31 42 74 43 68 44 67 45
REMARK SMILES IDX 32 47 58 48 41 49 57 50 42 51 45 52 56 53 72 54 43 55 44 56
REMARK SMILES IDX 55 58 73 59 46 60 33 61 34 62 39 63 35 64 36 65 38 66 40 67
REMARK SMILES IDX 37 68 59 69 60 70 65 71 61 72 62 73 64 74 66 75 63 76 47 77
REMARK SMILES IDX 48 78 53 79 49 80 50 81 52 82 54 83 51 84
REMARK H PARENT 14 11 14 12 3 22 71 46 45 57
REMARK Flexibility Score: inf
ROOT
ATOM      1  C   UNL A   1      42.099  19.345  27.066  1.00  0.00     0.274 C 
ENDROOT
BRANCH   1   2
ATOM      2  O   UNL A   1      41.037  20.105  26.459  1.00  0.00    -0.458 OA
BRANCH   2   3
ATOM      3  C   UNL A   1      41.042  21.439  26.721  1.00  0.00     0.366 C 
ATOM      4  O   UNL A   1      42.050  22.102  26.946  1.00  0.00    -0.245 OA
BRANCH   3   5
ATOM      5  C   UNL A   1      39.659  22.076  26.662  1.00  0.00     0.313 C 
ATOM      6  N   UNL A   1      37.435  21.902  25.603  1.00  0.00    -0.326 N 
ATOM      7  C   UNL A   1      37.363  23.360  25.480  1.00  0.00     0.181 C 
ATOM      8  C   UNL A   1      38.793  21.348  25.625  1.00  0.00     0.197 C 
ATOM      9  C   UNL A   1      38.272  24.049  26.519  1.00  0.00     0.283 C 
ATOM     10  N   UNL A   1      39.663  23.557  26.503  1.00  0.00    -0.332 N 
ATOM     11  H   UNL A   1      40.185  23.981  27.269  1.00  0.00     0.347 HD
ATOM     12  H   UNL A   1      40.105  23.806  25.618  1.00  0.00     0.347 HD
BRANCH   6  13
ATOM     13  C   UNL A   1      36.283  21.144  25.395  1.00  0.00     0.266 C 
ATOM     14  O   UNL A   1      36.387  20.000  24.949  1.00  0.00    -0.268 OA
BRANCH  13  15
ATOM     15  C   UNL A   1      34.991  21.778  25.607  1.00  0.00     0.117 A 
ATOM     16  C   UNL A   1      32.745  22.264  26.429  1.00  0.00     0.183 A 
ATOM     17  N   UNL A   1      32.901  22.744  25.223  1.00  0.00    -0.225 NA
ATOM     18  S   UNL A   1      34.153  21.541  27.095  1.00  0.00    -0.092 S 
ATOM     19  C   UNL A   1      34.165  22.476  24.737  1.00  0.00     0.063 A 
ATOM     20  C   UNL A   1      34.407  22.893  23.338  1.00  0.00     0.068 C 
BRANCH  16  21
ATOM     21  N   UNL A   1      31.528  22.298  27.006  1.00  0.00    -0.362 N 
ATOM     22  H   UNL A   1      31.364  21.703  27.773  1.00  0.00     0.162 HD
BRANCH  21  23
ATOM     23  C   UNL A   1      30.451  23.152  26.569  1.00  0.00     0.112 C 
ATOM     24  C   UNL A   1      29.205  22.820  27.381  1.00  0.00     0.027 C 
ENDBRANCH  21  23
ENDBRANCH  16  21
ENDBRANCH  13  15
ENDBRANCH   6  13
ENDBRANCH   3   5
ENDBRANCH   2   3
ENDBRANCH   1   2
BRANCH   1  25
ATOM     25  C   UNL A   1      42.799  18.488  26.014  1.00  0.00     0.275 C 
BRANCH  25  26
ATOM     26  O   UNL A   1      43.097  19.268  24.839  1.00  0.00    -0.458 OA
BRANCH  26  27
ATOM     27  C   UNL A   1      44.411  19.492  24.604  1.00  0.00     0.338 C 
ATOM     28  O   UNL A   1      45.255  18.695  24.238  1.00  0.00    -0.246 OA
BRANCH  27  29
ATOM     29  C   UNL A   1      44.718  20.903  24.882  1.00  0.00     0.060 A 
ATOM     30  C   UNL A   1      45.286  21.255  26.105  1.00  0.00     0.016 A 
ATOM     31  C   UNL A   1      44.337  21.888  23.972  1.00  0.00     0.016 A 
ATOM     32  C   UNL A   1      45.457  22.597  26.441  1.00  0.00     0.010 A 
ATOM     33  C   UNL A   1      44.545  23.233  24.292  1.00  0.00     0.010 A 
ATOM     34  C   UNL A   1      45.091  23.599  25.535  1.00  0.00    -0.014 A 
BRANCH  34  35
ATOM     35  C   UNL A   1      45.235  25.029  25.900  1.00  0.00     0.031 A 
ATOM     36  C   UNL A   1      46.574  25.699  25.782  1.00  0.00     0.074 A 
ATOM     37  C   UNL A   1      44.174  25.727  26.348  1.00  0.00     0.049 A 
ATOM     38  N   UNL A   1      46.956  26.872  26.217  1.00  0.00    -0.248 NA
ATOM     39  C   UNL A   1      47.624  24.943  25.082  1.00  0.00     0.031 C 
ATOM     40  C   UNL A   1      42.808  25.217  26.451  1.00  0.00     0.029 A 
ATOM     41  N   UNL A   1      44.088  27.015  26.817  1.00  0.00    -0.354 N 
ATOM     42  C   UNL A   1      48.299  26.980  25.882  1.00  0.00     0.074 A 
ATOM     43  C   UNL A   1      48.666  25.752  25.206  1.00  0.00     0.031 C 
ATOM     44  C   UNL A   1      42.019  26.177  26.963  1.00  0.00     0.029 A 
ATOM     45  C   UNL A   1      42.837  27.344  27.281  1.00  0.00     0.049 A 
ATOM     46  H   UNL A   1      44.848  27.641  26.821  1.00  0.00     0.167 HD
ATOM     47  C   UNL A   1      49.148  28.007  26.123  1.00  0.00     0.037 A 
ATOM     48  C   UNL A   1      42.409  28.442  27.931  1.00  0.00     0.037 A 
ATOM     49  C   UNL A   1      48.772  29.236  26.769  1.00  0.00     0.049 A 
ATOM     50  C   UNL A   1      43.381  29.546  28.237  1.00  0.00     0.074 A 
ATOM     51  C   UNL A   1      49.558  30.343  27.044  1.00  0.00     0.029 A 
ATOM     52  N   UNL A   1      47.499  29.524  27.239  1.00  0.00    -0.354 N 
ATOM     53  N   UNL A   1      44.657  29.627  27.947  1.00  0.00    -0.248 NA
ATOM     54  C   UNL A   1      42.858  30.706  28.974  1.00  0.00     0.031 C 
ATOM     55  C   UNL A   1      48.769  31.285  27.713  1.00  0.00     0.029 A 
ATOM     56  C   UNL A   1      47.482  30.782  27.818  1.00  0.00     0.049 A 
ATOM     57  H   UNL A   1      46.722  28.922  27.170  1.00  0.00     0.167 HD
ATOM     58  C   UNL A   1      45.084  30.851  28.446  1.00  0.00     0.074 A 
ATOM     59  C   UNL A   1      43.929  31.482  29.049  1.00  0.00     0.031 C 
ATOM     60  C   UNL A   1      46.323  31.400  28.409  1.00  0.00     0.037 A 
BRANCH  47  61
ATOM     61  C   UNL A   1      50.581  27.824  25.722  1.00  0.00     0.057 A 
ATOM     62  C   UNL A   1      51.571  27.455  26.640  1.00  0.00     0.134 A 
ATOM     63  C   UNL A   1      50.968  27.997  24.387  1.00  0.00     0.134 A 
ATOM     64  F   UNL A   1      51.268  27.290  27.937  1.00  0.00    -0.206 F 
ATOM     65  C   UNL A   1      52.901  27.286  26.249  1.00  0.00     0.040 A 
ATOM     66  C   UNL A   1      52.290  27.808  23.979  1.00  0.00     0.040 A 
ATOM     67  F   UNL A   1      50.068  28.346  23.457  1.00  0.00    -0.206 F 
ATOM     68  C   UNL A   1      53.261  27.456  24.913  1.00  0.00     0.006 A 
ENDBRANCH  47  61
BRANCH  48  69
ATOM     69  C   UNL A   1      40.998  28.528  28.379  1.00  0.00     0.057 A 
ATOM     70  C   UNL A   1      40.625  28.161  29.676  1.00  0.00     0.134 A 
ATOM     71  C   UNL A   1      39.987  28.976  27.518  1.00  0.00     0.134 A 
ATOM     72  F   UNL A   1      41.543  27.699  30.537  1.00  0.00    -0.206 F 
ATOM     73  C   UNL A   1      39.296  28.230  30.100  1.00  0.00     0.040 A 
ATOM     74  C   UNL A   1      38.659  29.073  27.937  1.00  0.00     0.040 A 
ATOM     75  F   UNL A   1      40.281  29.341  26.262  1.00  0.00    -0.206 F 
ATOM     76  C   UNL A   1      38.311  28.694  29.231  1.00  0.00     0.006 A 
ENDBRANCH  48  69
BRANCH  60  77
ATOM     77  C   UNL A   1      46.485  32.765  29.007  1.00  0.00     0.057 A 
ATOM     78  C   UNL A   1      46.870  32.944  30.341  1.00  0.00     0.134 A 
ATOM     79  C   UNL A   1      46.294  33.911  28.227  1.00  0.00     0.134 A 
ATOM     80  F   UNL A   1      47.054  31.885  31.144  1.00  0.00    -0.206 F 
ATOM     81  C   UNL A   1      47.043  34.219  30.883  1.00  0.00     0.040 A 
ATOM     82  C   UNL A   1      46.486  35.190  28.751  1.00  0.00     0.040 A 
ATOM     83  F   UNL A   1      45.933  33.807  26.939  1.00  0.00    -0.206 F 
ATOM     84  C   UNL A   1      46.857  35.346  30.085  1.00  0.00     0.006 A 
ENDBRANCH  60  77
ENDBRANCH  34  35
ENDBRANCH  27  29
ENDBRANCH  26  27
ENDBRANCH  25  26
ENDBRANCH   1  25
TORSDOF 15
ENDMDL
MODEL 3
REMARK VINA RESULT:     -10.7      3.879      8.084
REMARK SMILES CCNc1nc(C)c(C(=O)N2CC[NH2+][C@H](C(=O)OCCOC(=O)c3ccc(-c4c5nc(c(-c6c(F)cccc6F)c6ccc([nH]6)c(-c6c(F)cccc6F)c6nc(c(-c7c(F)cccc7F)c7ccc4[nH]7)C=C6)C=C5)cc3)C2)s1
REMARK SMILES IDX 19 1 18 2 16 3 17 4 15 5 11 6 12 7 78 8 13 9 14 10 9 13
REMARK SMILES IDX 10 14 8 15 4 16 5 17 79 18 6 19 7 20 3 21 2 23 1 24 20 25
REMARK SMILES IDX 21 26 22 27 23 28 24 29 25 30 77 31 26 32 76 33 27 34 28 35
REMARK SMILES IDX 29 36 70 37 30 38 75 39 69 40 71 41 31 42 74 43 68 44 67 45
REMARK SMILES IDX 32 47 58 48 41 49 57 50 42 51 45 52 56 53 72 54 43 55 44 56
REMARK SMILES IDX 55 58 73 59 46 60 33 61 34 62 39 63 35 64 36 65 38 66 40 67
REMARK SMILES IDX 37 68 59 69 60 70 65 71 61 72 62 73 64 74 66 75 63 76 47 77
REMARK SMILES IDX 48 78 53 79 49 80 50 81 52 82 54 83 51 84
REMARK H PARENT 14 11 14 12 3 22 71 46 45 57
REMARK Flexibility Score: inf
ROOT
ATOM      1  C   UNL A   1      34.932  20.419  25.013  1.00  0.00     0.274 C 
ENDROOT
BRANCH   1   2
ATOM      2  O   UNL A   1      33.782  20.847  24.261  1.00  0.00    -0.458 OA
BRANCH   2   3
ATOM      3  C   UNL A   1      32.578  20.645  24.859  1.00  0.00     0.366 C 
ATOM      4  O   UNL A   1      32.157  19.554  25.230  1.00  0.00    -0.245 OA
BRANCH   3   5
ATOM      5  C   UNL A   1      31.789  21.929  25.085  1.00  0.00     0.313 C 
ATOM      6  N   UNL A   1      31.723  24.341  24.559  1.00  0.00    -0.326 N 
ATOM      7  C   UNL A   1      31.296  24.644  25.927  1.00  0.00     0.181 C 
ATOM      8  C   UNL A   1      32.505  23.108  24.411  1.00  0.00     0.197 C 
ATOM      9  C   UNL A   1      30.612  23.423  26.576  1.00  0.00     0.283 C 
ATOM     10  N   UNL A   1      31.418  22.188  26.504  1.00  0.00    -0.332 N 
ATOM     11  H   UNL A   1      30.874  21.404  26.864  1.00  0.00     0.347 HD
ATOM     12  H   UNL A   1      32.262  22.297  27.066  1.00  0.00     0.347 HD
BRANCH   6  13
ATOM     13  C   UNL A   1      31.636  25.333  23.583  1.00  0.00     0.266 C 
ATOM     14  O   UNL A   1      31.277  25.030  22.444  1.00  0.00    -0.268 OA
BRANCH  13  15
ATOM     15  C   UNL A   1      32.085  26.676  23.921  1.00  0.00     0.117 A 
ATOM     16  C   UNL A   1      33.263  28.540  24.967  1.00  0.00     0.183 A 
ATOM     17  N   UNL A   1      32.091  28.927  24.537  1.00  0.00    -0.225 NA
ATOM     18  S   UNL A   1      33.655  26.909  24.595  1.00  0.00    -0.092 S 
ATOM     19  C   UNL A   1      31.406  27.885  23.945  1.00  0.00     0.063 A 
ATOM     20  C   UNL A   1      30.026  28.200  23.513  1.00  0.00     0.068 C 
BRANCH  16  21
ATOM     21  N   UNL A   1      34.013  29.382  25.705  1.00  0.00    -0.362 N 
ATOM     22  H   UNL A   1      34.905  29.624  25.365  1.00  0.00     0.162 HD
BRANCH  21  23
ATOM     23  C   UNL A   1      33.589  29.949  26.961  1.00  0.00     0.112 C 
ATOM     24  C   UNL A   1      34.790  30.609  27.628  1.00  0.00     0.027 C 
ENDBRANCH  21  23
ENDBRANCH  16  21
ENDBRANCH  13  15
ENDBRANCH   6  13
ENDBRANCH   3   5
ENDBRANCH   2   3
ENDBRANCH   1   2
BRANCH   1  25
ATOM     25  C   UNL A   1      36.093  21.388  24.794  1.00  0.00     0.275 C 
BRANCH  25  26
ATOM     26  O   UNL A   1      36.868  21.533  26.001  1.00  0.00    -0.458 OA
BRANCH  26  27
ATOM     27  C   UNL A   1      38.203  21.354  25.863  1.00  0.00     0.338 C 
ATOM     28  O   UNL A   1      38.786  20.403  25.377  1.00  0.00    -0.246 OA
BRANCH  27  29
ATOM     29  C   UNL A   1      38.907  22.515  26.427  1.00  0.00     0.060 A 
ATOM     30  C   UNL A   1      38.495  23.801  26.087  1.00  0.00     0.016 A 
ATOM     31  C   UNL A   1      40.048  22.323  27.205  1.00  0.00     0.016 A 
ATOM     32  C   UNL A   1      39.233  24.909  26.500  1.00  0.00     0.010 A 
ATOM     33  C   UNL A   1      40.766  23.435  27.654  1.00  0.00     0.010 A 
ATOM     34  C   UNL A   1      40.373  24.736  27.291  1.00  0.00    -0.014 A 
BRANCH  34  35
ATOM     35  C   UNL A   1      41.185  25.907  27.704  1.00  0.00     0.031 A 
ATOM     36  C   UNL A   1      40.559  26.997  28.525  1.00  0.00     0.074 A 
ATOM     37  C   UNL A   1      42.477  26.004  27.335  1.00  0.00     0.049 A 
ATOM     38  N   UNL A   1      41.029  28.180  28.832  1.00  0.00    -0.248 NA
ATOM     39  C   UNL A   1      39.222  26.719  29.072  1.00  0.00     0.031 C 
ATOM     40  C   UNL A   1      43.223  24.989  26.593  1.00  0.00     0.029 A 
ATOM     41  N   UNL A   1      43.385  27.016  27.525  1.00  0.00    -0.354 N 
ATOM     42  C   UNL A   1      40.033  28.802  29.570  1.00  0.00     0.074 A 
ATOM     43  C   UNL A   1      38.931  27.867  29.667  1.00  0.00     0.031 C 
ATOM     44  C   UNL A   1      44.472  25.434  26.378  1.00  0.00     0.029 A 
ATOM     45  C   UNL A   1      44.593  26.788  26.912  1.00  0.00     0.049 A 
ATOM     46  H   UNL A   1      43.189  27.827  28.047  1.00  0.00     0.167 HD
ATOM     47  C   UNL A   1      40.036  30.043  30.113  1.00  0.00     0.037 A 
ATOM     48  C   UNL A   1      45.659  27.595  26.758  1.00  0.00     0.037 A 
ATOM     49  C   UNL A   1      41.144  30.958  30.039  1.00  0.00     0.049 A 
ATOM     50  C   UNL A   1      45.619  28.988  27.319  1.00  0.00     0.074 A 
ATOM     51  C   UNL A   1      41.248  32.232  30.571  1.00  0.00     0.029 A 
ATOM     52  N   UNL A   1      42.344  30.694  29.395  1.00  0.00    -0.354 N 
ATOM     53  N   UNL A   1      44.661  29.582  27.988  1.00  0.00    -0.248 NA
ATOM     54  C   UNL A   1      46.804  29.828  27.092  1.00  0.00     0.031 C 
ATOM     55  C   UNL A   1      42.498  32.753  30.217  1.00  0.00     0.029 A 
ATOM     56  C   UNL A   1      43.187  31.789  29.500  1.00  0.00     0.049 A 
ATOM     57  H   UNL A   1      42.563  29.853  28.933  1.00  0.00     0.167 HD
ATOM     58  C   UNL A   1      45.133  30.855  28.278  1.00  0.00     0.074 A 
ATOM     59  C   UNL A   1      46.466  30.945  27.722  1.00  0.00     0.031 C 
ATOM     60  C   UNL A   1      44.514  31.860  28.946  1.00  0.00     0.037 A 
BRANCH  47  61
ATOM     61  C   UNL A   1      38.782  30.498  30.798  1.00  0.00     0.057 A 
ATOM     62  C   UNL A   1      38.560  30.288  32.164  1.00  0.00     0.134 A 
ATOM     63  C   UNL A   1      37.793  31.181  30.078  1.00  0.00     0.134 A 
ATOM     64  F   UNL A   1      39.462  29.626  32.904  1.00  0.00    -0.206 F 
ATOM     65  C   UNL A   1      37.388  30.721  32.787  1.00  0.00     0.040 A 
ATOM     66  C   UNL A   1      36.627  31.640  30.695  1.00  0.00     0.040 A 
ATOM     67  F   UNL A   1      37.945  31.419  28.767  1.00  0.00    -0.206 F 
ATOM     68  C   UNL A   1      36.421  31.405  32.052  1.00  0.00     0.006 A 
ENDBRANCH  47  61
BRANCH  48  69
ATOM     69  C   UNL A   1      46.838  27.117  25.995  1.00  0.00     0.057 A 
ATOM     70  C   UNL A   1      46.948  27.335  24.618  1.00  0.00     0.134 A 
ATOM     71  C   UNL A   1      47.882  26.427  26.625  1.00  0.00     0.134 A 
ATOM     72  F   UNL A   1      45.969  27.967  23.954  1.00  0.00    -0.206 F 
ATOM     73  C   UNL A   1      48.051  26.879  23.892  1.00  0.00     0.040 A 
ATOM     74  C   UNL A   1      49.001  25.987  25.917  1.00  0.00     0.040 A 
ATOM     75  F   UNL A   1      47.834  26.186  27.943  1.00  0.00    -0.206 F 
ATOM     76  C   UNL A   1      49.084  26.210  24.545  1.00  0.00     0.006 A 
ENDBRANCH  48  69
BRANCH  60  77
ATOM     77  C   UNL A   1      45.287  33.130  29.140  1.00  0.00     0.057 A 
ATOM     78  C   UNL A   1      45.195  34.194  28.235  1.00  0.00     0.134 A 
ATOM     79  C   UNL A   1      46.099  33.304  30.267  1.00  0.00     0.134 A 
ATOM     80  F   UNL A   1      44.445  34.084  27.128  1.00  0.00    -0.206 F 
ATOM     81  C   UNL A   1      45.899  35.383  28.437  1.00  0.00     0.040 A 
ATOM     82  C   UNL A   1      46.789  34.496  30.491  1.00  0.00     0.040 A 
ATOM     83  F   UNL A   1      46.223  32.325  31.176  1.00  0.00    -0.206 F 
ATOM     84  C   UNL A   1      46.694  35.538  29.571  1.00  0.00     0.006 A 
ENDBRANCH  60  77
ENDBRANCH  34  35
ENDBRANCH  27  29
ENDBRANCH  26  27
ENDBRANCH  25  26
ENDBRANCH   1  25
TORSDOF 15
ENDMDL
