MODEL 1
REMARK VINA RESULT:     -11.9      0.000      0.000
REMARK SMILES NS(=O)(=O)c1ccc(N2N=C(C(=O)OCCOC(=O)c3ccc(-c4c5nc(c(-c6c(F)cccc6F)c6ccc([nH]6)c(-c6c(F)cccc6F)c6nc(c(-c7c(F)cccc7F)c7ccc4[nH]7)C=C6)C=C5)cc3)C[C@H]2c2ccco2)cc1
REMARK SMILES IDX 15 1 14 2 12 3 13 4 11 5 9 6 10 7 75 8 74 9 8 10 5 11 6 12
REMARK SMILES IDX 82 13 7 14 81 15 2 16 3 17 4 18 1 19 76 22 77 23 80 24 78 25
REMARK SMILES IDX 79 26 16 27 17 28 18 29 19 30 20 31 21 32 73 33 22 34 72 35
REMARK SMILES IDX 23 36 24 37 25 38 66 39 26 40 71 41 65 42 67 43 27 44 70 45
REMARK SMILES IDX 64 46 63 47 28 49 54 50 37 51 53 52 38 53 41 54 52 55 68 56
REMARK SMILES IDX 39 57 40 58 51 60 69 61 42 62 29 63 30 64 35 65 31 66 32 67
REMARK SMILES IDX 34 68 36 69 33 70 55 71 56 72 61 73 57 74 58 75 60 76 62 77
REMARK SMILES IDX 59 78 43 79 44 80 49 81 45 82 46 83 48 84 50 85 47 86
REMARK H PARENT 1 20 1 21 67 48 41 59
REMARK Flexibility Score: inf
ROOT
ATOM      1  C   UNL A   1      34.844  21.814  24.588  1.00  0.00     0.275 C 
ENDROOT
BRANCH   1   2
ATOM      2  O   UNL A   1      34.851  23.253  24.597  1.00  0.00    -0.458 OA
BRANCH   2   3
ATOM      3  C   UNL A   1      34.242  23.857  23.555  1.00  0.00     0.354 C 
ATOM      4  O   UNL A   1      34.426  23.666  22.368  1.00  0.00    -0.245 OA
BRANCH   3   5
ATOM      5  C   UNL A   1      33.159  24.766  24.076  1.00  0.00     0.148 C 
ATOM      6  N   UNL A   1      31.583  26.169  24.084  1.00  0.00    -0.254 N 
ATOM      7  N   UNL A   1      32.581  25.651  23.321  1.00  0.00    -0.169 NA
ATOM      8  C   UNL A   1      31.775  25.904  25.515  1.00  0.00     0.180 C 
ATOM      9  C   UNL A   1      32.606  24.609  25.456  1.00  0.00     0.101 C 
BRANCH   6  10
ATOM     10  C   UNL A   1      30.784  27.180  23.573  1.00  0.00     0.060 A 
ATOM     11  C   UNL A   1      29.199  29.275  22.584  1.00  0.00     0.082 A 
ATOM     12  C   UNL A   1      30.588  29.334  22.451  1.00  0.00     0.024 A 
ATOM     13  C   UNL A   1      28.594  28.182  23.206  1.00  0.00     0.024 A 
ATOM     14  C   UNL A   1      31.372  28.286  22.943  1.00  0.00     0.029 A 
ATOM     15  C   UNL A   1      29.391  27.149  23.708  1.00  0.00     0.029 A 
BRANCH  11  16
ATOM     16  S   UNL A   1      28.236  30.603  21.928  1.00  0.00     0.238 S 
ATOM     17  O   UNL A   1      27.246  30.979  22.917  1.00  0.00    -0.207 OA
ATOM     18  O   UNL A   1      27.909  30.307  20.560  1.00  0.00    -0.207 OA
BRANCH  16  19
ATOM     19  N   UNL A   1      29.298  31.910  21.870  1.00  0.00    -0.225 NA
ATOM     20  H   UNL A   1      28.796  32.742  21.560  1.00  0.00     0.137 HD
ATOM     21  H   UNL A   1      30.052  31.705  21.214  1.00  0.00     0.137 HD
ENDBRANCH  16  19
ENDBRANCH  11  16
ENDBRANCH   6  10
BRANCH   8  22
ATOM     22  C   UNL A   1      32.468  27.007  26.266  1.00  0.00     0.128 A 
ATOM     23  C   UNL A   1      32.013  27.947  27.171  1.00  0.00     0.048 A 
ATOM     24  O   UNL A   1      33.791  27.229  26.001  1.00  0.00    -0.467 OA
ATOM     25  C   UNL A   1      33.108  28.799  27.453  1.00  0.00     0.042 A 
ATOM     26  C   UNL A   1      34.166  28.316  26.721  1.00  0.00     0.195 A 
ENDBRANCH   8  22
ENDBRANCH   3   5
ENDBRANCH   2   3
ENDBRANCH   1   2
BRANCH   1  27
ATOM     27  C   UNL A   1      36.278  21.276  24.579  1.00  0.00     0.275 C 
BRANCH  27  28
ATOM     28  O   UNL A   1      36.937  21.529  25.837  1.00  0.00    -0.458 OA
BRANCH  28  29
ATOM     29  C   UNL A   1      38.266  21.261  25.844  1.00  0.00     0.338 C 
ATOM     30  O   UNL A   1      38.827  20.296  25.352  1.00  0.00    -0.246 OA
BRANCH  29  31
ATOM     31  C   UNL A   1      39.004  22.400  26.414  1.00  0.00     0.060 A 
ATOM     32  C   UNL A   1      38.518  23.671  26.124  1.00  0.00     0.016 A 
ATOM     33  C   UNL A   1      40.200  22.251  27.114  1.00  0.00     0.016 A 
ATOM     34  C   UNL A   1      39.214  24.807  26.517  1.00  0.00     0.010 A 
ATOM     35  C   UNL A   1      40.906  23.396  27.518  1.00  0.00     0.010 A 
ATOM     36  C   UNL A   1      40.423  24.683  27.208  1.00  0.00    -0.014 A 
BRANCH  36  37
ATOM     37  C   UNL A   1      41.187  25.915  27.531  1.00  0.00     0.031 A 
ATOM     38  C   UNL A   1      40.593  26.958  28.434  1.00  0.00     0.074 A 
ATOM     39  C   UNL A   1      42.450  26.057  27.083  1.00  0.00     0.049 A 
ATOM     40  N   UNL A   1      41.100  28.098  28.832  1.00  0.00    -0.248 NA
ATOM     41  C   UNL A   1      39.247  26.684  28.962  1.00  0.00     0.031 C 
ATOM     42  C   UNL A   1      43.162  25.091  26.247  1.00  0.00     0.029 A 
ATOM     43  N   UNL A   1      43.366  27.058  27.293  1.00  0.00    -0.354 N 
ATOM     44  C   UNL A   1      40.130  28.689  29.630  1.00  0.00     0.074 A 
ATOM     45  C   UNL A   1      38.997  27.789  29.651  1.00  0.00     0.031 C 
ATOM     46  C   UNL A   1      44.415  25.529  26.044  1.00  0.00     0.029 A 
ATOM     47  C   UNL A   1      44.579  26.826  26.693  1.00  0.00     0.049 A 
ATOM     48  H   UNL A   1      43.171  27.866  27.821  1.00  0.00     0.167 HD
ATOM     49  C   UNL A   1      40.181  29.872  30.289  1.00  0.00     0.037 A 
ATOM     50  C   UNL A   1      45.695  27.578  26.661  1.00  0.00     0.037 A 
ATOM     51  C   UNL A   1      41.324  30.751  30.301  1.00  0.00     0.049 A 
ATOM     52  C   UNL A   1      45.711  28.902  27.371  1.00  0.00     0.074 A 
ATOM     53  C   UNL A   1      41.473  31.962  30.955  1.00  0.00     0.029 A 
ATOM     54  N   UNL A   1      42.515  30.505  29.636  1.00  0.00    -0.354 N 
ATOM     55  N   UNL A   1      44.777  29.465  28.098  1.00  0.00    -0.248 NA
ATOM     56  C   UNL A   1      46.936  29.705  27.242  1.00  0.00     0.031 C 
ATOM     57  C   UNL A   1      42.742  32.470  30.650  1.00  0.00     0.029 A 
ATOM     58  C   UNL A   1      43.397  31.556  29.842  1.00  0.00     0.049 A 
ATOM     59  H   UNL A   1      42.707  29.704  29.098  1.00  0.00     0.167 HD
ATOM     60  C   UNL A   1      45.304  30.673  28.529  1.00  0.00     0.074 A 
ATOM     61  C   UNL A   1      46.648  30.758  27.994  1.00  0.00     0.031 C 
ATOM     62  C   UNL A   1      44.727  31.630  29.296  1.00  0.00     0.037 A 
BRANCH  49  63
ATOM     63  C   UNL A   1      38.946  30.307  31.021  1.00  0.00     0.057 A 
ATOM     64  C   UNL A   1      38.717  29.975  32.362  1.00  0.00     0.134 A 
ATOM     65  C   UNL A   1      37.981  31.092  30.376  1.00  0.00     0.134 A 
ATOM     66  F   UNL A   1      39.593  29.212  33.033  1.00  0.00    -0.206 F 
ATOM     67  C   UNL A   1      37.562  30.389  33.029  1.00  0.00     0.040 A 
ATOM     68  C   UNL A   1      36.834  31.531  31.038  1.00  0.00     0.040 A 
ATOM     69  F   UNL A   1      38.140  31.449  29.093  1.00  0.00    -0.206 F 
ATOM     70  C   UNL A   1      36.619  31.174  32.368  1.00  0.00     0.006 A 
ENDBRANCH  49  63
BRANCH  50  71
ATOM     71  C   UNL A   1      46.889  27.104  25.918  1.00  0.00     0.057 A 
ATOM     72  C   UNL A   1      47.872  26.329  26.542  1.00  0.00     0.134 A 
ATOM     73  C   UNL A   1      47.079  27.426  24.568  1.00  0.00     0.134 A 
ATOM     74  F   UNL A   1      47.760  26.011  27.840  1.00  0.00    -0.206 F 
ATOM     75  C   UNL A   1      49.007  25.898  25.854  1.00  0.00     0.040 A 
ATOM     76  C   UNL A   1      48.197  26.980  23.862  1.00  0.00     0.040 A 
ATOM     77  F   UNL A   1      46.176  28.170  23.914  1.00  0.00    -0.206 F 
ATOM     78  C   UNL A   1      49.169  26.218  24.507  1.00  0.00     0.006 A 
ENDBRANCH  50  71
BRANCH  62  79
ATOM     79  C   UNL A   1      45.557  32.840  29.609  1.00  0.00     0.057 A 
ATOM     80  C   UNL A   1      46.397  32.887  30.729  1.00  0.00     0.134 A 
ATOM     81  C   UNL A   1      45.522  33.966  28.778  1.00  0.00     0.134 A 
ATOM     82  F   UNL A   1      46.464  31.846  31.573  1.00  0.00    -0.206 F 
ATOM     83  C   UNL A   1      47.153  34.021  31.025  1.00  0.00     0.040 A 
ATOM     84  C   UNL A   1      46.292  35.098  29.052  1.00  0.00     0.040 A 
ATOM     85  F   UNL A   1      44.744  33.983  27.685  1.00  0.00    -0.206 F 
ATOM     86  C   UNL A   1      47.105  35.130  30.183  1.00  0.00     0.006 A 
ENDBRANCH  62  79
ENDBRANCH  36  37
ENDBRANCH  29  31
ENDBRANCH  28  29
ENDBRANCH  27  28
ENDBRANCH   1  27
TORSDOF 15
ENDMDL
MODEL 2
REMARK VINA RESULT:     -11.8      0.393      6.154
REMARK SMILES NS(=O)(=O)c1ccc(N2N=C(C(=O)OCCOC(=O)c3ccc(-c4c5nc(c(-c6c(F)cccc6F)c6ccc([nH]6)c(-c6c(F)cccc6F)c6nc(c(-c7c(F)cccc7F)c7ccc4[nH]7)C=C6)C=C5)cc3)C[C@H]2c2ccco2)cc1
REMARK SMILES IDX 15 1 14 2 12 3 13 4 11 5 9 6 10 7 75 8 74 9 8 10 5 11 6 12
REMARK SMILES IDX 82 13 7 14 81 15 2 16 3 17 4 18 1 19 76 22 77 23 80 24 78 25
REMARK SMILES IDX 79 26 16 27 17 28 18 29 19 30 20 31 21 32 73 33 22 34 72 35
REMARK SMILES IDX 23 36 24 37 25 38 66 39 26 40 71 41 65 42 67 43 27 44 70 45
REMARK SMILES IDX 64 46 63 47 28 49 54 50 37 51 53 52 38 53 41 54 52 55 68 56
REMARK SMILES IDX 39 57 40 58 51 60 69 61 42 62 29 63 30 64 35 65 31 66 32 67
REMARK SMILES IDX 34 68 36 69 33 70 55 71 56 72 61 73 57 74 58 75 60 76 62 77
REMARK SMILES IDX 59 78 43 79 44 80 49 81 45 82 46 83 48 84 50 85 47 86
REMARK H PARENT 1 20 1 21 67 48 41 59
REMARK Flexibility Score: inf
ROOT
ATOM      1  C   UNL A   1      34.808  21.716  24.661  1.00  0.00     0.275 C 
ENDROOT
BRANCH   1   2
ATOM      2  O   UNL A   1      34.834  23.134  24.905  1.00  0.00    -0.458 OA
BRANCH   2   3
ATOM      3  C   UNL A   1      34.440  23.920  23.881  1.00  0.00     0.354 C 
ATOM      4  O   UNL A   1      34.783  23.860  22.716  1.00  0.00    -0.245 OA
BRANCH   3   5
ATOM      5  C   UNL A   1      33.369  24.863  24.367  1.00  0.00     0.148 C 
ATOM      6  N   UNL A   1      31.804  26.278  24.321  1.00  0.00    -0.254 N 
ATOM      7  N   UNL A   1      32.791  25.715  23.575  1.00  0.00    -0.169 NA
ATOM      8  C   UNL A   1      32.009  26.082  25.762  1.00  0.00     0.180 C 
ATOM      9  C   UNL A   1      32.829  24.779  25.759  1.00  0.00     0.101 C 
BRANCH   6  10
ATOM     10  C   UNL A   1      31.009  27.269  23.770  1.00  0.00     0.060 A 
ATOM     11  C   UNL A   1      29.365  29.226  22.608  1.00  0.00     0.082 A 
ATOM     12  C   UNL A   1      28.789  28.157  23.298  1.00  0.00     0.024 A 
ATOM     13  C   UNL A   1      30.752  29.328  22.492  1.00  0.00     0.024 A 
ATOM     14  C   UNL A   1      29.613  27.187  23.877  1.00  0.00     0.029 A 
ATOM     15  C   UNL A   1      31.564  28.342  23.062  1.00  0.00     0.029 A 
BRANCH  11  16
ATOM     16  S   UNL A   1      28.297  30.449  21.912  1.00  0.00     0.238 S 
ATOM     17  O   UNL A   1      27.256  30.746  22.875  1.00  0.00    -0.207 OA
ATOM     18  O   UNL A   1      28.027  30.103  20.543  1.00  0.00    -0.207 OA
BRANCH  16  19
ATOM     19  N   UNL A   1      29.234  31.848  21.851  1.00  0.00    -0.225 NA
ATOM     20  H   UNL A   1      28.769  32.591  22.374  1.00  0.00     0.137 HD
ATOM     21  H   UNL A   1      29.349  32.138  20.881  1.00  0.00     0.137 HD
ENDBRANCH  16  19
ENDBRANCH  11  16
ENDBRANCH   6  10
BRANCH   8  22
ATOM     22  C   UNL A   1      32.719  27.215  26.451  1.00  0.00     0.128 A 
ATOM     23  C   UNL A   1      32.288  28.178  27.345  1.00  0.00     0.048 A 
ATOM     24  O   UNL A   1      34.027  27.442  26.127  1.00  0.00    -0.467 OA
ATOM     25  C   UNL A   1      33.384  29.049  27.556  1.00  0.00     0.042 A 
ATOM     26  C   UNL A   1      34.418  28.555  26.799  1.00  0.00     0.195 A 
ENDBRANCH   8  22
ENDBRANCH   3   5
ENDBRANCH   2   3
ENDBRANCH   1   2
BRANCH   1  27
ATOM     27  C   UNL A   1      36.027  21.044  25.301  1.00  0.00     0.275 C 
BRANCH  27  28
ATOM     28  O   UNL A   1      37.229  21.801  25.053  1.00  0.00    -0.458 OA
BRANCH  28  29
ATOM     29  C   UNL A   1      38.319  21.372  25.736  1.00  0.00     0.338 C 
ATOM     30  O   UNL A   1      38.787  20.246  25.747  1.00  0.00    -0.246 OA
BRANCH  29  31
ATOM     31  C   UNL A   1      38.992  22.515  26.375  1.00  0.00     0.060 A 
ATOM     32  C   UNL A   1      38.528  23.784  26.041  1.00  0.00     0.016 A 
ATOM     33  C   UNL A   1      40.115  22.372  27.189  1.00  0.00     0.016 A 
ATOM     34  C   UNL A   1      39.176  24.923  26.501  1.00  0.00     0.010 A 
ATOM     35  C   UNL A   1      40.771  23.521  27.660  1.00  0.00     0.010 A 
ATOM     36  C   UNL A   1      40.313  24.805  27.306  1.00  0.00    -0.014 A 
BRANCH  36  37
ATOM     37  C   UNL A   1      41.035  26.041  27.703  1.00  0.00     0.031 A 
ATOM     38  C   UNL A   1      42.435  26.287  27.218  1.00  0.00     0.074 A 
ATOM     39  C   UNL A   1      40.401  26.984  28.426  1.00  0.00     0.049 A 
ATOM     40  N   UNL A   1      43.229  27.301  27.455  1.00  0.00    -0.248 NA
ATOM     41  C   UNL A   1      43.024  25.255  26.350  1.00  0.00     0.031 C 
ATOM     42  C   UNL A   1      39.023  26.893  28.909  1.00  0.00     0.029 A 
ATOM     43  N   UNL A   1      40.826  28.216  28.858  1.00  0.00    -0.354 N 
ATOM     44  C   UNL A   1      44.417  27.018  26.793  1.00  0.00     0.074 A 
ATOM     45  C   UNL A   1      44.246  25.730  26.155  1.00  0.00     0.031 C 
ATOM     46  C   UNL A   1      38.704  28.034  29.539  1.00  0.00     0.029 A 
ATOM     47  C   UNL A   1      39.867  28.917  29.547  1.00  0.00     0.049 A 
ATOM     48  H   UNL A   1      41.732  28.563  28.690  1.00  0.00     0.167 HD
ATOM     49  C   UNL A   1      45.544  27.766  26.721  1.00  0.00     0.037 A 
ATOM     50  C   UNL A   1      39.921  30.129  30.130  1.00  0.00     0.037 A 
ATOM     51  C   UNL A   1      45.702  29.065  27.323  1.00  0.00     0.049 A 
ATOM     52  C   UNL A   1      41.197  30.921  30.064  1.00  0.00     0.074 A 
ATOM     53  C   UNL A   1      46.802  29.905  27.288  1.00  0.00     0.029 A 
ATOM     54  N   UNL A   1      44.726  29.717  28.060  1.00  0.00    -0.354 N 
ATOM     55  N   UNL A   1      42.323  30.629  29.460  1.00  0.00    -0.248 NA
ATOM     56  C   UNL A   1      41.213  32.207  30.776  1.00  0.00     0.031 C 
ATOM     57  C   UNL A   1      46.507  31.047  28.040  1.00  0.00     0.029 A 
ATOM     58  C   UNL A   1      45.207  30.938  28.508  1.00  0.00     0.049 A 
ATOM     59  H   UNL A   1      43.824  29.366  28.238  1.00  0.00     0.167 HD
ATOM     60  C   UNL A   1      43.173  31.699  29.701  1.00  0.00     0.074 A 
ATOM     61  C   UNL A   1      42.428  32.655  30.495  1.00  0.00     0.031 C 
ATOM     62  C   UNL A   1      44.457  31.875  29.304  1.00  0.00     0.037 A 
BRANCH  49  63
ATOM     63  C   UNL A   1      46.717  27.175  25.994  1.00  0.00     0.057 A 
ATOM     64  C   UNL A   1      47.650  26.348  26.631  1.00  0.00     0.134 A 
ATOM     65  C   UNL A   1      46.899  27.422  24.627  1.00  0.00     0.134 A 
ATOM     66  F   UNL A   1      47.543  26.084  27.942  1.00  0.00    -0.206 F 
ATOM     67  C   UNL A   1      48.735  25.804  25.939  1.00  0.00     0.040 A 
ATOM     68  C   UNL A   1      47.966  26.867  23.920  1.00  0.00     0.040 A 
ATOM     69  F   UNL A   1      46.040  28.203  23.956  1.00  0.00    -0.206 F 
ATOM     70  C   UNL A   1      48.893  26.060  24.578  1.00  0.00     0.006 A 
ENDBRANCH  49  63
BRANCH  50  71
ATOM     71  C   UNL A   1      38.734  30.665  30.840  1.00  0.00     0.057 A 
ATOM     72  C   UNL A   1      38.506  30.380  32.190  1.00  0.00     0.134 A 
ATOM     73  C   UNL A   1      37.794  31.466  30.180  1.00  0.00     0.134 A 
ATOM     74  F   UNL A   1      39.356  29.595  32.869  1.00  0.00    -0.206 F 
ATOM     75  C   UNL A   1      37.380  30.864  32.859  1.00  0.00     0.040 A 
ATOM     76  C   UNL A   1      36.677  31.977  30.843  1.00  0.00     0.040 A 
ATOM     77  F   UNL A   1      37.952  31.772  28.885  1.00  0.00    -0.206 F 
ATOM     78  C   UNL A   1      36.464  31.672  32.186  1.00  0.00     0.006 A 
ENDBRANCH  50  71
BRANCH  62  79
ATOM     79  C   UNL A   1      45.125  33.153  29.714  1.00  0.00     0.057 A 
ATOM     80  C   UNL A   1      45.044  34.311  28.929  1.00  0.00     0.134 A 
ATOM     81  C   UNL A   1      45.849  33.231  30.910  1.00  0.00     0.134 A 
ATOM     82  F   UNL A   1      44.377  34.297  27.764  1.00  0.00    -0.206 F 
ATOM     83  C   UNL A   1      45.682  35.493  29.306  1.00  0.00     0.040 A 
ATOM     84  C   UNL A   1      46.472  34.415  31.308  1.00  0.00     0.040 A 
ATOM     85  F   UNL A   1      45.959  32.161  31.711  1.00  0.00    -0.206 F 
ATOM     86  C   UNL A   1      46.396  35.548  30.501  1.00  0.00     0.006 A 
ENDBRANCH  62  79
ENDBRANCH  36  37
ENDBRANCH  29  31
ENDBRANCH  28  29
ENDBRANCH  27  28
ENDBRANCH   1  27
TORSDOF 15
ENDMDL
MODEL 3
REMARK VINA RESULT:     -11.7      3.648      7.356
REMARK SMILES NS(=O)(=O)c1ccc(N2N=C(C(=O)OCCOC(=O)c3ccc(-c4c5nc(c(-c6c(F)cccc6F)c6ccc([nH]6)c(-c6c(F)cccc6F)c6nc(c(-c7c(F)cccc7F)c7ccc4[nH]7)C=C6)C=C5)cc3)C[C@H]2c2ccco2)cc1
REMARK SMILES IDX 15 1 14 2 12 3 13 4 11 5 9 6 10 7 75 8 74 9 8 10 5 11 6 12
REMARK SMILES IDX 82 13 7 14 81 15 2 16 3 17 4 18 1 19 76 22 77 23 80 24 78 25
REMARK SMILES IDX 79 26 16 27 17 28 18 29 19 30 20 31 21 32 73 33 22 34 72 35
REMARK SMILES IDX 23 36 24 37 25 38 66 39 26 40 71 41 65 42 67 43 27 44 70 45
REMARK SMILES IDX 64 46 63 47 28 49 54 50 37 51 53 52 38 53 41 54 52 55 68 56
REMARK SMILES IDX 39 57 40 58 51 60 69 61 42 62 29 63 30 64 35 65 31 66 32 67
REMARK SMILES IDX 34 68 36 69 33 70 55 71 56 72 61 73 57 74 58 75 60 76 62 77
REMARK SMILES IDX 59 78 43 79 44 80 49 81 45 82 46 83 48 84 50 85 47 86
REMARK H PARENT 1 20 1 21 67 48 41 59
REMARK Flexibility Score: inf
ROOT
ATOM      1  C   UNL A   1      31.941  27.689  26.812  1.00  0.00     0.275 C 
ENDROOT
BRANCH   1   2
ATOM      2  O   UNL A   1      32.699  26.536  26.402  1.00  0.00    -0.458 OA
BRANCH   2   3
ATOM      3  C   UNL A   1      32.024  25.368  26.353  1.00  0.00     0.354 C 
ATOM      4  O   UNL A   1      30.935  25.113  26.832  1.00  0.00    -0.245 OA
BRANCH   3   5
ATOM      5  C   UNL A   1      32.779  24.398  25.482  1.00  0.00     0.148 C 
ATOM      6  N   UNL A   1      33.378  22.576  24.602  1.00  0.00    -0.254 N 
ATOM      7  N   UNL A   1      32.680  23.112  25.638  1.00  0.00    -0.169 NA
ATOM      8  C   UNL A   1      34.298  23.540  23.986  1.00  0.00     0.180 C 
ATOM      9  C   UNL A   1      33.584  24.864  24.311  1.00  0.00     0.101 C 
BRANCH   6  10
ATOM     10  C   UNL A   1      33.496  21.200  24.495  1.00  0.00     0.060 A 
ATOM     11  C   UNL A   1      33.796  18.420  24.238  1.00  0.00     0.082 A 
ATOM     12  C   UNL A   1      34.796  19.171  24.860  1.00  0.00     0.024 A 
ATOM     13  C   UNL A   1      32.649  19.042  23.743  1.00  0.00     0.024 A 
ATOM     14  C   UNL A   1      34.639  20.554  24.988  1.00  0.00     0.029 A 
ATOM     15  C   UNL A   1      32.513  20.429  23.863  1.00  0.00     0.029 A 
BRANCH  11  16
ATOM     16  S   UNL A   1      34.013  16.671  24.116  1.00  0.00     0.238 S 
ATOM     17  O   UNL A   1      35.019  16.270  25.078  1.00  0.00    -0.207 OA
ATOM     18  O   UNL A   1      34.062  16.305  22.727  1.00  0.00    -0.207 OA
BRANCH  16  19
ATOM     19  N   UNL A   1      32.575  16.022  24.708  1.00  0.00    -0.225 NA
ATOM     20  H   UNL A   1      31.810  16.259  24.075  1.00  0.00     0.137 HD
ATOM     21  H   UNL A   1      32.383  16.408  25.632  1.00  0.00     0.137 HD
ENDBRANCH  16  19
ENDBRANCH  11  16
ENDBRANCH   6  10
BRANCH   8  22
ATOM     22  C   UNL A   1      35.703  23.490  24.521  1.00  0.00     0.128 A 
ATOM     23  C   UNL A   1      36.874  22.958  24.016  1.00  0.00     0.048 A 
ATOM     24  O   UNL A   1      35.928  23.984  25.776  1.00  0.00    -0.467 OA
ATOM     25  C   UNL A   1      37.856  23.114  25.023  1.00  0.00     0.042 A 
ATOM     26  C   UNL A   1      37.232  23.749  26.070  1.00  0.00     0.195 A 
ENDBRANCH   8  22
ENDBRANCH   3   5
ENDBRANCH   2   3
ENDBRANCH   1   2
BRANCH   1  27
ATOM     27  C   UNL A   1      32.806  28.950  26.733  1.00  0.00     0.275 C 
BRANCH  27  28
ATOM     28  O   UNL A   1      33.925  28.871  27.640  1.00  0.00    -0.458 OA
BRANCH  28  29
ATOM     29  C   UNL A   1      34.510  30.061  27.922  1.00  0.00     0.338 C 
ATOM     30  O   UNL A   1      33.967  31.151  27.998  1.00  0.00    -0.246 OA
BRANCH  29  31
ATOM     31  C   UNL A   1      35.919  29.852  28.291  1.00  0.00     0.060 A 
ATOM     32  C   UNL A   1      36.868  30.079  27.299  1.00  0.00     0.016 A 
ATOM     33  C   UNL A   1      36.309  29.341  29.529  1.00  0.00     0.016 A 
ATOM     34  C   UNL A   1      38.210  29.795  27.518  1.00  0.00     0.010 A 
ATOM     35  C   UNL A   1      37.665  29.056  29.757  1.00  0.00     0.010 A 
ATOM     36  C   UNL A   1      38.623  29.267  28.746  1.00  0.00    -0.014 A 
BRANCH  36  37
ATOM     37  C   UNL A   1      40.049  28.888  28.913  1.00  0.00     0.031 A 
ATOM     38  C   UNL A   1      41.000  29.813  29.618  1.00  0.00     0.074 A 
ATOM     39  C   UNL A   1      40.471  27.674  28.510  1.00  0.00     0.049 A 
ATOM     40  N   UNL A   1      42.278  29.663  29.861  1.00  0.00    -0.248 NA
ATOM     41  C   UNL A   1      40.441  31.079  30.116  1.00  0.00     0.031 C 
ATOM     42  C   UNL A   1      39.635  26.661  27.866  1.00  0.00     0.029 A 
ATOM     43  N   UNL A   1      41.704  27.077  28.608  1.00  0.00    -0.354 N 
ATOM     44  C   UNL A   1      42.681  30.820  30.512  1.00  0.00     0.074 A 
ATOM     45  C   UNL A   1      41.515  31.673  30.615  1.00  0.00     0.031 C 
ATOM     46  C   UNL A   1      40.368  25.556  27.658  1.00  0.00     0.029 A 
ATOM     47  C   UNL A   1      41.735  25.798  28.109  1.00  0.00     0.049 A 
ATOM     48  H   UNL A   1      42.490  27.524  28.997  1.00  0.00     0.167 HD
ATOM     49  C   UNL A   1      43.910  31.142  30.984  1.00  0.00     0.037 A 
ATOM     50  C   UNL A   1      42.754  24.922  28.016  1.00  0.00     0.037 A 
ATOM     51  C   UNL A   1      45.061  30.278  30.917  1.00  0.00     0.049 A 
ATOM     52  C   UNL A   1      44.114  25.320  28.516  1.00  0.00     0.074 A 
ATOM     53  C   UNL A   1      46.343  30.512  31.385  1.00  0.00     0.029 A 
ATOM     54  N   UNL A   1      45.066  29.011  30.355  1.00  0.00    -0.354 N 
ATOM     55  N   UNL A   1      44.490  26.429  29.104  1.00  0.00    -0.248 NA
ATOM     56  C   UNL A   1      45.198  24.344  28.325  1.00  0.00     0.031 C 
ATOM     57  C   UNL A   1      47.135  29.402  31.068  1.00  0.00     0.029 A 
ATOM     58  C   UNL A   1      46.336  28.460  30.440  1.00  0.00     0.049 A 
ATOM     59  H   UNL A   1      44.284  28.568  29.955  1.00  0.00     0.167 HD
ATOM     60  C   UNL A   1      45.843  26.280  29.370  1.00  0.00     0.074 A 
ATOM     61  C   UNL A   1      46.221  24.965  28.893  1.00  0.00     0.031 C 
ATOM     62  C   UNL A   1      46.699  27.154  29.954  1.00  0.00     0.037 A 
BRANCH  49  63
ATOM     63  C   UNL A   1      44.082  32.507  31.582  1.00  0.00     0.057 A 
ATOM     64  C   UNL A   1      44.416  33.625  30.808  1.00  0.00     0.134 A 
ATOM     65  C   UNL A   1      43.887  32.708  32.956  1.00  0.00     0.134 A 
ATOM     66  F   UNL A   1      44.633  33.498  29.490  1.00  0.00    -0.206 F 
ATOM     67  C   UNL A   1      44.571  34.890  31.380  1.00  0.00     0.040 A 
ATOM     68  C   UNL A   1      44.017  33.970  33.535  1.00  0.00     0.040 A 
ATOM     69  F   UNL A   1      43.562  31.681  33.754  1.00  0.00    -0.206 F 
ATOM     70  C   UNL A   1      44.367  35.065  32.748  1.00  0.00     0.006 A 
ENDBRANCH  49  63
BRANCH  50  71
ATOM     71  C   UNL A   1      42.530  23.586  27.412  1.00  0.00     0.057 A 
ATOM     72  C   UNL A   1      42.644  23.385  26.032  1.00  0.00     0.134 A 
ATOM     73  C   UNL A   1      42.186  22.481  28.200  1.00  0.00     0.134 A 
ATOM     74  F   UNL A   1      42.944  24.410  25.221  1.00  0.00    -0.206 F 
ATOM     75  C   UNL A   1      42.415  22.134  25.455  1.00  0.00     0.040 A 
ATOM     76  C   UNL A   1      41.978  21.220  27.639  1.00  0.00     0.040 A 
ATOM     77  F   UNL A   1      42.056  22.609  29.528  1.00  0.00    -0.206 F 
ATOM     78  C   UNL A   1      42.087  21.045  26.261  1.00  0.00     0.006 A 
ENDBRANCH  50  71
BRANCH  62  79
ATOM     79  C   UNL A   1      48.120  26.705  30.118  1.00  0.00     0.057 A 
ATOM     80  C   UNL A   1      48.542  25.994  31.248  1.00  0.00     0.134 A 
ATOM     81  C   UNL A   1      49.076  26.978  29.132  1.00  0.00     0.134 A 
ATOM     82  F   UNL A   1      47.678  25.713  32.236  1.00  0.00    -0.206 F 
ATOM     83  C   UNL A   1      49.869  25.594  31.405  1.00  0.00     0.040 A 
ATOM     84  C   UNL A   1      50.401  26.563  29.267  1.00  0.00     0.040 A 
ATOM     85  F   UNL A   1      48.736  27.650  28.021  1.00  0.00    -0.206 F 
ATOM     86  C   UNL A   1      50.803  25.875  30.410  1.00  0.00     0.006 A 
ENDBRANCH  62  79
ENDBRANCH  36  37
ENDBRANCH  29  31
ENDBRANCH  28  29
ENDBRANCH  27  28
ENDBRANCH   1  27
TORSDOF 15
ENDMDL
