MODEL 1
REMARK VINA RESULT:     -13.4      0.000      0.000
REMARK SMILES Cc1ccc(S(=O)(=O)n2cc(C(=O)C(=O)NCC(=O)NCC(=O)OCCOC(=O)c3ccc(-c4c5nc(c(-c6c(F)cccc6F)c6ccc([nH]6)c(-c6c(F)cccc6F)c6nc(c(-c7c(F)cccc7F)c7ccc4[nH]7)C=C6)C=C5)cc3)c3ccccc32)cc1
REMARK SMILES IDX 22 1 23 2 21 3 20 4 18 5 19 6 17 8 16 9 14 10 15 11 12 13
REMARK SMILES IDX 13 14 11 15 9 16 10 17 89 18 84 19 88 20 85 21 87 22 86 23
REMARK SMILES IDX 6 24 7 25 8 26 5 27 1 28 2 29 3 30 91 31 4 32 90 33 24 34
REMARK SMILES IDX 25 35 26 36 27 37 28 38 29 39 30 40 31 41 83 42 32 43 82 44
REMARK SMILES IDX 33 45 34 46 35 47 76 48 36 49 81 50 75 51 77 52 37 53 80 54
REMARK SMILES IDX 74 55 73 56 38 58 64 59 47 60 63 61 48 62 51 63 62 64 78 65
REMARK SMILES IDX 49 66 50 67 61 69 79 70 52 71 39 72 40 73 45 74 41 75 42 76
REMARK SMILES IDX 44 77 46 78 43 79 65 80 66 81 71 82 67 83 68 84 70 85 72 86
REMARK SMILES IDX 69 87 53 88 54 89 59 90 55 91 56 92 58 93 60 94 57 95
REMARK H PARENT 20 7 16 12 77 57 51 68
REMARK Flexibility Score: inf
ROOT
ATOM      1  C   UNL A   1      33.424  34.959  28.879  1.00  0.00     0.325 C 
ATOM      2  O   UNL A   1      33.954  36.062  28.581  1.00  0.00    -0.250 OA
ENDROOT
BRANCH   1   3
ATOM      3  C   UNL A   1      33.632  32.965  27.989  1.00  0.00     0.238 C 
BRANCH   3   4
ATOM      4  N   UNL A   1      34.733  31.754  28.128  1.00  0.00    -0.344 N 
ATOM      5  C   UNL A   1      34.848  30.468  27.725  1.00  0.00     0.239 C 
ATOM      6  O   UNL A   1      35.922  29.916  27.999  1.00  0.00    -0.273 OA
ATOM      7  H   UNL A   1      35.522  32.043  28.640  1.00  0.00     0.164 HD
BRANCH   5   8
ATOM      8  C   UNL A   1      33.839  29.737  26.859  1.00  0.00     0.216 C 
BRANCH   8   9
ATOM      9  N   UNL A   1      32.660  29.253  27.531  1.00  0.00    -0.340 N 
ATOM     10  C   UNL A   1      31.803  28.228  27.194  1.00  0.00     0.292 C 
ATOM     11  O   UNL A   1      31.103  27.803  28.104  1.00  0.00    -0.265 OA
ATOM     12  H   UNL A   1      32.432  29.728  28.362  1.00  0.00     0.164 HD
BRANCH  10  13
ATOM     13  C   UNL A   1      31.759  27.587  25.766  1.00  0.00     0.252 C 
ATOM     14  O   UNL A   1      31.201  28.261  24.904  1.00  0.00    -0.283 OA
BRANCH  13  15
ATOM     15  C   UNL A   1      32.437  26.315  25.357  1.00  0.00     0.054 A 
ATOM     16  N   UNL A   1      33.697  24.465  25.288  1.00  0.00    -0.240 N 
ATOM     17  C   UNL A   1      32.850  25.206  26.078  1.00  0.00     0.117 A 
ATOM     18  C   UNL A   1      33.377  24.675  23.985  1.00  0.00     0.065 A 
ATOM     19  C   UNL A   1      32.596  25.841  23.993  1.00  0.00     0.012 A 
ATOM     20  C   UNL A   1      33.685  23.943  22.834  1.00  0.00     0.028 A 
ATOM     21  C   UNL A   1      32.098  26.286  22.758  1.00  0.00     0.011 A 
ATOM     22  C   UNL A   1      33.133  24.388  21.641  1.00  0.00     0.002 A 
ATOM     23  C   UNL A   1      32.349  25.536  21.604  1.00  0.00     0.001 A 
BRANCH  16  24
ATOM     24  S   UNL A   1      34.717  23.248  25.859  1.00  0.00     0.268 S 
ATOM     25  O   UNL A   1      34.555  23.269  27.297  1.00  0.00    -0.201 OA
ATOM     26  O   UNL A   1      35.961  23.474  25.159  1.00  0.00    -0.201 OA
BRANCH  24  27
ATOM     27  C   UNL A   1      34.131  21.676  25.286  1.00  0.00     0.088 A 
ATOM     28  C   UNL A   1      32.453  17.794  24.514  1.00  0.00     0.044 C 
ATOM     29  C   UNL A   1      33.054  19.158  24.688  1.00  0.00    -0.051 A 
ATOM     30  C   UNL A   1      32.218  20.224  25.018  1.00  0.00     0.005 A 
ATOM     31  C   UNL A   1      34.435  19.382  24.604  1.00  0.00     0.005 A 
ATOM     32  C   UNL A   1      32.750  21.475  25.315  1.00  0.00     0.022 A 
ATOM     33  C   UNL A   1      34.980  20.640  24.905  1.00  0.00     0.022 A 
ENDBRANCH  24  27
ENDBRANCH  16  24
ENDBRANCH  13  15
ENDBRANCH  10  13
ENDBRANCH   8   9
ENDBRANCH   5   8
ENDBRANCH   3   4
ENDBRANCH   1   3
BRANCH   1  34
ATOM     34  O   UNL A   1      32.661  35.202  30.067  1.00  0.00    -0.461 OA
BRANCH  34  35
ATOM     35  C   UNL A   1      32.885  36.441  30.751  1.00  0.00     0.274 C 
BRANCH  35  36
ATOM     36  C   UNL A   1      33.492  36.167  32.135  1.00  0.00     0.275 C 
BRANCH  36  37
ATOM     37  O   UNL A   1      34.070  34.842  32.330  1.00  0.00    -0.458 OA
BRANCH  37  38
ATOM     38  C   UNL A   1      35.397  34.536  32.280  1.00  0.00     0.338 C 
ATOM     39  O   UNL A   1      36.280  35.243  32.740  1.00  0.00    -0.246 OA
BRANCH  38  40
ATOM     40  C   UNL A   1      35.751  33.498  31.295  1.00  0.00     0.060 A 
ATOM     41  C   UNL A   1      35.584  31.798  31.893  1.00  0.00     0.016 A 
ATOM     42  C   UNL A   1      36.967  33.890  30.015  1.00  0.00     0.016 A 
ATOM     43  C   UNL A   1      36.833  30.560  31.397  1.00  0.00     0.010 A 
ATOM     44  C   UNL A   1      38.164  32.640  29.494  1.00  0.00     0.010 A 
ATOM     45  C   UNL A   1      38.170  31.017  30.285  1.00  0.00    -0.014 A 
BRANCH  45  46
ATOM     46  C   UNL A   1      39.593  30.587  30.507  1.00  0.00     0.031 A 
ATOM     47  C   UNL A   1      40.147  29.543  29.616  1.00  0.00     0.074 A 
ATOM     48  C   UNL A   1      40.415  31.198  31.385  1.00  0.00     0.049 A 
ATOM     49  N   UNL A   1      41.276  29.454  28.999  1.00  0.00    -0.248 NA
ATOM     50  C   UNL A   1      39.283  28.416  29.367  1.00  0.00     0.031 C 
ATOM     51  C   UNL A   1      41.872  31.130  31.415  1.00  0.00     0.029 A 
ATOM     52  N   UNL A   1      40.085  31.914  32.533  1.00  0.00    -0.354 N 
ATOM     53  C   UNL A   1      41.276  28.204  28.391  1.00  0.00     0.074 A 
ATOM     54  C   UNL A   1      39.943  27.678  28.501  1.00  0.00     0.031 C 
ATOM     55  C   UNL A   1      42.315  31.586  32.594  1.00  0.00     0.029 A 
ATOM     56  C   UNL A   1      41.161  31.817  33.435  1.00  0.00     0.049 A 
ATOM     57  H   UNL A   1      39.246  32.404  32.687  1.00  0.00     0.167 HD
ATOM     58  C   UNL A   1      42.256  27.277  28.523  1.00  0.00     0.037 A 
ATOM     59  C   UNL A   1      40.984  31.256  34.666  1.00  0.00     0.037 A 
ATOM     60  C   UNL A   1      43.095  27.527  29.686  1.00  0.00     0.049 A 
ATOM     61  C   UNL A   1      41.675  29.904  34.800  1.00  0.00     0.074 A 
ATOM     62  C   UNL A   1      44.085  28.461  29.925  1.00  0.00     0.029 A 
ATOM     63  N   UNL A   1      42.717  27.061  30.948  1.00  0.00    -0.354 N 
ATOM     64  N   UNL A   1      42.265  29.272  33.812  1.00  0.00    -0.248 NA
ATOM     65  C   UNL A   1      41.733  29.142  36.040  1.00  0.00     0.031 C 
ATOM     66  C   UNL A   1      44.308  28.541  31.330  1.00  0.00     0.029 A 
ATOM     67  C   UNL A   1      43.511  27.604  31.965  1.00  0.00     0.049 A 
ATOM     68  H   UNL A   1      41.981  26.427  31.104  1.00  0.00     0.167 HD
ATOM     69  C   UNL A   1      42.751  28.056  34.231  1.00  0.00     0.074 A 
ATOM     70  C   UNL A   1      42.367  28.024  35.639  1.00  0.00     0.031 C 
ATOM     71  C   UNL A   1      43.375  27.171  33.374  1.00  0.00     0.037 A 
BRANCH  58  72
ATOM     72  C   UNL A   1      42.432  26.313  27.359  1.00  0.00     0.057 A 
ATOM     73  C   UNL A   1      42.073  24.971  27.518  1.00  0.00     0.134 A 
ATOM     74  C   UNL A   1      43.100  26.595  26.129  1.00  0.00     0.134 A 
ATOM     75  F   UNL A   1      41.404  24.564  28.605  1.00  0.00    -0.206 F 
ATOM     76  C   UNL A   1      42.435  23.980  26.590  1.00  0.00     0.040 A 
ATOM     77  C   UNL A   1      43.428  25.621  25.179  1.00  0.00     0.040 A 
ATOM     78  F   UNL A   1      43.523  27.821  25.787  1.00  0.00    -0.206 F 
ATOM     79  C   UNL A   1      43.130  24.297  25.428  1.00  0.00     0.006 A 
ENDBRANCH  58  72
BRANCH  59  80
ATOM     80  C   UNL A   1      39.718  31.751  35.294  1.00  0.00     0.057 A 
ATOM     81  C   UNL A   1      39.775  33.054  35.840  1.00  0.00     0.134 A 
ATOM     82  C   UNL A   1      38.459  31.296  34.900  1.00  0.00     0.134 A 
ATOM     83  F   UNL A   1      40.939  33.541  36.297  1.00  0.00    -0.206 F 
ATOM     84  C   UNL A   1      38.696  33.939  35.753  1.00  0.00     0.040 A 
ATOM     85  C   UNL A   1      37.348  32.157  34.884  1.00  0.00     0.040 A 
ATOM     86  F   UNL A   1      38.307  30.086  34.350  1.00  0.00    -0.206 F 
ATOM     87  C   UNL A   1      37.490  33.502  35.225  1.00  0.00     0.006 A 
ENDBRANCH  59  80
BRANCH  71  88
ATOM     88  C   UNL A   1      43.918  25.787  33.767  1.00  0.00     0.057 A 
ATOM     89  C   UNL A   1      43.185  24.777  34.414  1.00  0.00     0.134 A 
ATOM     90  C   UNL A   1      45.258  25.416  33.491  1.00  0.00     0.134 A 
ATOM     91  F   UNL A   1      41.968  25.003  34.924  1.00  0.00    -0.206 F 
ATOM     92  C   UNL A   1      43.674  23.470  34.602  1.00  0.00     0.040 A 
ATOM     93  C   UNL A   1      45.776  24.133  33.721  1.00  0.00     0.040 A 
ATOM     94  F   UNL A   1      46.143  26.265  32.958  1.00  0.00    -0.206 F 
ATOM     95  C   UNL A   1      44.972  23.139  34.245  1.00  0.00     0.006 A 
ENDBRANCH  71  88
ENDBRANCH  45  46
ENDBRANCH  38  40
ENDBRANCH  37  38
ENDBRANCH  36  37
ENDBRANCH  35  36
ENDBRANCH  34  35
ENDBRANCH   1  34
TORSDOF 18
ENDMDL
MODEL 2
REMARK VINA RESULT:     -13.4      3.903      9.757
REMARK SMILES Cc1ccc(S(=O)(=O)n2cc(C(=O)C(=O)NCC(=O)NCC(=O)OCCOC(=O)c3ccc(-c4c5nc(c(-c6c(F)cccc6F)c6ccc([nH]6)c(-c6c(F)cccc6F)c6nc(c(-c7c(F)cccc7F)c7ccc4[nH]7)C=C6)C=C5)cc3)c3ccccc32)cc1
REMARK SMILES IDX 22 1 23 2 21 3 20 4 18 5 19 6 17 8 16 9 14 10 15 11 12 13
REMARK SMILES IDX 13 14 11 15 9 16 10 17 89 18 84 19 88 20 85 21 87 22 86 23
REMARK SMILES IDX 6 24 7 25 8 26 5 27 1 28 2 29 3 30 91 31 4 32 90 33 24 34
REMARK SMILES IDX 25 35 26 36 27 37 28 38 29 39 30 40 31 41 83 42 32 43 82 44
REMARK SMILES IDX 33 45 34 46 35 47 76 48 36 49 81 50 75 51 77 52 37 53 80 54
REMARK SMILES IDX 74 55 73 56 38 58 64 59 47 60 63 61 48 62 51 63 62 64 78 65
REMARK SMILES IDX 49 66 50 67 61 69 79 70 52 71 39 72 40 73 45 74 41 75 42 76
REMARK SMILES IDX 44 77 46 78 43 79 65 80 66 81 71 82 67 83 68 84 70 85 72 86
REMARK SMILES IDX 69 87 53 88 54 89 59 90 55 91 56 92 58 93 60 94 57 95
REMARK H PARENT 20 7 16 12 77 57 51 68
REMARK Flexibility Score: inf
ROOT
ATOM      1  C   UNL A   1      40.579  20.258  26.443  1.00  0.00     0.325 C 
ATOM      2  O   UNL A   1      41.128  19.901  27.519  1.00  0.00    -0.250 OA
ENDROOT
BRANCH   1   3
ATOM      3  C   UNL A   1      38.784  21.460  26.061  1.00  0.00     0.238 C 
BRANCH   3   4
ATOM      4  N   UNL A   1      37.950  21.882  24.711  1.00  0.00    -0.344 N 
ATOM      5  C   UNL A   1      36.671  22.187  24.390  1.00  0.00     0.239 C 
ATOM      6  O   UNL A   1      36.482  22.529  23.216  1.00  0.00    -0.273 OA
ATOM      7  H   UNL A   1      38.539  21.926  23.924  1.00  0.00     0.164 HD
BRANCH   5   8
ATOM      8  C   UNL A   1      35.527  22.279  25.382  1.00  0.00     0.216 C 
BRANCH   8   9
ATOM      9  N   UNL A   1      34.808  21.056  25.635  1.00  0.00    -0.340 N 
ATOM     10  C   UNL A   1      33.762  20.481  24.948  1.00  0.00     0.292 C 
ATOM     11  O   UNL A   1      33.579  19.290  25.161  1.00  0.00    -0.265 OA
ATOM     12  H   UNL A   1      35.114  20.551  26.423  1.00  0.00     0.164 HD
BRANCH  10  13
ATOM     13  C   UNL A   1      32.894  21.263  23.905  1.00  0.00     0.252 C 
ATOM     14  O   UNL A   1      32.439  20.587  22.986  1.00  0.00    -0.283 OA
BRANCH  13  15
ATOM     15  C   UNL A   1      32.484  22.701  24.011  1.00  0.00     0.054 A 
ATOM     16  N   UNL A   1      31.587  24.648  24.657  1.00  0.00    -0.240 N 
ATOM     17  C   UNL A   1      32.238  23.521  25.100  1.00  0.00     0.117 A 
ATOM     18  C   UNL A   1      31.938  24.878  23.366  1.00  0.00     0.065 A 
ATOM     19  C   UNL A   1      32.492  23.666  22.925  1.00  0.00     0.012 A 
ATOM     20  C   UNL A   1      31.835  26.027  22.576  1.00  0.00     0.028 A 
ATOM     21  C   UNL A   1      32.971  23.623  21.606  1.00  0.00     0.011 A 
ATOM     22  C   UNL A   1      32.364  25.959  21.296  1.00  0.00     0.002 A 
ATOM     23  C   UNL A   1      32.927  24.779  20.820  1.00  0.00     0.001 A 
BRANCH  16  24
ATOM     24  S   UNL A   1      30.774  25.738  25.657  1.00  0.00     0.268 S 
ATOM     25  O   UNL A   1      30.513  25.003  26.876  1.00  0.00    -0.201 OA
ATOM     26  O   UNL A   1      29.761  26.314  24.800  1.00  0.00    -0.201 OA
BRANCH  24  27
ATOM     27  C   UNL A   1      31.860  27.076  26.069  1.00  0.00     0.088 A 
ATOM     28  C   UNL A   1      34.703  29.928  27.576  1.00  0.00     0.044 C 
ATOM     29  C   UNL A   1      33.703  28.987  26.970  1.00  0.00    -0.051 A 
ATOM     30  C   UNL A   1      34.141  27.749  26.503  1.00  0.00     0.005 A 
ATOM     31  C   UNL A   1      32.333  29.281  26.927  1.00  0.00     0.005 A 
ATOM     32  C   UNL A   1      33.228  26.799  26.055  1.00  0.00     0.022 A 
ATOM     33  C   UNL A   1      31.405  28.327  26.480  1.00  0.00     0.022 A 
ENDBRANCH  24  27
ENDBRANCH  16  24
ENDBRANCH  13  15
ENDBRANCH  10  13
ENDBRANCH   8   9
ENDBRANCH   5   8
ENDBRANCH   3   4
ENDBRANCH   1   3
BRANCH   1  34
ATOM     34  O   UNL A   1      41.442  19.799  25.394  1.00  0.00    -0.461 OA
BRANCH  34  35
ATOM     35  C   UNL A   1      42.727  19.292  25.775  1.00  0.00     0.274 C 
BRANCH  35  36
ATOM     36  C   UNL A   1      43.818  20.299  25.385  1.00  0.00     0.275 C 
BRANCH  36  37
ATOM     37  O   UNL A   1      43.381  21.678  25.197  1.00  0.00    -0.458 OA
BRANCH  37  38
ATOM     38  C   UNL A   1      43.446  22.669  26.131  1.00  0.00     0.338 C 
ATOM     39  O   UNL A   1      44.210  22.661  27.083  1.00  0.00    -0.246 OA
BRANCH  38  40
ATOM     40  C   UNL A   1      42.276  23.565  26.158  1.00  0.00     0.060 A 
ATOM     41  C   UNL A   1      42.479  25.102  25.223  1.00  0.00     0.016 A 
ATOM     42  C   UNL A   1      41.176  23.518  27.592  1.00  0.00     0.016 A 
ATOM     43  C   UNL A   1      41.787  26.649  25.906  1.00  0.00     0.010 A 
ATOM     44  C   UNL A   1      40.454  25.050  28.226  1.00  0.00     0.010 A 
ATOM     45  C   UNL A   1      40.869  26.627  27.452  1.00  0.00    -0.014 A 
BRANCH  45  46
ATOM     46  C   UNL A   1      41.063  27.662  28.525  1.00  0.00     0.031 A 
ATOM     47  C   UNL A   1      39.957  28.614  28.774  1.00  0.00     0.074 A 
ATOM     48  C   UNL A   1      42.132  27.675  29.347  1.00  0.00     0.049 A 
ATOM     49  N   UNL A   1      39.421  29.037  29.869  1.00  0.00    -0.248 NA
ATOM     50  C   UNL A   1      39.344  29.176  27.597  1.00  0.00     0.031 C 
ATOM     51  C   UNL A   1      42.244  28.363  30.628  1.00  0.00     0.029 A 
ATOM     52  N   UNL A   1      43.408  27.164  29.125  1.00  0.00    -0.354 N 
ATOM     53  C   UNL A   1      38.489  29.996  29.486  1.00  0.00     0.074 A 
ATOM     54  C   UNL A   1      38.354  29.910  28.058  1.00  0.00     0.031 C 
ATOM     55  C   UNL A   1      43.532  28.418  30.994  1.00  0.00     0.029 A 
ATOM     56  C   UNL A   1      44.321  27.910  29.893  1.00  0.00     0.049 A 
ATOM     57  H   UNL A   1      43.632  26.410  28.533  1.00  0.00     0.167 HD
ATOM     58  C   UNL A   1      38.426  31.255  29.981  1.00  0.00     0.037 A 
ATOM     59  C   UNL A   1      45.330  28.601  29.289  1.00  0.00     0.037 A 
ATOM     60  C   UNL A   1      39.669  31.656  30.625  1.00  0.00     0.049 A 
ATOM     61  C   UNL A   1      45.130  30.110  29.356  1.00  0.00     0.074 A 
ATOM     62  C   UNL A   1      40.228  31.314  31.841  1.00  0.00     0.029 A 
ATOM     63  N   UNL A   1      40.722  32.184  29.872  1.00  0.00    -0.354 N 
ATOM     64  N   UNL A   1      44.049  30.696  29.817  1.00  0.00    -0.248 NA
ATOM     65  C   UNL A   1      46.109  31.080  28.883  1.00  0.00     0.031 C 
ATOM     66  C   UNL A   1      41.612  31.654  31.820  1.00  0.00     0.029 A 
ATOM     67  C   UNL A   1      41.903  32.276  30.618  1.00  0.00     0.049 A 
ATOM     68  H   UNL A   1      40.642  32.460  28.930  1.00  0.00     0.167 HD
ATOM     69  C   UNL A   1      44.145  32.062  29.700  1.00  0.00     0.074 A 
ATOM     70  C   UNL A   1      45.458  32.241  29.087  1.00  0.00     0.031 C 
ATOM     71  C   UNL A   1      43.122  32.912  30.070  1.00  0.00     0.037 A 
BRANCH  58  72
ATOM     72  C   UNL A   1      37.055  31.915  29.971  1.00  0.00     0.057 A 
ATOM     73  C   UNL A   1      36.858  33.079  29.222  1.00  0.00     0.134 A 
ATOM     74  C   UNL A   1      35.948  31.561  30.799  1.00  0.00     0.134 A 
ATOM     75  F   UNL A   1      37.796  33.513  28.369  1.00  0.00    -0.206 F 
ATOM     76  C   UNL A   1      35.710  33.878  29.359  1.00  0.00     0.040 A 
ATOM     77  C   UNL A   1      34.782  32.328  30.911  1.00  0.00     0.040 A 
ATOM     78  F   UNL A   1      35.938  30.479  31.591  1.00  0.00    -0.206 F 
ATOM     79  C   UNL A   1      34.677  33.516  30.218  1.00  0.00     0.006 A 
ENDBRANCH  58  72
BRANCH  59  80
ATOM     80  C   UNL A   1      45.981  27.767  28.230  1.00  0.00     0.057 A 
ATOM     81  C   UNL A   1      46.759  26.683  28.696  1.00  0.00     0.134 A 
ATOM     82  C   UNL A   1      45.453  27.644  26.943  1.00  0.00     0.134 A 
ATOM     83  F   UNL A   1      47.351  26.750  29.900  1.00  0.00    -0.206 F 
ATOM     84  C   UNL A   1      46.788  25.454  28.032  1.00  0.00     0.040 A 
ATOM     85  C   UNL A   1      45.545  26.436  26.232  1.00  0.00     0.040 A 
ATOM     86  F   UNL A   1      44.683  28.607  26.423  1.00  0.00    -0.206 F 
ATOM     87  C   UNL A   1      46.135  25.315  26.816  1.00  0.00     0.006 A 
ENDBRANCH  59  80
BRANCH  71  88
ATOM     88  C   UNL A   1      43.149  34.444  29.942  1.00  0.00     0.057 A 
ATOM     89  C   UNL A   1      43.218  35.351  31.015  1.00  0.00     0.134 A 
ATOM     90  C   UNL A   1      43.105  35.079  28.676  1.00  0.00     0.134 A 
ATOM     91  F   UNL A   1      43.076  34.955  32.285  1.00  0.00    -0.206 F 
ATOM     92  C   UNL A   1      43.408  36.736  30.842  1.00  0.00     0.040 A 
ATOM     93  C   UNL A   1      43.240  36.463  28.490  1.00  0.00     0.040 A 
ATOM     94  F   UNL A   1      42.952  34.397  27.536  1.00  0.00    -0.206 F 
ATOM     95  C   UNL A   1      43.431  37.297  29.575  1.00  0.00     0.006 A 
ENDBRANCH  71  88
ENDBRANCH  45  46
ENDBRANCH  38  40
ENDBRANCH  37  38
ENDBRANCH  36  37
ENDBRANCH  35  36
ENDBRANCH  34  35
ENDBRANCH   1  34
TORSDOF 18
ENDMDL
MODEL 3
REMARK VINA RESULT:     -13.4      1.646      2.275
REMARK SMILES Cc1ccc(S(=O)(=O)n2cc(C(=O)C(=O)NCC(=O)NCC(=O)OCCOC(=O)c3ccc(-c4c5nc(c(-c6c(F)cccc6F)c6ccc([nH]6)c(-c6c(F)cccc6F)c6nc(c(-c7c(F)cccc7F)c7ccc4[nH]7)C=C6)C=C5)cc3)c3ccccc32)cc1
REMARK SMILES IDX 22 1 23 2 21 3 20 4 18 5 19 6 17 8 16 9 14 10 15 11 12 13
REMARK SMILES IDX 13 14 11 15 9 16 10 17 89 18 84 19 88 20 85 21 87 22 86 23
REMARK SMILES IDX 6 24 7 25 8 26 5 27 1 28 2 29 3 30 91 31 4 32 90 33 24 34
REMARK SMILES IDX 25 35 26 36 27 37 28 38 29 39 30 40 31 41 83 42 32 43 82 44
REMARK SMILES IDX 33 45 34 46 35 47 76 48 36 49 81 50 75 51 77 52 37 53 80 54
REMARK SMILES IDX 74 55 73 56 38 58 64 59 47 60 63 61 48 62 51 63 62 64 78 65
REMARK SMILES IDX 49 66 50 67 61 69 79 70 52 71 39 72 40 73 45 74 41 75 42 76
REMARK SMILES IDX 44 77 46 78 43 79 65 80 66 81 71 82 67 83 68 84 70 85 72 86
REMARK SMILES IDX 69 87 53 88 54 89 59 90 55 91 56 92 58 93 60 94 57 95
REMARK H PARENT 20 7 16 12 77 57 51 68
REMARK Flexibility Score: inf
ROOT
ATOM      1  C   UNL A   1      34.043  33.337  28.096  1.00  0.00     0.325 C 
ATOM      2  O   UNL A   1      34.571  34.334  27.537  1.00  0.00    -0.250 OA
ENDROOT
BRANCH   1   3
ATOM      3  C   UNL A   1      34.138  31.196  27.631  1.00  0.00     0.238 C 
BRANCH   3   4
ATOM      4  N   UNL A   1      33.056  29.961  27.677  1.00  0.00    -0.344 N 
ATOM      5  C   UNL A   1      32.363  29.215  26.785  1.00  0.00     0.239 C 
ATOM      6  O   UNL A   1      31.680  28.303  27.267  1.00  0.00    -0.273 OA
ATOM      7  H   UNL A   1      32.859  29.690  28.603  1.00  0.00     0.164 HD
BRANCH   5   8
ATOM      8  C   UNL A   1      32.489  29.330  25.277  1.00  0.00     0.216 C 
BRANCH   8   9
ATOM      9  N   UNL A   1      31.356  29.895  24.588  1.00  0.00    -0.340 N 
ATOM     10  C   UNL A   1      30.478  29.317  23.698  1.00  0.00     0.292 C 
ATOM     11  O   UNL A   1      29.417  29.908  23.542  1.00  0.00    -0.265 OA
ATOM     12  H   UNL A   1      31.182  30.844  24.786  1.00  0.00     0.164 HD
BRANCH  10  13
ATOM     13  C   UNL A   1      30.768  27.959  22.974  1.00  0.00     0.252 C 
ATOM     14  O   UNL A   1      30.506  27.937  21.774  1.00  0.00    -0.283 OA
BRANCH  13  15
ATOM     15  C   UNL A   1      31.439  26.767  23.585  1.00  0.00     0.054 A 
ATOM     16  N   UNL A   1      32.768  25.013  23.997  1.00  0.00    -0.240 N 
ATOM     17  C   UNL A   1      32.746  26.309  23.538  1.00  0.00     0.117 A 
ATOM     18  C   UNL A   1      31.741  24.838  24.867  1.00  0.00     0.065 A 
ATOM     19  C   UNL A   1      30.879  25.919  24.623  1.00  0.00     0.012 A 
ATOM     20  C   UNL A   1      31.515  23.857  25.836  1.00  0.00     0.028 A 
ATOM     21  C   UNL A   1      29.722  26.006  25.413  1.00  0.00     0.011 A 
ATOM     22  C   UNL A   1      30.386  24.006  26.629  1.00  0.00     0.002 A 
ATOM     23  C   UNL A   1      29.507  25.064  26.425  1.00  0.00     0.001 A 
BRANCH  16  24
ATOM     24  S   UNL A   1      34.056  23.943  23.779  1.00  0.00     0.268 S 
ATOM     25  O   UNL A   1      34.878  24.103  24.960  1.00  0.00    -0.201 OA
ATOM     26  O   UNL A   1      34.492  24.188  22.423  1.00  0.00    -0.201 OA
BRANCH  24  27
ATOM     27  C   UNL A   1      33.442  22.280  23.785  1.00  0.00     0.088 A 
ATOM     28  C   UNL A   1      32.585  18.069  23.646  1.00  0.00     0.044 C 
ATOM     29  C   UNL A   1      32.798  19.552  23.735  1.00  0.00    -0.051 A 
ATOM     30  C   UNL A   1      33.708  20.046  24.669  1.00  0.00     0.005 A 
ATOM     31  C   UNL A   1      32.168  20.450  22.863  1.00  0.00     0.005 A 
ATOM     32  C   UNL A   1      34.030  21.399  24.695  1.00  0.00     0.022 A 
ATOM     33  C   UNL A   1      32.489  21.817  22.881  1.00  0.00     0.022 A 
ENDBRANCH  24  27
ENDBRANCH  16  24
ENDBRANCH  13  15
ENDBRANCH  10  13
ENDBRANCH   8   9
ENDBRANCH   5   8
ENDBRANCH   3   4
ENDBRANCH   1   3
BRANCH   1  34
ATOM     34  O   UNL A   1      33.380  33.848  29.260  1.00  0.00    -0.461 OA
BRANCH  34  35
ATOM     35  C   UNL A   1      33.893  35.060  29.828  1.00  0.00     0.274 C 
BRANCH  35  36
ATOM     36  C   UNL A   1      34.140  34.863  31.331  1.00  0.00     0.275 C 
BRANCH  36  37
ATOM     37  O   UNL A   1      34.816  33.629  31.713  1.00  0.00    -0.458 OA
BRANCH  37  38
ATOM     38  C   UNL A   1      36.128  33.335  31.487  1.00  0.00     0.338 C 
ATOM     39  O   UNL A   1      37.041  34.133  31.630  1.00  0.00    -0.246 OA
BRANCH  38  40
ATOM     40  C   UNL A   1      36.356  32.122  30.682  1.00  0.00     0.060 A 
ATOM     41  C   UNL A   1      36.257  30.570  31.608  1.00  0.00     0.016 A 
ATOM     42  C   UNL A   1      37.408  32.234  29.216  1.00  0.00     0.016 A 
ATOM     43  C   UNL A   1      37.432  29.228  31.211  1.00  0.00     0.010 A 
ATOM     44  C   UNL A   1      38.529  30.877  28.804  1.00  0.00     0.010 A 
ATOM     45  C   UNL A   1      38.626  29.431  29.882  1.00  0.00    -0.014 A 
BRANCH  45  46
ATOM     46  C   UNL A   1      40.063  29.014  30.011  1.00  0.00     0.031 A 
ATOM     47  C   UNL A   1      40.503  27.811  29.268  1.00  0.00     0.074 A 
ATOM     48  C   UNL A   1      40.987  29.753  30.660  1.00  0.00     0.049 A 
ATOM     49  N   UNL A   1      41.551  27.583  28.551  1.00  0.00    -0.248 NA
ATOM     50  C   UNL A   1      39.613  26.680  29.334  1.00  0.00     0.031 C 
ATOM     51  C   UNL A   1      42.436  29.656  30.530  1.00  0.00     0.029 A 
ATOM     52  N   UNL A   1      40.799  30.674  31.687  1.00  0.00    -0.354 N 
ATOM     53  C   UNL A   1      41.473  26.243  28.186  1.00  0.00     0.074 A 
ATOM     54  C   UNL A   1      40.161  25.780  28.546  1.00  0.00     0.031 C 
ATOM     55  C   UNL A   1      43.019  30.307  31.545  1.00  0.00     0.029 A 
ATOM     56  C   UNL A   1      41.975  30.716  32.459  1.00  0.00     0.049 A 
ATOM     57  H   UNL A   1      39.986  31.205  31.845  1.00  0.00     0.167 HD
ATOM     58  C   UNL A   1      42.459  25.332  28.371  1.00  0.00     0.037 A 
ATOM     59  C   UNL A   1      41.945  30.393  33.784  1.00  0.00     0.037 A 
ATOM     60  C   UNL A   1      43.432  25.768  29.362  1.00  0.00     0.049 A 
ATOM     61  C   UNL A   1      42.643  29.072  34.082  1.00  0.00     0.074 A 
ATOM     62  C   UNL A   1      44.446  26.705  29.307  1.00  0.00     0.029 A 
ATOM     63  N   UNL A   1      43.206  25.550  30.724  1.00  0.00    -0.354 N 
ATOM     64  N   UNL A   1      43.108  28.255  33.166  1.00  0.00    -0.248 NA
ATOM     65  C   UNL A   1      42.846  28.547  35.426  1.00  0.00     0.031 C 
ATOM     66  C   UNL A   1      44.837  27.034  30.637  1.00  0.00     0.029 A 
ATOM     67  C   UNL A   1      44.119  26.249  31.523  1.00  0.00     0.049 A 
ATOM     68  H   UNL A   1      42.492  24.973  31.078  1.00  0.00     0.167 HD
ATOM     69  C   UNL A   1      43.637  27.124  33.740  1.00  0.00     0.074 A 
ATOM     70  C   UNL A   1      43.424  27.359  35.166  1.00  0.00     0.031 C 
ATOM     71  C   UNL A   1      44.151  26.083  32.994  1.00  0.00     0.037 A 
BRANCH  58  72
ATOM     72  C   UNL A   1      42.491  24.168  27.391  1.00  0.00     0.057 A 
ATOM     73  C   UNL A   1      42.384  22.860  27.875  1.00  0.00     0.134 A 
ATOM     74  C   UNL A   1      42.795  24.251  25.999  1.00  0.00     0.134 A 
ATOM     75  F   UNL A   1      42.064  22.626  29.155  1.00  0.00    -0.206 F 
ATOM     76  C   UNL A   1      42.656  21.737  27.075  1.00  0.00     0.040 A 
ATOM     77  C   UNL A   1      43.025  23.136  25.184  1.00  0.00     0.040 A 
ATOM     78  F   UNL A   1      42.936  25.413  25.345  1.00  0.00    -0.206 F 
ATOM     79  C   UNL A   1      42.996  21.871  25.732  1.00  0.00     0.006 A 
ENDBRANCH  58  72
BRANCH  59  80
ATOM     80  C   UNL A   1      40.765  31.027  34.454  1.00  0.00     0.057 A 
ATOM     81  C   UNL A   1      40.897  32.401  34.755  1.00  0.00     0.134 A 
ATOM     82  C   UNL A   1      39.464  30.548  34.289  1.00  0.00     0.134 A 
ATOM     83  F   UNL A   1      42.111  32.925  34.987  1.00  0.00    -0.206 F 
ATOM     84  C   UNL A   1      39.824  33.290  34.636  1.00  0.00     0.040 A 
ATOM     85  C   UNL A   1      38.367  31.426  34.248  1.00  0.00     0.040 A 
ATOM     86  F   UNL A   1      39.238  29.266  33.979  1.00  0.00    -0.206 F 
ATOM     87  C   UNL A   1      38.560  32.804  34.332  1.00  0.00     0.006 A 
ENDBRANCH  59  80
BRANCH  71  88
ATOM     88  C   UNL A   1      44.732  24.780  33.568  1.00  0.00     0.057 A 
ATOM     89  C   UNL A   1      43.981  23.675  34.006  1.00  0.00     0.134 A 
ATOM     90  C   UNL A   1      46.131  24.593  33.702  1.00  0.00     0.134 A 
ATOM     91  F   UNL A   1      42.650  23.732  34.136  1.00  0.00    -0.206 F 
ATOM     92  C   UNL A   1      44.561  22.443  34.367  1.00  0.00     0.040 A 
ATOM     93  C   UNL A   1      46.723  23.390  34.111  1.00  0.00     0.040 A 
ATOM     94  F   UNL A   1      47.013  25.558  33.422  1.00  0.00    -0.206 F 
ATOM     95  C   UNL A   1      45.938  22.292  34.410  1.00  0.00     0.006 A 
ENDBRANCH  71  88
ENDBRANCH  45  46
ENDBRANCH  38  40
ENDBRANCH  37  38
ENDBRANCH  36  37
ENDBRANCH  35  36
ENDBRANCH  34  35
ENDBRANCH   1  34
TORSDOF 18
ENDMDL
