MODEL 1
REMARK VINA RESULT:     -11.0      0.000      0.000
REMARK SMILES Cc1cccc([C@H]([NH3+])[C@H](O)C(=O)OCCOC(=O)c2ccc(-c3c4nc(c(-c5c(F)cccc5F)c5ccc([nH]5)c(-c5c(F)cccc5F)c5nc(c(-c6c(F)cccc6F)c6ccc3[nH]6)C=C5)C=C4)cc2)c1
REMARK SMILES IDX 14 1 13 2 11 3 12 4 9 5 7 6 6 7 1 8 2 9 3 10 73 11 4 12 5 13
REMARK SMILES IDX 8 14 10 18 15 20 16 21 17 22 18 23 19 24 20 25 72 26 21 27
REMARK SMILES IDX 71 28 22 29 23 30 24 31 65 32 25 33 70 34 64 35 66 36 26 37
REMARK SMILES IDX 69 38 63 39 62 40 27 42 53 43 36 44 52 45 37 46 40 47 51 48
REMARK SMILES IDX 67 49 38 50 39 51 50 53 68 54 41 55 28 56 29 57 34 58 30 59
REMARK SMILES IDX 31 60 33 61 35 62 32 63 54 64 55 65 60 66 56 67 57 68 59 69
REMARK SMILES IDX 61 70 58 71 42 72 43 73 48 74 44 75 45 76 47 77 49 78 46 79
REMARK H PARENT 8 15 8 16 8 17 10 19 66 41 40 52
REMARK Flexibility Score: inf
ROOT
ATOM      1  C   UNL A   1      43.442  18.458  25.567  1.00  0.00     0.274 C 
ENDROOT
BRANCH   1   2
ATOM      2  O   UNL A   1      43.017  19.603  26.318  1.00  0.00    -0.460 OA
BRANCH   2   3
ATOM      3  C   UNL A   1      41.650  19.733  26.361  1.00  0.00     0.341 C 
ATOM      4  O   UNL A   1      40.884  19.023  25.749  1.00  0.00    -0.249 OA
BRANCH   3   5
ATOM      5  C   UNL A   1      41.274  20.856  27.343  1.00  0.00     0.287 C 
BRANCH   5   6
ATOM      6  C   UNL A   1      40.894  22.187  26.609  1.00  0.00     0.252 C 
BRANCH   6   7
ATOM      7  C   UNL A   1      39.413  22.432  26.304  1.00  0.00     0.013 A 
ATOM      8  C   UNL A   1      36.410  20.452  24.979  1.00  0.00     0.044 C 
ATOM      9  C   UNL A   1      37.264  21.589  25.456  1.00  0.00    -0.051 A 
ATOM     10  C   UNL A   1      36.691  22.847  25.655  1.00  0.00     0.003 A 
ATOM     11  C   UNL A   1      38.620  21.397  25.764  1.00  0.00     0.013 A 
ATOM     12  C   UNL A   1      37.458  23.889  26.162  1.00  0.00     0.001 A 
ATOM     13  C   UNL A   1      38.798  23.678  26.493  1.00  0.00     0.010 A 
ENDBRANCH   6   7
BRANCH   6  14
ATOM     14  N   UNL A   1      41.709  22.319  25.375  1.00  0.00    -0.349 N 
ATOM     15  H   UNL A   1      42.699  22.333  25.620  1.00  0.00     0.345 HD
ATOM     16  H   UNL A   1      41.465  23.188  24.898  1.00  0.00     0.345 HD
ATOM     17  H   UNL A   1      41.521  21.529  24.758  1.00  0.00     0.345 HD
ENDBRANCH   6  14
ENDBRANCH   5   6
BRANCH   5  18
ATOM     18  O   UNL A   1      42.241  21.025  28.376  1.00  0.00    -0.376 OA
ATOM     19  H   UNL A   1      42.300  20.212  28.900  1.00  0.00     0.212 HD
ENDBRANCH   5  18
ENDBRANCH   3   5
ENDBRANCH   2   3
ENDBRANCH   1   2
BRANCH   1  20
ATOM     20  C   UNL A   1      44.477  18.827  24.502  1.00  0.00     0.275 C 
BRANCH  20  21
ATOM     21  O   UNL A   1      44.783  20.237  24.293  1.00  0.00    -0.458 OA
BRANCH  21  22
ATOM     22  C   UNL A   1      45.800  20.999  24.759  1.00  0.00     0.338 C 
ATOM     23  O   UNL A   1      46.971  20.670  24.622  1.00  0.00    -0.246 OA
BRANCH  22  24
ATOM     24  C   UNL A   1      45.483  22.295  25.380  1.00  0.00     0.060 A 
ATOM     25  C   UNL A   1      45.499  23.455  24.586  1.00  0.00     0.016 A 
ATOM     26  C   UNL A   1      45.129  22.359  26.721  1.00  0.00     0.016 A 
ATOM     27  C   UNL A   1      45.015  24.661  25.098  1.00  0.00     0.010 A 
ATOM     28  C   UNL A   1      44.589  23.534  27.207  1.00  0.00     0.010 A 
ATOM     29  C   UNL A   1      44.527  24.687  26.403  1.00  0.00    -0.014 A 
BRANCH  29  30
ATOM     30  C   UNL A   1      44.148  25.908  27.111  1.00  0.00     0.031 A 
ATOM     31  C   UNL A   1      42.803  26.521  27.099  1.00  0.00     0.074 A 
ATOM     32  C   UNL A   1      45.135  26.406  27.882  1.00  0.00     0.049 A 
ATOM     33  N   UNL A   1      42.547  27.730  27.479  1.00  0.00    -0.248 NA
ATOM     34  C   UNL A   1      41.622  25.837  26.602  1.00  0.00     0.031 C 
ATOM     35  C   UNL A   1      45.068  27.375  28.961  1.00  0.00     0.029 A 
ATOM     36  N   UNL A   1      46.504  26.212  27.660  1.00  0.00    -0.354 N 
ATOM     37  C   UNL A   1      41.173  27.885  27.538  1.00  0.00     0.074 A 
ATOM     38  C   UNL A   1      40.653  26.718  26.871  1.00  0.00     0.031 C 
ATOM     39  C   UNL A   1      46.297  27.891  29.140  1.00  0.00     0.029 A 
ATOM     40  C   UNL A   1      47.124  27.406  28.040  1.00  0.00     0.049 A 
ATOM     41  H   UNL A   1      46.940  25.402  27.308  1.00  0.00     0.167 HD
ATOM     42  C   UNL A   1      40.648  28.908  28.280  1.00  0.00     0.037 A 
ATOM     43  C   UNL A   1      47.705  28.203  27.094  1.00  0.00     0.037 A 
ATOM     44  C   UNL A   1      41.720  29.768  28.776  1.00  0.00     0.049 A 
ATOM     45  C   UNL A   1      47.130  29.592  27.103  1.00  0.00     0.074 A 
ATOM     46  C   UNL A   1      42.404  29.784  29.981  1.00  0.00     0.029 A 
ATOM     47  N   UNL A   1      42.443  30.562  27.892  1.00  0.00    -0.354 N 
ATOM     48  N   UNL A   1      45.881  29.864  27.360  1.00  0.00    -0.248 NA
ATOM     49  C   UNL A   1      47.944  30.780  26.874  1.00  0.00     0.031 C 
ATOM     50  C   UNL A   1      43.599  30.517  29.789  1.00  0.00     0.029 A 
ATOM     51  C   UNL A   1      43.616  30.983  28.485  1.00  0.00     0.049 A 
ATOM     52  H   UNL A   1      42.159  30.790  26.978  1.00  0.00     0.167 HD
ATOM     53  C   UNL A   1      45.732  31.225  27.412  1.00  0.00     0.074 A 
ATOM     54  C   UNL A   1      47.041  31.754  27.075  1.00  0.00     0.031 C 
ATOM     55  C   UNL A   1      44.561  31.824  27.774  1.00  0.00     0.037 A 
BRANCH  42  56
ATOM     56  C   UNL A   1      39.230  28.978  28.839  1.00  0.00     0.057 A 
ATOM     57  C   UNL A   1      38.171  29.473  28.038  1.00  0.00     0.134 A 
ATOM     58  C   UNL A   1      38.838  28.665  30.151  1.00  0.00     0.134 A 
ATOM     59  F   UNL A   1      38.329  29.712  26.729  1.00  0.00    -0.206 F 
ATOM     60  C   UNL A   1      36.890  29.750  28.534  1.00  0.00     0.040 A 
ATOM     61  C   UNL A   1      37.564  28.964  30.670  1.00  0.00     0.040 A 
ATOM     62  F   UNL A   1      39.636  28.002  30.990  1.00  0.00    -0.206 F 
ATOM     63  C   UNL A   1      36.589  29.529  29.868  1.00  0.00     0.006 A 
ENDBRANCH  42  56
BRANCH  43  64
ATOM     64  C   UNL A   1      48.157  27.487  25.864  1.00  0.00     0.057 A 
ATOM     65  C   UNL A   1      47.337  27.492  24.719  1.00  0.00     0.134 A 
ATOM     66  C   UNL A   1      49.476  27.052  25.688  1.00  0.00     0.134 A 
ATOM     67  F   UNL A   1      46.061  27.902  24.805  1.00  0.00    -0.206 F 
ATOM     68  C   UNL A   1      47.827  27.170  23.450  1.00  0.00     0.040 A 
ATOM     69  C   UNL A   1      49.974  26.713  24.421  1.00  0.00     0.040 A 
ATOM     70  F   UNL A   1      50.331  27.016  26.720  1.00  0.00    -0.206 F 
ATOM     71  C   UNL A   1      49.158  26.798  23.294  1.00  0.00     0.006 A 
ENDBRANCH  43  64
BRANCH  55  72
ATOM     72  C   UNL A   1      44.259  33.289  27.615  1.00  0.00     0.057 A 
ATOM     73  C   UNL A   1      43.866  33.869  26.401  1.00  0.00     0.134 A 
ATOM     74  C   UNL A   1      44.200  34.142  28.739  1.00  0.00     0.134 A 
ATOM     75  F   UNL A   1      43.766  33.144  25.278  1.00  0.00    -0.206 F 
ATOM     76  C   UNL A   1      43.503  35.217  26.297  1.00  0.00     0.040 A 
ATOM     77  C   UNL A   1      43.790  35.475  28.655  1.00  0.00     0.040 A 
ATOM     78  F   UNL A   1      44.514  33.713  29.970  1.00  0.00    -0.206 F 
ATOM     79  C   UNL A   1      43.453  36.022  27.428  1.00  0.00     0.006 A 
ENDBRANCH  55  72
ENDBRANCH  29  30
ENDBRANCH  22  24
ENDBRANCH  21  22
ENDBRANCH  20  21
ENDBRANCH   1  20
TORSDOF 15
ENDMDL
MODEL 2
REMARK VINA RESULT:     -10.8      5.943     11.466
REMARK SMILES Cc1cccc([C@H]([NH3+])[C@H](O)C(=O)OCCOC(=O)c2ccc(-c3c4nc(c(-c5c(F)cccc5F)c5ccc([nH]5)c(-c5c(F)cccc5F)c5nc(c(-c6c(F)cccc6F)c6ccc3[nH]6)C=C5)C=C4)cc2)c1
REMARK SMILES IDX 14 1 13 2 11 3 12 4 9 5 7 6 6 7 1 8 2 9 3 10 73 11 4 12 5 13
REMARK SMILES IDX 8 14 10 18 15 20 16 21 17 22 18 23 19 24 20 25 72 26 21 27
REMARK SMILES IDX 71 28 22 29 23 30 24 31 65 32 25 33 70 34 64 35 66 36 26 37
REMARK SMILES IDX 69 38 63 39 62 40 27 42 53 43 36 44 52 45 37 46 40 47 51 48
REMARK SMILES IDX 67 49 38 50 39 51 50 53 68 54 41 55 28 56 29 57 34 58 30 59
REMARK SMILES IDX 31 60 33 61 35 62 32 63 54 64 55 65 60 66 56 67 57 68 59 69
REMARK SMILES IDX 61 70 58 71 42 72 43 73 48 74 44 75 45 76 47 77 49 78 46 79
REMARK H PARENT 8 15 8 16 8 17 10 19 66 41 40 52
REMARK Flexibility Score: inf
ROOT
ATOM      1  C   UNL A   1      35.468  34.479  29.029  1.00  0.00     0.274 C 
ENDROOT
BRANCH   1   2
ATOM      2  O   UNL A   1      34.431  35.441  28.795  1.00  0.00    -0.460 OA
BRANCH   2   3
ATOM      3  C   UNL A   1      33.415  35.361  29.716  1.00  0.00     0.341 C 
ATOM      4  O   UNL A   1      32.506  34.563  29.653  1.00  0.00    -0.249 OA
BRANCH   3   5
ATOM      5  C   UNL A   1      33.662  36.381  30.841  1.00  0.00     0.287 C 
BRANCH   5   6
ATOM      6  C   UNL A   1      33.365  35.786  32.260  1.00  0.00     0.252 C 
BRANCH   6   7
ATOM      7  C   UNL A   1      34.374  34.789  32.837  1.00  0.00     0.013 A 
ATOM      8  C   UNL A   1      35.860  31.379  31.912  1.00  0.00     0.044 C 
ATOM      9  C   UNL A   1      35.529  32.623  32.680  1.00  0.00    -0.051 A 
ATOM     10  C   UNL A   1      36.173  32.879  33.892  1.00  0.00     0.003 A 
ATOM     11  C   UNL A   1      34.624  33.569  32.173  1.00  0.00     0.013 A 
ATOM     12  C   UNL A   1      35.925  34.062  34.578  1.00  0.00     0.001 A 
ATOM     13  C   UNL A   1      35.046  35.009  34.048  1.00  0.00     0.010 A 
ENDBRANCH   6   7
BRANCH   6  14
ATOM     14  N   UNL A   1      31.996  35.211  32.277  1.00  0.00    -0.349 N 
ATOM     15  H   UNL A   1      31.864  34.623  31.453  1.00  0.00     0.345 HD
ATOM     16  H   UNL A   1      31.311  35.966  32.269  1.00  0.00     0.345 HD
ATOM     17  H   UNL A   1      31.874  34.650  33.119  1.00  0.00     0.345 HD
ENDBRANCH   6  14
ENDBRANCH   5   6
BRANCH   5  18
ATOM     18  O   UNL A   1      33.022  37.631  30.596  1.00  0.00    -0.376 OA
ATOM     19  H   UNL A   1      33.048  37.827  29.647  1.00  0.00     0.212 HD
ENDBRANCH   5  18
ENDBRANCH   3   5
ENDBRANCH   2   3
ENDBRANCH   1   2
BRANCH   1  20
ATOM     20  C   UNL A   1      35.313  33.245  28.136  1.00  0.00     0.275 C 
BRANCH  20  21
ATOM     21  O   UNL A   1      36.166  32.092  28.397  1.00  0.00    -0.458 OA
BRANCH  21  22
ATOM     22  C   UNL A   1      36.013  30.787  28.073  1.00  0.00     0.338 C 
ATOM     23  O   UNL A   1      34.950  30.344  27.655  1.00  0.00    -0.246 OA
BRANCH  22  24
ATOM     24  C   UNL A   1      37.182  29.897  28.157  1.00  0.00     0.060 A 
ATOM     25  C   UNL A   1      38.106  29.882  27.097  1.00  0.00     0.016 A 
ATOM     26  C   UNL A   1      37.390  29.120  29.288  1.00  0.00     0.016 A 
ATOM     27  C   UNL A   1      39.317  29.201  27.233  1.00  0.00     0.010 A 
ATOM     28  C   UNL A   1      38.613  28.502  29.450  1.00  0.00     0.010 A 
ATOM     29  C   UNL A   1      39.582  28.538  28.430  1.00  0.00    -0.014 A 
BRANCH  29  30
ATOM     30  C   UNL A   1      40.728  27.656  28.642  1.00  0.00     0.031 A 
ATOM     31  C   UNL A   1      40.747  26.202  28.378  1.00  0.00     0.074 A 
ATOM     32  C   UNL A   1      41.842  28.311  29.026  1.00  0.00     0.049 A 
ATOM     33  N   UNL A   1      41.645  25.389  28.828  1.00  0.00    -0.248 NA
ATOM     34  C   UNL A   1      39.714  25.517  27.620  1.00  0.00     0.031 C 
ATOM     35  C   UNL A   1      43.224  27.869  29.018  1.00  0.00     0.029 A 
ATOM     36  N   UNL A   1      41.861  29.533  29.709  1.00  0.00    -0.354 N 
ATOM     37  C   UNL A   1      41.472  24.163  28.210  1.00  0.00     0.074 A 
ATOM     38  C   UNL A   1      40.190  24.269  27.562  1.00  0.00     0.031 C 
ATOM     39  C   UNL A   1      43.919  28.644  29.870  1.00  0.00     0.029 A 
ATOM     40  C   UNL A   1      42.946  29.461  30.587  1.00  0.00     0.049 A 
ATOM     41  H   UNL A   1      41.238  30.287  29.594  1.00  0.00     0.167 HD
ATOM     42  C   UNL A   1      42.507  23.268  28.200  1.00  0.00     0.037 A 
ATOM     43  C   UNL A   1      42.729  29.408  31.934  1.00  0.00     0.037 A 
ATOM     44  C   UNL A   1      43.609  23.768  29.019  1.00  0.00     0.049 A 
ATOM     45  C   UNL A   1      43.351  28.187  32.554  1.00  0.00     0.074 A 
ATOM     46  C   UNL A   1      44.752  24.477  28.690  1.00  0.00     0.029 A 
ATOM     47  N   UNL A   1      43.473  23.842  30.401  1.00  0.00    -0.354 N 
ATOM     48  N   UNL A   1      43.429  27.027  31.962  1.00  0.00    -0.248 NA
ATOM     49  C   UNL A   1      43.979  28.207  33.870  1.00  0.00     0.031 C 
ATOM     50  C   UNL A   1      45.253  25.064  29.876  1.00  0.00     0.029 A 
ATOM     51  C   UNL A   1      44.441  24.672  30.928  1.00  0.00     0.049 A 
ATOM     52  H   UNL A   1      42.786  23.371  30.925  1.00  0.00     0.167 HD
ATOM     53  C   UNL A   1      44.165  26.183  32.751  1.00  0.00     0.074 A 
ATOM     54  C   UNL A   1      44.463  26.956  33.944  1.00  0.00     0.031 C 
ATOM     55  C   UNL A   1      44.520  24.928  32.355  1.00  0.00     0.037 A 
BRANCH  42  56
ATOM     56  C   UNL A   1      42.686  22.111  27.220  1.00  0.00     0.057 A 
ATOM     57  C   UNL A   1      41.897  20.942  27.346  1.00  0.00     0.134 A 
ATOM     58  C   UNL A   1      43.645  22.030  26.197  1.00  0.00     0.134 A 
ATOM     59  F   UNL A   1      40.855  20.881  28.187  1.00  0.00    -0.206 F 
ATOM     60  C   UNL A   1      42.131  19.768  26.617  1.00  0.00     0.040 A 
ATOM     61  C   UNL A   1      43.910  20.850  25.477  1.00  0.00     0.040 A 
ATOM     62  F   UNL A   1      44.341  23.094  25.792  1.00  0.00    -0.206 F 
ATOM     63  C   UNL A   1      43.166  19.705  25.699  1.00  0.00     0.006 A 
ENDBRANCH  42  56
BRANCH  43  64
ATOM     64  C   UNL A   1      41.444  30.019  32.387  1.00  0.00     0.057 A 
ATOM     65  C   UNL A   1      40.325  29.193  32.611  1.00  0.00     0.134 A 
ATOM     66  C   UNL A   1      41.363  31.327  32.877  1.00  0.00     0.134 A 
ATOM     67  F   UNL A   1      40.328  27.922  32.176  1.00  0.00    -0.206 F 
ATOM     68  C   UNL A   1      39.223  29.616  33.361  1.00  0.00     0.040 A 
ATOM     69  C   UNL A   1      40.256  31.767  33.618  1.00  0.00     0.040 A 
ATOM     70  F   UNL A   1      42.380  32.185  32.714  1.00  0.00    -0.206 F 
ATOM     71  C   UNL A   1      39.196  30.903  33.886  1.00  0.00     0.006 A 
ENDBRANCH  43  64
BRANCH  55  72
ATOM     72  C   UNL A   1      45.106  23.874  33.254  1.00  0.00     0.057 A 
ATOM     73  C   UNL A   1      46.403  23.943  33.781  1.00  0.00     0.134 A 
ATOM     74  C   UNL A   1      44.308  22.821  33.751  1.00  0.00     0.134 A 
ATOM     75  F   UNL A   1      47.228  24.957  33.482  1.00  0.00    -0.206 F 
ATOM     76  C   UNL A   1      46.896  22.996  34.686  1.00  0.00     0.040 A 
ATOM     77  C   UNL A   1      44.773  21.900  34.693  1.00  0.00     0.040 A 
ATOM     78  F   UNL A   1      43.036  22.653  33.361  1.00  0.00    -0.206 F 
ATOM     79  C   UNL A   1      46.077  21.977  35.155  1.00  0.00     0.006 A 
ENDBRANCH  55  72
ENDBRANCH  29  30
ENDBRANCH  22  24
ENDBRANCH  21  22
ENDBRANCH  20  21
ENDBRANCH   1  20
TORSDOF 15
ENDMDL
MODEL 3
REMARK VINA RESULT:     -10.6      2.761      5.312
REMARK SMILES Cc1cccc([C@H]([NH3+])[C@H](O)C(=O)OCCOC(=O)c2ccc(-c3c4nc(c(-c5c(F)cccc5F)c5ccc([nH]5)c(-c5c(F)cccc5F)c5nc(c(-c6c(F)cccc6F)c6ccc3[nH]6)C=C5)C=C4)cc2)c1
REMARK SMILES IDX 14 1 13 2 11 3 12 4 9 5 7 6 6 7 1 8 2 9 3 10 73 11 4 12 5 13
REMARK SMILES IDX 8 14 10 18 15 20 16 21 17 22 18 23 19 24 20 25 72 26 21 27
REMARK SMILES IDX 71 28 22 29 23 30 24 31 65 32 25 33 70 34 64 35 66 36 26 37
REMARK SMILES IDX 69 38 63 39 62 40 27 42 53 43 36 44 52 45 37 46 40 47 51 48
REMARK SMILES IDX 67 49 38 50 39 51 50 53 68 54 41 55 28 56 29 57 34 58 30 59
REMARK SMILES IDX 31 60 33 61 35 62 32 63 54 64 55 65 60 66 56 67 57 68 59 69
REMARK SMILES IDX 61 70 58 71 42 72 43 73 48 74 44 75 45 76 47 77 49 78 46 79
REMARK H PARENT 8 15 8 16 8 17 10 19 66 41 40 52
REMARK Flexibility Score: inf
ROOT
ATOM      1  C   UNL A   1      41.399  19.950  26.309  1.00  0.00     0.274 C 
ENDROOT
BRANCH   1   2
ATOM      2  O   UNL A   1      42.762  19.672  26.654  1.00  0.00    -0.460 OA
BRANCH   2   3
ATOM      3  C   UNL A   1      43.298  18.645  25.918  1.00  0.00     0.341 C 
ATOM      4  O   UNL A   1      42.653  17.718  25.480  1.00  0.00    -0.249 OA
BRANCH   3   5
ATOM      5  C   UNL A   1      44.798  18.903  25.694  1.00  0.00     0.287 C 
BRANCH   5   6
ATOM      6  C   UNL A   1      45.069  19.772  24.418  1.00  0.00     0.252 C 
BRANCH   6   7
ATOM      7  C   UNL A   1      44.915  21.290  24.547  1.00  0.00     0.013 A 
ATOM      8  C   UNL A   1      47.177  24.378  24.743  1.00  0.00     0.044 C 
ATOM      9  C   UNL A   1      45.956  23.508  24.762  1.00  0.00    -0.051 A 
ATOM     10  C   UNL A   1      44.692  24.093  24.856  1.00  0.00     0.003 A 
ATOM     11  C   UNL A   1      46.058  22.114  24.627  1.00  0.00     0.013 A 
ATOM     12  C   UNL A   1      43.552  23.300  24.806  1.00  0.00     0.001 A 
ATOM     13  C   UNL A   1      43.665  21.918  24.640  1.00  0.00     0.010 A 
ENDBRANCH   6   7
BRANCH   6  14
ATOM     14  N   UNL A   1      44.250  19.259  23.290  1.00  0.00    -0.349 N 
ATOM     15  H   UNL A   1      44.406  18.256  23.185  1.00  0.00     0.345 HD
ATOM     16  H   UNL A   1      44.520  19.737  22.430  1.00  0.00     0.345 HD
ATOM     17  H   UNL A   1      43.263  19.433  23.480  1.00  0.00     0.345 HD
ENDBRANCH   6  14
ENDBRANCH   5   6
BRANCH   5  18
ATOM     18  O   UNL A   1      45.573  17.708  25.751  1.00  0.00    -0.376 OA
ATOM     19  H   UNL A   1      45.208  17.057  25.132  1.00  0.00     0.212 HD
ENDBRANCH   5  18
ENDBRANCH   3   5
ENDBRANCH   2   3
ENDBRANCH   1   2
BRANCH   1  20
ATOM     20  C   UNL A   1      40.767  20.972  27.257  1.00  0.00     0.275 C 
BRANCH  20  21
ATOM     21  O   UNL A   1      40.752  22.373  26.854  1.00  0.00    -0.458 OA
BRANCH  21  22
ATOM     22  C   UNL A   1      39.722  23.237  26.695  1.00  0.00     0.338 C 
ATOM     23  O   UNL A   1      38.687  22.913  26.126  1.00  0.00    -0.246 OA
BRANCH  22  24
ATOM     24  C   UNL A   1      39.828  24.578  27.290  1.00  0.00     0.060 A 
ATOM     25  C   UNL A   1      40.405  25.616  26.536  1.00  0.00     0.016 A 
ATOM     26  C   UNL A   1      39.323  24.822  28.559  1.00  0.00     0.016 A 
ATOM     27  C   UNL A   1      40.343  26.933  26.994  1.00  0.00     0.010 A 
ATOM     28  C   UNL A   1      39.201  26.131  28.982  1.00  0.00     0.010 A 
ATOM     29  C   UNL A   1      39.705  27.191  28.207  1.00  0.00    -0.014 A 
BRANCH  29  30
ATOM     30  C   UNL A   1      39.714  28.490  28.876  1.00  0.00     0.031 A 
ATOM     31  C   UNL A   1      38.710  29.558  28.681  1.00  0.00     0.074 A 
ATOM     32  C   UNL A   1      40.696  28.613  29.791  1.00  0.00     0.049 A 
ATOM     33  N   UNL A   1      38.873  30.788  29.043  1.00  0.00    -0.248 NA
ATOM     34  C   UNL A   1      37.442  29.345  28.006  1.00  0.00     0.031 C 
ATOM     35  C   UNL A   1      40.843  29.577  30.866  1.00  0.00     0.029 A 
ATOM     36  N   UNL A   1      41.910  27.917  29.765  1.00  0.00    -0.354 N 
ATOM     37  C   UNL A   1      37.662  31.445  28.906  1.00  0.00     0.074 A 
ATOM     38  C   UNL A   1      36.844  30.532  28.149  1.00  0.00     0.031 C 
ATOM     39  C   UNL A   1      42.138  29.605  31.231  1.00  0.00     0.029 A 
ATOM     40  C   UNL A   1      42.870  28.808  30.253  1.00  0.00     0.049 A 
ATOM     41  H   UNL A   1      42.057  26.991  29.464  1.00  0.00     0.167 HD
ATOM     42  C   UNL A   1      37.457  32.617  29.583  1.00  0.00     0.037 A 
ATOM     43  C   UNL A   1      43.833  29.297  29.417  1.00  0.00     0.037 A 
ATOM     44  C   UNL A   1      38.691  33.034  30.246  1.00  0.00     0.049 A 
ATOM     45  C   UNL A   1      43.823  30.800  29.369  1.00  0.00     0.074 A 
ATOM     46  C   UNL A   1      39.154  32.839  31.537  1.00  0.00     0.029 A 
ATOM     47  N   UNL A   1      39.775  33.470  29.491  1.00  0.00    -0.354 N 
ATOM     48  N   UNL A   1      42.742  31.526  29.448  1.00  0.00    -0.248 NA
ATOM     49  C   UNL A   1      45.045  31.591  29.282  1.00  0.00     0.031 C 
ATOM     50  C   UNL A   1      40.551  33.068  31.534  1.00  0.00     0.029 A 
ATOM     51  C   UNL A   1      40.924  33.446  30.255  1.00  0.00     0.049 A 
ATOM     52  H   UNL A   1      39.728  33.754  28.549  1.00  0.00     0.167 HD
ATOM     53  C   UNL A   1      43.106  32.845  29.504  1.00  0.00     0.074 A 
ATOM     54  C   UNL A   1      44.552  32.837  29.369  1.00  0.00     0.031 C 
ATOM     55  C   UNL A   1      42.205  33.849  29.704  1.00  0.00     0.037 A 
BRANCH  42  56
ATOM     56  C   UNL A   1      36.104  33.229  29.933  1.00  0.00     0.057 A 
ATOM     57  C   UNL A   1      35.320  33.847  28.928  1.00  0.00     0.134 A 
ATOM     58  C   UNL A   1      35.544  33.327  31.217  1.00  0.00     0.134 A 
ATOM     59  F   UNL A   1      35.636  33.752  27.629  1.00  0.00    -0.206 F 
ATOM     60  C   UNL A   1      34.167  34.598  29.198  1.00  0.00     0.040 A 
ATOM     61  C   UNL A   1      34.404  34.100  31.506  1.00  0.00     0.040 A 
ATOM     62  F   UNL A   1      36.025  32.640  32.254  1.00  0.00    -0.206 F 
ATOM     63  C   UNL A   1      33.721  34.758  30.499  1.00  0.00     0.006 A 
ENDBRANCH  42  56
BRANCH  43  64
ATOM     64  C   UNL A   1      44.155  28.420  28.252  1.00  0.00     0.057 A 
ATOM     65  C   UNL A   1      43.525  28.654  27.014  1.00  0.00     0.134 A 
ATOM     66  C   UNL A   1      45.257  27.558  28.239  1.00  0.00     0.134 A 
ATOM     67  F   UNL A   1      42.463  29.474  26.942  1.00  0.00    -0.206 F 
ATOM     68  C   UNL A   1      44.020  28.133  25.814  1.00  0.00     0.040 A 
ATOM     69  C   UNL A   1      45.754  27.019  27.043  1.00  0.00     0.040 A 
ATOM     70  F   UNL A   1      45.923  27.279  29.368  1.00  0.00    -0.206 F 
ATOM     71  C   UNL A   1      45.153  27.328  25.824  1.00  0.00     0.006 A 
ENDBRANCH  43  64
BRANCH  55  72
ATOM     72  C   UNL A   1      42.496  35.315  29.531  1.00  0.00     0.057 A 
ATOM     73  C   UNL A   1      43.349  36.038  30.376  1.00  0.00     0.134 A 
ATOM     74  C   UNL A   1      42.040  36.014  28.392  1.00  0.00     0.134 A 
ATOM     75  F   UNL A   1      43.944  35.460  31.431  1.00  0.00    -0.206 F 
ATOM     76  C   UNL A   1      43.675  37.379  30.144  1.00  0.00     0.040 A 
ATOM     77  C   UNL A   1      42.401  37.337  28.124  1.00  0.00     0.040 A 
ATOM     78  F   UNL A   1      41.246  35.437  27.479  1.00  0.00    -0.206 F 
ATOM     79  C   UNL A   1      43.210  38.030  29.009  1.00  0.00     0.006 A 
ENDBRANCH  55  72
ENDBRANCH  29  30
ENDBRANCH  22  24
ENDBRANCH  21  22
ENDBRANCH  20  21
ENDBRANCH   1  20
TORSDOF 15
ENDMDL
