MODEL 1
REMARK VINA RESULT:      -9.7      0.000      0.000
REMARK SMILES C=CCN(CC(=O)OCCOC(=O)c1ccc(-c2c3nc(c(-c4c(F)cccc4F)c4ccc([nH]4)c(-c4c(F)cccc4F)c4nc(c(-c5c(F)cccc5F)c5ccc2[nH]5)C=C4)C=C3)cc1)C(=O)/C=C/c1ccc(OC)cc1
REMARK SMILES IDX 8 1 6 2 7 3 5 4 4 5 3 6 2 7 1 8 68 9 69 10 70 11 71 12 72 13
REMARK SMILES IDX 73 14 79 15 74 16 78 17 75 18 76 19 77 20 9 21 10 22 11 23
REMARK SMILES IDX 12 24 13 25 14 26 15 27 67 28 16 29 66 30 17 31 18 32 19 33
REMARK SMILES IDX 60 34 20 35 65 36 59 37 61 38 21 39 64 40 58 41 57 42 22 44
REMARK SMILES IDX 48 45 31 46 47 47 32 48 35 49 46 50 62 51 33 52 34 53 45 55
REMARK SMILES IDX 63 56 36 57 23 58 24 59 29 60 25 61 26 62 28 63 30 64 27 65
REMARK SMILES IDX 49 66 50 67 55 68 51 69 52 70 54 71 56 72 53 73 37 74 38 75
REMARK SMILES IDX 43 76 39 77 40 78 42 79 44 80 41 81
REMARK H PARENT 61 43 35 54
REMARK Flexibility Score: inf
ROOT
ATOM      1  O   UNL A   1      32.516  27.215  25.410  1.00  0.00    -0.461 OA
ENDROOT
BRANCH   1   2
ATOM      2  C   UNL A   1      31.917  26.197  26.083  1.00  0.00     0.325 C 
ATOM      3  O   UNL A   1      30.764  26.243  26.508  1.00  0.00    -0.250 OA
BRANCH   2   4
ATOM      4  C   UNL A   1      32.703  24.885  26.085  1.00  0.00     0.242 C 
BRANCH   4   5
ATOM      5  N   UNL A   1      33.050  24.188  24.842  1.00  0.00    -0.324 N 
BRANCH   5   6
ATOM      6  C   UNL A   1      32.078  23.229  24.336  1.00  0.00     0.147 C 
BRANCH   6   7
ATOM      7  C   UNL A   1      32.711  21.868  24.231  1.00  0.00    -0.014 C 
ATOM      8  C   UNL A   1      32.186  20.748  24.746  1.00  0.00     0.006 C 
ENDBRANCH   6   7
ENDBRANCH   5   6
BRANCH   5   9
ATOM      9  C   UNL A   1      34.143  24.496  24.041  1.00  0.00     0.247 C 
ATOM     10  O   UNL A   1      34.063  24.793  22.851  1.00  0.00    -0.270 OA
BRANCH   9  11
ATOM     11  C   UNL A   1      35.482  24.383  24.663  1.00  0.00     0.072 C 
ATOM     12  C   UNL A   1      36.021  23.198  24.998  1.00  0.00     0.014 C 
BRANCH  12  13
ATOM     13  C   UNL A   1      37.377  23.010  25.568  1.00  0.00    -0.025 A 
ATOM     14  C   UNL A   1      38.112  21.824  25.443  1.00  0.00     0.012 A 
ATOM     15  C   UNL A   1      37.963  24.051  26.301  1.00  0.00     0.012 A 
ATOM     16  C   UNL A   1      39.323  21.642  26.121  1.00  0.00     0.047 A 
ATOM     17  C   UNL A   1      39.192  23.879  26.964  1.00  0.00     0.047 A 
ATOM     18  C   UNL A   1      39.854  22.656  26.912  1.00  0.00     0.118 A 
BRANCH  18  19
ATOM     19  O   UNL A   1      41.006  22.330  27.572  1.00  0.00    -0.497 OA
ATOM     20  C   UNL A   1      41.936  21.512  26.871  1.00  0.00     0.278 C 
ENDBRANCH  18  19
ENDBRANCH  12  13
ENDBRANCH   9  11
ENDBRANCH   5   9
ENDBRANCH   4   5
ENDBRANCH   2   4
ENDBRANCH   1   2
BRANCH   1  21
ATOM     21  C   UNL A   1      31.608  28.208  24.877  1.00  0.00     0.274 C 
BRANCH  21  22
ATOM     22  C   UNL A   1      31.912  29.643  25.346  1.00  0.00     0.275 C 
BRANCH  22  23
ATOM     23  O   UNL A   1      32.182  29.752  26.764  1.00  0.00    -0.458 OA
BRANCH  23  24
ATOM     24  C   UNL A   1      32.809  30.906  27.072  1.00  0.00     0.338 C 
ATOM     25  O   UNL A   1      32.293  32.007  27.040  1.00  0.00    -0.246 OA
BRANCH  24  26
ATOM     26  C   UNL A   1      34.205  30.772  27.497  1.00  0.00     0.060 A 
ATOM     27  C   UNL A   1      34.668  29.544  27.983  1.00  0.00     0.016 A 
ATOM     28  C   UNL A   1      34.945  31.937  27.698  1.00  0.00     0.016 A 
ATOM     29  C   UNL A   1      35.867  29.484  28.695  1.00  0.00     0.010 A 
ATOM     30  C   UNL A   1      36.154  31.872  28.391  1.00  0.00     0.010 A 
ATOM     31  C   UNL A   1      36.616  30.650  28.906  1.00  0.00    -0.014 A 
BRANCH  31  32
ATOM     32  C   UNL A   1      37.961  30.588  29.517  1.00  0.00     0.031 A 
ATOM     33  C   UNL A   1      39.078  29.790  28.916  1.00  0.00     0.074 A 
ATOM     34  C   UNL A   1      38.121  31.196  30.703  1.00  0.00     0.049 A 
ATOM     35  N   UNL A   1      40.227  29.454  29.443  1.00  0.00    -0.248 NA
ATOM     36  C   UNL A   1      38.877  29.300  27.550  1.00  0.00     0.031 C 
ATOM     37  C   UNL A   1      37.094  31.994  31.375  1.00  0.00     0.029 A 
ATOM     38  N   UNL A   1      39.175  31.191  31.575  1.00  0.00    -0.354 N 
ATOM     39  C   UNL A   1      40.878  28.688  28.485  1.00  0.00     0.074 A 
ATOM     40  C   UNL A   1      39.990  28.603  27.343  1.00  0.00     0.031 C 
ATOM     41  C   UNL A   1      37.543  32.346  32.587  1.00  0.00     0.029 A 
ATOM     42  C   UNL A   1      38.874  31.780  32.776  1.00  0.00     0.049 A 
ATOM     43  H   UNL A   1      40.056  30.806  31.362  1.00  0.00     0.167 HD
ATOM     44  C   UNL A   1      42.108  28.122  28.558  1.00  0.00     0.037 A 
ATOM     45  C   UNL A   1      39.572  31.819  33.923  1.00  0.00     0.037 A 
ATOM     46  C   UNL A   1      43.004  28.270  29.678  1.00  0.00     0.049 A 
ATOM     47  C   UNL A   1      40.931  31.202  33.976  1.00  0.00     0.074 A 
ATOM     48  C   UNL A   1      44.307  27.817  29.809  1.00  0.00     0.029 A 
ATOM     49  N   UNL A   1      42.693  28.929  30.857  1.00  0.00    -0.354 N 
ATOM     50  N   UNL A   1      41.545  30.493  33.062  1.00  0.00    -0.248 NA
ATOM     51  C   UNL A   1      41.702  31.410  35.207  1.00  0.00     0.031 C 
ATOM     52  C   UNL A   1      44.776  28.187  31.075  1.00  0.00     0.029 A 
ATOM     53  C   UNL A   1      43.774  28.890  31.723  1.00  0.00     0.049 A 
ATOM     54  H   UNL A   1      41.830  29.363  31.051  1.00  0.00     0.167 HD
ATOM     55  C   UNL A   1      42.787  30.187  33.594  1.00  0.00     0.074 A 
ATOM     56  C   UNL A   1      42.835  30.784  34.915  1.00  0.00     0.031 C 
ATOM     57  C   UNL A   1      43.799  29.484  33.034  1.00  0.00     0.037 A 
BRANCH  44  58
ATOM     58  C   UNL A   1      42.579  27.293  27.400  1.00  0.00     0.057 A 
ATOM     59  C   UNL A   1      43.281  27.856  26.328  1.00  0.00     0.134 A 
ATOM     60  C   UNL A   1      42.419  25.902  27.410  1.00  0.00     0.134 A 
ATOM     61  F   UNL A   1      43.465  29.182  26.257  1.00  0.00    -0.206 F 
ATOM     62  C   UNL A   1      43.807  27.062  25.304  1.00  0.00     0.040 A 
ATOM     63  C   UNL A   1      42.953  25.097  26.401  1.00  0.00     0.040 A 
ATOM     64  F   UNL A   1      41.760  25.300  28.413  1.00  0.00    -0.206 F 
ATOM     65  C   UNL A   1      43.651  25.678  25.345  1.00  0.00     0.006 A 
ENDBRANCH  44  58
BRANCH  45  66
ATOM     66  C   UNL A   1      38.952  32.460  35.101  1.00  0.00     0.057 A 
ATOM     67  C   UNL A   1      38.390  31.695  36.126  1.00  0.00     0.134 A 
ATOM     68  C   UNL A   1      39.018  33.846  35.277  1.00  0.00     0.134 A 
ATOM     69  F   UNL A   1      38.305  30.363  36.005  1.00  0.00    -0.206 F 
ATOM     70  C   UNL A   1      37.918  32.289  37.296  1.00  0.00     0.040 A 
ATOM     71  C   UNL A   1      38.562  34.453  36.445  1.00  0.00     0.040 A 
ATOM     72  F   UNL A   1      39.567  34.623  34.330  1.00  0.00    -0.206 F 
ATOM     73  C   UNL A   1      38.013  33.672  37.461  1.00  0.00     0.006 A 
ENDBRANCH  45  66
BRANCH  57  74
ATOM     74  C   UNL A   1      45.050  29.355  33.844  1.00  0.00     0.057 A 
ATOM     75  C   UNL A   1      46.068  30.312  33.775  1.00  0.00     0.134 A 
ATOM     76  C   UNL A   1      45.236  28.260  34.697  1.00  0.00     0.134 A 
ATOM     77  F   UNL A   1      45.950  31.374  32.963  1.00  0.00    -0.206 F 
ATOM     78  C   UNL A   1      47.242  30.174  34.515  1.00  0.00     0.040 A 
ATOM     79  C   UNL A   1      46.400  28.119  35.450  1.00  0.00     0.040 A 
ATOM     80  F   UNL A   1      44.293  27.312  34.802  1.00  0.00    -0.206 F 
ATOM     81  C   UNL A   1      47.409  29.075  35.357  1.00  0.00     0.006 A 
ENDBRANCH  57  74
ENDBRANCH  31  32
ENDBRANCH  24  26
ENDBRANCH  23  24
ENDBRANCH  22  23
ENDBRANCH  21  22
ENDBRANCH   1  21
TORSDOF 18
ENDMDL
MODEL 2
REMARK VINA RESULT:      -9.7      3.360      7.112
REMARK SMILES C=CCN(CC(=O)OCCOC(=O)c1ccc(-c2c3nc(c(-c4c(F)cccc4F)c4ccc([nH]4)c(-c4c(F)cccc4F)c4nc(c(-c5c(F)cccc5F)c5ccc2[nH]5)C=C4)C=C3)cc1)C(=O)/C=C/c1ccc(OC)cc1
REMARK SMILES IDX 8 1 6 2 7 3 5 4 4 5 3 6 2 7 1 8 68 9 69 10 70 11 71 12 72 13
REMARK SMILES IDX 73 14 79 15 74 16 78 17 75 18 76 19 77 20 9 21 10 22 11 23
REMARK SMILES IDX 12 24 13 25 14 26 15 27 67 28 16 29 66 30 17 31 18 32 19 33
REMARK SMILES IDX 60 34 20 35 65 36 59 37 61 38 21 39 64 40 58 41 57 42 22 44
REMARK SMILES IDX 48 45 31 46 47 47 32 48 35 49 46 50 62 51 33 52 34 53 45 55
REMARK SMILES IDX 63 56 36 57 23 58 24 59 29 60 25 61 26 62 28 63 30 64 27 65
REMARK SMILES IDX 49 66 50 67 55 68 51 69 52 70 54 71 56 72 53 73 37 74 38 75
REMARK SMILES IDX 43 76 39 77 40 78 42 79 44 80 41 81
REMARK H PARENT 61 43 35 54
REMARK Flexibility Score: inf
ROOT
ATOM      1  O   UNL A   1      33.009  29.539  24.872  1.00  0.00    -0.461 OA
ENDROOT
BRANCH   1   2
ATOM      2  C   UNL A   1      32.360  28.833  23.909  1.00  0.00     0.325 C 
ATOM      3  O   UNL A   1      32.879  28.485  22.850  1.00  0.00    -0.250 OA
BRANCH   2   4
ATOM      4  C   UNL A   1      30.990  28.298  24.326  1.00  0.00     0.242 C 
BRANCH   4   5
ATOM      5  N   UNL A   1      30.841  27.040  25.065  1.00  0.00    -0.324 N 
BRANCH   5   6
ATOM      6  C   UNL A   1      29.912  26.062  24.516  1.00  0.00     0.147 C 
BRANCH   6   7
ATOM      7  C   UNL A   1      30.552  25.343  23.360  1.00  0.00    -0.014 C 
ATOM      8  C   UNL A   1      30.679  24.012  23.274  1.00  0.00     0.006 C 
ENDBRANCH   6   7
ENDBRANCH   5   6
BRANCH   5   9
ATOM      9  C   UNL A   1      31.636  26.654  26.138  1.00  0.00     0.247 C 
ATOM     10  O   UNL A   1      31.404  26.946  27.308  1.00  0.00    -0.270 OA
BRANCH   9  11
ATOM     11  C   UNL A   1      32.875  25.907  25.817  1.00  0.00     0.072 C 
ATOM     12  C   UNL A   1      33.008  24.593  26.068  1.00  0.00     0.014 C 
BRANCH  12  13
ATOM     13  C   UNL A   1      34.195  23.776  25.720  1.00  0.00    -0.025 A 
ATOM     14  C   UNL A   1      35.440  24.324  25.384  1.00  0.00     0.012 A 
ATOM     15  C   UNL A   1      34.081  22.380  25.689  1.00  0.00     0.012 A 
ATOM     16  C   UNL A   1      36.489  23.520  24.921  1.00  0.00     0.047 A 
ATOM     17  C   UNL A   1      35.142  21.568  25.247  1.00  0.00     0.047 A 
ATOM     18  C   UNL A   1      36.335  22.141  24.818  1.00  0.00     0.118 A 
BRANCH  18  19
ATOM     19  O   UNL A   1      37.408  21.478  24.291  1.00  0.00    -0.497 OA
ATOM     20  C   UNL A   1      37.949  20.415  25.068  1.00  0.00     0.278 C 
ENDBRANCH  18  19
ENDBRANCH  12  13
ENDBRANCH   9  11
ENDBRANCH   5   9
ENDBRANCH   4   5
ENDBRANCH   2   4
ENDBRANCH   1   2
BRANCH   1  21
ATOM     21  C   UNL A   1      32.145  30.180  25.840  1.00  0.00     0.274 C 
BRANCH  21  22
ATOM     22  C   UNL A   1      32.816  30.425  27.206  1.00  0.00     0.275 C 
BRANCH  22  23
ATOM     23  O   UNL A   1      34.122  29.817  27.335  1.00  0.00    -0.458 OA
BRANCH  23  24
ATOM     24  C   UNL A   1      34.914  30.495  28.191  1.00  0.00     0.338 C 
ATOM     25  O   UNL A   1      34.601  31.523  28.761  1.00  0.00    -0.246 OA
BRANCH  24  26
ATOM     26  C   UNL A   1      36.228  29.898  28.444  1.00  0.00     0.060 A 
ATOM     27  C   UNL A   1      36.578  29.513  29.742  1.00  0.00     0.016 A 
ATOM     28  C   UNL A   1      37.204  30.013  27.453  1.00  0.00     0.016 A 
ATOM     29  C   UNL A   1      37.915  29.265  30.059  1.00  0.00     0.010 A 
ATOM     30  C   UNL A   1      38.536  29.743  27.765  1.00  0.00     0.010 A 
ATOM     31  C   UNL A   1      38.902  29.383  29.072  1.00  0.00    -0.014 A 
BRANCH  31  32
ATOM     32  C   UNL A   1      40.298  28.973  29.341  1.00  0.00     0.031 A 
ATOM     33  C   UNL A   1      41.342  29.940  29.806  1.00  0.00     0.074 A 
ATOM     34  C   UNL A   1      40.627  27.704  29.049  1.00  0.00     0.049 A 
ATOM     35  N   UNL A   1      42.641  29.787  29.863  1.00  0.00    -0.248 NA
ATOM     36  C   UNL A   1      40.871  31.252  30.258  1.00  0.00     0.031 C 
ATOM     37  C   UNL A   1      39.683  26.684  28.586  1.00  0.00     0.029 A 
ATOM     38  N   UNL A   1      41.841  27.075  29.042  1.00  0.00    -0.354 N 
ATOM     39  C   UNL A   1      43.147  30.993  30.332  1.00  0.00     0.074 A 
ATOM     40  C   UNL A   1      42.014  31.871  30.537  1.00  0.00     0.031 C 
ATOM     41  C   UNL A   1      40.366  25.575  28.273  1.00  0.00     0.029 A 
ATOM     42  C   UNL A   1      41.786  25.819  28.494  1.00  0.00     0.049 A 
ATOM     43  H   UNL A   1      42.667  27.481  29.392  1.00  0.00     0.167 HD
ATOM     44  C   UNL A   1      44.440  31.320  30.574  1.00  0.00     0.037 A 
ATOM     45  C   UNL A   1      42.775  24.973  28.161  1.00  0.00     0.037 A 
ATOM     46  C   UNL A   1      45.549  30.411  30.424  1.00  0.00     0.049 A 
ATOM     47  C   UNL A   1      44.191  25.348  28.452  1.00  0.00     0.074 A 
ATOM     48  C   UNL A   1      46.884  30.617  30.735  1.00  0.00     0.029 A 
ATOM     49  N   UNL A   1      45.452  29.121  29.928  1.00  0.00    -0.354 N 
ATOM     50  N   UNL A   1      44.661  26.482  28.909  1.00  0.00    -0.248 NA
ATOM     51  C   UNL A   1      45.210  24.322  28.205  1.00  0.00     0.031 C 
ATOM     52  C   UNL A   1      47.595  29.456  30.410  1.00  0.00     0.029 A 
ATOM     53  C   UNL A   1      46.701  28.520  29.917  1.00  0.00     0.049 A 
ATOM     54  H   UNL A   1      44.617  28.693  29.627  1.00  0.00     0.167 HD
ATOM     55  C   UNL A   1      46.029  26.303  29.027  1.00  0.00     0.074 A 
ATOM     56  C   UNL A   1      46.313  24.950  28.589  1.00  0.00     0.031 C 
ATOM     57  C   UNL A   1      46.963  27.177  29.471  1.00  0.00     0.037 A 
BRANCH  44  58
ATOM     58  C   UNL A   1      44.745  32.714  31.038  1.00  0.00     0.057 A 
ATOM     59  C   UNL A   1      45.030  33.745  30.136  1.00  0.00     0.134 A 
ATOM     60  C   UNL A   1      44.649  33.048  32.395  1.00  0.00     0.134 A 
ATOM     61  F   UNL A   1      45.140  33.490  28.824  1.00  0.00    -0.206 F 
ATOM     62  C   UNL A   1      45.210  35.063  30.568  1.00  0.00     0.040 A 
ATOM     63  C   UNL A   1      44.811  34.363  32.837  1.00  0.00     0.040 A 
ATOM     64  F   UNL A   1      44.372  32.106  33.310  1.00  0.00    -0.206 F 
ATOM     65  C   UNL A   1      45.091  35.375  31.921  1.00  0.00     0.006 A 
ENDBRANCH  44  58
BRANCH  45  66
ATOM     66  C   UNL A   1      42.418  23.703  27.498  1.00  0.00     0.057 A 
ATOM     67  C   UNL A   1      42.471  23.575  26.108  1.00  0.00     0.134 A 
ATOM     68  C   UNL A   1      42.133  22.559  28.252  1.00  0.00     0.134 A 
ATOM     69  F   UNL A   1      42.740  24.641  25.342  1.00  0.00    -0.206 F 
ATOM     70  C   UNL A   1      42.257  22.345  25.485  1.00  0.00     0.040 A 
ATOM     71  C   UNL A   1      41.930  21.321  27.644  1.00  0.00     0.040 A 
ATOM     72  F   UNL A   1      42.090  22.624  29.591  1.00  0.00    -0.206 F 
ATOM     73  C   UNL A   1      41.997  21.212  26.256  1.00  0.00     0.006 A 
ENDBRANCH  45  66
BRANCH  57  74
ATOM     74  C   UNL A   1      48.371  26.676  29.527  1.00  0.00     0.057 A 
ATOM     75  C   UNL A   1      48.864  26.004  30.652  1.00  0.00     0.134 A 
ATOM     76  C   UNL A   1      49.240  26.871  28.448  1.00  0.00     0.134 A 
ATOM     77  F   UNL A   1      48.080  25.803  31.722  1.00  0.00    -0.206 F 
ATOM     78  C   UNL A   1      50.185  25.561  30.709  1.00  0.00     0.040 A 
ATOM     79  C   UNL A   1      50.558  26.420  28.488  1.00  0.00     0.040 A 
ATOM     80  F   UNL A   1      48.822  27.509  27.344  1.00  0.00    -0.206 F 
ATOM     81  C   UNL A   1      51.036  25.768  29.623  1.00  0.00     0.006 A 
ENDBRANCH  57  74
ENDBRANCH  31  32
ENDBRANCH  24  26
ENDBRANCH  23  24
ENDBRANCH  22  23
ENDBRANCH  21  22
ENDBRANCH   1  21
TORSDOF 18
ENDMDL
MODEL 3
REMARK VINA RESULT:      -9.6      2.079      3.429
REMARK SMILES C=CCN(CC(=O)OCCOC(=O)c1ccc(-c2c3nc(c(-c4c(F)cccc4F)c4ccc([nH]4)c(-c4c(F)cccc4F)c4nc(c(-c5c(F)cccc5F)c5ccc2[nH]5)C=C4)C=C3)cc1)C(=O)/C=C/c1ccc(OC)cc1
REMARK SMILES IDX 8 1 6 2 7 3 5 4 4 5 3 6 2 7 1 8 68 9 69 10 70 11 71 12 72 13
REMARK SMILES IDX 73 14 79 15 74 16 78 17 75 18 76 19 77 20 9 21 10 22 11 23
REMARK SMILES IDX 12 24 13 25 14 26 15 27 67 28 16 29 66 30 17 31 18 32 19 33
REMARK SMILES IDX 60 34 20 35 65 36 59 37 61 38 21 39 64 40 58 41 57 42 22 44
REMARK SMILES IDX 48 45 31 46 47 47 32 48 35 49 46 50 62 51 33 52 34 53 45 55
REMARK SMILES IDX 63 56 36 57 23 58 24 59 29 60 25 61 26 62 28 63 30 64 27 65
REMARK SMILES IDX 49 66 50 67 55 68 51 69 52 70 54 71 56 72 53 73 37 74 38 75
REMARK SMILES IDX 43 76 39 77 40 78 42 79 44 80 41 81
REMARK H PARENT 61 43 35 54
REMARK Flexibility Score: inf
ROOT
ATOM      1  O   UNL A   1      32.767  30.505  27.300  1.00  0.00    -0.461 OA
ENDROOT
BRANCH   1   2
ATOM      2  C   UNL A   1      33.339  29.770  26.310  1.00  0.00     0.325 C 
ATOM      3  O   UNL A   1      34.485  29.326  26.362  1.00  0.00    -0.250 OA
BRANCH   2   4
ATOM      4  C   UNL A   1      32.376  29.332  25.204  1.00  0.00     0.242 C 
BRANCH   4   5
ATOM      5  N   UNL A   1      31.472  28.190  25.372  1.00  0.00    -0.324 N 
BRANCH   5   6
ATOM      6  C   UNL A   1      30.641  27.838  24.229  1.00  0.00     0.147 C 
BRANCH   6   7
ATOM      7  C   UNL A   1      31.496  27.709  22.997  1.00  0.00    -0.014 C 
ATOM      8  C   UNL A   1      31.728  26.556  22.355  1.00  0.00     0.006 C 
ENDBRANCH   6   7
ENDBRANCH   5   6
BRANCH   5   9
ATOM      9  C   UNL A   1      31.475  27.332  26.466  1.00  0.00     0.247 C 
ATOM     10  O   UNL A   1      31.033  27.626  27.573  1.00  0.00    -0.270 OA
BRANCH   9  11
ATOM     11  C   UNL A   1      32.123  26.013  26.278  1.00  0.00     0.072 C 
ATOM     12  C   UNL A   1      33.394  25.889  25.860  1.00  0.00     0.014 C 
BRANCH  12  13
ATOM     13  C   UNL A   1      34.119  24.605  25.708  1.00  0.00    -0.025 A 
ATOM     14  C   UNL A   1      33.968  23.523  26.586  1.00  0.00     0.012 A 
ATOM     15  C   UNL A   1      35.031  24.452  24.656  1.00  0.00     0.012 A 
ATOM     16  C   UNL A   1      34.780  22.387  26.489  1.00  0.00     0.047 A 
ATOM     17  C   UNL A   1      35.832  23.300  24.541  1.00  0.00     0.047 A 
ATOM     18  C   UNL A   1      35.740  22.283  25.486  1.00  0.00     0.118 A 
BRANCH  18  19
ATOM     19  O   UNL A   1      36.511  21.156  25.540  1.00  0.00    -0.497 OA
ATOM     20  C   UNL A   1      35.946  19.967  24.998  1.00  0.00     0.278 C 
ENDBRANCH  18  19
ENDBRANCH  12  13
ENDBRANCH   9  11
ENDBRANCH   5   9
ENDBRANCH   4   5
ENDBRANCH   2   4
ENDBRANCH   1   2
BRANCH   1  21
ATOM     21  C   UNL A   1      32.242  31.786  26.878  1.00  0.00     0.274 C 
BRANCH  21  22
ATOM     22  C   UNL A   1      33.004  32.992  27.460  1.00  0.00     0.275 C 
BRANCH  22  23
ATOM     23  O   UNL A   1      32.153  33.959  28.121  1.00  0.00    -0.458 OA
BRANCH  23  24
ATOM     24  C   UNL A   1      32.868  34.926  28.734  1.00  0.00     0.338 C 
ATOM     25  O   UNL A   1      32.535  36.094  28.807  1.00  0.00    -0.246 OA
BRANCH  24  26
ATOM     26  C   UNL A   1      34.113  34.486  29.366  1.00  0.00     0.060 A 
ATOM     27  C   UNL A   1      35.337  34.730  28.734  1.00  0.00     0.016 A 
ATOM     28  C   UNL A   1      34.029  33.570  30.416  1.00  0.00     0.016 A 
ATOM     29  C   UNL A   1      36.481  34.037  29.138  1.00  0.00     0.010 A 
ATOM     30  C   UNL A   1      35.176  32.896  30.834  1.00  0.00     0.010 A 
ATOM     31  C   UNL A   1      36.405  33.113  30.189  1.00  0.00    -0.014 A 
BRANCH  31  32
ATOM     32  C   UNL A   1      37.627  32.487  30.738  1.00  0.00     0.031 A 
ATOM     33  C   UNL A   1      38.285  31.309  30.090  1.00  0.00     0.074 A 
ATOM     34  C   UNL A   1      38.073  32.954  31.916  1.00  0.00     0.049 A 
ATOM     35  N   UNL A   1      39.212  30.516  30.566  1.00  0.00    -0.248 NA
ATOM     36  C   UNL A   1      37.843  30.969  28.735  1.00  0.00     0.031 C 
ATOM     37  C   UNL A   1      37.499  34.095  32.631  1.00  0.00     0.029 A 
ATOM     38  N   UNL A   1      39.065  32.497  32.740  1.00  0.00    -0.354 N 
ATOM     39  C   UNL A   1      39.446  29.566  29.580  1.00  0.00     0.074 A 
ATOM     40  C   UNL A   1      38.556  29.877  28.480  1.00  0.00     0.031 C 
ATOM     41  C   UNL A   1      38.104  34.207  33.822  1.00  0.00     0.029 A 
ATOM     42  C   UNL A   1      39.085  33.136  33.952  1.00  0.00     0.049 A 
ATOM     43  H   UNL A   1      39.697  31.784  32.489  1.00  0.00     0.167 HD
ATOM     44  C   UNL A   1      40.331  28.539  29.600  1.00  0.00     0.037 A 
ATOM     45  C   UNL A   1      39.783  32.862  35.067  1.00  0.00     0.037 A 
ATOM     46  C   UNL A   1      41.253  28.283  30.679  1.00  0.00     0.049 A 
ATOM     47  C   UNL A   1      40.763  31.736  35.061  1.00  0.00     0.074 A 
ATOM     48  C   UNL A   1      42.254  27.328  30.752  1.00  0.00     0.029 A 
ATOM     49  N   UNL A   1      41.292  28.991  31.869  1.00  0.00    -0.354 N 
ATOM     50  N   UNL A   1      40.990  30.852  34.121  1.00  0.00    -0.248 NA
ATOM     51  C   UNL A   1      41.601  31.583  36.255  1.00  0.00     0.031 C 
ATOM     52  C   UNL A   1      42.886  27.448  31.995  1.00  0.00     0.029 A 
ATOM     53  C   UNL A   1      42.294  28.492  32.686  1.00  0.00     0.049 A 
ATOM     54  H   UNL A   1      40.696  29.740  32.100  1.00  0.00     0.167 HD
ATOM     55  C   UNL A   1      42.013  30.049  34.598  1.00  0.00     0.074 A 
ATOM     56  C   UNL A   1      42.359  30.549  35.914  1.00  0.00     0.031 C 
ATOM     57  C   UNL A   1      42.618  28.999  33.994  1.00  0.00     0.037 A 
BRANCH  44  58
ATOM     58  C   UNL A   1      40.367  27.610  28.423  1.00  0.00     0.057 A 
ATOM     59  C   UNL A   1      41.157  27.875  27.298  1.00  0.00     0.134 A 
ATOM     60  C   UNL A   1      39.686  26.387  28.461  1.00  0.00     0.134 A 
ATOM     61  F   UNL A   1      41.832  29.029  27.198  1.00  0.00    -0.206 F 
ATOM     62  C   UNL A   1      41.267  26.955  26.251  1.00  0.00     0.040 A 
ATOM     63  C   UNL A   1      39.799  25.453  27.429  1.00  0.00     0.040 A 
ATOM     64  F   UNL A   1      38.916  26.071  29.515  1.00  0.00    -0.206 F 
ATOM     65  C   UNL A   1      40.594  25.736  26.320  1.00  0.00     0.006 A 
ENDBRANCH  44  58
BRANCH  45  66
ATOM     66  C   UNL A   1      39.535  33.682  36.270  1.00  0.00     0.057 A 
ATOM     67  C   UNL A   1      38.675  33.241  37.279  1.00  0.00     0.134 A 
ATOM     68  C   UNL A   1      40.246  34.868  36.486  1.00  0.00     0.134 A 
ATOM     69  F   UNL A   1      37.971  32.111  37.120  1.00  0.00    -0.206 F 
ATOM     70  C   UNL A   1      38.534  33.950  38.472  1.00  0.00     0.040 A 
ATOM     71  C   UNL A   1      40.125  35.580  37.678  1.00  0.00     0.040 A 
ATOM     72  F   UNL A   1      41.100  35.323  35.557  1.00  0.00    -0.206 F 
ATOM     73  C   UNL A   1      39.270  35.119  38.677  1.00  0.00     0.006 A 
ENDBRANCH  45  66
BRANCH  57  74
ATOM     74  C   UNL A   1      43.733  28.348  34.748  1.00  0.00     0.057 A 
ATOM     75  C   UNL A   1      43.499  27.285  35.628  1.00  0.00     0.134 A 
ATOM     76  C   UNL A   1      45.051  28.793  34.594  1.00  0.00     0.134 A 
ATOM     77  F   UNL A   1      42.253  26.828  35.826  1.00  0.00    -0.206 F 
ATOM     78  C   UNL A   1      44.540  26.698  36.347  1.00  0.00     0.040 A 
ATOM     79  C   UNL A   1      46.101  28.205  35.298  1.00  0.00     0.040 A 
ATOM     80  F   UNL A   1      45.334  29.809  33.765  1.00  0.00    -0.206 F 
ATOM     81  C   UNL A   1      45.846  27.158  36.181  1.00  0.00     0.006 A 
ENDBRANCH  57  74
ENDBRANCH  31  32
ENDBRANCH  24  26
ENDBRANCH  23  24
ENDBRANCH  22  23
ENDBRANCH  21  22
ENDBRANCH   1  21
TORSDOF 18
ENDMDL
