MODEL 1
REMARK VINA RESULT:     -10.8      0.000      0.000
REMARK SMILES C[C@@H](Oc1cccc(Cl)c1)C(=O)N1CSC[C@@H]1C(=O)OCCOC(=O)c1ccc(-c2c3nc(c(-c4c(F)cccc4F)c4ccc([nH]4)c(-c4c(F)cccc4F)c4nc(c(-c5c(F)cccc5F)c5ccc2[nH]5)C=C4)C=C3)cc1
REMARK SMILES IDX 21 1 20 2 18 3 19 4 17 5 13 6 14 7 15 8 16 9 11 10 12 11
REMARK SMILES IDX 2 12 1 13 3 14 4 15 5 16 10 17 6 18 8 19 7 20 9 21 22 22
REMARK SMILES IDX 23 23 24 24 25 25 26 26 27 27 79 28 28 29 78 30 29 31 30 32
REMARK SMILES IDX 31 33 72 34 32 35 77 36 71 37 73 38 33 39 76 40 70 41 69 42
REMARK SMILES IDX 34 44 60 45 43 46 59 47 44 48 47 49 58 50 74 51 45 52 46 53
REMARK SMILES IDX 57 55 75 56 48 57 35 58 36 59 41 60 37 61 38 62 40 63 42 64
REMARK SMILES IDX 39 65 61 66 62 67 67 68 63 69 64 70 66 71 68 72 65 73 49 74
REMARK SMILES IDX 50 75 55 76 51 77 52 78 54 79 56 80 53 81
REMARK H PARENT 73 43 47 54
REMARK Flexibility Score: inf
ROOT
ATOM      1  C   UNL A   1      31.600  30.495  26.652  1.00  0.00     0.274 C 
ENDROOT
BRANCH   1   2
ATOM      2  O   UNL A   1      32.737  30.093  25.862  1.00  0.00    -0.461 OA
BRANCH   2   3
ATOM      3  C   UNL A   1      32.463  29.280  24.802  1.00  0.00     0.329 C 
ATOM      4  O   UNL A   1      33.316  28.826  24.047  1.00  0.00    -0.250 OA
BRANCH   3   5
ATOM      5  C   UNL A   1      30.965  28.959  24.666  1.00  0.00     0.206 C 
ATOM      6  N   UNL A   1      30.718  27.520  24.612  1.00  0.00    -0.316 N 
ATOM      7  C   UNL A   1      29.602  27.128  23.780  1.00  0.00     0.190 C 
ATOM      8  S   UNL A   1      28.997  28.584  22.916  1.00  0.00    -0.138 SA
ATOM      9  C   UNL A   1      30.402  29.606  23.401  1.00  0.00     0.108 C 
BRANCH   6  10
ATOM     10  C   UNL A   1      31.201  26.716  25.635  1.00  0.00     0.264 C 
ATOM     11  O   UNL A   1      31.067  27.032  26.819  1.00  0.00    -0.271 OA
BRANCH  10  12
ATOM     12  C   UNL A   1      31.975  25.443  25.260  1.00  0.00     0.259 C 
ATOM     13  C   UNL A   1      33.287  25.347  26.026  1.00  0.00     0.064 C 
BRANCH  12  14
ATOM     14  O   UNL A   1      31.121  24.329  25.546  1.00  0.00    -0.481 OA
BRANCH  14  15
ATOM     15  C   UNL A   1      31.447  23.201  24.859  1.00  0.00     0.121 A 
ATOM     16  C   UNL A   1      31.481  23.257  23.468  1.00  0.00     0.046 A 
ATOM     17  C   UNL A   1      31.893  22.075  25.545  1.00  0.00     0.067 A 
ATOM     18  C   UNL A   1      31.934  22.158  22.745  1.00  0.00     0.005 A 
ATOM     19  C   UNL A   1      32.352  20.982  24.815  1.00  0.00     0.044 A 
ATOM     20  C   UNL A   1      32.371  21.017  23.419  1.00  0.00     0.021 A 
ATOM     21  Cl  UNL A   1      32.928  19.584  25.638  1.00  0.00    -0.084 Cl
ENDBRANCH  14  15
ENDBRANCH  12  14
ENDBRANCH  10  12
ENDBRANCH   6  10
ENDBRANCH   3   5
ENDBRANCH   2   3
ENDBRANCH   1   2
BRANCH   1  22
ATOM     22  C   UNL A   1      31.471  32.018  26.807  1.00  0.00     0.275 C 
BRANCH  22  23
ATOM     23  O   UNL A   1      32.711  32.713  26.573  1.00  0.00    -0.458 OA
BRANCH  23  24
ATOM     24  C   UNL A   1      33.204  33.371  27.647  1.00  0.00     0.338 C 
ATOM     25  O   UNL A   1      32.634  34.223  28.309  1.00  0.00    -0.246 OA
BRANCH  24  26
ATOM     26  C   UNL A   1      34.493  32.795  28.072  1.00  0.00     0.060 A 
ATOM     27  C   UNL A   1      34.473  31.482  28.551  1.00  0.00     0.016 A 
ATOM     28  C   UNL A   1      35.671  33.539  28.111  1.00  0.00     0.016 A 
ATOM     29  C   UNL A   1      35.612  30.905  29.087  1.00  0.00     0.010 A 
ATOM     30  C   UNL A   1      36.826  32.958  28.656  1.00  0.00     0.010 A 
ATOM     31  C   UNL A   1      36.793  31.646  29.164  1.00  0.00    -0.014 A 
BRANCH  31  32
ATOM     32  C   UNL A   1      37.950  31.041  29.859  1.00  0.00     0.031 A 
ATOM     33  C   UNL A   1      38.180  31.340  31.311  1.00  0.00     0.074 A 
ATOM     34  C   UNL A   1      38.720  30.143  29.218  1.00  0.00     0.049 A 
ATOM     35  N   UNL A   1      39.124  30.908  32.106  1.00  0.00    -0.248 NA
ATOM     36  C   UNL A   1      37.211  32.239  31.959  1.00  0.00     0.031 C 
ATOM     37  C   UNL A   1      38.541  29.715  27.830  1.00  0.00     0.029 A 
ATOM     38  N   UNL A   1      39.793  29.415  29.660  1.00  0.00    -0.354 N 
ATOM     39  C   UNL A   1      38.875  31.491  33.341  1.00  0.00     0.074 A 
ATOM     40  C   UNL A   1      37.698  32.321  33.188  1.00  0.00     0.031 C 
ATOM     41  C   UNL A   1      39.468  28.788  27.537  1.00  0.00     0.029 A 
ATOM     42  C   UNL A   1      40.325  28.588  28.702  1.00  0.00     0.049 A 
ATOM     43  H   UNL A   1      40.149  29.477  30.576  1.00  0.00     0.167 HD
ATOM     44  C   UNL A   1      39.565  31.346  34.496  1.00  0.00     0.037 A 
ATOM     45  C   UNL A   1      41.393  27.771  28.758  1.00  0.00     0.037 A 
ATOM     46  C   UNL A   1      40.728  30.511  34.647  1.00  0.00     0.049 A 
ATOM     47  C   UNL A   1      42.175  27.672  30.038  1.00  0.00     0.074 A 
ATOM     48  C   UNL A   1      41.513  30.316  35.770  1.00  0.00     0.029 A 
ATOM     49  N   UNL A   1      41.268  29.726  33.640  1.00  0.00    -0.354 N 
ATOM     50  N   UNL A   1      41.953  28.258  31.189  1.00  0.00    -0.248 NA
ATOM     51  C   UNL A   1      43.358  26.800  30.023  1.00  0.00     0.031 C 
ATOM     52  C   UNL A   1      42.545  29.433  35.434  1.00  0.00     0.029 A 
ATOM     53  C   UNL A   1      42.382  29.050  34.113  1.00  0.00     0.049 A 
ATOM     54  H   UNL A   1      40.913  29.658  32.724  1.00  0.00     0.167 HD
ATOM     55  C   UNL A   1      42.955  27.812  32.040  1.00  0.00     0.074 A 
ATOM     56  C   UNL A   1      43.776  26.894  31.277  1.00  0.00     0.031 C 
ATOM     57  C   UNL A   1      43.180  28.138  33.337  1.00  0.00     0.037 A 
BRANCH  44  58
ATOM     58  C   UNL A   1      39.093  32.134  35.679  1.00  0.00     0.057 A 
ATOM     59  C   UNL A   1      39.469  33.468  35.877  1.00  0.00     0.134 A 
ATOM     60  C   UNL A   1      38.235  31.555  36.622  1.00  0.00     0.134 A 
ATOM     61  F   UNL A   1      40.304  34.073  35.019  1.00  0.00    -0.206 F 
ATOM     62  C   UNL A   1      39.021  34.194  36.982  1.00  0.00     0.040 A 
ATOM     63  C   UNL A   1      37.764  32.277  37.720  1.00  0.00     0.040 A 
ATOM     64  F   UNL A   1      37.837  30.281  36.490  1.00  0.00    -0.206 F 
ATOM     65  C   UNL A   1      38.161  33.600  37.904  1.00  0.00     0.006 A 
ENDBRANCH  44  58
BRANCH  45  66
ATOM     66  C   UNL A   1      41.798  26.995  27.560  1.00  0.00     0.057 A 
ATOM     67  C   UNL A   1      41.386  25.670  27.381  1.00  0.00     0.134 A 
ATOM     68  C   UNL A   1      42.622  27.555  26.577  1.00  0.00     0.134 A 
ATOM     69  F   UNL A   1      40.615  25.072  28.302  1.00  0.00    -0.206 F 
ATOM     70  C   UNL A   1      41.789  24.924  26.272  1.00  0.00     0.040 A 
ATOM     71  C   UNL A   1      43.015  26.829  25.452  1.00  0.00     0.040 A 
ATOM     72  F   UNL A   1      43.052  28.820  26.693  1.00  0.00    -0.206 F 
ATOM     73  C   UNL A   1      42.603  25.506  25.301  1.00  0.00     0.006 A 
ENDBRANCH  45  66
BRANCH  57  74
ATOM     74  C   UNL A   1      44.340  27.469  34.011  1.00  0.00     0.057 A 
ATOM     75  C   UNL A   1      45.612  28.055  34.039  1.00  0.00     0.134 A 
ATOM     76  C   UNL A   1      44.179  26.234  34.650  1.00  0.00     0.134 A 
ATOM     77  F   UNL A   1      45.833  29.230  33.431  1.00  0.00    -0.206 F 
ATOM     78  C   UNL A   1      46.690  27.421  34.658  1.00  0.00     0.040 A 
ATOM     79  C   UNL A   1      45.244  25.602  35.292  1.00  0.00     0.040 A 
ATOM     80  F   UNL A   1      42.984  25.625  34.664  1.00  0.00    -0.206 F 
ATOM     81  C   UNL A   1      46.507  26.192  35.290  1.00  0.00     0.006 A 
ENDBRANCH  57  74
ENDBRANCH  31  32
ENDBRANCH  24  26
ENDBRANCH  23  24
ENDBRANCH  22  23
ENDBRANCH   1  22
TORSDOF 15
ENDMDL
MODEL 2
REMARK VINA RESULT:     -10.7      2.350      3.909
REMARK SMILES C[C@@H](Oc1cccc(Cl)c1)C(=O)N1CSC[C@@H]1C(=O)OCCOC(=O)c1ccc(-c2c3nc(c(-c4c(F)cccc4F)c4ccc([nH]4)c(-c4c(F)cccc4F)c4nc(c(-c5c(F)cccc5F)c5ccc2[nH]5)C=C4)C=C3)cc1
REMARK SMILES IDX 21 1 20 2 18 3 19 4 17 5 13 6 14 7 15 8 16 9 11 10 12 11
REMARK SMILES IDX 2 12 1 13 3 14 4 15 5 16 10 17 6 18 8 19 7 20 9 21 22 22
REMARK SMILES IDX 23 23 24 24 25 25 26 26 27 27 79 28 28 29 78 30 29 31 30 32
REMARK SMILES IDX 31 33 72 34 32 35 77 36 71 37 73 38 33 39 76 40 70 41 69 42
REMARK SMILES IDX 34 44 60 45 43 46 59 47 44 48 47 49 58 50 74 51 45 52 46 53
REMARK SMILES IDX 57 55 75 56 48 57 35 58 36 59 41 60 37 61 38 62 40 63 42 64
REMARK SMILES IDX 39 65 61 66 62 67 67 68 63 69 64 70 66 71 68 72 65 73 49 74
REMARK SMILES IDX 50 75 55 76 51 77 52 78 54 79 56 80 53 81
REMARK H PARENT 73 43 47 54
REMARK Flexibility Score: inf
ROOT
ATOM      1  C   UNL A   1      31.564  28.928  27.157  1.00  0.00     0.274 C 
ENDROOT
BRANCH   1   2
ATOM      2  O   UNL A   1      32.708  28.106  26.852  1.00  0.00    -0.461 OA
BRANCH   2   3
ATOM      3  C   UNL A   1      32.430  26.855  26.387  1.00  0.00     0.329 C 
ATOM      4  O   UNL A   1      31.546  26.135  26.838  1.00  0.00    -0.250 OA
BRANCH   3   5
ATOM      5  C   UNL A   1      33.325  26.444  25.205  1.00  0.00     0.206 C 
ATOM      6  N   UNL A   1      32.617  26.532  23.929  1.00  0.00    -0.316 N 
ATOM      7  C   UNL A   1      33.007  25.539  22.951  1.00  0.00     0.190 C 
ATOM      8  S   UNL A   1      34.134  24.378  23.736  1.00  0.00    -0.138 SA
ATOM      9  C   UNL A   1      33.825  25.013  25.396  1.00  0.00     0.108 C 
BRANCH   6  10
ATOM     10  C   UNL A   1      32.020  27.733  23.572  1.00  0.00     0.264 C 
ATOM     11  O   UNL A   1      32.666  28.781  23.519  1.00  0.00    -0.271 OA
BRANCH  10  12
ATOM     12  C   UNL A   1      30.507  27.746  23.307  1.00  0.00     0.259 C 
ATOM     13  C   UNL A   1      29.861  26.432  23.719  1.00  0.00     0.064 C 
BRANCH  12  14
ATOM     14  O   UNL A   1      29.959  28.850  24.037  1.00  0.00    -0.481 OA
BRANCH  14  15
ATOM     15  C   UNL A   1      29.454  29.833  23.243  1.00  0.00     0.121 A 
ATOM     16  C   UNL A   1      28.660  29.468  22.159  1.00  0.00     0.046 A 
ATOM     17  C   UNL A   1      29.599  31.167  23.613  1.00  0.00     0.067 A 
ATOM     18  C   UNL A   1      28.027  30.452  21.406  1.00  0.00     0.005 A 
ATOM     19  C   UNL A   1      28.956  32.146  22.859  1.00  0.00     0.044 A 
ATOM     20  C   UNL A   1      28.174  31.795  21.757  1.00  0.00     0.021 A 
ATOM     21  Cl  UNL A   1      29.101  33.802  23.306  1.00  0.00    -0.084 Cl
ENDBRANCH  14  15
ENDBRANCH  12  14
ENDBRANCH  10  12
ENDBRANCH   6  10
ENDBRANCH   3   5
ENDBRANCH   2   3
ENDBRANCH   1   2
BRANCH   1  22
ATOM     22  C   UNL A   1      31.778  30.416  26.840  1.00  0.00     0.275 C 
BRANCH  22  23
ATOM     23  O   UNL A   1      33.153  30.735  26.549  1.00  0.00    -0.458 OA
BRANCH  23  24
ATOM     24  C   UNL A   1      33.670  31.742  27.291  1.00  0.00     0.338 C 
ATOM     25  O   UNL A   1      33.104  32.769  27.627  1.00  0.00    -0.246 OA
BRANCH  24  26
ATOM     26  C   UNL A   1      34.989  31.371  27.836  1.00  0.00     0.060 A 
ATOM     27  C   UNL A   1      35.153  30.047  28.252  1.00  0.00     0.016 A 
ATOM     28  C   UNL A   1      36.005  32.303  28.042  1.00  0.00     0.016 A 
ATOM     29  C   UNL A   1      36.314  29.642  28.891  1.00  0.00     0.010 A 
ATOM     30  C   UNL A   1      37.180  31.897  28.691  1.00  0.00     0.010 A 
ATOM     31  C   UNL A   1      37.329  30.569  29.134  1.00  0.00    -0.014 A 
BRANCH  31  32
ATOM     32  C   UNL A   1      38.495  30.131  29.931  1.00  0.00     0.031 A 
ATOM     33  C   UNL A   1      38.629  30.581  31.356  1.00  0.00     0.074 A 
ATOM     34  C   UNL A   1      39.364  29.245  29.411  1.00  0.00     0.049 A 
ATOM     35  N   UNL A   1      39.566  30.305  32.226  1.00  0.00    -0.248 NA
ATOM     36  C   UNL A   1      37.562  31.452  31.874  1.00  0.00     0.031 C 
ATOM     37  C   UNL A   1      39.288  28.677  28.065  1.00  0.00     0.029 A 
ATOM     38  N   UNL A   1      40.469  28.653  29.965  1.00  0.00    -0.354 N 
ATOM     39  C   UNL A   1      39.211  30.977  33.388  1.00  0.00     0.074 A 
ATOM     40  C   UNL A   1      37.981  31.687  33.109  1.00  0.00     0.031 C 
ATOM     41  C   UNL A   1      40.299  27.809  27.900  1.00  0.00     0.029 A 
ATOM     42  C   UNL A   1      41.111  27.789  29.113  1.00  0.00     0.049 A 
ATOM     43  H   UNL A   1      40.774  28.830  30.884  1.00  0.00     0.167 HD
ATOM     44  C   UNL A   1      39.854  30.997  34.579  1.00  0.00     0.037 A 
ATOM     45  C   UNL A   1      42.237  27.074  29.290  1.00  0.00     0.037 A 
ATOM     46  C   UNL A   1      41.070  30.281  34.857  1.00  0.00     0.049 A 
ATOM     47  C   UNL A   1      42.961  27.159  30.605  1.00  0.00     0.074 A 
ATOM     48  C   UNL A   1      41.813  30.257  36.024  1.00  0.00     0.029 A 
ATOM     49  N   UNL A   1      41.720  29.453  33.953  1.00  0.00    -0.354 N 
ATOM     50  N   UNL A   1      42.638  27.829  31.685  1.00  0.00    -0.248 NA
ATOM     51  C   UNL A   1      44.209  26.392  30.722  1.00  0.00     0.031 C 
ATOM     52  C   UNL A   1      42.928  29.436  35.818  1.00  0.00     0.029 A 
ATOM     53  C   UNL A   1      42.860  28.921  34.534  1.00  0.00     0.049 A 
ATOM     54  H   UNL A   1      41.416  29.272  33.034  1.00  0.00     0.167 HD
ATOM     55  C   UNL A   1      43.630  27.549  32.615  1.00  0.00     0.074 A 
ATOM     56  C   UNL A   1      44.557  26.636  31.978  1.00  0.00     0.031 C 
ATOM     57  C   UNL A   1      43.765  28.010  33.882  1.00  0.00     0.037 A 
BRANCH  44  58
ATOM     58  C   UNL A   1      39.263  31.849  35.661  1.00  0.00     0.057 A 
ATOM     59  C   UNL A   1      38.322  31.345  36.567  1.00  0.00     0.134 A 
ATOM     60  C   UNL A   1      39.656  33.185  35.809  1.00  0.00     0.134 A 
ATOM     61  F   UNL A   1      37.890  30.079  36.467  1.00  0.00    -0.206 F 
ATOM     62  C   UNL A   1      37.779  32.147  37.573  1.00  0.00     0.040 A 
ATOM     63  C   UNL A   1      39.136  33.990  36.823  1.00  0.00     0.040 A 
ATOM     64  F   UNL A   1      40.554  33.727  34.973  1.00  0.00    -0.206 F 
ATOM     65  C   UNL A   1      38.191  33.472  37.706  1.00  0.00     0.006 A 
ENDBRANCH  44  58
BRANCH  45  66
ATOM     66  C   UNL A   1      42.760  26.227  28.191  1.00  0.00     0.057 A 
ATOM     67  C   UNL A   1      42.258  24.941  27.963  1.00  0.00     0.134 A 
ATOM     68  C   UNL A   1      43.789  26.678  27.354  1.00  0.00     0.134 A 
ATOM     69  F   UNL A   1      41.289  24.446  28.747  1.00  0.00    -0.206 F 
ATOM     70  C   UNL A   1      42.768  24.127  26.950  1.00  0.00     0.040 A 
ATOM     71  C   UNL A   1      44.293  25.883  26.323  1.00  0.00     0.040 A 
ATOM     72  F   UNL A   1      44.314  27.899  27.524  1.00  0.00    -0.206 F 
ATOM     73  C   UNL A   1      43.785  24.601  26.123  1.00  0.00     0.006 A 
ENDBRANCH  45  66
BRANCH  57  74
ATOM     74  C   UNL A   1      44.940  27.506  34.665  1.00  0.00     0.057 A 
ATOM     75  C   UNL A   1      44.869  26.332  35.424  1.00  0.00     0.134 A 
ATOM     76  C   UNL A   1      46.158  28.197  34.647  1.00  0.00     0.134 A 
ATOM     77  F   UNL A   1      43.725  25.635  35.493  1.00  0.00    -0.206 F 
ATOM     78  C   UNL A   1      45.963  25.875  36.159  1.00  0.00     0.040 A 
ATOM     79  C   UNL A   1      47.265  27.737  35.360  1.00  0.00     0.040 A 
ATOM     80  F   UNL A   1      46.291  29.324  33.933  1.00  0.00    -0.206 F 
ATOM     81  C   UNL A   1      47.168  26.577  36.126  1.00  0.00     0.006 A 
ENDBRANCH  57  74
ENDBRANCH  31  32
ENDBRANCH  24  26
ENDBRANCH  23  24
ENDBRANCH  22  23
ENDBRANCH   1  22
TORSDOF 15
ENDMDL
MODEL 3
REMARK VINA RESULT:     -10.7      0.306      6.177
REMARK SMILES C[C@@H](Oc1cccc(Cl)c1)C(=O)N1CSC[C@@H]1C(=O)OCCOC(=O)c1ccc(-c2c3nc(c(-c4c(F)cccc4F)c4ccc([nH]4)c(-c4c(F)cccc4F)c4nc(c(-c5c(F)cccc5F)c5ccc2[nH]5)C=C4)C=C3)cc1
REMARK SMILES IDX 21 1 20 2 18 3 19 4 17 5 13 6 14 7 15 8 16 9 11 10 12 11
REMARK SMILES IDX 2 12 1 13 3 14 4 15 5 16 10 17 6 18 8 19 7 20 9 21 22 22
REMARK SMILES IDX 23 23 24 24 25 25 26 26 27 27 79 28 28 29 78 30 29 31 30 32
REMARK SMILES IDX 31 33 72 34 32 35 77 36 71 37 73 38 33 39 76 40 70 41 69 42
REMARK SMILES IDX 34 44 60 45 43 46 59 47 44 48 47 49 58 50 74 51 45 52 46 53
REMARK SMILES IDX 57 55 75 56 48 57 35 58 36 59 41 60 37 61 38 62 40 63 42 64
REMARK SMILES IDX 39 65 61 66 62 67 67 68 63 69 64 70 66 71 68 72 65 73 49 74
REMARK SMILES IDX 50 75 55 76 51 77 52 78 54 79 56 80 53 81
REMARK H PARENT 73 43 47 54
REMARK Flexibility Score: inf
ROOT
ATOM      1  C   UNL A   1      31.668  30.451  26.608  1.00  0.00     0.274 C 
ENDROOT
BRANCH   1   2
ATOM      2  O   UNL A   1      32.775  30.093  25.758  1.00  0.00    -0.461 OA
BRANCH   2   3
ATOM      3  C   UNL A   1      32.485  29.240  24.735  1.00  0.00     0.329 C 
ATOM      4  O   UNL A   1      33.324  28.770  23.974  1.00  0.00    -0.250 OA
BRANCH   3   5
ATOM      5  C   UNL A   1      30.989  28.895  24.650  1.00  0.00     0.206 C 
ATOM      6  N   UNL A   1      30.762  27.451  24.635  1.00  0.00    -0.316 N 
ATOM      7  C   UNL A   1      29.627  27.025  23.845  1.00  0.00     0.190 C 
ATOM      8  S   UNL A   1      28.975  28.453  22.968  1.00  0.00    -0.138 SA
ATOM      9  C   UNL A   1      30.379  29.506  23.390  1.00  0.00     0.108 C 
BRANCH   6  10
ATOM     10  C   UNL A   1      31.287  26.676  25.660  1.00  0.00     0.264 C 
ATOM     11  O   UNL A   1      31.083  26.953  26.844  1.00  0.00    -0.271 OA
BRANCH  10  12
ATOM     12  C   UNL A   1      32.194  25.493  25.290  1.00  0.00     0.259 C 
ATOM     13  C   UNL A   1      33.606  25.690  25.823  1.00  0.00     0.064 C 
BRANCH  12  14
ATOM     14  O   UNL A   1      31.590  24.312  25.832  1.00  0.00    -0.481 OA
BRANCH  14  15
ATOM     15  C   UNL A   1      31.752  23.210  25.050  1.00  0.00     0.121 A 
ATOM     16  C   UNL A   1      31.739  23.368  23.667  1.00  0.00     0.046 A 
ATOM     17  C   UNL A   1      32.084  21.989  25.632  1.00  0.00     0.067 A 
ATOM     18  C   UNL A   1      32.027  22.283  22.846  1.00  0.00     0.005 A 
ATOM     19  C   UNL A   1      32.379  20.910  24.804  1.00  0.00     0.044 A 
ATOM     20  C   UNL A   1      32.349  21.050  23.416  1.00  0.00     0.021 A 
ATOM     21  Cl  UNL A   1      32.814  19.395  25.497  1.00  0.00    -0.084 Cl
ENDBRANCH  14  15
ENDBRANCH  12  14
ENDBRANCH  10  12
ENDBRANCH   6  10
ENDBRANCH   3   5
ENDBRANCH   2   3
ENDBRANCH   1   2
BRANCH   1  22
ATOM     22  C   UNL A   1      31.500  31.967  26.789  1.00  0.00     0.275 C 
BRANCH  22  23
ATOM     23  O   UNL A   1      32.718  32.699  26.548  1.00  0.00    -0.458 OA
BRANCH  23  24
ATOM     24  C   UNL A   1      33.174  33.405  27.607  1.00  0.00     0.338 C 
ATOM     25  O   UNL A   1      32.591  34.301  28.196  1.00  0.00    -0.246 OA
BRANCH  24  26
ATOM     26  C   UNL A   1      34.431  32.831  28.122  1.00  0.00     0.060 A 
ATOM     27  C   UNL A   1      34.389  31.505  28.558  1.00  0.00     0.016 A 
ATOM     28  C   UNL A   1      35.592  33.587  28.281  1.00  0.00     0.016 A 
ATOM     29  C   UNL A   1      35.488  30.924  29.171  1.00  0.00     0.010 A 
ATOM     30  C   UNL A   1      36.704  33.004  28.904  1.00  0.00     0.010 A 
ATOM     31  C   UNL A   1      36.648  31.676  29.367  1.00  0.00    -0.014 A 
BRANCH  31  32
ATOM     32  C   UNL A   1      37.751  31.064  30.139  1.00  0.00     0.031 A 
ATOM     33  C   UNL A   1      38.710  30.137  29.452  1.00  0.00     0.074 A 
ATOM     34  C   UNL A   1      37.953  31.427  31.418  1.00  0.00     0.049 A 
ATOM     35  N   UNL A   1      39.745  29.505  29.942  1.00  0.00    -0.248 NA
ATOM     36  C   UNL A   1      38.479  29.895  28.019  1.00  0.00     0.031 C 
ATOM     37  C   UNL A   1      37.133  32.382  32.165  1.00  0.00     0.029 A 
ATOM     38  N   UNL A   1      38.926  31.052  32.307  1.00  0.00    -0.354 N 
ATOM     39  C   UNL A   1      40.280  28.780  28.886  1.00  0.00     0.074 A 
ATOM     40  C   UNL A   1      39.447  29.038  27.730  1.00  0.00     0.031 C 
ATOM     41  C   UNL A   1      37.644  32.525  33.399  1.00  0.00     0.029 A 
ATOM     42  C   UNL A   1      38.802  31.647  33.538  1.00  0.00     0.049 A 
ATOM     43  H   UNL A   1      39.645  30.417  32.086  1.00  0.00     0.167 HD
ATOM     44  C   UNL A   1      41.368  27.975  28.882  1.00  0.00     0.037 A 
ATOM     45  C   UNL A   1      39.534  31.488  34.656  1.00  0.00     0.037 A 
ATOM     46  C   UNL A   1      42.200  27.730  30.030  1.00  0.00     0.049 A 
ATOM     47  C   UNL A   1      40.704  30.544  34.639  1.00  0.00     0.074 A 
ATOM     48  C   UNL A   1      43.311  26.911  30.135  1.00  0.00     0.029 A 
ATOM     49  N   UNL A   1      42.014  28.312  31.275  1.00  0.00    -0.354 N 
ATOM     50  N   UNL A   1      41.178  29.834  33.644  1.00  0.00    -0.248 NA
ATOM     51  C   UNL A   1      41.437  30.378  35.902  1.00  0.00     0.031 C 
ATOM     52  C   UNL A   1      43.781  26.976  31.451  1.00  0.00     0.029 A 
ATOM     53  C   UNL A   1      42.985  27.864  32.156  1.00  0.00     0.049 A 
ATOM     54  H   UNL A   1      41.299  28.950  31.499  1.00  0.00     0.167 HD
ATOM     55  C   UNL A   1      42.275  29.152  34.154  1.00  0.00     0.074 A 
ATOM     56  C   UNL A   1      42.405  29.547  35.542  1.00  0.00     0.031 C 
ATOM     57  C   UNL A   1      43.098  28.274  33.532  1.00  0.00     0.037 A 
BRANCH  44  58
ATOM     58  C   UNL A   1      41.698  27.277  27.597  1.00  0.00     0.057 A 
ATOM     59  C   UNL A   1      42.458  27.894  26.596  1.00  0.00     0.134 A 
ATOM     60  C   UNL A   1      41.266  25.965  27.370  1.00  0.00     0.134 A 
ATOM     61  F   UNL A   1      42.885  29.157  26.745  1.00  0.00    -0.206 F 
ATOM     62  C   UNL A   1      42.762  27.234  25.404  1.00  0.00     0.040 A 
ATOM     63  C   UNL A   1      41.581  25.288  26.191  1.00  0.00     0.040 A 
ATOM     64  F   UNL A   1      40.535  25.320  28.290  1.00  0.00    -0.206 F 
ATOM     65  C   UNL A   1      42.328  25.925  25.202  1.00  0.00     0.006 A 
ENDBRANCH  44  58
BRANCH  45  66
ATOM     66  C   UNL A   1      39.174  32.226  35.891  1.00  0.00     0.057 A 
ATOM     67  C   UNL A   1      38.303  31.676  36.838  1.00  0.00     0.134 A 
ATOM     68  C   UNL A   1      39.678  33.508  36.143  1.00  0.00     0.134 A 
ATOM     69  F   UNL A   1      37.770  30.462  36.639  1.00  0.00    -0.206 F 
ATOM     70  C   UNL A   1      37.936  32.379  37.987  1.00  0.00     0.040 A 
ATOM     71  C   UNL A   1      39.337  34.213  37.298  1.00  0.00     0.040 A 
ATOM     72  F   UNL A   1      40.515  34.090  35.272  1.00  0.00    -0.206 F 
ATOM     73  C   UNL A   1      38.458  33.650  38.221  1.00  0.00     0.006 A 
ENDBRANCH  45  66
BRANCH  57  74
ATOM     74  C   UNL A   1      44.225  27.710  34.344  1.00  0.00     0.057 A 
ATOM     75  C   UNL A   1      45.464  28.358  34.431  1.00  0.00     0.134 A 
ATOM     76  C   UNL A   1      44.064  26.515  35.055  1.00  0.00     0.134 A 
ATOM     77  F   UNL A   1      45.684  29.498  33.759  1.00  0.00    -0.206 F 
ATOM     78  C   UNL A   1      46.513  27.822  35.178  1.00  0.00     0.040 A 
ATOM     79  C   UNL A   1      45.099  25.982  35.824  1.00  0.00     0.040 A 
ATOM     80  F   UNL A   1      42.900  25.851  35.017  1.00  0.00    -0.206 F 
ATOM     81  C   UNL A   1      46.331  26.631  35.881  1.00  0.00     0.006 A 
ENDBRANCH  57  74
ENDBRANCH  31  32
ENDBRANCH  24  26
ENDBRANCH  23  24
ENDBRANCH  22  23
ENDBRANCH   1  22
TORSDOF 15
ENDMDL
