MODEL 1
REMARK VINA RESULT:     -10.0      0.000      0.000
REMARK SMILES CC(C)C[C@@H](CNC(=O)[C@@H]1CCOC1)C(=O)OCCOC(=O)c1ccc(-c2c3nc(c(-c4c(F)cccc4F)c4ccc([nH]4)c(-c4c(F)cccc4F)c4nc(c(-c5c(F)cccc5F)c5ccc2[nH]5)C=C4)C=C3)cc1
REMARK SMILES IDX 18 1 17 2 15 3 16 4 5 5 4 6 2 7 1 8 3 9 6 10 7 11 8 12 9 14
REMARK SMILES IDX 10 15 11 16 14 17 12 18 13 19 19 20 20 21 21 22 22 23 23 24
REMARK SMILES IDX 24 25 76 26 25 27 75 28 26 29 27 30 28 31 69 32 29 33 74 34
REMARK SMILES IDX 68 35 70 36 30 37 73 38 67 39 66 40 31 42 57 43 40 44 56 45
REMARK SMILES IDX 41 46 44 47 55 48 71 49 42 50 43 51 54 53 72 54 45 55 32 56
REMARK SMILES IDX 33 57 38 58 34 59 35 60 37 61 39 62 36 63 58 64 59 65 64 66
REMARK SMILES IDX 60 67 61 68 63 69 65 70 62 71 46 72 47 73 52 74 48 75 49 76
REMARK SMILES IDX 51 77 53 78 50 79
REMARK H PARENT 7 13 70 41 44 52
REMARK Flexibility Score: inf
ROOT
ATOM      1  C   UNL A   1      30.634  31.321  25.175  1.00  0.00     0.274 C 
ENDROOT
BRANCH   1   2
ATOM      2  O   UNL A   1      31.370  30.106  24.937  1.00  0.00    -0.462 OA
BRANCH   2   3
ATOM      3  C   UNL A   1      30.902  29.303  23.949  1.00  0.00     0.310 C 
ATOM      4  O   UNL A   1      30.230  29.684  22.995  1.00  0.00    -0.252 OA
BRANCH   3   5
ATOM      5  C   UNL A   1      31.242  27.838  24.153  1.00  0.00     0.118 C 
BRANCH   5   6
ATOM      6  C   UNL A   1      30.872  27.292  25.544  1.00  0.00     0.020 C 
BRANCH   6   7
ATOM      7  C   UNL A   1      32.042  27.230  26.553  1.00  0.00    -0.017 C 
ATOM      8  C   UNL A   1      33.395  27.557  25.916  1.00  0.00     0.007 C 
ATOM      9  C   UNL A   1      31.782  28.202  27.708  1.00  0.00     0.007 C 
ENDBRANCH   6   7
ENDBRANCH   5   6
BRANCH   5  10
ATOM     10  C   UNL A   1      30.703  27.024  22.975  1.00  0.00     0.131 C 
BRANCH  10  11
ATOM     11  N   UNL A   1      31.653  26.867  21.889  1.00  0.00    -0.355 N 
ATOM     12  C   UNL A   1      32.481  25.813  21.617  1.00  0.00     0.225 C 
ATOM     13  H   UNL A   1      31.710  27.624  21.262  1.00  0.00     0.163 HD
ATOM     14  O   UNL A   1      33.278  25.927  20.685  1.00  0.00    -0.275 OA
BRANCH  12  15
ATOM     15  C   UNL A   1      32.402  24.565  22.487  1.00  0.00     0.106 C 
ATOM     16  C   UNL A   1      33.157  24.708  23.792  1.00  0.00     0.044 C 
ATOM     17  C   UNL A   1      33.110  23.390  21.827  1.00  0.00     0.173 C 
ATOM     18  C   UNL A   1      34.558  24.288  23.408  1.00  0.00     0.161 C 
ATOM     19  O   UNL A   1      34.404  23.251  22.433  1.00  0.00    -0.381 OA
ENDBRANCH  12  15
ENDBRANCH  10  11
ENDBRANCH   5  10
ENDBRANCH   3   5
ENDBRANCH   2   3
ENDBRANCH   1   2
BRANCH   1  20
ATOM     20  C   UNL A   1      31.029  31.978  26.501  1.00  0.00     0.275 C 
BRANCH  20  21
ATOM     21  O   UNL A   1      32.380  31.650  26.874  1.00  0.00    -0.458 OA
BRANCH  21  22
ATOM     22  C   UNL A   1      33.076  32.661  27.444  1.00  0.00     0.338 C 
ATOM     23  O   UNL A   1      32.699  33.801  27.648  1.00  0.00    -0.246 OA
BRANCH  22  24
ATOM     24  C   UNL A   1      34.360  32.153  27.948  1.00  0.00     0.060 A 
ATOM     25  C   UNL A   1      34.444  30.794  28.255  1.00  0.00     0.016 A 
ATOM     26  C   UNL A   1      35.429  33.008  28.212  1.00  0.00     0.016 A 
ATOM     27  C   UNL A   1      35.598  30.274  28.826  1.00  0.00     0.010 A 
ATOM     28  C   UNL A   1      36.589  32.488  28.797  1.00  0.00     0.010 A 
ATOM     29  C   UNL A   1      36.674  31.121  29.117  1.00  0.00    -0.014 A 
BRANCH  29  30
ATOM     30  C   UNL A   1      37.848  30.575  29.834  1.00  0.00     0.031 A 
ATOM     31  C   UNL A   1      38.087  30.961  31.265  1.00  0.00     0.074 A 
ATOM     32  C   UNL A   1      38.664  29.699  29.222  1.00  0.00     0.049 A 
ATOM     33  N   UNL A   1      39.082  30.644  32.052  1.00  0.00    -0.248 NA
ATOM     34  C   UNL A   1      37.065  31.813  31.895  1.00  0.00     0.031 C 
ATOM     35  C   UNL A   1      38.497  29.204  27.855  1.00  0.00     0.029 A 
ATOM     36  N   UNL A   1      39.794  29.069  29.673  1.00  0.00    -0.354 N 
ATOM     37  C   UNL A   1      38.818  31.268  33.264  1.00  0.00     0.074 A 
ATOM     38  C   UNL A   1      37.575  31.993  33.105  1.00  0.00     0.031 C 
ATOM     39  C   UNL A   1      39.492  28.344  27.580  1.00  0.00     0.029 A 
ATOM     40  C   UNL A   1      40.385  28.262  28.732  1.00  0.00     0.049 A 
ATOM     41  H   UNL A   1      40.149  29.184  30.584  1.00  0.00     0.167 HD
ATOM     42  C   UNL A   1      39.545  31.237  34.405  1.00  0.00     0.037 A 
ATOM     43  C   UNL A   1      41.530  27.558  28.789  1.00  0.00     0.037 A 
ATOM     44  C   UNL A   1      40.777  30.509  34.562  1.00  0.00     0.049 A 
ATOM     45  C   UNL A   1      42.353  27.591  30.046  1.00  0.00     0.074 A 
ATOM     46  C   UNL A   1      41.597  30.427  35.674  1.00  0.00     0.029 A 
ATOM     47  N   UNL A   1      41.363  29.733  33.574  1.00  0.00    -0.354 N 
ATOM     48  N   UNL A   1      42.109  28.208  31.177  1.00  0.00    -0.248 NA
ATOM     49  C   UNL A   1      43.614  26.836  30.033  1.00  0.00     0.031 C 
ATOM     50  C   UNL A   1      42.695  29.623  35.349  1.00  0.00     0.029 A 
ATOM     51  C   UNL A   1      42.540  29.176  34.047  1.00  0.00     0.049 A 
ATOM     52  H   UNL A   1      40.996  29.597  32.670  1.00  0.00     0.167 HD
ATOM     53  C   UNL A   1      43.175  27.904  32.014  1.00  0.00     0.074 A 
ATOM     54  C   UNL A   1      44.059  27.035  31.266  1.00  0.00     0.031 C 
ATOM     55  C   UNL A   1      43.403  28.310  33.286  1.00  0.00     0.037 A 
BRANCH  42  56
ATOM     56  C   UNL A   1      39.038  32.039  35.564  1.00  0.00     0.057 A 
ATOM     57  C   UNL A   1      39.362  33.392  35.724  1.00  0.00     0.134 A 
ATOM     58  C   UNL A   1      38.199  31.456  36.521  1.00  0.00     0.134 A 
ATOM     59  F   UNL A   1      40.175  34.004  34.850  1.00  0.00    -0.206 F 
ATOM     60  C   UNL A   1      38.882  34.133  36.805  1.00  0.00     0.040 A 
ATOM     61  C   UNL A   1      37.698  32.191  37.597  1.00  0.00     0.040 A 
ATOM     62  F   UNL A   1      37.852  30.164  36.426  1.00  0.00    -0.206 F 
ATOM     63  C   UNL A   1      38.043  33.533  37.743  1.00  0.00     0.006 A 
ENDBRANCH  42  56
BRANCH  43  64
ATOM     64  C   UNL A   1      41.984  26.783  27.607  1.00  0.00     0.057 A 
ATOM     65  C   UNL A   1      41.696  25.420  27.481  1.00  0.00     0.134 A 
ATOM     66  C   UNL A   1      42.726  27.386  26.585  1.00  0.00     0.134 A 
ATOM     67  F   UNL A   1      41.010  24.783  28.441  1.00  0.00    -0.206 F 
ATOM     68  C   UNL A   1      42.142  24.679  26.385  1.00  0.00     0.040 A 
ATOM     69  C   UNL A   1      43.159  26.663  25.473  1.00  0.00     0.040 A 
ATOM     70  F   UNL A   1      43.034  28.690  26.650  1.00  0.00    -0.206 F 
ATOM     71  C   UNL A   1      42.871  25.303  25.375  1.00  0.00     0.006 A 
ENDBRANCH  43  64
BRANCH  55  72
ATOM     72  C   UNL A   1      44.643  27.795  33.952  1.00  0.00     0.057 A 
ATOM     73  C   UNL A   1      45.845  28.512  33.922  1.00  0.00     0.134 A 
ATOM     74  C   UNL A   1      44.625  26.584  34.656  1.00  0.00     0.134 A 
ATOM     75  F   UNL A   1      45.928  29.671  33.252  1.00  0.00    -0.206 F 
ATOM     76  C   UNL A   1      46.994  28.032  34.552  1.00  0.00     0.040 A 
ATOM     77  C   UNL A   1      45.762  26.104  35.306  1.00  0.00     0.040 A 
ATOM     78  F   UNL A   1      43.501  25.854  34.726  1.00  0.00    -0.206 F 
ATOM     79  C   UNL A   1      46.951  26.826  35.251  1.00  0.00     0.006 A 
ENDBRANCH  55  72
ENDBRANCH  29  30
ENDBRANCH  22  24
ENDBRANCH  21  22
ENDBRANCH  20  21
ENDBRANCH   1  20
TORSDOF 16
ENDMDL
MODEL 2
REMARK VINA RESULT:      -9.9      1.604      3.019
REMARK SMILES CC(C)C[C@@H](CNC(=O)[C@@H]1CCOC1)C(=O)OCCOC(=O)c1ccc(-c2c3nc(c(-c4c(F)cccc4F)c4ccc([nH]4)c(-c4c(F)cccc4F)c4nc(c(-c5c(F)cccc5F)c5ccc2[nH]5)C=C4)C=C3)cc1
REMARK SMILES IDX 18 1 17 2 15 3 16 4 5 5 4 6 2 7 1 8 3 9 6 10 7 11 8 12 9 14
REMARK SMILES IDX 10 15 11 16 14 17 12 18 13 19 19 20 20 21 21 22 22 23 23 24
REMARK SMILES IDX 24 25 76 26 25 27 75 28 26 29 27 30 28 31 69 32 29 33 74 34
REMARK SMILES IDX 68 35 70 36 30 37 73 38 67 39 66 40 31 42 57 43 40 44 56 45
REMARK SMILES IDX 41 46 44 47 55 48 71 49 42 50 43 51 54 53 72 54 45 55 32 56
REMARK SMILES IDX 33 57 38 58 34 59 35 60 37 61 39 62 36 63 58 64 59 65 64 66
REMARK SMILES IDX 60 67 61 68 63 69 65 70 62 71 46 72 47 73 52 74 48 75 49 76
REMARK SMILES IDX 51 77 53 78 50 79
REMARK H PARENT 7 13 70 41 44 52
REMARK Flexibility Score: inf
ROOT
ATOM      1  C   UNL A   1      31.203  31.595  26.403  1.00  0.00     0.274 C 
ENDROOT
BRANCH   1   2
ATOM      2  O   UNL A   1      32.209  30.574  26.255  1.00  0.00    -0.462 OA
BRANCH   2   3
ATOM      3  C   UNL A   1      31.878  29.335  26.695  1.00  0.00     0.310 C 
ATOM      4  O   UNL A   1      31.473  29.077  27.825  1.00  0.00    -0.252 OA
BRANCH   3   5
ATOM      5  C   UNL A   1      32.108  28.248  25.662  1.00  0.00     0.118 C 
BRANCH   5   6
ATOM      6  C   UNL A   1      31.600  26.858  26.084  1.00  0.00     0.020 C 
BRANCH   6   7
ATOM      7  C   UNL A   1      32.601  25.701  25.862  1.00  0.00    -0.017 C 
ATOM      8  C   UNL A   1      32.211  24.792  24.694  1.00  0.00     0.007 C 
ATOM      9  C   UNL A   1      34.002  26.269  25.612  1.00  0.00     0.007 C 
ENDBRANCH   6   7
ENDBRANCH   5   6
BRANCH   5  10
ATOM     10  C   UNL A   1      31.611  28.731  24.298  1.00  0.00     0.131 C 
BRANCH  10  11
ATOM     11  N   UNL A   1      30.334  28.164  23.905  1.00  0.00    -0.355 N 
ATOM     12  C   UNL A   1      29.320  28.742  23.194  1.00  0.00     0.225 C 
ATOM     13  H   UNL A   1      30.176  27.236  24.191  1.00  0.00     0.163 HD
ATOM     14  O   UNL A   1      28.278  28.104  23.047  1.00  0.00    -0.275 OA
BRANCH  12  15
ATOM     15  C   UNL A   1      29.510  30.149  22.641  1.00  0.00     0.106 C 
ATOM     16  C   UNL A   1      29.127  31.228  23.633  1.00  0.00     0.044 C 
ATOM     17  C   UNL A   1      28.560  30.418  21.484  1.00  0.00     0.173 C 
ATOM     18  C   UNL A   1      27.645  31.388  23.387  1.00  0.00     0.161 C 
ATOM     19  O   UNL A   1      27.455  31.188  21.981  1.00  0.00    -0.381 OA
ENDBRANCH  12  15
ENDBRANCH  10  11
ENDBRANCH   5  10
ENDBRANCH   3   5
ENDBRANCH   2   3
ENDBRANCH   1   2
BRANCH   1  20
ATOM     20  C   UNL A   1      31.819  32.987  26.568  1.00  0.00     0.275 C 
BRANCH  20  21
ATOM     21  O   UNL A   1      32.199  33.240  27.933  1.00  0.00    -0.458 OA
BRANCH  21  22
ATOM     22  C   UNL A   1      33.212  34.125  28.088  1.00  0.00     0.338 C 
ATOM     23  O   UNL A   1      33.156  35.340  28.019  1.00  0.00    -0.246 OA
BRANCH  22  24
ATOM     24  C   UNL A   1      34.424  33.415  28.519  1.00  0.00     0.060 A 
ATOM     25  C   UNL A   1      34.291  32.081  28.908  1.00  0.00     0.016 A 
ATOM     26  C   UNL A   1      35.650  34.070  28.636  1.00  0.00     0.016 A 
ATOM     27  C   UNL A   1      35.381  31.386  29.416  1.00  0.00     0.010 A 
ATOM     28  C   UNL A   1      36.747  33.375  29.158  1.00  0.00     0.010 A 
ATOM     29  C   UNL A   1      36.614  32.034  29.561  1.00  0.00    -0.014 A 
BRANCH  29  30
ATOM     30  C   UNL A   1      37.732  31.318  30.215  1.00  0.00     0.031 A 
ATOM     31  C   UNL A   1      38.020  31.562  31.667  1.00  0.00     0.074 A 
ATOM     32  C   UNL A   1      38.450  30.416  29.522  1.00  0.00     0.049 A 
ATOM     33  N   UNL A   1      38.984  31.085  32.411  1.00  0.00    -0.248 NA
ATOM     34  C   UNL A   1      37.095  32.459  32.378  1.00  0.00     0.031 C 
ATOM     35  C   UNL A   1      38.224  30.050  28.124  1.00  0.00     0.029 A 
ATOM     36  N   UNL A   1      39.514  29.642  29.905  1.00  0.00    -0.354 N 
ATOM     37  C   UNL A   1      38.793  31.635  33.672  1.00  0.00     0.074 A 
ATOM     38  C   UNL A   1      37.629  32.491  33.590  1.00  0.00     0.031 C 
ATOM     39  C   UNL A   1      39.124  29.119  27.767  1.00  0.00     0.029 A 
ATOM     40  C   UNL A   1      40.013  28.857  28.895  1.00  0.00     0.049 A 
ATOM     41  H   UNL A   1      39.886  29.648  30.817  1.00  0.00     0.167 HD
ATOM     42  C   UNL A   1      39.523  31.440  34.796  1.00  0.00     0.037 A 
ATOM     43  C   UNL A   1      41.082  28.039  28.878  1.00  0.00     0.037 A 
ATOM     44  C   UNL A   1      40.676  30.582  34.876  1.00  0.00     0.049 A 
ATOM     45  C   UNL A   1      41.914  27.889  30.121  1.00  0.00     0.074 A 
ATOM     46  C   UNL A   1      41.491  30.330  35.965  1.00  0.00     0.029 A 
ATOM     47  N   UNL A   1      41.173  29.832  33.822  1.00  0.00    -0.354 N 
ATOM     48  N   UNL A   1      41.742  28.436  31.301  1.00  0.00    -0.248 NA
ATOM     49  C   UNL A   1      43.092  27.015  30.029  1.00  0.00     0.031 C 
ATOM     50  C   UNL A   1      42.500  29.448  35.561  1.00  0.00     0.029 A 
ATOM     51  C   UNL A   1      42.290  29.125  34.230  1.00  0.00     0.049 A 
ATOM     52  H   UNL A   1      40.787  29.806  32.916  1.00  0.00     0.167 HD
ATOM     53  C   UNL A   1      42.778  27.961  32.094  1.00  0.00     0.074 A 
ATOM     54  C   UNL A   1      43.564  27.070  31.266  1.00  0.00     0.031 C 
ATOM     55  C   UNL A   1      43.056  28.240  33.391  1.00  0.00     0.037 A 
BRANCH  42  56
ATOM     56  C   UNL A   1      39.108  32.194  36.023  1.00  0.00     0.057 A 
ATOM     57  C   UNL A   1      38.249  31.636  36.978  1.00  0.00     0.134 A 
ATOM     58  C   UNL A   1      39.590  33.487  36.261  1.00  0.00     0.134 A 
ATOM     59  F   UNL A   1      37.740  30.407  36.797  1.00  0.00    -0.206 F 
ATOM     60  C   UNL A   1      37.870  32.344  38.119  1.00  0.00     0.040 A 
ATOM     61  C   UNL A   1      39.233  34.198  37.408  1.00  0.00     0.040 A 
ATOM     62  F   UNL A   1      40.415  34.078  35.385  1.00  0.00    -0.206 F 
ATOM     63  C   UNL A   1      38.368  33.628  38.338  1.00  0.00     0.006 A 
ENDBRANCH  42  56
BRANCH  43  64
ATOM     64  C   UNL A   1      41.446  27.320  27.633  1.00  0.00     0.057 A 
ATOM     65  C   UNL A   1      41.026  26.005  27.407  1.00  0.00     0.134 A 
ATOM     66  C   UNL A   1      42.233  27.926  26.647  1.00  0.00     0.134 A 
ATOM     67  F   UNL A   1      40.290  25.364  28.327  1.00  0.00    -0.206 F 
ATOM     68  C   UNL A   1      41.385  25.313  26.249  1.00  0.00     0.040 A 
ATOM     69  C   UNL A   1      42.581  27.254  25.475  1.00  0.00     0.040 A 
ATOM     70  F   UNL A   1      42.667  29.185  26.807  1.00  0.00    -0.206 F 
ATOM     71  C   UNL A   1      42.162  25.940  25.277  1.00  0.00     0.006 A 
ENDBRANCH  43  64
BRANCH  55  72
ATOM     72  C   UNL A   1      44.242  27.551  33.995  1.00  0.00     0.057 A 
ATOM     73  C   UNL A   1      44.140  26.276  34.565  1.00  0.00     0.134 A 
ATOM     74  C   UNL A   1      45.504  28.158  33.980  1.00  0.00     0.134 A 
ATOM     75  F   UNL A   1      42.955  25.650  34.622  1.00  0.00    -0.206 F 
ATOM     76  C   UNL A   1      45.250  25.636  35.117  1.00  0.00     0.040 A 
ATOM     77  C   UNL A   1      46.625  27.520  34.511  1.00  0.00     0.040 A 
ATOM     78  F   UNL A   1      45.667  29.376  33.442  1.00  0.00    -0.206 F 
ATOM     79  C   UNL A   1      46.498  26.257  35.086  1.00  0.00     0.006 A 
ENDBRANCH  55  72
ENDBRANCH  29  30
ENDBRANCH  22  24
ENDBRANCH  21  22
ENDBRANCH  20  21
ENDBRANCH   1  20
TORSDOF 16
ENDMDL
MODEL 3
REMARK VINA RESULT:      -9.8      1.179      2.337
REMARK SMILES CC(C)C[C@@H](CNC(=O)[C@@H]1CCOC1)C(=O)OCCOC(=O)c1ccc(-c2c3nc(c(-c4c(F)cccc4F)c4ccc([nH]4)c(-c4c(F)cccc4F)c4nc(c(-c5c(F)cccc5F)c5ccc2[nH]5)C=C4)C=C3)cc1
REMARK SMILES IDX 18 1 17 2 15 3 16 4 5 5 4 6 2 7 1 8 3 9 6 10 7 11 8 12 9 14
REMARK SMILES IDX 10 15 11 16 14 17 12 18 13 19 19 20 20 21 21 22 22 23 23 24
REMARK SMILES IDX 24 25 76 26 25 27 75 28 26 29 27 30 28 31 69 32 29 33 74 34
REMARK SMILES IDX 68 35 70 36 30 37 73 38 67 39 66 40 31 42 57 43 40 44 56 45
REMARK SMILES IDX 41 46 44 47 55 48 71 49 42 50 43 51 54 53 72 54 45 55 32 56
REMARK SMILES IDX 33 57 38 58 34 59 35 60 37 61 39 62 36 63 58 64 59 65 64 66
REMARK SMILES IDX 60 67 61 68 63 69 65 70 62 71 46 72 47 73 52 74 48 75 49 76
REMARK SMILES IDX 51 77 53 78 50 79
REMARK H PARENT 7 13 70 41 44 52
REMARK Flexibility Score: inf
ROOT
ATOM      1  C   UNL A   1      31.736  31.587  26.714  1.00  0.00     0.274 C 
ENDROOT
BRANCH   1   2
ATOM      2  O   UNL A   1      32.303  30.540  25.904  1.00  0.00    -0.462 OA
BRANCH   2   3
ATOM      3  C   UNL A   1      31.856  29.283  26.146  1.00  0.00     0.310 C 
ATOM      4  O   UNL A   1      31.503  28.864  27.244  1.00  0.00    -0.252 OA
BRANCH   3   5
ATOM      5  C   UNL A   1      31.881  28.389  24.920  1.00  0.00     0.118 C 
BRANCH   5   6
ATOM      6  C   UNL A   1      31.026  28.901  23.747  1.00  0.00     0.020 C 
BRANCH   6   7
ATOM      7  C   UNL A   1      29.983  27.894  23.210  1.00  0.00    -0.017 C 
ATOM      8  C   UNL A   1      29.788  26.690  24.134  1.00  0.00     0.007 C 
ATOM      9  C   UNL A   1      28.638  28.599  23.011  1.00  0.00     0.007 C 
ENDBRANCH   6   7
ENDBRANCH   5   6
BRANCH   5  10
ATOM     10  C   UNL A   1      33.331  28.054  24.565  1.00  0.00     0.131 C 
BRANCH  10  11
ATOM     11  N   UNL A   1      33.507  27.582  23.204  1.00  0.00    -0.355 N 
ATOM     12  C   UNL A   1      33.492  26.299  22.730  1.00  0.00     0.225 C 
ATOM     13  H   UNL A   1      33.658  28.281  22.528  1.00  0.00     0.163 HD
ATOM     14  O   UNL A   1      33.751  26.117  21.541  1.00  0.00    -0.275 OA
BRANCH  12  15
ATOM     15  C   UNL A   1      33.183  25.158  23.692  1.00  0.00     0.106 C 
ATOM     16  C   UNL A   1      34.406  24.674  24.443  1.00  0.00     0.044 C 
ATOM     17  C   UNL A   1      32.746  23.909  22.940  1.00  0.00     0.173 C 
ATOM     18  C   UNL A   1      34.988  23.649  23.496  1.00  0.00     0.161 C 
ATOM     19  O   UNL A   1      33.868  23.018  22.864  1.00  0.00    -0.381 OA
ENDBRANCH  12  15
ENDBRANCH  10  11
ENDBRANCH   5  10
ENDBRANCH   3   5
ENDBRANCH   2   3
ENDBRANCH   1   2
BRANCH   1  20
ATOM     20  C   UNL A   1      32.775  32.649  27.087  1.00  0.00     0.275 C 
BRANCH  20  21
ATOM     21  O   UNL A   1      32.168  33.779  27.740  1.00  0.00    -0.458 OA
BRANCH  21  22
ATOM     22  C   UNL A   1      33.025  34.567  28.430  1.00  0.00     0.338 C 
ATOM     23  O   UNL A   1      32.845  35.711  28.808  1.00  0.00    -0.246 OA
BRANCH  22  24
ATOM     24  C   UNL A   1      34.209  33.786  28.816  1.00  0.00     0.060 A 
ATOM     25  C   UNL A   1      34.005  32.629  29.570  1.00  0.00     0.016 A 
ATOM     26  C   UNL A   1      35.500  34.231  28.534  1.00  0.00     0.016 A 
ATOM     27  C   UNL A   1      35.088  31.903  30.048  1.00  0.00     0.010 A 
ATOM     28  C   UNL A   1      36.593  33.507  29.024  1.00  0.00     0.010 A 
ATOM     29  C   UNL A   1      36.391  32.347  29.793  1.00  0.00    -0.014 A 
BRANCH  29  30
ATOM     30  C   UNL A   1      37.531  31.630  30.408  1.00  0.00     0.031 A 
ATOM     31  C   UNL A   1      37.887  31.899  31.841  1.00  0.00     0.074 A 
ATOM     32  C   UNL A   1      38.206  30.707  29.702  1.00  0.00     0.049 A 
ATOM     33  N   UNL A   1      38.879  31.425  32.550  1.00  0.00    -0.248 NA
ATOM     34  C   UNL A   1      37.005  32.821  32.576  1.00  0.00     0.031 C 
ATOM     35  C   UNL A   1      37.912  30.317  28.324  1.00  0.00     0.029 A 
ATOM     36  N   UNL A   1      39.278  29.928  30.052  1.00  0.00    -0.354 N 
ATOM     37  C   UNL A   1      38.752  32.001  33.808  1.00  0.00     0.074 A 
ATOM     38  C   UNL A   1      37.595  32.869  33.762  1.00  0.00     0.031 C 
ATOM     39  C   UNL A   1      38.785  29.369  27.944  1.00  0.00     0.029 A 
ATOM     40  C   UNL A   1      39.722  29.118  29.035  1.00  0.00     0.049 A 
ATOM     41  H   UNL A   1      39.691  29.947  30.945  1.00  0.00     0.167 HD
ATOM     42  C   UNL A   1      39.529  31.820  34.900  1.00  0.00     0.037 A 
ATOM     43  C   UNL A   1      40.780  28.288  28.986  1.00  0.00     0.037 A 
ATOM     44  C   UNL A   1      40.676  30.950  34.945  1.00  0.00     0.049 A 
ATOM     45  C   UNL A   1      41.666  28.152  30.193  1.00  0.00     0.074 A 
ATOM     46  C   UNL A   1      41.537  30.709  36.000  1.00  0.00     0.029 A 
ATOM     47  N   UNL A   1      41.116  30.174  33.884  1.00  0.00    -0.354 N 
ATOM     48  N   UNL A   1      41.554  28.723  31.368  1.00  0.00    -0.248 NA
ATOM     49  C   UNL A   1      42.829  27.263  30.065  1.00  0.00     0.031 C 
ATOM     50  C   UNL A   1      42.517  29.808  35.569  1.00  0.00     0.029 A 
ATOM     51  C   UNL A   1      42.243  29.462  34.255  1.00  0.00     0.049 A 
ATOM     52  H   UNL A   1      40.689  30.135  32.997  1.00  0.00     0.167 HD
ATOM     53  C   UNL A   1      42.620  28.251  32.123  1.00  0.00     0.074 A 
ATOM     54  C   UNL A   1      43.358  27.335  31.278  1.00  0.00     0.031 C 
ATOM     55  C   UNL A   1      42.960  28.552  33.400  1.00  0.00     0.037 A 
BRANCH  42  56
ATOM     56  C   UNL A   1      39.180  32.602  36.129  1.00  0.00     0.057 A 
ATOM     57  C   UNL A   1      38.332  32.085  37.118  1.00  0.00     0.134 A 
ATOM     58  C   UNL A   1      39.713  33.880  36.336  1.00  0.00     0.134 A 
ATOM     59  F   UNL A   1      37.776  30.873  36.969  1.00  0.00    -0.206 F 
ATOM     60  C   UNL A   1      38.014  32.819  38.261  1.00  0.00     0.040 A 
ATOM     61  C   UNL A   1      39.417  34.617  37.485  1.00  0.00     0.040 A 
ATOM     62  F   UNL A   1      40.530  34.432  35.428  1.00  0.00    -0.206 F 
ATOM     63  C   UNL A   1      38.561  34.087  38.448  1.00  0.00     0.006 A 
ENDBRANCH  42  56
BRANCH  43  64
ATOM     64  C   UNL A   1      41.079  27.540  27.740  1.00  0.00     0.057 A 
ATOM     65  C   UNL A   1      41.877  28.097  26.736  1.00  0.00     0.134 A 
ATOM     66  C   UNL A   1      40.563  26.258  27.520  1.00  0.00     0.134 A 
ATOM     67  F   UNL A   1      42.380  29.332  26.880  1.00  0.00    -0.206 F 
ATOM     68  C   UNL A   1      42.143  27.410  25.550  1.00  0.00     0.040 A 
ATOM     69  C   UNL A   1      40.838  25.551  26.350  1.00  0.00     0.040 A 
ATOM     70  F   UNL A   1      39.789  25.672  28.446  1.00  0.00    -0.206 F 
ATOM     71  C   UNL A   1      41.625  26.131  25.357  1.00  0.00     0.006 A 
ENDBRANCH  43  64
BRANCH  55  72
ATOM     72  C   UNL A   1      44.165  27.861  33.963  1.00  0.00     0.057 A 
ATOM     73  C   UNL A   1      44.073  26.606  34.576  1.00  0.00     0.134 A 
ATOM     74  C   UNL A   1      45.434  28.445  33.863  1.00  0.00     0.134 A 
ATOM     75  F   UNL A   1      42.883  26.003  34.714  1.00  0.00    -0.206 F 
ATOM     76  C   UNL A   1      45.200  25.964  35.090  1.00  0.00     0.040 A 
ATOM     77  C   UNL A   1      46.571  27.804  34.356  1.00  0.00     0.040 A 
ATOM     78  F   UNL A   1      45.588  29.644  33.281  1.00  0.00    -0.206 F 
ATOM     79  C   UNL A   1      46.455  26.561  34.975  1.00  0.00     0.006 A 
ENDBRANCH  55  72
ENDBRANCH  29  30
ENDBRANCH  22  24
ENDBRANCH  21  22
ENDBRANCH  20  21
ENDBRANCH   1  20
TORSDOF 16
ENDMDL
