MODEL 1
REMARK VINA RESULT:     -10.6      0.000      0.000
REMARK SMILES O=C(OCCOC(=O)c1cc(-c2ccccc2)ccc1F)c1ccc(-c2c3nc(c(-c4c(F)cccc4F)c4ccc([nH]4)c(-c4c(F)cccc4F)c4nc(c(-c5c(F)cccc5F)c5ccc2[nH]5)C=C4)C=C3)cc1
REMARK SMILES IDX 4 1 3 2 2 3 1 4 22 5 23 6 75 7 24 8 74 9 25 10 26 11 27 12
REMARK SMILES IDX 68 13 28 14 73 15 67 16 69 17 29 18 72 19 66 20 65 21 30 23
REMARK SMILES IDX 56 24 39 25 55 26 40 27 43 28 54 29 70 30 41 31 42 32 53 34
REMARK SMILES IDX 71 35 44 36 31 37 32 38 37 39 33 40 34 41 36 42 38 43 35 44
REMARK SMILES IDX 57 45 58 46 63 47 59 48 60 49 62 50 64 51 61 52 45 53 46 54
REMARK SMILES IDX 51 55 47 56 48 57 50 58 52 59 49 60 5 61 6 62 7 63 8 64 9 65
REMARK SMILES IDX 10 66 20 67 11 68 19 69 21 70 18 71 12 72 13 73 17 74 14 75
REMARK SMILES IDX 16 76 15 77
REMARK H PARENT 69 22 43 33
REMARK Flexibility Score: inf
ROOT
ATOM      1  C   UNL A   1      33.038  36.196  30.579  1.00  0.00     0.275 C 
ENDROOT
BRANCH   1   2
ATOM      2  O   UNL A   1      32.470  35.325  29.588  1.00  0.00    -0.458 OA
BRANCH   2   3
ATOM      3  C   UNL A   1      33.075  34.422  28.784  1.00  0.00     0.338 C 
ATOM      4  O   UNL A   1      32.494  34.048  27.765  1.00  0.00    -0.246 OA
BRANCH   3   5
ATOM      5  C   UNL A   1      34.355  33.730  29.134  1.00  0.00     0.060 A 
ATOM      6  C   UNL A   1      34.494  32.513  29.798  1.00  0.00     0.016 A 
ATOM      7  C   UNL A   1      35.529  34.405  28.763  1.00  0.00     0.016 A 
ATOM      8  C   UNL A   1      35.758  31.951  30.009  1.00  0.00     0.010 A 
ATOM      9  C   UNL A   1      36.795  33.841  28.943  1.00  0.00     0.010 A 
ATOM     10  C   UNL A   1      36.917  32.602  29.575  1.00  0.00    -0.014 A 
BRANCH  10  11
ATOM     11  C   UNL A   1      38.247  32.023  29.881  1.00  0.00     0.031 A 
ATOM     12  C   UNL A   1      39.167  32.757  30.814  1.00  0.00     0.074 A 
ATOM     13  C   UNL A   1      38.596  30.821  29.382  1.00  0.00     0.049 A 
ATOM     14  N   UNL A   1      40.308  32.365  31.318  1.00  0.00    -0.248 NA
ATOM     15  C   UNL A   1      38.739  34.092  31.261  1.00  0.00     0.031 C 
ATOM     16  C   UNL A   1      37.764  30.005  28.499  1.00  0.00     0.029 A 
ATOM     17  N   UNL A   1      39.731  30.071  29.550  1.00  0.00    -0.354 N 
ATOM     18  C   UNL A   1      40.702  33.378  32.181  1.00  0.00     0.074 A 
ATOM     19  C   UNL A   1      39.729  34.441  32.068  1.00  0.00     0.031 C 
ATOM     20  C   UNL A   1      38.423  28.879  28.181  1.00  0.00     0.029 A 
ATOM     21  C   UNL A   1      39.716  28.883  28.857  1.00  0.00     0.049 A 
ATOM     22  H   UNL A   1      40.486  30.355  30.114  1.00  0.00     0.167 HD
ATOM     23  C   UNL A   1      41.752  33.396  33.033  1.00  0.00     0.037 A 
ATOM     24  C   UNL A   1      40.633  27.898  28.794  1.00  0.00     0.037 A 
ATOM     25  C   UNL A   1      42.722  32.342  33.131  1.00  0.00     0.049 A 
ATOM     26  C   UNL A   1      41.854  27.997  29.666  1.00  0.00     0.074 A 
ATOM     27  C   UNL A   1      43.825  32.260  33.959  1.00  0.00     0.029 A 
ATOM     28  N   UNL A   1      42.706  31.186  32.363  1.00  0.00    -0.354 N 
ATOM     29  N   UNL A   1      42.177  28.932  30.527  1.00  0.00    -0.248 NA
ATOM     30  C   UNL A   1      42.821  26.893  29.585  1.00  0.00     0.031 C 
ATOM     31  C   UNL A   1      44.501  31.072  33.665  1.00  0.00     0.029 A 
ATOM     32  C   UNL A   1      43.795  30.395  32.682  1.00  0.00     0.049 A 
ATOM     33  H   UNL A   1      42.021  30.963  31.692  1.00  0.00     0.167 HD
ATOM     34  C   UNL A   1      43.360  28.512  31.120  1.00  0.00     0.074 A 
ATOM     35  C   UNL A   1      43.694  27.234  30.523  1.00  0.00     0.031 C 
ATOM     36  C   UNL A   1      44.100  29.124  32.076  1.00  0.00     0.037 A 
BRANCH  23  37
ATOM     37  C   UNL A   1      41.880  34.580  33.941  1.00  0.00     0.057 A 
ATOM     38  C   UNL A   1      41.325  34.572  35.226  1.00  0.00     0.134 A 
ATOM     39  C   UNL A   1      42.533  35.748  33.523  1.00  0.00     0.134 A 
ATOM     40  F   UNL A   1      40.690  33.485  35.686  1.00  0.00    -0.206 F 
ATOM     41  C   UNL A   1      41.409  35.688  36.061  1.00  0.00     0.040 A 
ATOM     42  C   UNL A   1      42.640  36.863  34.355  1.00  0.00     0.040 A 
ATOM     43  F   UNL A   1      43.102  35.811  32.309  1.00  0.00    -0.206 F 
ATOM     44  C   UNL A   1      42.070  36.836  35.626  1.00  0.00     0.006 A 
ENDBRANCH  23  37
BRANCH  24  45
ATOM     45  C   UNL A   1      40.410  26.719  27.918  1.00  0.00     0.057 A 
ATOM     46  C   UNL A   1      41.009  26.630  26.654  1.00  0.00     0.134 A 
ATOM     47  C   UNL A   1      39.609  25.645  28.325  1.00  0.00     0.134 A 
ATOM     48  F   UNL A   1      41.782  27.627  26.199  1.00  0.00    -0.206 F 
ATOM     49  C   UNL A   1      40.821  25.518  25.830  1.00  0.00     0.040 A 
ATOM     50  C   UNL A   1      39.429  24.518  27.520  1.00  0.00     0.040 A 
ATOM     51  F   UNL A   1      39.019  25.664  29.529  1.00  0.00    -0.206 F 
ATOM     52  C   UNL A   1      40.035  24.454  26.267  1.00  0.00     0.006 A 
ENDBRANCH  24  45
BRANCH  36  53
ATOM     53  C   UNL A   1      45.332  28.415  32.549  1.00  0.00     0.057 A 
ATOM     54  C   UNL A   1      46.563  28.623  31.914  1.00  0.00     0.134 A 
ATOM     55  C   UNL A   1      45.285  27.474  33.584  1.00  0.00     0.134 A 
ATOM     56  F   UNL A   1      46.670  29.504  30.908  1.00  0.00    -0.206 F 
ATOM     57  C   UNL A   1      47.702  27.907  32.283  1.00  0.00     0.040 A 
ATOM     58  C   UNL A   1      46.423  26.772  33.980  1.00  0.00     0.040 A 
ATOM     59  F   UNL A   1      44.137  27.240  34.239  1.00  0.00    -0.206 F 
ATOM     60  C   UNL A   1      47.633  26.981  33.322  1.00  0.00     0.006 A 
ENDBRANCH  36  53
ENDBRANCH  10  11
ENDBRANCH   3   5
ENDBRANCH   2   3
ENDBRANCH   1   2
BRANCH   1  61
ATOM     61  C   UNL A   1      33.069  35.624  31.997  1.00  0.00     0.275 C 
BRANCH  61  62
ATOM     62  O   UNL A   1      34.234  34.834  32.270  1.00  0.00    -0.458 OA
BRANCH  62  63
ATOM     63  C   UNL A   1      34.028  33.739  33.048  1.00  0.00     0.341 C 
ATOM     64  O   UNL A   1      32.997  33.094  33.143  1.00  0.00    -0.246 OA
BRANCH  63  65
ATOM     65  C   UNL A   1      35.287  33.341  33.693  1.00  0.00     0.096 A 
ATOM     66  C   UNL A   1      35.941  32.174  33.264  1.00  0.00     0.027 A 
ATOM     67  C   UNL A   1      35.828  34.101  34.723  1.00  0.00     0.137 A 
ATOM     68  C   UNL A   1      37.172  31.797  33.829  1.00  0.00    -0.017 A 
ATOM     69  C   UNL A   1      37.033  33.733  35.309  1.00  0.00     0.041 A 
ATOM     70  F   UNL A   1      35.205  35.202  35.171  1.00  0.00    -0.206 F 
ATOM     71  C   UNL A   1      37.707  32.596  34.854  1.00  0.00     0.012 A 
BRANCH  68  72
ATOM     72  C   UNL A   1      37.895  30.599  33.377  1.00  0.00    -0.018 A 
ATOM     73  C   UNL A   1      39.229  30.360  33.740  1.00  0.00     0.009 A 
ATOM     74  C   UNL A   1      37.250  29.635  32.589  1.00  0.00     0.009 A 
ATOM     75  C   UNL A   1      39.901  29.205  33.332  1.00  0.00     0.001 A 
ATOM     76  C   UNL A   1      37.918  28.477  32.178  1.00  0.00     0.001 A 
ATOM     77  C   UNL A   1      39.244  28.264  32.549  1.00  0.00     0.000 A 
ENDBRANCH  68  72
ENDBRANCH  63  65
ENDBRANCH  62  63
ENDBRANCH  61  62
ENDBRANCH   1  61
TORSDOF 12
ENDMDL
MODEL 2
REMARK VINA RESULT:     -10.4      5.360     11.086
REMARK SMILES O=C(OCCOC(=O)c1cc(-c2ccccc2)ccc1F)c1ccc(-c2c3nc(c(-c4c(F)cccc4F)c4ccc([nH]4)c(-c4c(F)cccc4F)c4nc(c(-c5c(F)cccc5F)c5ccc2[nH]5)C=C4)C=C3)cc1
REMARK SMILES IDX 4 1 3 2 2 3 1 4 22 5 23 6 75 7 24 8 74 9 25 10 26 11 27 12
REMARK SMILES IDX 68 13 28 14 73 15 67 16 69 17 29 18 72 19 66 20 65 21 30 23
REMARK SMILES IDX 56 24 39 25 55 26 40 27 43 28 54 29 70 30 41 31 42 32 53 34
REMARK SMILES IDX 71 35 44 36 31 37 32 38 37 39 33 40 34 41 36 42 38 43 35 44
REMARK SMILES IDX 57 45 58 46 63 47 59 48 60 49 62 50 64 51 61 52 45 53 46 54
REMARK SMILES IDX 51 55 47 56 48 57 50 58 52 59 49 60 5 61 6 62 7 63 8 64 9 65
REMARK SMILES IDX 10 66 20 67 11 68 19 69 21 70 18 71 12 72 13 73 17 74 14 75
REMARK SMILES IDX 16 76 15 77
REMARK H PARENT 69 22 43 33
REMARK Flexibility Score: inf
ROOT
ATOM      1  C   UNL A   1      43.806  19.004  25.289  1.00  0.00     0.275 C 
ENDROOT
BRANCH   1   2
ATOM      2  O   UNL A   1      42.374  19.001  25.171  1.00  0.00    -0.458 OA
BRANCH   2   3
ATOM      3  C   UNL A   1      41.447  19.669  25.896  1.00  0.00     0.338 C 
ATOM      4  O   UNL A   1      40.277  19.287  25.862  1.00  0.00    -0.246 OA
BRANCH   3   5
ATOM      5  C   UNL A   1      41.730  20.943  26.628  1.00  0.00     0.060 A 
ATOM      6  C   UNL A   1      42.004  21.083  27.987  1.00  0.00     0.016 A 
ATOM      7  C   UNL A   1      41.688  22.111  25.850  1.00  0.00     0.016 A 
ATOM      8  C   UNL A   1      42.309  22.337  28.532  1.00  0.00     0.010 A 
ATOM      9  C   UNL A   1      42.018  23.362  26.376  1.00  0.00     0.010 A 
ATOM     10  C   UNL A   1      42.330  23.484  27.731  1.00  0.00    -0.014 A 
BRANCH  10  11
ATOM     11  C   UNL A   1      42.579  24.808  28.348  1.00  0.00     0.031 A 
ATOM     12  C   UNL A   1      43.974  25.167  28.770  1.00  0.00     0.074 A 
ATOM     13  C   UNL A   1      41.577  25.701  28.467  1.00  0.00     0.049 A 
ATOM     14  N   UNL A   1      44.432  26.314  29.202  1.00  0.00    -0.248 NA
ATOM     15  C   UNL A   1      44.996  24.112  28.669  1.00  0.00     0.031 C 
ATOM     16  C   UNL A   1      40.194  25.472  28.055  1.00  0.00     0.029 A 
ATOM     17  N   UNL A   1      41.566  26.982  28.957  1.00  0.00    -0.354 N 
ATOM     18  C   UNL A   1      45.798  26.131  29.368  1.00  0.00     0.074 A 
ATOM     19  C   UNL A   1      46.084  24.745  29.078  1.00  0.00     0.031 C 
ATOM     20  C   UNL A   1      39.460  26.562  28.330  1.00  0.00     0.029 A 
ATOM     21  C   UNL A   1      40.326  27.578  28.918  1.00  0.00     0.049 A 
ATOM     22  H   UNL A   1      42.369  27.433  29.304  1.00  0.00     0.167 HD
ATOM     23  C   UNL A   1      46.737  27.053  29.679  1.00  0.00     0.037 A 
ATOM     24  C   UNL A   1      39.939  28.812  29.292  1.00  0.00     0.037 A 
ATOM     25  C   UNL A   1      46.443  28.427  29.979  1.00  0.00     0.049 A 
ATOM     26  C   UNL A   1      40.991  29.786  29.749  1.00  0.00     0.074 A 
ATOM     27  C   UNL A   1      47.320  29.443  30.309  1.00  0.00     0.029 A 
ATOM     28  N   UNL A   1      45.168  28.972  29.991  1.00  0.00    -0.354 N 
ATOM     29  N   UNL A   1      42.288  29.617  29.835  1.00  0.00    -0.248 NA
ATOM     30  C   UNL A   1      40.533  31.130  30.130  1.00  0.00     0.031 C 
ATOM     31  C   UNL A   1      46.571  30.596  30.561  1.00  0.00     0.029 A 
ATOM     32  C   UNL A   1      45.231  30.307  30.348  1.00  0.00     0.049 A 
ATOM     33  H   UNL A   1      44.341  28.482  29.778  1.00  0.00     0.167 HD
ATOM     34  C   UNL A   1      42.807  30.840  30.239  1.00  0.00     0.074 A 
ATOM     35  C   UNL A   1      41.682  31.744  30.374  1.00  0.00     0.031 C 
ATOM     36  C   UNL A   1      44.096  31.186  30.469  1.00  0.00     0.037 A 
BRANCH  23  37
ATOM     37  C   UNL A   1      48.166  26.605  29.680  1.00  0.00     0.057 A 
ATOM     38  C   UNL A   1      48.966  26.728  28.539  1.00  0.00     0.134 A 
ATOM     39  C   UNL A   1      48.741  26.018  30.817  1.00  0.00     0.134 A 
ATOM     40  F   UNL A   1      48.476  27.282  27.421  1.00  0.00    -0.206 F 
ATOM     41  C   UNL A   1      50.287  26.275  28.525  1.00  0.00     0.040 A 
ATOM     42  C   UNL A   1      50.065  25.579  30.821  1.00  0.00     0.040 A 
ATOM     43  F   UNL A   1      48.031  25.889  31.948  1.00  0.00    -0.206 F 
ATOM     44  C   UNL A   1      50.840  25.701  29.670  1.00  0.00     0.006 A 
ENDBRANCH  23  37
BRANCH  24  45
ATOM     45  C   UNL A   1      38.512  29.212  29.203  1.00  0.00     0.057 A 
ATOM     46  C   UNL A   1      37.675  29.171  30.327  1.00  0.00     0.134 A 
ATOM     47  C   UNL A   1      37.950  29.659  28.002  1.00  0.00     0.134 A 
ATOM     48  F   UNL A   1      38.147  28.745  31.508  1.00  0.00    -0.206 F 
ATOM     49  C   UNL A   1      36.336  29.562  30.259  1.00  0.00     0.040 A 
ATOM     50  C   UNL A   1      36.618  30.072  27.924  1.00  0.00     0.040 A 
ATOM     51  F   UNL A   1      38.701  29.733  26.893  1.00  0.00    -0.206 F 
ATOM     52  C   UNL A   1      35.806  30.022  29.055  1.00  0.00     0.006 A 
ENDBRANCH  24  45
BRANCH  36  53
ATOM     53  C   UNL A   1      44.364  32.604  30.875  1.00  0.00     0.057 A 
ATOM     54  C   UNL A   1      44.318  32.980  32.223  1.00  0.00     0.134 A 
ATOM     55  C   UNL A   1      44.595  33.606  29.926  1.00  0.00     0.134 A 
ATOM     56  F   UNL A   1      44.090  32.067  33.178  1.00  0.00    -0.206 F 
ATOM     57  C   UNL A   1      44.478  34.310  32.612  1.00  0.00     0.040 A 
ATOM     58  C   UNL A   1      44.784  34.935  30.305  1.00  0.00     0.040 A 
ATOM     59  F   UNL A   1      44.663  33.305  28.620  1.00  0.00    -0.206 F 
ATOM     60  C   UNL A   1      44.715  35.291  31.651  1.00  0.00     0.006 A 
ENDBRANCH  36  53
ENDBRANCH  10  11
ENDBRANCH   3   5
ENDBRANCH   2   3
ENDBRANCH   1   2
BRANCH   1  61
ATOM     61  C   UNL A   1      44.530  19.931  24.312  1.00  0.00     0.275 C 
BRANCH  61  62
ATOM     62  O   UNL A   1      44.696  21.266  24.805  1.00  0.00    -0.458 OA
BRANCH  62  63
ATOM     63  C   UNL A   1      44.631  22.248  23.868  1.00  0.00     0.341 C 
ATOM     64  O   UNL A   1      44.088  22.181  22.777  1.00  0.00    -0.246 OA
BRANCH  63  65
ATOM     65  C   UNL A   1      45.211  23.488  24.401  1.00  0.00     0.096 A 
ATOM     66  C   UNL A   1      44.366  24.567  24.708  1.00  0.00     0.027 A 
ATOM     67  C   UNL A   1      46.583  23.602  24.596  1.00  0.00     0.137 A 
ATOM     68  C   UNL A   1      44.889  25.747  25.267  1.00  0.00    -0.017 A 
ATOM     69  C   UNL A   1      47.121  24.768  25.127  1.00  0.00     0.041 A 
ATOM     70  F   UNL A   1      47.413  22.596  24.280  1.00  0.00    -0.206 F 
ATOM     71  C   UNL A   1      46.277  25.827  25.474  1.00  0.00     0.012 A 
BRANCH  68  72
ATOM     72  C   UNL A   1      44.025  26.880  25.628  1.00  0.00    -0.018 A 
ATOM     73  C   UNL A   1      44.507  27.970  26.369  1.00  0.00     0.009 A 
ATOM     74  C   UNL A   1      42.688  26.917  25.207  1.00  0.00     0.009 A 
ATOM     75  C   UNL A   1      43.688  29.057  26.683  1.00  0.00     0.001 A 
ATOM     76  C   UNL A   1      41.865  28.003  25.518  1.00  0.00     0.001 A 
ATOM     77  C   UNL A   1      42.365  29.072  26.258  1.00  0.00     0.000 A 
ENDBRANCH  68  72
ENDBRANCH  63  65
ENDBRANCH  62  63
ENDBRANCH  61  62
ENDBRANCH   1  61
TORSDOF 12
ENDMDL
MODEL 3
REMARK VINA RESULT:      -9.5      0.723      6.421
REMARK SMILES O=C(OCCOC(=O)c1cc(-c2ccccc2)ccc1F)c1ccc(-c2c3nc(c(-c4c(F)cccc4F)c4ccc([nH]4)c(-c4c(F)cccc4F)c4nc(c(-c5c(F)cccc5F)c5ccc2[nH]5)C=C4)C=C3)cc1
REMARK SMILES IDX 4 1 3 2 2 3 1 4 22 5 23 6 75 7 24 8 74 9 25 10 26 11 27 12
REMARK SMILES IDX 68 13 28 14 73 15 67 16 69 17 29 18 72 19 66 20 65 21 30 23
REMARK SMILES IDX 56 24 39 25 55 26 40 27 43 28 54 29 70 30 41 31 42 32 53 34
REMARK SMILES IDX 71 35 44 36 31 37 32 38 37 39 33 40 34 41 36 42 38 43 35 44
REMARK SMILES IDX 57 45 58 46 63 47 59 48 60 49 62 50 64 51 61 52 45 53 46 54
REMARK SMILES IDX 51 55 47 56 48 57 50 58 52 59 49 60 5 61 6 62 7 63 8 64 9 65
REMARK SMILES IDX 10 66 20 67 11 68 19 69 21 70 18 71 12 72 13 73 17 74 14 75
REMARK SMILES IDX 16 76 15 77
REMARK H PARENT 69 22 43 33
REMARK Flexibility Score: inf
ROOT
ATOM      1  C   UNL A   1      33.032  36.024  30.284  1.00  0.00     0.275 C 
ENDROOT
BRANCH   1   2
ATOM      2  O   UNL A   1      32.557  35.242  29.176  1.00  0.00    -0.458 OA
BRANCH   2   3
ATOM      3  C   UNL A   1      33.136  34.193  28.549  1.00  0.00     0.338 C 
ATOM      4  O   UNL A   1      32.533  33.645  27.626  1.00  0.00    -0.246 OA
BRANCH   3   5
ATOM      5  C   UNL A   1      34.411  33.557  29.007  1.00  0.00     0.060 A 
ATOM      6  C   UNL A   1      34.545  32.349  29.689  1.00  0.00     0.016 A 
ATOM      7  C   UNL A   1      35.582  34.279  28.728  1.00  0.00     0.016 A 
ATOM      8  C   UNL A   1      35.810  31.841  30.007  1.00  0.00     0.010 A 
ATOM      9  C   UNL A   1      36.851  33.768  29.015  1.00  0.00     0.010 A 
ATOM     10  C   UNL A   1      36.973  32.539  29.663  1.00  0.00    -0.014 A 
BRANCH  10  11
ATOM     11  C   UNL A   1      38.296  32.016  30.081  1.00  0.00     0.031 A 
ATOM     12  C   UNL A   1      38.731  30.662  29.601  1.00  0.00     0.074 A 
ATOM     13  C   UNL A   1      39.121  32.776  30.827  1.00  0.00     0.049 A 
ATOM     14  N   UNL A   1      39.894  30.078  29.735  1.00  0.00    -0.248 NA
ATOM     15  C   UNL A   1      37.744  29.870  28.848  1.00  0.00     0.031 C 
ATOM     16  C   UNL A   1      38.816  34.120  31.314  1.00  0.00     0.029 A 
ATOM     17  N   UNL A   1      40.387  32.536  31.296  1.00  0.00    -0.354 N 
ATOM     18  C   UNL A   1      39.793  28.882  29.038  1.00  0.00     0.074 A 
ATOM     19  C   UNL A   1      38.434  28.778  28.558  1.00  0.00     0.031 C 
ATOM     20  C   UNL A   1      39.852  34.578  32.035  1.00  0.00     0.029 A 
ATOM     21  C   UNL A   1      40.906  33.570  32.041  1.00  0.00     0.049 A 
ATOM     22  H   UNL A   1      40.880  31.702  31.117  1.00  0.00     0.167 HD
ATOM     23  C   UNL A   1      40.764  27.978  28.775  1.00  0.00     0.037 A 
ATOM     24  C   UNL A   1      42.105  33.697  32.641  1.00  0.00     0.037 A 
ATOM     25  C   UNL A   1      42.109  28.081  29.267  1.00  0.00     0.049 A 
ATOM     26  C   UNL A   1      43.131  32.618  32.430  1.00  0.00     0.074 A 
ATOM     27  C   UNL A   1      43.170  27.220  29.062  1.00  0.00     0.029 A 
ATOM     28  N   UNL A   1      42.574  29.111  30.073  1.00  0.00    -0.354 N 
ATOM     29  N   UNL A   1      43.041  31.526  31.711  1.00  0.00    -0.248 NA
ATOM     30  C   UNL A   1      44.435  32.803  33.083  1.00  0.00     0.031 C 
ATOM     31  C   UNL A   1      44.268  27.707  29.777  1.00  0.00     0.029 A 
ATOM     32  C   UNL A   1      43.902  28.894  30.394  1.00  0.00     0.049 A 
ATOM     33  H   UNL A   1      42.038  29.881  30.371  1.00  0.00     0.167 HD
ATOM     34  C   UNL A   1      44.285  30.913  31.791  1.00  0.00     0.074 A 
ATOM     35  C   UNL A   1      45.114  31.761  32.624  1.00  0.00     0.031 C 
ATOM     36  C   UNL A   1      44.705  29.758  31.220  1.00  0.00     0.037 A 
BRANCH  23  37
ATOM     37  C   UNL A   1      40.405  26.821  27.894  1.00  0.00     0.057 A 
ATOM     38  C   UNL A   1      39.623  25.763  28.369  1.00  0.00     0.134 A 
ATOM     39  C   UNL A   1      40.867  26.746  26.572  1.00  0.00     0.134 A 
ATOM     40  F   UNL A   1      39.149  25.777  29.623  1.00  0.00    -0.206 F 
ATOM     41  C   UNL A   1      39.320  24.664  27.563  1.00  0.00     0.040 A 
ATOM     42  C   UNL A   1      40.555  25.662  25.751  1.00  0.00     0.040 A 
ATOM     43  F   UNL A   1      41.606  27.738  26.052  1.00  0.00    -0.206 F 
ATOM     44  C   UNL A   1      39.785  24.614  26.249  1.00  0.00     0.006 A 
ENDBRANCH  23  37
BRANCH  24  45
ATOM     45  C   UNL A   1      42.417  34.904  33.449  1.00  0.00     0.057 A 
ATOM     46  C   UNL A   1      43.077  36.004  32.885  1.00  0.00     0.134 A 
ATOM     47  C   UNL A   1      42.051  34.997  34.797  1.00  0.00     0.134 A 
ATOM     48  F   UNL A   1      43.463  35.978  31.601  1.00  0.00    -0.206 F 
ATOM     49  C   UNL A   1      43.360  37.151  33.631  1.00  0.00     0.040 A 
ATOM     50  C   UNL A   1      42.309  36.146  35.549  1.00  0.00     0.040 A 
ATOM     51  F   UNL A   1      41.405  33.984  35.391  1.00  0.00    -0.206 F 
ATOM     52  C   UNL A   1      42.967  37.227  34.966  1.00  0.00     0.006 A 
ENDBRANCH  24  45
BRANCH  36  53
ATOM     53  C   UNL A   1      46.127  29.351  31.462  1.00  0.00     0.057 A 
ATOM     54  C   UNL A   1      47.129  29.674  30.539  1.00  0.00     0.134 A 
ATOM     55  C   UNL A   1      46.488  28.577  32.571  1.00  0.00     0.134 A 
ATOM     56  F   UNL A   1      46.843  30.404  29.450  1.00  0.00    -0.206 F 
ATOM     57  C   UNL A   1      48.440  29.228  30.703  1.00  0.00     0.040 A 
ATOM     58  C   UNL A   1      47.801  28.148  32.760  1.00  0.00     0.040 A 
ATOM     59  F   UNL A   1      45.575  28.245  33.496  1.00  0.00    -0.206 F 
ATOM     60  C   UNL A   1      48.779  28.465  31.819  1.00  0.00     0.006 A 
ENDBRANCH  36  53
ENDBRANCH  10  11
ENDBRANCH   3   5
ENDBRANCH   2   3
ENDBRANCH   1   2
BRANCH   1  61
ATOM     61  C   UNL A   1      32.891  35.356  31.652  1.00  0.00     0.275 C 
BRANCH  61  62
ATOM     62  O   UNL A   1      34.098  34.734  32.112  1.00  0.00    -0.458 OA
BRANCH  62  63
ATOM     63  C   UNL A   1      33.930  33.709  32.988  1.00  0.00     0.341 C 
ATOM     64  O   UNL A   1      32.905  33.078  33.187  1.00  0.00    -0.246 OA
BRANCH  63  65
ATOM     65  C   UNL A   1      35.218  33.360  33.602  1.00  0.00     0.096 A 
ATOM     66  C   UNL A   1      35.856  32.164  33.233  1.00  0.00     0.027 A 
ATOM     67  C   UNL A   1      35.803  34.197  34.546  1.00  0.00     0.137 A 
ATOM     68  C   UNL A   1      37.113  31.831  33.767  1.00  0.00    -0.017 A 
ATOM     69  C   UNL A   1      37.036  33.873  35.102  1.00  0.00     0.041 A 
ATOM     70  F   UNL A   1      35.198  35.328  34.939  1.00  0.00    -0.206 F 
ATOM     71  C   UNL A   1      37.692  32.706  34.703  1.00  0.00     0.012 A 
BRANCH  68  72
ATOM     72  C   UNL A   1      37.819  30.603  33.374  1.00  0.00    -0.018 A 
ATOM     73  C   UNL A   1      37.171  29.567  32.683  1.00  0.00     0.009 A 
ATOM     74  C   UNL A   1      39.185  30.447  33.651  1.00  0.00     0.009 A 
ATOM     75  C   UNL A   1      37.855  28.416  32.285  1.00  0.00     0.001 A 
ATOM     76  C   UNL A   1      39.874  29.297  33.255  1.00  0.00     0.001 A 
ATOM     77  C   UNL A   1      39.208  28.281  32.574  1.00  0.00     0.000 A 
ENDBRANCH  68  72
ENDBRANCH  63  65
ENDBRANCH  62  63
ENDBRANCH  61  62
ENDBRANCH   1  61
TORSDOF 12
ENDMDL
