MODEL 1
REMARK VINA RESULT:     -11.0      0.000      0.000
REMARK SMILES CC1(C)C[C@@H]1[NH2+]Cc1ccc(C(=O)OCCOC(=O)c2ccc(-c3c4nc(c(-c5c(F)cccc5F)c5ccc([nH]5)c(-c5c(F)cccc5F)c5nc(c(-c6c(F)cccc6F)c6ccc3[nH]6)C=C5)C=C4)cc2)cn1
REMARK SMILES IDX 15 1 14 2 12 3 13 4 11 5 8 6 9 7 75 8 10 9 74 10 7 11 6 12
REMARK SMILES IDX 5 15 1 16 2 17 3 18 4 19 16 20 17 21 18 22 19 23 20 24 21 25
REMARK SMILES IDX 73 26 22 27 72 28 23 29 24 30 25 31 66 32 26 33 71 34 65 35
REMARK SMILES IDX 67 36 27 37 70 38 64 39 63 40 28 42 54 43 37 44 53 45 38 46
REMARK SMILES IDX 41 47 52 48 68 49 39 50 40 51 51 53 69 54 42 55 29 56 30 57
REMARK SMILES IDX 35 58 31 59 32 60 34 61 36 62 33 63 55 64 56 65 61 66 57 67
REMARK SMILES IDX 58 68 60 69 62 70 59 71 43 72 44 73 49 74 45 75 46 76 48 77
REMARK SMILES IDX 50 78 47 79
REMARK H PARENT 6 13 6 14 67 41 41 52
REMARK Flexibility Score: inf
ROOT
ATOM      1  C   UNL A   1      42.675  20.714  26.121  1.00  0.00     0.275 C 
ENDROOT
BRANCH   1   2
ATOM      2  O   UNL A   1      41.318  21.006  25.723  1.00  0.00    -0.458 OA
BRANCH   2   3
ATOM      3  C   UNL A   1      40.489  21.333  26.743  1.00  0.00     0.339 C 
ATOM      4  O   UNL A   1      40.735  21.240  27.933  1.00  0.00    -0.246 OA
BRANCH   3   5
ATOM      5  C   UNL A   1      39.238  21.932  26.256  1.00  0.00     0.078 A 
ATOM      6  C   UNL A   1      37.044  22.930  24.931  1.00  0.00     0.094 A 
ATOM      7  C   UNL A   1      37.686  23.721  25.890  1.00  0.00     0.031 A 
ATOM      8  N   UNL A   1      37.424  21.664  24.676  1.00  0.00    -0.254 NA
ATOM      9  C   UNL A   1      38.802  23.213  26.568  1.00  0.00     0.019 A 
ATOM     10  C   UNL A   1      38.513  21.214  25.323  1.00  0.00     0.127 A 
BRANCH   6  11
ATOM     11  C   UNL A   1      35.910  23.437  24.073  1.00  0.00     0.318 C 
BRANCH  11  12
ATOM     12  N   UNL A   1      34.604  23.020  24.580  1.00  0.00    -0.338 N 
ATOM     13  H   UNL A   1      34.565  23.270  25.568  1.00  0.00     0.346 HD
ATOM     14  H   UNL A   1      33.930  23.497  23.981  1.00  0.00     0.346 HD
BRANCH  12  15
ATOM     15  C   UNL A   1      34.257  21.604  24.475  1.00  0.00     0.189 C 
ATOM     16  C   UNL A   1      32.358  20.049  23.661  1.00  0.00     0.017 C 
ATOM     17  C   UNL A   1      32.823  21.116  24.617  1.00  0.00     0.022 C 
ATOM     18  C   UNL A   1      31.722  22.041  25.083  1.00  0.00     0.017 C 
ATOM     19  C   UNL A   1      33.882  20.732  25.631  1.00  0.00     0.078 C 
ENDBRANCH  12  15
ENDBRANCH  11  12
ENDBRANCH   6  11
ENDBRANCH   3   5
ENDBRANCH   2   3
ENDBRANCH   1   2
BRANCH   1  20
ATOM     20  C   UNL A   1      43.681  21.637  25.427  1.00  0.00     0.275 C 
BRANCH  20  21
ATOM     21  O   UNL A   1      43.033  22.785  24.840  1.00  0.00    -0.458 OA
BRANCH  21  22
ATOM     22  C   UNL A   1      43.669  23.959  25.042  1.00  0.00     0.338 C 
ATOM     23  O   UNL A   1      44.723  24.322  24.541  1.00  0.00    -0.246 OA
BRANCH  22  24
ATOM     24  C   UNL A   1      42.888  24.856  25.907  1.00  0.00     0.060 A 
ATOM     25  C   UNL A   1      43.147  26.215  25.822  1.00  0.00     0.016 A 
ATOM     26  C   UNL A   1      42.152  24.362  26.979  1.00  0.00     0.016 A 
ATOM     27  C   UNL A   1      42.886  27.040  26.911  1.00  0.00     0.010 A 
ATOM     28  C   UNL A   1      41.701  25.243  27.975  1.00  0.00     0.010 A 
ATOM     29  C   UNL A   1      42.117  26.588  27.993  1.00  0.00    -0.014 A 
BRANCH  29  30
ATOM     30  C   UNL A   1      41.760  27.521  29.111  1.00  0.00     0.031 A 
ATOM     31  C   UNL A   1      42.573  27.561  30.388  1.00  0.00     0.074 A 
ATOM     32  C   UNL A   1      40.703  28.353  28.991  1.00  0.00     0.049 A 
ATOM     33  N   UNL A   1      42.303  28.157  31.525  1.00  0.00    -0.248 NA
ATOM     34  C   UNL A   1      43.843  26.818  30.398  1.00  0.00     0.031 C 
ATOM     35  C   UNL A   1      39.834  28.464  27.816  1.00  0.00     0.029 A 
ATOM     36  N   UNL A   1      40.176  29.276  29.865  1.00  0.00    -0.354 N 
ATOM     37  C   UNL A   1      43.329  27.808  32.398  1.00  0.00     0.074 A 
ATOM     38  C   UNL A   1      44.221  26.937  31.663  1.00  0.00     0.031 C 
ATOM     39  C   UNL A   1      38.938  29.438  28.010  1.00  0.00     0.029 A 
ATOM     40  C   UNL A   1      39.072  29.932  29.372  1.00  0.00     0.049 A 
ATOM     41  H   UNL A   1      40.553  29.450  30.757  1.00  0.00     0.167 HD
ATOM     42  C   UNL A   1      43.511  28.179  33.690  1.00  0.00     0.037 A 
ATOM     43  C   UNL A   1      38.214  30.790  29.954  1.00  0.00     0.037 A 
ATOM     44  C   UNL A   1      42.653  29.096  34.400  1.00  0.00     0.049 A 
ATOM     45  C   UNL A   1      38.410  31.150  31.395  1.00  0.00     0.074 A 
ATOM     46  C   UNL A   1      42.771  29.556  35.702  1.00  0.00     0.029 A 
ATOM     47  N   UNL A   1      41.526  29.703  33.867  1.00  0.00    -0.354 N 
ATOM     48  N   UNL A   1      39.357  30.773  32.219  1.00  0.00    -0.248 NA
ATOM     49  C   UNL A   1      37.406  32.038  31.994  1.00  0.00     0.031 C 
ATOM     50  C   UNL A   1      41.686  30.398  35.972  1.00  0.00     0.029 A 
ATOM     51  C   UNL A   1      40.926  30.513  34.820  1.00  0.00     0.049 A 
ATOM     52  H   UNL A   1      41.200  29.579  32.947  1.00  0.00     0.167 HD
ATOM     53  C   UNL A   1      39.073  31.391  33.428  1.00  0.00     0.074 A 
ATOM     54  C   UNL A   1      37.880  32.187  33.222  1.00  0.00     0.031 C 
ATOM     55  C   UNL A   1      39.739  31.301  34.605  1.00  0.00     0.037 A 
BRANCH  42  56
ATOM     56  C   UNL A   1      44.665  27.569  34.441  1.00  0.00     0.057 A 
ATOM     57  C   UNL A   1      44.569  26.338  35.101  1.00  0.00     0.134 A 
ATOM     58  C   UNL A   1      45.911  28.212  34.466  1.00  0.00     0.134 A 
ATOM     59  F   UNL A   1      43.405  25.669  35.124  1.00  0.00    -0.206 F 
ATOM     60  C   UNL A   1      45.655  25.786  35.784  1.00  0.00     0.040 A 
ATOM     61  C   UNL A   1      47.014  27.655  35.117  1.00  0.00     0.040 A 
ATOM     62  F   UNL A   1      46.084  29.389  33.843  1.00  0.00    -0.206 F 
ATOM     63  C   UNL A   1      46.884  26.441  35.787  1.00  0.00     0.006 A 
ENDBRANCH  42  56
BRANCH  43  64
ATOM     64  C   UNL A   1      37.057  31.319  29.184  1.00  0.00     0.057 A 
ATOM     65  C   UNL A   1      37.045  32.634  28.706  1.00  0.00     0.134 A 
ATOM     66  C   UNL A   1      35.937  30.523  28.904  1.00  0.00     0.134 A 
ATOM     67  F   UNL A   1      38.074  33.454  28.962  1.00  0.00    -0.206 F 
ATOM     68  C   UNL A   1      35.960  33.142  27.989  1.00  0.00     0.040 A 
ATOM     69  C   UNL A   1      34.862  31.005  28.157  1.00  0.00     0.040 A 
ATOM     70  F   UNL A   1      35.885  29.252  29.328  1.00  0.00    -0.206 F 
ATOM     71  C   UNL A   1      34.869  32.323  27.705  1.00  0.00     0.006 A 
ENDBRANCH  43  64
BRANCH  55  72
ATOM     72  C   UNL A   1      39.208  32.117  35.747  1.00  0.00     0.057 A 
ATOM     73  C   UNL A   1      38.315  31.587  36.687  1.00  0.00     0.134 A 
ATOM     74  C   UNL A   1      39.602  33.452  35.911  1.00  0.00     0.134 A 
ATOM     75  F   UNL A   1      37.884  30.322  36.578  1.00  0.00    -0.206 F 
ATOM     76  C   UNL A   1      37.805  32.365  37.728  1.00  0.00     0.040 A 
ATOM     77  C   UNL A   1      39.125  34.230  36.967  1.00  0.00     0.040 A 
ATOM     78  F   UNL A   1      40.461  34.021  35.051  1.00  0.00    -0.206 F 
ATOM     79  C   UNL A   1      38.215  33.689  37.874  1.00  0.00     0.006 A 
ENDBRANCH  55  72
ENDBRANCH  29  30
ENDBRANCH  22  24
ENDBRANCH  21  22
ENDBRANCH  20  21
ENDBRANCH   1  20
TORSDOF 14
ENDMDL
MODEL 2
REMARK VINA RESULT:     -10.9      0.600      1.838
REMARK SMILES CC1(C)C[C@@H]1[NH2+]Cc1ccc(C(=O)OCCOC(=O)c2ccc(-c3c4nc(c(-c5c(F)cccc5F)c5ccc([nH]5)c(-c5c(F)cccc5F)c5nc(c(-c6c(F)cccc6F)c6ccc3[nH]6)C=C5)C=C4)cc2)cn1
REMARK SMILES IDX 15 1 14 2 12 3 13 4 11 5 8 6 9 7 75 8 10 9 74 10 7 11 6 12
REMARK SMILES IDX 5 15 1 16 2 17 3 18 4 19 16 20 17 21 18 22 19 23 20 24 21 25
REMARK SMILES IDX 73 26 22 27 72 28 23 29 24 30 25 31 66 32 26 33 71 34 65 35
REMARK SMILES IDX 67 36 27 37 70 38 64 39 63 40 28 42 54 43 37 44 53 45 38 46
REMARK SMILES IDX 41 47 52 48 68 49 39 50 40 51 51 53 69 54 42 55 29 56 30 57
REMARK SMILES IDX 35 58 31 59 32 60 34 61 36 62 33 63 55 64 56 65 61 66 57 67
REMARK SMILES IDX 58 68 60 69 62 70 59 71 43 72 44 73 49 74 45 75 46 76 48 77
REMARK SMILES IDX 50 78 47 79
REMARK H PARENT 6 13 6 14 67 41 41 52
REMARK Flexibility Score: inf
ROOT
ATOM      1  C   UNL A   1      42.764  21.014  25.886  1.00  0.00     0.275 C 
ENDROOT
BRANCH   1   2
ATOM      2  O   UNL A   1      41.418  21.447  25.590  1.00  0.00    -0.458 OA
BRANCH   2   3
ATOM      3  C   UNL A   1      40.519  21.209  26.574  1.00  0.00     0.339 C 
ATOM      4  O   UNL A   1      40.686  20.498  27.550  1.00  0.00    -0.246 OA
BRANCH   3   5
ATOM      5  C   UNL A   1      39.294  22.002  26.396  1.00  0.00     0.078 A 
ATOM      6  C   UNL A   1      37.008  23.329  25.636  1.00  0.00     0.094 A 
ATOM      7  C   UNL A   1      38.010  24.025  26.321  1.00  0.00     0.031 A 
ATOM      8  N   UNL A   1      37.094  22.009  25.388  1.00  0.00    -0.254 NA
ATOM      9  C   UNL A   1      39.174  23.349  26.711  1.00  0.00     0.019 A 
ATOM     10  C   UNL A   1      38.232  21.394  25.752  1.00  0.00     0.127 A 
BRANCH   6  11
ATOM     11  C   UNL A   1      35.777  24.001  25.077  1.00  0.00     0.318 C 
BRANCH  11  12
ATOM     12  N   UNL A   1      35.303  23.358  23.854  1.00  0.00    -0.338 N 
ATOM     13  H   UNL A   1      35.932  23.634  23.100  1.00  0.00     0.346 HD
ATOM     14  H   UNL A   1      35.293  22.361  24.072  1.00  0.00     0.346 HD
BRANCH  12  15
ATOM     15  C   UNL A   1      33.940  23.656  23.416  1.00  0.00     0.189 C 
ATOM     16  C   UNL A   1      31.475  23.247  24.081  1.00  0.00     0.017 C 
ATOM     17  C   UNL A   1      32.795  22.678  23.634  1.00  0.00     0.022 C 
ATOM     18  C   UNL A   1      33.049  21.268  24.118  1.00  0.00     0.017 C 
ATOM     19  C   UNL A   1      33.268  23.027  22.236  1.00  0.00     0.078 C 
ENDBRANCH  12  15
ENDBRANCH  11  12
ENDBRANCH   6  11
ENDBRANCH   3   5
ENDBRANCH   2   3
ENDBRANCH   1   2
BRANCH   1  20
ATOM     20  C   UNL A   1      43.806  21.856  25.145  1.00  0.00     0.275 C 
BRANCH  20  21
ATOM     21  O   UNL A   1      43.239  23.082  24.639  1.00  0.00    -0.458 OA
BRANCH  21  22
ATOM     22  C   UNL A   1      43.896  24.203  25.005  1.00  0.00     0.338 C 
ATOM     23  O   UNL A   1      45.001  24.566  24.631  1.00  0.00    -0.246 OA
BRANCH  22  24
ATOM     24  C   UNL A   1      43.075  25.048  25.886  1.00  0.00     0.060 A 
ATOM     25  C   UNL A   1      43.270  26.419  25.824  1.00  0.00     0.016 A 
ATOM     26  C   UNL A   1      42.363  24.501  26.948  1.00  0.00     0.016 A 
ATOM     27  C   UNL A   1      42.972  27.211  26.928  1.00  0.00     0.010 A 
ATOM     28  C   UNL A   1      41.872  25.344  27.959  1.00  0.00     0.010 A 
ATOM     29  C   UNL A   1      42.226  26.705  28.001  1.00  0.00    -0.014 A 
BRANCH  29  30
ATOM     30  C   UNL A   1      41.827  27.601  29.136  1.00  0.00     0.031 A 
ATOM     31  C   UNL A   1      42.606  27.617  30.433  1.00  0.00     0.074 A 
ATOM     32  C   UNL A   1      40.760  28.422  29.012  1.00  0.00     0.049 A 
ATOM     33  N   UNL A   1      42.298  28.176  31.579  1.00  0.00    -0.248 NA
ATOM     34  C   UNL A   1      43.886  26.892  30.456  1.00  0.00     0.031 C 
ATOM     35  C   UNL A   1      39.920  28.553  27.818  1.00  0.00     0.029 A 
ATOM     36  N   UNL A   1      40.197  29.312  29.897  1.00  0.00    -0.354 N 
ATOM     37  C   UNL A   1      43.306  27.818  32.468  1.00  0.00     0.074 A 
ATOM     38  C   UNL A   1      44.230  26.981  31.733  1.00  0.00     0.031 C 
ATOM     39  C   UNL A   1      39.004  29.508  28.016  1.00  0.00     0.029 A 
ATOM     40  C   UNL A   1      39.096  29.965  29.394  1.00  0.00     0.049 A 
ATOM     41  H   UNL A   1      40.549  29.466  30.803  1.00  0.00     0.167 HD
ATOM     42  C   UNL A   1      43.450  28.155  33.774  1.00  0.00     0.037 A 
ATOM     43  C   UNL A   1      38.211  30.794  29.978  1.00  0.00     0.037 A 
ATOM     44  C   UNL A   1      42.561  29.038  34.488  1.00  0.00     0.049 A 
ATOM     45  C   UNL A   1      38.365  31.115  31.433  1.00  0.00     0.074 A 
ATOM     46  C   UNL A   1      42.639  29.463  35.804  1.00  0.00     0.029 A 
ATOM     47  N   UNL A   1      41.438  29.645  33.942  1.00  0.00    -0.354 N 
ATOM     48  N   UNL A   1      39.296  30.729  32.270  1.00  0.00    -0.248 NA
ATOM     49  C   UNL A   1      37.333  31.972  32.030  1.00  0.00     0.031 C 
ATOM     50  C   UNL A   1      41.535  30.282  36.069  1.00  0.00     0.029 A 
ATOM     51  C   UNL A   1      40.802  30.418  34.902  1.00  0.00     0.049 A 
ATOM     52  H   UNL A   1      41.138  29.541  33.011  1.00  0.00     0.167 HD
ATOM     53  C   UNL A   1      38.973  31.308  33.488  1.00  0.00     0.074 A 
ATOM     54  C   UNL A   1      37.774  32.093  33.274  1.00  0.00     0.031 C 
ATOM     55  C   UNL A   1      39.610  31.195  34.679  1.00  0.00     0.037 A 
BRANCH  42  56
ATOM     56  C   UNL A   1      44.594  27.540  34.537  1.00  0.00     0.057 A 
ATOM     57  C   UNL A   1      45.835  28.173  34.675  1.00  0.00     0.134 A 
ATOM     58  C   UNL A   1      44.431  26.305  35.182  1.00  0.00     0.134 A 
ATOM     59  F   UNL A   1      46.066  29.354  34.080  1.00  0.00    -0.206 F 
ATOM     60  C   UNL A   1      46.880  27.589  35.396  1.00  0.00     0.040 A 
ATOM     61  C   UNL A   1      45.457  25.726  35.933  1.00  0.00     0.040 A 
ATOM     62  F   UNL A   1      43.264  25.646  35.107  1.00  0.00    -0.206 F 
ATOM     63  C   UNL A   1      46.690  26.365  36.034  1.00  0.00     0.006 A 
ENDBRANCH  42  56
BRANCH  43  64
ATOM     64  C   UNL A   1      37.066  31.329  29.193  1.00  0.00     0.057 A 
ATOM     65  C   UNL A   1      35.958  30.530  28.892  1.00  0.00     0.134 A 
ATOM     66  C   UNL A   1      37.051  32.652  28.729  1.00  0.00     0.134 A 
ATOM     67  F   UNL A   1      35.923  29.248  29.285  1.00  0.00    -0.206 F 
ATOM     68  C   UNL A   1      34.883  31.021  28.149  1.00  0.00     0.040 A 
ATOM     69  C   UNL A   1      35.967  33.167  28.018  1.00  0.00     0.040 A 
ATOM     70  F   UNL A   1      38.079  33.473  28.987  1.00  0.00    -0.206 F 
ATOM     71  C   UNL A   1      34.882  32.346  27.718  1.00  0.00     0.006 A 
ENDBRANCH  43  64
BRANCH  55  72
ATOM     72  C   UNL A   1      39.038  31.971  35.830  1.00  0.00     0.057 A 
ATOM     73  C   UNL A   1      39.360  33.316  36.051  1.00  0.00     0.134 A 
ATOM     74  C   UNL A   1      38.147  31.364  36.725  1.00  0.00     0.134 A 
ATOM     75  F   UNL A   1      40.220  33.952  35.242  1.00  0.00    -0.206 F 
ATOM     76  C   UNL A   1      38.844  34.019  37.141  1.00  0.00     0.040 A 
ATOM     77  C   UNL A   1      37.600  32.065  37.799  1.00  0.00     0.040 A 
ATOM     78  F   UNL A   1      37.791  30.079  36.567  1.00  0.00    -0.206 F 
ATOM     79  C   UNL A   1      37.956  33.395  38.016  1.00  0.00     0.006 A 
ENDBRANCH  55  72
ENDBRANCH  29  30
ENDBRANCH  22  24
ENDBRANCH  21  22
ENDBRANCH  20  21
ENDBRANCH   1  20
TORSDOF 14
ENDMDL
MODEL 3
REMARK VINA RESULT:     -10.8      4.660      9.388
REMARK SMILES CC1(C)C[C@@H]1[NH2+]Cc1ccc(C(=O)OCCOC(=O)c2ccc(-c3c4nc(c(-c5c(F)cccc5F)c5ccc([nH]5)c(-c5c(F)cccc5F)c5nc(c(-c6c(F)cccc6F)c6ccc3[nH]6)C=C5)C=C4)cc2)cn1
REMARK SMILES IDX 15 1 14 2 12 3 13 4 11 5 8 6 9 7 75 8 10 9 74 10 7 11 6 12
REMARK SMILES IDX 5 15 1 16 2 17 3 18 4 19 16 20 17 21 18 22 19 23 20 24 21 25
REMARK SMILES IDX 73 26 22 27 72 28 23 29 24 30 25 31 66 32 26 33 71 34 65 35
REMARK SMILES IDX 67 36 27 37 70 38 64 39 63 40 28 42 54 43 37 44 53 45 38 46
REMARK SMILES IDX 41 47 52 48 68 49 39 50 40 51 51 53 69 54 42 55 29 56 30 57
REMARK SMILES IDX 35 58 31 59 32 60 34 61 36 62 33 63 55 64 56 65 61 66 57 67
REMARK SMILES IDX 58 68 60 69 62 70 59 71 43 72 44 73 49 74 45 75 46 76 48 77
REMARK SMILES IDX 50 78 47 79
REMARK H PARENT 6 13 6 14 67 41 41 52
REMARK Flexibility Score: inf
ROOT
ATOM      1  C   UNL A   1      33.937  35.295  28.600  1.00  0.00     0.275 C 
ENDROOT
BRANCH   1   2
ATOM      2  O   UNL A   1      34.079  33.916  29.009  1.00  0.00    -0.458 OA
BRANCH   2   3
ATOM      3  C   UNL A   1      35.225  33.322  28.599  1.00  0.00     0.339 C 
ATOM      4  O   UNL A   1      36.356  33.751  28.749  1.00  0.00    -0.246 OA
BRANCH   3   5
ATOM      5  C   UNL A   1      34.972  31.998  28.013  1.00  0.00     0.078 A 
ATOM      6  C   UNL A   1      34.151  29.499  27.211  1.00  0.00     0.094 A 
ATOM      7  C   UNL A   1      35.507  29.725  27.474  1.00  0.00     0.031 A 
ATOM      8  N   UNL A   1      33.235  30.483  27.275  1.00  0.00    -0.254 NA
ATOM      9  C   UNL A   1      35.927  30.999  27.880  1.00  0.00     0.019 A 
ATOM     10  C   UNL A   1      33.664  31.687  27.692  1.00  0.00     0.127 A 
BRANCH   6  11
ATOM     11  C   UNL A   1      33.594  28.134  26.882  1.00  0.00     0.318 C 
BRANCH  11  12
ATOM     12  N   UNL A   1      33.568  27.880  25.443  1.00  0.00    -0.338 N 
ATOM     13  H   UNL A   1      33.595  28.784  24.972  1.00  0.00     0.346 HD
ATOM     14  H   UNL A   1      34.371  27.274  25.273  1.00  0.00     0.346 HD
BRANCH  12  15
ATOM     15  C   UNL A   1      32.426  27.142  24.907  1.00  0.00     0.189 C 
ATOM     16  C   UNL A   1      30.592  27.307  23.091  1.00  0.00     0.017 C 
ATOM     17  C   UNL A   1      31.197  27.853  24.357  1.00  0.00     0.022 C 
ATOM     18  C   UNL A   1      31.009  29.342  24.533  1.00  0.00     0.017 C 
ATOM     19  C   UNL A   1      31.109  26.991  25.601  1.00  0.00     0.078 C 
ENDBRANCH  12  15
ENDBRANCH  11  12
ENDBRANCH   6  11
ENDBRANCH   3   5
ENDBRANCH   2   3
ENDBRANCH   1   2
BRANCH   1  20
ATOM     20  C   UNL A   1      32.924  36.043  29.472  1.00  0.00     0.275 C 
BRANCH  20  21
ATOM     21  O   UNL A   1      32.471  35.233  30.577  1.00  0.00    -0.458 OA
BRANCH  21  22
ATOM     22  C   UNL A   1      32.612  35.803  31.793  1.00  0.00     0.338 C 
ATOM     23  O   UNL A   1      31.951  36.719  32.258  1.00  0.00    -0.246 OA
BRANCH  22  24
ATOM     24  C   UNL A   1      33.641  35.122  32.593  1.00  0.00     0.060 A 
ATOM     25  C   UNL A   1      34.885  35.726  32.684  1.00  0.00     0.016 A 
ATOM     26  C   UNL A   1      33.489  33.796  32.983  1.00  0.00     0.016 A 
ATOM     27  C   UNL A   1      36.014  34.952  32.931  1.00  0.00     0.010 A 
ATOM     28  C   UNL A   1      34.605  33.077  33.442  1.00  0.00     0.010 A 
ATOM     29  C   UNL A   1      35.900  33.623  33.360  1.00  0.00    -0.014 A 
BRANCH  29  30
ATOM     30  C   UNL A   1      37.125  32.834  33.719  1.00  0.00     0.031 A 
ATOM     31  C   UNL A   1      37.826  33.036  35.045  1.00  0.00     0.074 A 
ATOM     32  C   UNL A   1      37.620  31.918  32.858  1.00  0.00     0.049 A 
ATOM     33  N   UNL A   1      38.995  32.590  35.441  1.00  0.00    -0.248 NA
ATOM     34  C   UNL A   1      37.140  33.864  36.048  1.00  0.00     0.031 C 
ATOM     35  C   UNL A   1      37.046  31.577  31.553  1.00  0.00     0.029 A 
ATOM     36  N   UNL A   1      38.716  31.092  32.949  1.00  0.00    -0.354 N 
ATOM     37  C   UNL A   1      39.208  33.134  36.704  1.00  0.00     0.074 A 
ATOM     38  C   UNL A   1      38.054  33.955  37.003  1.00  0.00     0.031 C 
ATOM     39  C   UNL A   1      37.745  30.578  31.002  1.00  0.00     0.029 A 
ATOM     40  C   UNL A   1      38.897  30.294  31.844  1.00  0.00     0.049 A 
ATOM     41  H   UNL A   1      39.315  31.075  33.730  1.00  0.00     0.167 HD
ATOM     42  C   UNL A   1      40.265  32.965  37.537  1.00  0.00     0.037 A 
ATOM     43  C   UNL A   1      39.901  29.467  31.499  1.00  0.00     0.037 A 
ATOM     44  C   UNL A   1      41.385  32.098  37.263  1.00  0.00     0.049 A 
ATOM     45  C   UNL A   1      41.079  29.332  32.415  1.00  0.00     0.074 A 
ATOM     46  C   UNL A   1      42.490  31.838  38.056  1.00  0.00     0.029 A 
ATOM     47  N   UNL A   1      41.538  31.340  36.111  1.00  0.00    -0.354 N 
ATOM     48  N   UNL A   1      41.287  29.890  33.582  1.00  0.00    -0.248 NA
ATOM     49  C   UNL A   1      42.173  28.466  31.955  1.00  0.00     0.031 C 
ATOM     50  C   UNL A   1      43.336  30.965  37.362  1.00  0.00     0.029 A 
ATOM     51  C   UNL A   1      42.730  30.632  36.162  1.00  0.00     0.049 A 
ATOM     52  H   UNL A   1      40.895  31.308  35.367  1.00  0.00     0.167 HD
ATOM     53  C   UNL A   1      42.526  29.432  34.004  1.00  0.00     0.074 A 
ATOM     54  C   UNL A   1      43.010  28.529  32.980  1.00  0.00     0.031 C 
ATOM     55  C   UNL A   1      43.203  29.737  35.138  1.00  0.00     0.037 A 
BRANCH  42  56
ATOM     56  C   UNL A   1      40.286  33.759  38.817  1.00  0.00     0.057 A 
ATOM     57  C   UNL A   1      39.592  33.358  39.965  1.00  0.00     0.134 A 
ATOM     58  C   UNL A   1      41.054  34.929  38.910  1.00  0.00     0.134 A 
ATOM     59  F   UNL A   1      38.832  32.252  39.948  1.00  0.00    -0.206 F 
ATOM     60  C   UNL A   1      39.633  34.105  41.145  1.00  0.00     0.040 A 
ATOM     61  C   UNL A   1      41.130  35.667  40.094  1.00  0.00     0.040 A 
ATOM     62  F   UNL A   1      41.758  35.368  37.855  1.00  0.00    -0.206 F 
ATOM     63  C   UNL A   1      40.410  35.259  41.214  1.00  0.00     0.006 A 
ENDBRANCH  42  56
BRANCH  43  64
ATOM     64  C   UNL A   1      39.858  28.750  30.196  1.00  0.00     0.057 A 
ATOM     65  C   UNL A   1      39.230  27.506  30.075  1.00  0.00     0.134 A 
ATOM     66  C   UNL A   1      40.439  29.292  29.042  1.00  0.00     0.134 A 
ATOM     67  F   UNL A   1      38.676  26.922  31.148  1.00  0.00    -0.206 F 
ATOM     68  C   UNL A   1      39.191  26.822  28.859  1.00  0.00     0.040 A 
ATOM     69  C   UNL A   1      40.376  28.637  27.812  1.00  0.00     0.040 A 
ATOM     70  F   UNL A   1      41.054  30.483  29.087  1.00  0.00    -0.206 F 
ATOM     71  C   UNL A   1      39.757  27.392  27.721  1.00  0.00     0.006 A 
ENDBRANCH  43  64
BRANCH  55  72
ATOM     72  C   UNL A   1      44.525  29.055  35.341  1.00  0.00     0.057 A 
ATOM     73  C   UNL A   1      45.729  29.626  34.911  1.00  0.00     0.134 A 
ATOM     74  C   UNL A   1      44.592  27.811  35.982  1.00  0.00     0.134 A 
ATOM     75  F   UNL A   1      45.734  30.806  34.275  1.00  0.00    -0.206 F 
ATOM     76  C   UNL A   1      46.949  28.968  35.081  1.00  0.00     0.040 A 
ATOM     77  C   UNL A   1      45.808  27.158  36.186  1.00  0.00     0.040 A 
ATOM     78  F   UNL A   1      43.476  27.210  36.426  1.00  0.00    -0.206 F 
ATOM     79  C   UNL A   1      46.991  27.733  35.725  1.00  0.00     0.006 A 
ENDBRANCH  55  72
ENDBRANCH  29  30
ENDBRANCH  22  24
ENDBRANCH  21  22
ENDBRANCH  20  21
ENDBRANCH   1  20
TORSDOF 14
ENDMDL
