MODEL 1
REMARK VINA RESULT:     -12.3      0.000      0.000
REMARK SMILES O=C(Nc1ccccc1)N[C@H]1C[C@@H](C(=O)OCCOC(=O)c2ccc(-c3c4nc(c(-c5c(F)cccc5F)c5ccc([nH]5)c(-c5c(F)cccc5F)c5nc(c(-c6c(F)cccc6F)c6ccc3[nH]6)C=C5)C=C4)cc2)Nc2cc(Cl)cc(Cl)c21
REMARK SMILES IDX 17 1 16 2 14 3 15 4 13 5 11 6 12 7 84 8 77 9 82 10 76 11
REMARK SMILES IDX 78 12 81 13 83 14 79 16 80 17 10 18 1 19 2 20 3 21 4 24 5 25
REMARK SMILES IDX 9 26 6 27 8 28 7 29 18 30 19 31 20 32 21 33 22 34 23 35
REMARK SMILES IDX 75 36 24 37 74 38 25 39 26 40 27 41 68 42 28 43 73 44 67 45
REMARK SMILES IDX 69 46 29 47 72 48 66 49 65 50 30 52 56 53 39 54 55 55 40 56
REMARK SMILES IDX 43 57 54 58 70 59 41 60 42 61 53 63 71 64 44 65 31 66 32 67
REMARK SMILES IDX 37 68 33 69 34 70 36 71 38 72 35 73 57 74 58 75 63 76 59 77
REMARK SMILES IDX 60 78 62 79 64 80 61 81 45 82 46 83 51 84 47 85 48 86 50 87
REMARK SMILES IDX 52 88 49 89
REMARK H PARENT 76 15 3 22 10 23 69 51 43 62
REMARK Flexibility Score: inf
ROOT
ATOM      1  C   UNL A   1      37.313  20.340  24.977  1.00  0.00     0.274 C 
ENDROOT
BRANCH   1   2
ATOM      2  O   UNL A   1      37.358  21.632  24.338  1.00  0.00    -0.461 OA
BRANCH   2   3
ATOM      3  C   UNL A   1      37.331  22.717  25.162  1.00  0.00     0.328 C 
ATOM      4  O   UNL A   1      38.252  23.053  25.899  1.00  0.00    -0.250 OA
BRANCH   3   5
ATOM      5  C   UNL A   1      36.060  23.554  24.971  1.00  0.00     0.192 C 
ATOM      6  C   UNL A   1      33.616  23.321  25.769  1.00  0.00     0.120 C 
ATOM      7  C   UNL A   1      35.090  23.535  26.171  1.00  0.00     0.067 C 
ATOM      8  C   UNL A   1      33.326  24.102  24.500  1.00  0.00     0.016 A 
ATOM      9  C   UNL A   1      34.241  23.920  23.452  1.00  0.00     0.043 A 
ATOM     10  C   UNL A   1      32.185  24.882  24.277  1.00  0.00     0.049 A 
ATOM     11  N   UNL A   1      35.397  23.178  23.709  1.00  0.00    -0.372 N 
ATOM     12  C   UNL A   1      33.938  24.355  22.164  1.00  0.00     0.046 A 
ATOM     13  C   UNL A   1      31.908  25.371  22.997  1.00  0.00     0.041 A 
ATOM     14  Cl  UNL A   1      31.089  25.289  25.548  1.00  0.00    -0.084 Cl
ATOM     15  H   UNL A   1      35.735  22.473  23.109  1.00  0.00     0.161 HD
ATOM     16  C   UNL A   1      32.770  25.078  21.944  1.00  0.00     0.044 A 
ATOM     17  Cl  UNL A   1      32.396  25.624  20.355  1.00  0.00    -0.084 Cl
BRANCH   6  18
ATOM     18  N   UNL A   1      33.352  21.885  25.604  1.00  0.00    -0.331 N 
ATOM     19  O   UNL A   1      33.811  21.211  27.748  1.00  0.00    -0.248 OA
ATOM     20  C   UNL A   1      33.508  20.952  26.588  1.00  0.00     0.319 C 
ATOM     21  N   UNL A   1      33.167  19.674  26.256  1.00  0.00    -0.308 N 
ATOM     22  H   UNL A   1      32.758  19.153  26.984  1.00  0.00     0.171 HD
ATOM     23  H   UNL A   1      33.041  21.575  24.724  1.00  0.00     0.166 HD
BRANCH  21  24
ATOM     24  C   UNL A   1      33.307  18.984  25.041  1.00  0.00     0.042 A 
ATOM     25  C   UNL A   1      32.299  19.148  24.085  1.00  0.00     0.026 A 
ATOM     26  C   UNL A   1      34.330  18.062  24.808  1.00  0.00     0.026 A 
ATOM     27  C   UNL A   1      32.324  18.410  22.899  1.00  0.00     0.002 A 
ATOM     28  C   UNL A   1      34.343  17.311  23.630  1.00  0.00     0.002 A 
ATOM     29  C   UNL A   1      33.342  17.486  22.676  1.00  0.00     0.000 A 
ENDBRANCH  21  24
ENDBRANCH   6  18
ENDBRANCH   3   5
ENDBRANCH   2   3
ENDBRANCH   1   2
BRANCH   1  30
ATOM     30  C   UNL A   1      38.694  19.684  24.942  1.00  0.00     0.275 C 
BRANCH  30  31
ATOM     31  O   UNL A   1      39.417  19.911  26.168  1.00  0.00    -0.458 OA
BRANCH  31  32
ATOM     32  C   UNL A   1      40.759  19.787  26.067  1.00  0.00     0.338 C 
ATOM     33  O   UNL A   1      41.389  18.881  25.545  1.00  0.00    -0.246 OA
BRANCH  32  34
ATOM     34  C   UNL A   1      41.419  20.986  26.591  1.00  0.00     0.060 A 
ATOM     35  C   UNL A   1      41.504  21.148  27.973  1.00  0.00     0.016 A 
ATOM     36  C   UNL A   1      41.777  22.021  25.726  1.00  0.00     0.016 A 
ATOM     37  C   UNL A   1      41.878  22.380  28.500  1.00  0.00     0.010 A 
ATOM     38  C   UNL A   1      42.215  23.236  26.259  1.00  0.00     0.010 A 
ATOM     39  C   UNL A   1      42.240  23.437  27.651  1.00  0.00    -0.014 A 
BRANCH  39  40
ATOM     40  C   UNL A   1      42.627  24.753  28.219  1.00  0.00     0.031 A 
ATOM     41  C   UNL A   1      41.589  25.809  28.483  1.00  0.00     0.074 A 
ATOM     42  C   UNL A   1      43.916  24.998  28.520  1.00  0.00     0.049 A 
ATOM     43  N   UNL A   1      41.754  27.061  28.831  1.00  0.00    -0.248 NA
ATOM     44  C   UNL A   1      40.182  25.409  28.328  1.00  0.00     0.031 C 
ATOM     45  C   UNL A   1      45.017  24.048  28.363  1.00  0.00     0.029 A 
ATOM     46  N   UNL A   1      44.513  26.119  29.037  1.00  0.00    -0.354 N 
ATOM     47  C   UNL A   1      40.481  27.610  28.891  1.00  0.00     0.074 A 
ATOM     48  C   UNL A   1      39.550  26.555  28.550  1.00  0.00     0.031 C 
ATOM     49  C   UNL A   1      46.149  24.610  28.814  1.00  0.00     0.029 A 
ATOM     50  C   UNL A   1      45.865  25.981  29.227  1.00  0.00     0.049 A 
ATOM     51  H   UNL A   1      44.019  26.944  29.250  1.00  0.00     0.167 HD
ATOM     52  C   UNL A   1      40.122  28.879  29.199  1.00  0.00     0.037 A 
ATOM     53  C   UNL A   1      46.781  26.865  29.659  1.00  0.00     0.037 A 
ATOM     54  C   UNL A   1      41.039  29.916  29.594  1.00  0.00     0.049 A 
ATOM     55  C   UNL A   1      46.363  28.269  29.977  1.00  0.00     0.074 A 
ATOM     56  C   UNL A   1      40.767  31.232  29.927  1.00  0.00     0.029 A 
ATOM     57  N   UNL A   1      42.408  29.746  29.731  1.00  0.00    -0.354 N 
ATOM     58  N   UNL A   1      45.167  28.799  29.944  1.00  0.00    -0.248 NA
ATOM     59  C   UNL A   1      47.430  29.204  30.363  1.00  0.00     0.031 C 
ATOM     60  C   UNL A   1      41.974  31.863  30.252  1.00  0.00     0.029 A 
ATOM     61  C   UNL A   1      42.993  30.932  30.140  1.00  0.00     0.049 A 
ATOM     62  H   UNL A   1      42.892  28.905  29.564  1.00  0.00     0.167 HD
ATOM     63  C   UNL A   1      45.333  30.130  30.298  1.00  0.00     0.074 A 
ATOM     64  C   UNL A   1      46.745  30.322  30.562  1.00  0.00     0.031 C 
ATOM     65  C   UNL A   1      44.401  31.108  30.386  1.00  0.00     0.037 A 
BRANCH  52  66
ATOM     66  C   UNL A   1      38.669  29.227  29.093  1.00  0.00     0.057 A 
ATOM     67  C   UNL A   1      37.814  29.179  30.200  1.00  0.00     0.134 A 
ATOM     68  C   UNL A   1      38.129  29.646  27.871  1.00  0.00     0.134 A 
ATOM     69  F   UNL A   1      38.270  28.775  31.394  1.00  0.00    -0.206 F 
ATOM     70  C   UNL A   1      36.465  29.523  30.090  1.00  0.00     0.040 A 
ATOM     71  C   UNL A   1      36.786  30.008  27.753  1.00  0.00     0.040 A 
ATOM     72  F   UNL A   1      38.898  29.716  26.775  1.00  0.00    -0.206 F 
ATOM     73  C   UNL A   1      35.949  29.943  28.865  1.00  0.00     0.006 A 
ENDBRANCH  52  66
BRANCH  53  74
ATOM     74  C   UNL A   1      48.195  26.445  29.791  1.00  0.00     0.057 A 
ATOM     75  C   UNL A   1      49.107  26.669  28.755  1.00  0.00     0.134 A 
ATOM     76  C   UNL A   1      48.669  25.838  30.959  1.00  0.00     0.134 A 
ATOM     77  F   UNL A   1      48.700  27.230  27.607  1.00  0.00    -0.206 F 
ATOM     78  C   UNL A   1      50.448  26.305  28.877  1.00  0.00     0.040 A 
ATOM     79  C   UNL A   1      50.011  25.485  31.100  1.00  0.00     0.040 A 
ATOM     80  F   UNL A   1      47.839  25.600  31.985  1.00  0.00    -0.206 F 
ATOM     81  C   UNL A   1      50.904  25.718  30.056  1.00  0.00     0.006 A 
ENDBRANCH  53  74
BRANCH  65  82
ATOM     82  C   UNL A   1      44.884  32.467  30.781  1.00  0.00     0.057 A 
ATOM     83  C   UNL A   1      44.985  32.838  32.127  1.00  0.00     0.134 A 
ATOM     84  C   UNL A   1      45.263  33.405  29.814  1.00  0.00     0.134 A 
ATOM     85  F   UNL A   1      44.620  31.986  33.097  1.00  0.00    -0.206 F 
ATOM     86  C   UNL A   1      45.436  34.105  32.499  1.00  0.00     0.040 A 
ATOM     87  C   UNL A   1      45.727  34.671  30.174  1.00  0.00     0.040 A 
ATOM     88  F   UNL A   1      45.187  33.106  28.509  1.00  0.00    -0.206 F 
ATOM     89  C   UNL A   1      45.812  35.025  31.520  1.00  0.00     0.006 A 
ENDBRANCH  65  82
ENDBRANCH  39  40
ENDBRANCH  32  34
ENDBRANCH  31  32
ENDBRANCH  30  31
ENDBRANCH   1  30
TORSDOF 13
ENDMDL
MODEL 2
REMARK VINA RESULT:     -12.2      0.427      5.983
REMARK SMILES O=C(Nc1ccccc1)N[C@H]1C[C@@H](C(=O)OCCOC(=O)c2ccc(-c3c4nc(c(-c5c(F)cccc5F)c5ccc([nH]5)c(-c5c(F)cccc5F)c5nc(c(-c6c(F)cccc6F)c6ccc3[nH]6)C=C5)C=C4)cc2)Nc2cc(Cl)cc(Cl)c21
REMARK SMILES IDX 17 1 16 2 14 3 15 4 13 5 11 6 12 7 84 8 77 9 82 10 76 11
REMARK SMILES IDX 78 12 81 13 83 14 79 16 80 17 10 18 1 19 2 20 3 21 4 24 5 25
REMARK SMILES IDX 9 26 6 27 8 28 7 29 18 30 19 31 20 32 21 33 22 34 23 35
REMARK SMILES IDX 75 36 24 37 74 38 25 39 26 40 27 41 68 42 28 43 73 44 67 45
REMARK SMILES IDX 69 46 29 47 72 48 66 49 65 50 30 52 56 53 39 54 55 55 40 56
REMARK SMILES IDX 43 57 54 58 70 59 41 60 42 61 53 63 71 64 44 65 31 66 32 67
REMARK SMILES IDX 37 68 33 69 34 70 36 71 38 72 35 73 57 74 58 75 63 76 59 77
REMARK SMILES IDX 60 78 62 79 64 80 61 81 45 82 46 83 51 84 47 85 48 86 50 87
REMARK SMILES IDX 52 88 49 89
REMARK H PARENT 76 15 3 22 10 23 69 51 43 62
REMARK Flexibility Score: inf
ROOT
ATOM      1  C   UNL A   1      37.305  20.321  24.997  1.00  0.00     0.274 C 
ENDROOT
BRANCH   1   2
ATOM      2  O   UNL A   1      37.383  21.604  24.344  1.00  0.00    -0.461 OA
BRANCH   2   3
ATOM      3  C   UNL A   1      37.371  22.699  25.155  1.00  0.00     0.328 C 
ATOM      4  O   UNL A   1      38.302  23.039  25.876  1.00  0.00    -0.250 OA
BRANCH   3   5
ATOM      5  C   UNL A   1      36.101  23.541  24.968  1.00  0.00     0.192 C 
ATOM      6  C   UNL A   1      33.659  23.313  25.770  1.00  0.00     0.120 C 
ATOM      7  C   UNL A   1      35.134  23.522  26.170  1.00  0.00     0.067 C 
ATOM      8  C   UNL A   1      33.368  24.098  24.504  1.00  0.00     0.016 A 
ATOM      9  C   UNL A   1      34.280  23.916  23.453  1.00  0.00     0.043 A 
ATOM     10  C   UNL A   1      32.230  24.882  24.285  1.00  0.00     0.049 A 
ATOM     11  N   UNL A   1      35.435  23.169  23.706  1.00  0.00    -0.372 N 
ATOM     12  C   UNL A   1      33.976  24.354  22.167  1.00  0.00     0.046 A 
ATOM     13  C   UNL A   1      31.951  25.375  23.006  1.00  0.00     0.041 A 
ATOM     14  Cl  UNL A   1      31.137  25.289  25.558  1.00  0.00    -0.084 Cl
ATOM     15  H   UNL A   1      35.769  22.465  23.103  1.00  0.00     0.161 HD
ATOM     16  C   UNL A   1      32.811  25.081  21.951  1.00  0.00     0.044 A 
ATOM     17  Cl  UNL A   1      32.435  25.632  20.364  1.00  0.00    -0.084 Cl
BRANCH   6  18
ATOM     18  N   UNL A   1      33.390  21.878  25.602  1.00  0.00    -0.331 N 
ATOM     19  O   UNL A   1      33.805  21.205  27.755  1.00  0.00    -0.248 OA
ATOM     20  C   UNL A   1      33.522  20.946  26.590  1.00  0.00     0.319 C 
ATOM     21  N   UNL A   1      33.181  19.670  26.254  1.00  0.00    -0.308 N 
ATOM     22  H   UNL A   1      32.755  19.152  26.975  1.00  0.00     0.171 HD
ATOM     23  H   UNL A   1      33.094  21.568  24.717  1.00  0.00     0.166 HD
BRANCH  21  24
ATOM     24  C   UNL A   1      33.339  18.977  25.043  1.00  0.00     0.042 A 
ATOM     25  C   UNL A   1      32.334  19.119  24.080  1.00  0.00     0.026 A 
ATOM     26  C   UNL A   1      34.379  18.072  24.819  1.00  0.00     0.026 A 
ATOM     27  C   UNL A   1      32.379  18.377  22.898  1.00  0.00     0.002 A 
ATOM     28  C   UNL A   1      34.412  17.315  23.646  1.00  0.00     0.002 A 
ATOM     29  C   UNL A   1      33.414  17.469  22.685  1.00  0.00     0.000 A 
ENDBRANCH  21  24
ENDBRANCH   6  18
ENDBRANCH   3   5
ENDBRANCH   2   3
ENDBRANCH   1   2
BRANCH   1  30
ATOM     30  C   UNL A   1      38.667  19.625  24.958  1.00  0.00     0.275 C 
BRANCH  30  31
ATOM     31  O   UNL A   1      39.372  19.775  26.206  1.00  0.00    -0.458 OA
BRANCH  31  32
ATOM     32  C   UNL A   1      40.717  19.688  26.112  1.00  0.00     0.338 C 
ATOM     33  O   UNL A   1      41.376  18.782  25.627  1.00  0.00    -0.246 OA
BRANCH  32  34
ATOM     34  C   UNL A   1      41.338  20.927  26.589  1.00  0.00     0.060 A 
ATOM     35  C   UNL A   1      41.291  21.212  27.953  1.00  0.00     0.016 A 
ATOM     36  C   UNL A   1      41.791  21.878  25.675  1.00  0.00     0.016 A 
ATOM     37  C   UNL A   1      41.628  22.485  28.402  1.00  0.00     0.010 A 
ATOM     38  C   UNL A   1      42.190  23.135  26.138  1.00  0.00     0.010 A 
ATOM     39  C   UNL A   1      42.084  23.460  27.502  1.00  0.00    -0.014 A 
BRANCH  39  40
ATOM     40  C   UNL A   1      42.430  24.820  27.986  1.00  0.00     0.031 A 
ATOM     41  C   UNL A   1      43.863  25.203  28.237  1.00  0.00     0.074 A 
ATOM     42  C   UNL A   1      41.455  25.727  28.185  1.00  0.00     0.049 A 
ATOM     43  N   UNL A   1      44.342  26.284  28.800  1.00  0.00    -0.248 NA
ATOM     44  C   UNL A   1      44.891  24.243  27.807  1.00  0.00     0.031 C 
ATOM     45  C   UNL A   1      40.031  25.506  27.934  1.00  0.00     0.029 A 
ATOM     46  N   UNL A   1      41.519  27.022  28.629  1.00  0.00    -0.354 N 
ATOM     47  C   UNL A   1      45.719  26.116  28.834  1.00  0.00     0.074 A 
ATOM     48  C   UNL A   1      46.003  24.831  28.230  1.00  0.00     0.031 C 
ATOM     49  C   UNL A   1      39.361  26.641  28.188  1.00  0.00     0.029 A 
ATOM     50  C   UNL A   1      40.297  27.644  28.682  1.00  0.00     0.049 A 
ATOM     51  H   UNL A   1      42.362  27.463  28.886  1.00  0.00     0.167 HD
ATOM     52  C   UNL A   1      46.661  26.955  29.328  1.00  0.00     0.037 A 
ATOM     53  C   UNL A   1      39.962  28.875  29.107  1.00  0.00     0.037 A 
ATOM     54  C   UNL A   1      46.389  28.257  29.878  1.00  0.00     0.049 A 
ATOM     55  C   UNL A   1      41.018  29.780  29.666  1.00  0.00     0.074 A 
ATOM     56  C   UNL A   1      47.279  29.180  30.400  1.00  0.00     0.029 A 
ATOM     57  N   UNL A   1      45.129  28.833  29.954  1.00  0.00    -0.354 N 
ATOM     58  N   UNL A   1      42.306  29.572  29.775  1.00  0.00    -0.248 NA
ATOM     59  C   UNL A   1      40.567  31.077  30.189  1.00  0.00     0.031 C 
ATOM     60  C   UNL A   1      46.557  30.308  30.807  1.00  0.00     0.029 A 
ATOM     61  C   UNL A   1      45.219  30.094  30.518  1.00  0.00     0.049 A 
ATOM     62  H   UNL A   1      44.295  28.407  29.650  1.00  0.00     0.167 HD
ATOM     63  C   UNL A   1      42.822  30.707  30.383  1.00  0.00     0.074 A 
ATOM     64  C   UNL A   1      41.709  31.610  30.602  1.00  0.00     0.031 C 
ATOM     65  C   UNL A   1      44.101  30.973  30.739  1.00  0.00     0.037 A 
BRANCH  52  66
ATOM     66  C   UNL A   1      48.080  26.475  29.323  1.00  0.00     0.057 A 
ATOM     67  C   UNL A   1      48.626  25.770  30.401  1.00  0.00     0.134 A 
ATOM     68  C   UNL A   1      48.898  26.697  28.208  1.00  0.00     0.134 A 
ATOM     69  F   UNL A   1      47.896  25.537  31.501  1.00  0.00    -0.206 F 
ATOM     70  C   UNL A   1      49.946  25.314  30.376  1.00  0.00     0.040 A 
ATOM     71  C   UNL A   1      50.213  26.232  28.165  1.00  0.00     0.040 A 
ATOM     72  F   UNL A   1      48.430  27.363  27.142  1.00  0.00    -0.206 F 
ATOM     73  C   UNL A   1      50.741  25.541  29.253  1.00  0.00     0.006 A 
ENDBRANCH  52  66
BRANCH  53  74
ATOM     74  C   UNL A   1      38.548  29.309  29.040  1.00  0.00     0.057 A 
ATOM     75  C   UNL A   1      37.987  29.734  27.832  1.00  0.00     0.134 A 
ATOM     76  C   UNL A   1      37.722  29.282  30.170  1.00  0.00     0.134 A 
ATOM     77  F   UNL A   1      38.738  29.796  26.723  1.00  0.00    -0.206 F 
ATOM     78  C   UNL A   1      36.648  30.117  27.748  1.00  0.00     0.040 A 
ATOM     79  C   UNL A   1      36.378  29.647  30.096  1.00  0.00     0.040 A 
ATOM     80  F   UNL A   1      38.207  28.882  31.354  1.00  0.00    -0.206 F 
ATOM     81  C   UNL A   1      35.838  30.067  28.881  1.00  0.00     0.006 A 
ENDBRANCH  53  74
BRANCH  65  82
ATOM     82  C   UNL A   1      44.358  32.290  31.399  1.00  0.00     0.057 A 
ATOM     83  C   UNL A   1      44.328  32.421  32.792  1.00  0.00     0.134 A 
ATOM     84  C   UNL A   1      44.649  33.430  30.641  1.00  0.00     0.134 A 
ATOM     85  F   UNL A   1      44.039  31.367  33.569  1.00  0.00    -0.206 F 
ATOM     86  C   UNL A   1      44.567  33.649  33.410  1.00  0.00     0.040 A 
ATOM     87  C   UNL A   1      44.902  34.660  31.248  1.00  0.00     0.040 A 
ATOM     88  F   UNL A   1      44.690  33.365  29.302  1.00  0.00    -0.206 F 
ATOM     89  C   UNL A   1      44.858  34.773  32.637  1.00  0.00     0.006 A 
ENDBRANCH  65  82
ENDBRANCH  39  40
ENDBRANCH  32  34
ENDBRANCH  31  32
ENDBRANCH  30  31
ENDBRANCH   1  30
TORSDOF 13
ENDMDL
MODEL 3
REMARK VINA RESULT:     -12.1      0.431      6.182
REMARK SMILES O=C(Nc1ccccc1)N[C@H]1C[C@@H](C(=O)OCCOC(=O)c2ccc(-c3c4nc(c(-c5c(F)cccc5F)c5ccc([nH]5)c(-c5c(F)cccc5F)c5nc(c(-c6c(F)cccc6F)c6ccc3[nH]6)C=C5)C=C4)cc2)Nc2cc(Cl)cc(Cl)c21
REMARK SMILES IDX 17 1 16 2 14 3 15 4 13 5 11 6 12 7 84 8 77 9 82 10 76 11
REMARK SMILES IDX 78 12 81 13 83 14 79 16 80 17 10 18 1 19 2 20 3 21 4 24 5 25
REMARK SMILES IDX 9 26 6 27 8 28 7 29 18 30 19 31 20 32 21 33 22 34 23 35
REMARK SMILES IDX 75 36 24 37 74 38 25 39 26 40 27 41 68 42 28 43 73 44 67 45
REMARK SMILES IDX 69 46 29 47 72 48 66 49 65 50 30 52 56 53 39 54 55 55 40 56
REMARK SMILES IDX 43 57 54 58 70 59 41 60 42 61 53 63 71 64 44 65 31 66 32 67
REMARK SMILES IDX 37 68 33 69 34 70 36 71 38 72 35 73 57 74 58 75 63 76 59 77
REMARK SMILES IDX 60 78 62 79 64 80 61 81 45 82 46 83 51 84 47 85 48 86 50 87
REMARK SMILES IDX 52 88 49 89
REMARK H PARENT 76 15 3 22 10 23 69 51 43 62
REMARK Flexibility Score: inf
ROOT
ATOM      1  C   UNL A   1      37.384  20.284  25.016  1.00  0.00     0.274 C 
ENDROOT
BRANCH   1   2
ATOM      2  O   UNL A   1      37.379  21.559  24.342  1.00  0.00    -0.461 OA
BRANCH   2   3
ATOM      3  C   UNL A   1      37.379  22.665  25.137  1.00  0.00     0.328 C 
ATOM      4  O   UNL A   1      38.315  23.005  25.854  1.00  0.00    -0.250 OA
BRANCH   3   5
ATOM      5  C   UNL A   1      36.119  23.518  24.939  1.00  0.00     0.192 C 
ATOM      6  C   UNL A   1      33.673  23.326  25.741  1.00  0.00     0.120 C 
ATOM      7  C   UNL A   1      35.151  23.524  26.140  1.00  0.00     0.067 C 
ATOM      8  C   UNL A   1      33.393  24.099  24.465  1.00  0.00     0.016 A 
ATOM      9  C   UNL A   1      34.304  23.894  23.417  1.00  0.00     0.043 A 
ATOM     10  C   UNL A   1      32.263  24.893  24.235  1.00  0.00     0.049 A 
ATOM     11  N   UNL A   1      35.450  23.138  23.680  1.00  0.00    -0.372 N 
ATOM     12  C   UNL A   1      34.006  24.320  22.126  1.00  0.00     0.046 A 
ATOM     13  C   UNL A   1      31.991  25.372  22.950  1.00  0.00     0.041 A 
ATOM     14  Cl  UNL A   1      31.174  25.327  25.502  1.00  0.00    -0.084 Cl
ATOM     15  H   UNL A   1      35.778  22.424  23.087  1.00  0.00     0.161 HD
ATOM     16  C   UNL A   1      32.848  25.057  21.899  1.00  0.00     0.044 A 
ATOM     17  Cl  UNL A   1      32.480  25.592  20.305  1.00  0.00    -0.084 Cl
BRANCH   6  18
ATOM     18  N   UNL A   1      33.389  21.893  25.590  1.00  0.00    -0.331 N 
ATOM     19  O   UNL A   1      33.813  21.238  27.747  1.00  0.00    -0.248 OA
ATOM     20  C   UNL A   1      33.519  20.970  26.587  1.00  0.00     0.319 C 
ATOM     21  N   UNL A   1      33.163  19.693  26.267  1.00  0.00    -0.308 N 
ATOM     22  H   UNL A   1      32.738  19.188  26.996  1.00  0.00     0.171 HD
ATOM     23  H   UNL A   1      33.085  21.576  24.710  1.00  0.00     0.166 HD
BRANCH  21  24
ATOM     24  C   UNL A   1      33.307  18.986  25.062  1.00  0.00     0.042 A 
ATOM     25  C   UNL A   1      32.295  19.125  24.105  1.00  0.00     0.026 A 
ATOM     26  C   UNL A   1      34.338  18.071  24.840  1.00  0.00     0.026 A 
ATOM     27  C   UNL A   1      32.325  18.370  22.932  1.00  0.00     0.002 A 
ATOM     28  C   UNL A   1      34.356  17.301  23.674  1.00  0.00     0.002 A 
ATOM     29  C   UNL A   1      33.352  17.452  22.720  1.00  0.00     0.000 A 
ENDBRANCH  21  24
ENDBRANCH   6  18
ENDBRANCH   3   5
ENDBRANCH   2   3
ENDBRANCH   1   2
BRANCH   1  30
ATOM     30  C   UNL A   1      38.774  19.648  24.933  1.00  0.00     0.275 C 
BRANCH  30  31
ATOM     31  O   UNL A   1      39.469  19.732  26.192  1.00  0.00    -0.458 OA
BRANCH  31  32
ATOM     32  C   UNL A   1      40.815  19.660  26.104  1.00  0.00     0.338 C 
ATOM     33  O   UNL A   1      41.485  18.764  25.615  1.00  0.00    -0.246 OA
BRANCH  32  34
ATOM     34  C   UNL A   1      41.422  20.901  26.593  1.00  0.00     0.060 A 
ATOM     35  C   UNL A   1      41.361  21.178  27.958  1.00  0.00     0.016 A 
ATOM     36  C   UNL A   1      41.874  21.861  25.688  1.00  0.00     0.016 A 
ATOM     37  C   UNL A   1      41.684  22.451  28.417  1.00  0.00     0.010 A 
ATOM     38  C   UNL A   1      42.260  23.118  26.161  1.00  0.00     0.010 A 
ATOM     39  C   UNL A   1      42.139  23.434  27.526  1.00  0.00    -0.014 A 
BRANCH  39  40
ATOM     40  C   UNL A   1      42.470  24.795  28.021  1.00  0.00     0.031 A 
ATOM     41  C   UNL A   1      43.897  25.187  28.289  1.00  0.00     0.074 A 
ATOM     42  C   UNL A   1      41.486  25.693  28.213  1.00  0.00     0.049 A 
ATOM     43  N   UNL A   1      44.362  26.269  28.862  1.00  0.00    -0.248 NA
ATOM     44  C   UNL A   1      44.936  24.237  27.865  1.00  0.00     0.031 C 
ATOM     45  C   UNL A   1      40.066  25.464  27.946  1.00  0.00     0.029 A 
ATOM     46  N   UNL A   1      41.536  26.987  28.665  1.00  0.00    -0.354 N 
ATOM     47  C   UNL A   1      45.740  26.111  28.910  1.00  0.00     0.074 A 
ATOM     48  C   UNL A   1      46.039  24.831  28.303  1.00  0.00     0.031 C 
ATOM     49  C   UNL A   1      39.385  26.592  28.199  1.00  0.00     0.029 A 
ATOM     50  C   UNL A   1      40.309  27.600  28.708  1.00  0.00     0.049 A 
ATOM     51  H   UNL A   1      42.372  27.433  28.933  1.00  0.00     0.167 HD
ATOM     52  C   UNL A   1      46.670  26.954  29.419  1.00  0.00     0.037 A 
ATOM     53  C   UNL A   1      39.960  28.826  29.135  1.00  0.00     0.037 A 
ATOM     54  C   UNL A   1      46.383  28.252  29.972  1.00  0.00     0.049 A 
ATOM     55  C   UNL A   1      41.003  29.735  29.710  1.00  0.00     0.074 A 
ATOM     56  C   UNL A   1      47.261  29.178  30.508  1.00  0.00     0.029 A 
ATOM     57  N   UNL A   1      45.118  28.817  30.037  1.00  0.00    -0.354 N 
ATOM     58  N   UNL A   1      42.291  29.537  29.832  1.00  0.00    -0.248 NA
ATOM     59  C   UNL A   1      40.537  31.027  30.235  1.00  0.00     0.031 C 
ATOM     60  C   UNL A   1      46.526  30.299  30.913  1.00  0.00     0.029 A 
ATOM     61  C   UNL A   1      45.193  30.076  30.608  1.00  0.00     0.049 A 
ATOM     62  H   UNL A   1      44.290  28.387  29.723  1.00  0.00     0.167 HD
ATOM     63  C   UNL A   1      42.792  30.673  30.451  1.00  0.00     0.074 A 
ATOM     64  C   UNL A   1      41.670  31.566  30.662  1.00  0.00     0.031 C 
ATOM     65  C   UNL A   1      44.066  30.946  30.822  1.00  0.00     0.037 A 
BRANCH  52  66
ATOM     66  C   UNL A   1      48.092  26.485  29.426  1.00  0.00     0.057 A 
ATOM     67  C   UNL A   1      48.964  26.748  28.364  1.00  0.00     0.134 A 
ATOM     68  C   UNL A   1      48.602  25.787  30.528  1.00  0.00     0.134 A 
ATOM     69  F   UNL A   1      48.532  27.402  27.276  1.00  0.00    -0.206 F 
ATOM     70  C   UNL A   1      50.293  26.320  28.391  1.00  0.00     0.040 A 
ATOM     71  C   UNL A   1      49.932  25.368  30.575  1.00  0.00     0.040 A 
ATOM     72  F   UNL A   1      47.816  25.507  31.579  1.00  0.00    -0.206 F 
ATOM     73  C   UNL A   1      50.781  25.631  29.502  1.00  0.00     0.006 A 
ENDBRANCH  52  66
BRANCH  53  74
ATOM     74  C   UNL A   1      38.543  29.250  29.055  1.00  0.00     0.057 A 
ATOM     75  C   UNL A   1      37.716  29.197  30.181  1.00  0.00     0.134 A 
ATOM     76  C   UNL A   1      37.995  29.740  27.864  1.00  0.00     0.134 A 
ATOM     77  F   UNL A   1      38.185  28.718  31.342  1.00  0.00    -0.206 F 
ATOM     78  C   UNL A   1      36.388  29.621  30.127  1.00  0.00     0.040 A 
ATOM     79  C   UNL A   1      36.674  30.183  27.801  1.00  0.00     0.040 A 
ATOM     80  F   UNL A   1      38.743  29.814  26.754  1.00  0.00    -0.206 F 
ATOM     81  C   UNL A   1      35.866  30.123  28.936  1.00  0.00     0.006 A 
ENDBRANCH  53  74
BRANCH  65  82
ATOM     82  C   UNL A   1      44.305  32.261  31.491  1.00  0.00     0.057 A 
ATOM     83  C   UNL A   1      44.593  33.412  30.749  1.00  0.00     0.134 A 
ATOM     84  C   UNL A   1      44.235  32.382  32.884  1.00  0.00     0.134 A 
ATOM     85  F   UNL A   1      44.689  33.353  29.412  1.00  0.00    -0.206 F 
ATOM     86  C   UNL A   1      44.817  34.641  31.372  1.00  0.00     0.040 A 
ATOM     87  C   UNL A   1      44.445  33.608  33.517  1.00  0.00     0.040 A 
ATOM     88  F   UNL A   1      43.964  31.313  33.648  1.00  0.00    -0.206 F 
ATOM     89  C   UNL A   1      44.740  34.741  32.760  1.00  0.00     0.006 A 
ENDBRANCH  65  82
ENDBRANCH  39  40
ENDBRANCH  32  34
ENDBRANCH  31  32
ENDBRANCH  30  31
ENDBRANCH   1  30
TORSDOF 13
ENDMDL
