MODEL 1
REMARK VINA RESULT:     -12.8      0.000      0.000
REMARK SMILES O=C(OCCOC(=O)[C@@H]1[C@H](C(=O)Nc2cccc(Cl)c2F)[C@@H]2C=C[C@H]1C2)c1ccc(-c2c3nc(c(-c4c(F)cccc4F)c4ccc([nH]4)c(-c4c(F)cccc4F)c4nc(c(-c5c(F)cccc5F)c5ccc2[nH]5)C=C4)C=C3)cc1
REMARK SMILES IDX 4 1 3 2 2 3 1 4 27 5 28 6 80 7 29 8 79 9 30 10 31 11 32 12
REMARK SMILES IDX 73 13 33 14 78 15 72 16 74 17 34 18 77 19 71 20 70 21 35 23
REMARK SMILES IDX 61 24 44 25 60 26 45 27 48 28 59 29 75 30 46 31 47 32 58 34
REMARK SMILES IDX 76 35 49 36 36 37 37 38 42 39 38 40 39 41 41 42 43 43 40 44
REMARK SMILES IDX 62 45 63 46 68 47 64 48 65 49 67 50 69 51 66 52 50 53 51 54
REMARK SMILES IDX 56 55 52 56 53 57 55 58 57 59 54 60 5 61 6 62 7 63 8 64 9 65
REMARK SMILES IDX 10 66 25 67 22 68 24 69 26 70 23 71 11 72 12 73 13 74 14 76
REMARK SMILES IDX 15 77 20 78 16 79 18 80 21 81 17 82 19 83
REMARK H PARENT 74 22 48 33 13 75
REMARK Flexibility Score: inf
ROOT
ATOM      1  C   UNL A   1      32.730  30.698  26.880  1.00  0.00     0.275 C 
ENDROOT
BRANCH   1   2
ATOM      2  O   UNL A   1      33.668  30.399  27.926  1.00  0.00    -0.458 OA
BRANCH   2   3
ATOM      3  C   UNL A   1      34.372  31.474  28.338  1.00  0.00     0.338 C 
ATOM      4  O   UNL A   1      34.007  32.606  28.104  1.00  0.00    -0.246 OA
BRANCH   3   5
ATOM      5  C   UNL A   1      35.710  30.921  28.913  1.00  0.00     0.060 A 
ATOM      6  C   UNL A   1      36.801  30.582  27.513  1.00  0.00     0.016 A 
ATOM      7  C   UNL A   1      36.206  30.096  30.549  1.00  0.00     0.016 A 
ATOM      8  C   UNL A   1      38.176  29.642  27.596  1.00  0.00     0.010 A 
ATOM      9  C   UNL A   1      37.649  28.975  30.507  1.00  0.00     0.010 A 
ATOM     10  C   UNL A   1      38.646  28.915  29.053  1.00  0.00    -0.014 A 
BRANCH  10  11
ATOM     11  C   UNL A   1      40.083  28.523  29.001  1.00  0.00     0.031 A 
ATOM     12  C   UNL A   1      41.022  29.576  29.438  1.00  0.00     0.074 A 
ATOM     13  C   UNL A   1      40.508  27.259  28.717  1.00  0.00     0.049 A 
ATOM     14  N   UNL A   1      42.320  29.569  29.459  1.00  0.00    -0.248 NA
ATOM     15  C   UNL A   1      40.398  30.814  29.921  1.00  0.00     0.031 C 
ATOM     16  C   UNL A   1      39.684  26.065  28.469  1.00  0.00     0.029 A 
ATOM     17  N   UNL A   1      41.782  26.743  28.580  1.00  0.00    -0.354 N 
ATOM     18  C   UNL A   1      42.666  30.819  29.939  1.00  0.00     0.074 A 
ATOM     19  C   UNL A   1      41.453  31.576  30.121  1.00  0.00     0.031 C 
ATOM     20  C   UNL A   1      40.441  25.022  28.104  1.00  0.00     0.029 A 
ATOM     21  C   UNL A   1      41.825  25.432  28.135  1.00  0.00     0.049 A 
ATOM     22  H   UNL A   1      42.593  27.264  28.782  1.00  0.00     0.167 HD
ATOM     23  C   UNL A   1      43.901  31.278  30.223  1.00  0.00     0.037 A 
ATOM     24  C   UNL A   1      42.856  24.635  27.791  1.00  0.00     0.037 A 
ATOM     25  C   UNL A   1      45.079  30.495  29.994  1.00  0.00     0.049 A 
ATOM     26  C   UNL A   1      44.227  25.207  27.983  1.00  0.00     0.074 A 
ATOM     27  C   UNL A   1      46.397  30.850  30.175  1.00  0.00     0.029 A 
ATOM     28  N   UNL A   1      45.065  29.192  29.502  1.00  0.00    -0.354 N 
ATOM     29  N   UNL A   1      44.550  26.400  28.426  1.00  0.00    -0.248 NA
ATOM     30  C   UNL A   1      45.368  24.348  27.660  1.00  0.00     0.031 C 
ATOM     31  C   UNL A   1      47.185  29.796  29.705  1.00  0.00     0.029 A 
ATOM     32  C   UNL A   1      46.359  28.743  29.329  1.00  0.00     0.049 A 
ATOM     33  H   UNL A   1      44.255  28.669  29.307  1.00  0.00     0.167 HD
ATOM     34  C   UNL A   1      45.931  26.428  28.468  1.00  0.00     0.074 A 
ATOM     35  C   UNL A   1      46.384  25.129  28.004  1.00  0.00     0.031 C 
ATOM     36  C   UNL A   1      46.750  27.432  28.864  1.00  0.00     0.037 A 
BRANCH  23  37
ATOM     37  C   UNL A   1      43.974  32.700  30.684  1.00  0.00     0.057 A 
ATOM     38  C   UNL A   1      43.855  33.058  32.037  1.00  0.00     0.134 A 
ATOM     39  C   UNL A   1      43.987  33.733  29.741  1.00  0.00     0.134 A 
ATOM     40  F   UNL A   1      43.787  32.114  32.988  1.00  0.00    -0.206 F 
ATOM     41  C   UNL A   1      43.668  34.386  32.423  1.00  0.00     0.040 A 
ATOM     42  C   UNL A   1      43.848  35.067  30.121  1.00  0.00     0.040 A 
ATOM     43  F   UNL A   1      44.080  33.460  28.431  1.00  0.00    -0.206 F 
ATOM     44  C   UNL A   1      43.662  35.394  31.463  1.00  0.00     0.006 A 
ENDBRANCH  23  37
BRANCH  24  45
ATOM     45  C   UNL A   1      42.630  23.260  27.246  1.00  0.00     0.057 A 
ATOM     46  C   UNL A   1      42.728  22.969  25.878  1.00  0.00     0.134 A 
ATOM     47  C   UNL A   1      42.322  22.185  28.094  1.00  0.00     0.134 A 
ATOM     48  F   UNL A   1      43.009  23.943  25.000  1.00  0.00    -0.206 F 
ATOM     49  C   UNL A   1      42.517  21.678  25.377  1.00  0.00     0.040 A 
ATOM     50  C   UNL A   1      42.131  20.885  27.611  1.00  0.00     0.040 A 
ATOM     51  F   UNL A   1      42.217  22.377  29.417  1.00  0.00    -0.206 F 
ATOM     52  C   UNL A   1      42.223  20.629  26.246  1.00  0.00     0.006 A 
ENDBRANCH  24  45
BRANCH  36  53
ATOM     53  C   UNL A   1      48.219  27.151  28.854  1.00  0.00     0.057 A 
ATOM     54  C   UNL A   1      48.872  26.590  29.956  1.00  0.00     0.134 A 
ATOM     55  C   UNL A   1      48.950  27.327  27.673  1.00  0.00     0.134 A 
ATOM     56  F   UNL A   1      48.222  26.410  31.116  1.00  0.00    -0.206 F 
ATOM     57  C   UNL A   1      50.210  26.211  29.881  1.00  0.00     0.040 A 
ATOM     58  C   UNL A   1      50.274  26.915  27.574  1.00  0.00     0.040 A 
ATOM     59  F   UNL A   1      48.367  27.850  26.582  1.00  0.00    -0.206 F 
ATOM     60  C   UNL A   1      50.907  26.356  28.683  1.00  0.00     0.006 A 
ENDBRANCH  36  53
ENDBRANCH  10  11
ENDBRANCH   3   5
ENDBRANCH   2   3
ENDBRANCH   1   2
BRANCH   1  61
ATOM     61  C   UNL A   1      32.670  29.702  25.645  1.00  0.00     0.274 C 
BRANCH  61  62
ATOM     62  O   UNL A   1      31.460  28.844  25.574  1.00  0.00    -0.462 OA
BRANCH  62  63
ATOM     63  C   UNL A   1      31.348  27.566  26.091  1.00  0.00     0.310 C 
ATOM     64  O   UNL A   1      31.431  27.311  27.280  1.00  0.00    -0.252 OA
BRANCH  63  65
ATOM     65  C   UNL A   1      31.198  26.486  24.934  1.00  0.00     0.119 C 
ATOM     66  C   UNL A   1      30.720  24.729  25.050  1.00  0.00     0.100 C 
ATOM     67  C   UNL A   1      32.211  26.577  23.718  1.00  0.00     0.027 C 
ATOM     68  C   UNL A   1      31.475  24.476  23.353  1.00  0.00     0.025 C 
ATOM     69  C   UNL A   1      33.414  25.649  23.669  1.00  0.00    -0.027 C 
ATOM     70  C   UNL A   1      31.410  25.825  22.650  1.00  0.00     0.017 C 
ATOM     71  C   UNL A   1      32.997  24.425  23.324  1.00  0.00    -0.027 C 
BRANCH  66  72
ATOM     72  C   UNL A   1      30.728  23.289  26.713  1.00  0.00     0.229 C 
ATOM     73  O   UNL A   1      29.904  22.973  27.621  1.00  0.00    -0.274 OA
ATOM     74  N   UNL A   1      32.076  22.225  27.033  1.00  0.00    -0.323 N 
ATOM     75  H   UNL A   1      31.918  21.661  27.825  1.00  0.00     0.170 HD
BRANCH  74  76
ATOM     76  C   UNL A   1      33.547  21.922  26.350  1.00  0.00     0.078 A 
ATOM     77  C   UNL A   1      33.742  20.674  25.762  1.00  0.00     0.029 A 
ATOM     78  C   UNL A   1      34.707  22.813  26.127  1.00  0.00     0.165 A 
ATOM     79  C   UNL A   1      34.922  20.388  25.003  1.00  0.00     0.004 A 
ATOM     80  C   UNL A   1      35.893  22.499  25.467  1.00  0.00     0.078 A 
ATOM     81  F   UNL A   1      34.721  24.103  26.498  1.00  0.00    -0.203 F 
ATOM     82  C   UNL A   1      35.992  21.283  24.863  1.00  0.00     0.024 A 
ATOM     83  Cl  UNL A   1      37.178  23.654  25.355  1.00  0.00    -0.081 Cl
ENDBRANCH  74  76
ENDBRANCH  66  72
ENDBRANCH  63  65
ENDBRANCH  62  63
ENDBRANCH  61  62
ENDBRANCH   1  61
TORSDOF 13
ENDMDL
MODEL 2
REMARK VINA RESULT:     -12.8      0.800      1.039
REMARK SMILES O=C(OCCOC(=O)[C@@H]1[C@H](C(=O)Nc2cccc(Cl)c2F)[C@@H]2C=C[C@H]1C2)c1ccc(-c2c3nc(c(-c4c(F)cccc4F)c4ccc([nH]4)c(-c4c(F)cccc4F)c4nc(c(-c5c(F)cccc5F)c5ccc2[nH]5)C=C4)C=C3)cc1
REMARK SMILES IDX 4 1 3 2 2 3 1 4 27 5 28 6 80 7 29 8 79 9 30 10 31 11 32 12
REMARK SMILES IDX 73 13 33 14 78 15 72 16 74 17 34 18 77 19 71 20 70 21 35 23
REMARK SMILES IDX 61 24 44 25 60 26 45 27 48 28 59 29 75 30 46 31 47 32 58 34
REMARK SMILES IDX 76 35 49 36 36 37 37 38 42 39 38 40 39 41 41 42 43 43 40 44
REMARK SMILES IDX 62 45 63 46 68 47 64 48 65 49 67 50 69 51 66 52 50 53 51 54
REMARK SMILES IDX 56 55 52 56 53 57 55 58 57 59 54 60 5 61 6 62 7 63 8 64 9 65
REMARK SMILES IDX 10 66 25 67 22 68 24 69 26 70 23 71 11 72 12 73 13 74 14 76
REMARK SMILES IDX 15 77 20 78 16 79 18 80 21 81 17 82 19 83
REMARK H PARENT 74 22 48 33 13 75
REMARK Flexibility Score: inf
ROOT
ATOM      1  C   UNL A   1      33.269  30.378  26.792  1.00  0.00     0.275 C 
ENDROOT
BRANCH   1   2
ATOM      2  O   UNL A   1      33.671  30.522  28.163  1.00  0.00    -0.458 OA
BRANCH   2   3
ATOM      3  C   UNL A   1      34.491  31.572  28.375  1.00  0.00     0.338 C 
ATOM      4  O   UNL A   1      34.208  32.690  27.998  1.00  0.00    -0.246 OA
BRANCH   3   5
ATOM      5  C   UNL A   1      35.812  30.983  28.949  1.00  0.00     0.060 A 
ATOM      6  C   UNL A   1      36.915  30.665  27.553  1.00  0.00     0.016 A 
ATOM      7  C   UNL A   1      36.275  30.104  30.568  1.00  0.00     0.016 A 
ATOM      8  C   UNL A   1      38.274  29.702  27.627  1.00  0.00     0.010 A 
ATOM      9  C   UNL A   1      37.701  28.962  30.511  1.00  0.00     0.010 A 
ATOM     10  C   UNL A   1      38.715  28.927  29.068  1.00  0.00    -0.014 A 
BRANCH  10  11
ATOM     11  C   UNL A   1      40.146  28.514  29.021  1.00  0.00     0.031 A 
ATOM     12  C   UNL A   1      41.098  29.550  29.468  1.00  0.00     0.074 A 
ATOM     13  C   UNL A   1      40.554  27.245  28.734  1.00  0.00     0.049 A 
ATOM     14  N   UNL A   1      42.396  29.525  29.496  1.00  0.00    -0.248 NA
ATOM     15  C   UNL A   1      40.490  30.796  29.953  1.00  0.00     0.031 C 
ATOM     16  C   UNL A   1      39.714  26.064  28.477  1.00  0.00     0.029 A 
ATOM     17  N   UNL A   1      41.821  26.711  28.602  1.00  0.00    -0.354 N 
ATOM     18  C   UNL A   1      42.758  30.767  29.983  1.00  0.00     0.074 A 
ATOM     19  C   UNL A   1      41.555  31.541  30.162  1.00  0.00     0.031 C 
ATOM     20  C   UNL A   1      40.456  25.012  28.111  1.00  0.00     0.029 A 
ATOM     21  C   UNL A   1      41.846  25.400  28.151  1.00  0.00     0.049 A 
ATOM     22  H   UNL A   1      42.638  27.218  28.811  1.00  0.00     0.167 HD
ATOM     23  C   UNL A   1      43.998  31.206  30.276  1.00  0.00     0.037 A 
ATOM     24  C   UNL A   1      42.867  24.590  27.810  1.00  0.00     0.037 A 
ATOM     25  C   UNL A   1      45.165  30.407  30.050  1.00  0.00     0.049 A 
ATOM     26  C   UNL A   1      44.245  25.140  28.012  1.00  0.00     0.074 A 
ATOM     27  C   UNL A   1      46.488  30.741  30.239  1.00  0.00     0.029 A 
ATOM     28  N   UNL A   1      45.135  29.106  29.552  1.00  0.00    -0.354 N 
ATOM     29  N   UNL A   1      44.584  26.327  28.461  1.00  0.00    -0.248 NA
ATOM     30  C   UNL A   1      45.376  24.266  27.691  1.00  0.00     0.031 C 
ATOM     31  C   UNL A   1      47.262  29.678  29.769  1.00  0.00     0.029 A 
ATOM     32  C   UNL A   1      46.423  28.639  29.384  1.00  0.00     0.049 A 
ATOM     33  H   UNL A   1      44.318  28.596  29.351  1.00  0.00     0.167 HD
ATOM     34  C   UNL A   1      45.965  26.334  28.511  1.00  0.00     0.074 A 
ATOM     35  C   UNL A   1      46.401  25.030  28.044  1.00  0.00     0.031 C 
ATOM     36  C   UNL A   1      46.797  27.324  28.916  1.00  0.00     0.037 A 
BRANCH  23  37
ATOM     37  C   UNL A   1      44.090  32.625  30.743  1.00  0.00     0.057 A 
ATOM     38  C   UNL A   1      43.876  32.990  32.082  1.00  0.00     0.134 A 
ATOM     39  C   UNL A   1      44.220  33.655  29.805  1.00  0.00     0.134 A 
ATOM     40  F   UNL A   1      43.692  32.051  33.024  1.00  0.00    -0.206 F 
ATOM     41  C   UNL A   1      43.710  34.325  32.454  1.00  0.00     0.040 A 
ATOM     42  C   UNL A   1      44.104  34.995  30.174  1.00  0.00     0.040 A 
ATOM     43  F   UNL A   1      44.409  33.376  28.507  1.00  0.00    -0.206 F 
ATOM     44  C   UNL A   1      43.823  35.331  31.497  1.00  0.00     0.006 A 
ENDBRANCH  23  37
BRANCH  24  45
ATOM     45  C   UNL A   1      42.624  23.221  27.258  1.00  0.00     0.057 A 
ATOM     46  C   UNL A   1      42.675  22.945  25.885  1.00  0.00     0.134 A 
ATOM     47  C   UNL A   1      42.345  22.136  28.104  1.00  0.00     0.134 A 
ATOM     48  F   UNL A   1      42.926  23.929  25.008  1.00  0.00    -0.206 F 
ATOM     49  C   UNL A   1      42.448  21.659  25.376  1.00  0.00     0.040 A 
ATOM     50  C   UNL A   1      42.139  20.841  27.613  1.00  0.00     0.040 A 
ATOM     51  F   UNL A   1      42.285  22.314  29.432  1.00  0.00    -0.206 F 
ATOM     52  C   UNL A   1      42.185  20.601  26.243  1.00  0.00     0.006 A 
ENDBRANCH  24  45
BRANCH  36  53
ATOM     53  C   UNL A   1      48.261  27.021  28.912  1.00  0.00     0.057 A 
ATOM     54  C   UNL A   1      48.883  26.365  29.979  1.00  0.00     0.134 A 
ATOM     55  C   UNL A   1      49.019  27.278  27.763  1.00  0.00     0.134 A 
ATOM     56  F   UNL A   1      48.206  26.105  31.108  1.00  0.00    -0.206 F 
ATOM     57  C   UNL A   1      50.216  25.971  29.900  1.00  0.00     0.040 A 
ATOM     58  C   UNL A   1      50.339  26.853  27.658  1.00  0.00     0.040 A 
ATOM     59  F   UNL A   1      48.466  27.894  26.706  1.00  0.00    -0.206 F 
ATOM     60  C   UNL A   1      50.941  26.199  28.731  1.00  0.00     0.006 A 
ENDBRANCH  36  53
ENDBRANCH  10  11
ENDBRANCH   3   5
ENDBRANCH   2   3
ENDBRANCH   1   2
BRANCH   1  61
ATOM     61  C   UNL A   1      33.739  29.069  26.026  1.00  0.00     0.274 C 
BRANCH  61  62
ATOM     62  O   UNL A   1      33.095  27.805  26.466  1.00  0.00    -0.462 OA
BRANCH  62  63
ATOM     63  C   UNL A   1      31.783  27.674  26.882  1.00  0.00     0.310 C 
ATOM     64  O   UNL A   1      31.402  27.949  28.007  1.00  0.00    -0.252 OA
BRANCH  63  65
ATOM     65  C   UNL A   1      30.876  27.035  25.743  1.00  0.00     0.119 C 
ATOM     66  C   UNL A   1      30.006  25.432  25.723  1.00  0.00     0.100 C 
ATOM     67  C   UNL A   1      31.291  27.317  24.240  1.00  0.00     0.027 C 
ATOM     68  C   UNL A   1      29.904  25.581  23.858  1.00  0.00     0.025 C 
ATOM     69  C   UNL A   1      32.052  26.260  23.456  1.00  0.00    -0.027 C 
ATOM     70  C   UNL A   1      29.948  27.069  23.544  1.00  0.00     0.017 C 
ATOM     71  C   UNL A   1      31.200  25.285  23.114  1.00  0.00    -0.027 C 
BRANCH  66  72
ATOM     72  C   UNL A   1      30.273  23.576  26.874  1.00  0.00     0.229 C 
ATOM     73  O   UNL A   1      29.529  22.878  27.624  1.00  0.00    -0.274 OA
ATOM     74  N   UNL A   1      31.776  22.686  26.894  1.00  0.00    -0.323 N 
ATOM     75  H   UNL A   1      31.725  21.893  27.475  1.00  0.00     0.170 HD
BRANCH  74  76
ATOM     76  C   UNL A   1      33.261  22.834  26.190  1.00  0.00     0.078 A 
ATOM     77  C   UNL A   1      33.725  24.122  25.927  1.00  0.00     0.029 A 
ATOM     78  C   UNL A   1      34.288  21.815  25.884  1.00  0.00     0.165 A 
ATOM     79  C   UNL A   1      35.065  24.349  25.474  1.00  0.00     0.004 A 
ATOM     80  C   UNL A   1      35.558  22.034  25.355  1.00  0.00     0.078 A 
ATOM     81  F   UNL A   1      34.128  20.510  26.154  1.00  0.00    -0.203 F 
ATOM     82  C   UNL A   1      35.971  23.320  25.181  1.00  0.00     0.024 A 
ATOM     83  Cl  UNL A   1      36.612  20.708  25.000  1.00  0.00    -0.081 Cl
ENDBRANCH  74  76
ENDBRANCH  66  72
ENDBRANCH  63  65
ENDBRANCH  62  63
ENDBRANCH  61  62
ENDBRANCH   1  61
TORSDOF 13
ENDMDL
MODEL 3
REMARK VINA RESULT:     -12.7      0.976      1.394
REMARK SMILES O=C(OCCOC(=O)[C@@H]1[C@H](C(=O)Nc2cccc(Cl)c2F)[C@@H]2C=C[C@H]1C2)c1ccc(-c2c3nc(c(-c4c(F)cccc4F)c4ccc([nH]4)c(-c4c(F)cccc4F)c4nc(c(-c5c(F)cccc5F)c5ccc2[nH]5)C=C4)C=C3)cc1
REMARK SMILES IDX 4 1 3 2 2 3 1 4 27 5 28 6 80 7 29 8 79 9 30 10 31 11 32 12
REMARK SMILES IDX 73 13 33 14 78 15 72 16 74 17 34 18 77 19 71 20 70 21 35 23
REMARK SMILES IDX 61 24 44 25 60 26 45 27 48 28 59 29 75 30 46 31 47 32 58 34
REMARK SMILES IDX 76 35 49 36 36 37 37 38 42 39 38 40 39 41 41 42 43 43 40 44
REMARK SMILES IDX 62 45 63 46 68 47 64 48 65 49 67 50 69 51 66 52 50 53 51 54
REMARK SMILES IDX 56 55 52 56 53 57 55 58 57 59 54 60 5 61 6 62 7 63 8 64 9 65
REMARK SMILES IDX 10 66 25 67 22 68 24 69 26 70 23 71 11 72 12 73 13 74 14 76
REMARK SMILES IDX 15 77 20 78 16 79 18 80 21 81 17 82 19 83
REMARK H PARENT 74 22 48 33 13 75
REMARK Flexibility Score: inf
ROOT
ATOM      1  C   UNL A   1      33.508  30.557  26.893  1.00  0.00     0.275 C 
ENDROOT
BRANCH   1   2
ATOM      2  O   UNL A   1      33.981  30.448  28.244  1.00  0.00    -0.458 OA
BRANCH   2   3
ATOM      3  C   UNL A   1      34.821  31.443  28.600  1.00  0.00     0.338 C 
ATOM      4  O   UNL A   1      34.546  32.610  28.415  1.00  0.00    -0.246 OA
BRANCH   3   5
ATOM      5  C   UNL A   1      36.148  30.755  29.038  1.00  0.00     0.060 A 
ATOM      6  C   UNL A   1      37.122  30.458  27.545  1.00  0.00     0.016 A 
ATOM      7  C   UNL A   1      36.682  29.766  30.568  1.00  0.00     0.016 A 
ATOM      8  C   UNL A   1      38.427  29.423  27.462  1.00  0.00     0.010 A 
ATOM      9  C   UNL A   1      38.033  28.556  30.341  1.00  0.00     0.010 A 
ATOM     10  C   UNL A   1      38.931  28.548  28.822  1.00  0.00    -0.014 A 
BRANCH  10  11
ATOM     11  C   UNL A   1      40.329  28.065  28.642  1.00  0.00     0.031 A 
ATOM     12  C   UNL A   1      41.368  29.088  28.880  1.00  0.00     0.074 A 
ATOM     13  C   UNL A   1      40.652  26.759  28.420  1.00  0.00     0.049 A 
ATOM     14  N   UNL A   1      42.657  29.003  28.757  1.00  0.00    -0.248 NA
ATOM     15  C   UNL A   1      40.870  30.397  29.324  1.00  0.00     0.031 C 
ATOM     16  C   UNL A   1      39.742  25.603  28.368  1.00  0.00     0.029 A 
ATOM     17  N   UNL A   1      41.872  26.156  28.185  1.00  0.00    -0.354 N 
ATOM     18  C   UNL A   1      43.122  30.262  29.087  1.00  0.00     0.074 A 
ATOM     19  C   UNL A   1      41.980  31.105  29.340  1.00  0.00     0.031 C 
ATOM     20  C   UNL A   1      40.395  24.489  28.010  1.00  0.00     0.029 A 
ATOM     21  C   UNL A   1      41.792  24.813  27.850  1.00  0.00     0.049 A 
ATOM     22  H   UNL A   1      42.727  26.639  28.250  1.00  0.00     0.167 HD
ATOM     23  C   UNL A   1      44.404  30.664  29.191  1.00  0.00     0.037 A 
ATOM     24  C   UNL A   1      42.733  23.930  27.462  1.00  0.00     0.037 A 
ATOM     25  C   UNL A   1      45.504  29.795  28.898  1.00  0.00     0.049 A 
ATOM     26  C   UNL A   1      44.145  24.429  27.450  1.00  0.00     0.074 A 
ATOM     27  C   UNL A   1      46.852  30.080  28.899  1.00  0.00     0.029 A 
ATOM     28  N   UNL A   1      45.365  28.460  28.523  1.00  0.00    -0.354 N 
ATOM     29  N   UNL A   1      44.580  25.630  27.751  1.00  0.00    -0.248 NA
ATOM     30  C   UNL A   1      45.194  23.478  27.075  1.00  0.00     0.031 C 
ATOM     31  C   UNL A   1      47.522  28.946  28.435  1.00  0.00     0.029 A 
ATOM     32  C   UNL A   1      46.604  27.920  28.244  1.00  0.00     0.049 A 
ATOM     33  H   UNL A   1      44.511  27.975  28.465  1.00  0.00     0.167 HD
ATOM     34  C   UNL A   1      45.957  25.576  27.635  1.00  0.00     0.074 A 
ATOM     35  C   UNL A   1      46.283  24.219  27.235  1.00  0.00     0.031 C 
ATOM     36  C   UNL A   1      46.868  26.555  27.851  1.00  0.00     0.037 A 
BRANCH  23  37
ATOM     37  C   UNL A   1      44.606  32.111  29.518  1.00  0.00     0.057 A 
ATOM     38  C   UNL A   1      44.738  33.094  28.524  1.00  0.00     0.134 A 
ATOM     39  C   UNL A   1      44.848  32.494  30.842  1.00  0.00     0.134 A 
ATOM     40  F   UNL A   1      44.569  32.781  27.229  1.00  0.00    -0.206 F 
ATOM     41  C   UNL A   1      45.178  34.382  28.829  1.00  0.00     0.040 A 
ATOM     42  C   UNL A   1      45.242  33.792  31.163  1.00  0.00     0.040 A 
ATOM     43  F   UNL A   1      44.757  31.601  31.838  1.00  0.00    -0.206 F 
ATOM     44  C   UNL A   1      45.433  34.733  30.153  1.00  0.00     0.006 A 
ENDBRANCH  23  37
BRANCH  24  45
ATOM     45  C   UNL A   1      42.373  22.533  27.063  1.00  0.00     0.057 A 
ATOM     46  C   UNL A   1      42.423  22.095  25.733  1.00  0.00     0.134 A 
ATOM     47  C   UNL A   1      41.979  21.585  28.020  1.00  0.00     0.134 A 
ATOM     48  F   UNL A   1      42.780  22.943  24.757  1.00  0.00    -0.206 F 
ATOM     49  C   UNL A   1      42.086  20.785  25.369  1.00  0.00     0.040 A 
ATOM     50  C   UNL A   1      41.661  20.265  27.676  1.00  0.00     0.040 A 
ATOM     51  F   UNL A   1      41.912  21.921  29.317  1.00  0.00    -0.206 F 
ATOM     52  C   UNL A   1      41.709  19.864  26.344  1.00  0.00     0.006 A 
ENDBRANCH  24  45
BRANCH  36  53
ATOM     53  C   UNL A   1      48.308  26.183  27.700  1.00  0.00     0.057 A 
ATOM     54  C   UNL A   1      49.054  25.665  28.763  1.00  0.00     0.134 A 
ATOM     55  C   UNL A   1      48.906  26.227  26.434  1.00  0.00     0.134 A 
ATOM     56  F   UNL A   1      48.534  25.611  29.999  1.00  0.00    -0.206 F 
ATOM     57  C   UNL A   1      50.352  25.199  28.570  1.00  0.00     0.040 A 
ATOM     58  C   UNL A   1      50.186  25.727  26.222  1.00  0.00     0.040 A 
ATOM     59  F   UNL A   1      48.230  26.704  25.377  1.00  0.00    -0.206 F 
ATOM     60  C   UNL A   1      50.913  25.212  27.294  1.00  0.00     0.006 A 
ENDBRANCH  36  53
ENDBRANCH  10  11
ENDBRANCH   3   5
ENDBRANCH   2   3
ENDBRANCH   1   2
BRANCH   1  61
ATOM     61  C   UNL A   1      31.980  30.216  26.624  1.00  0.00     0.274 C 
BRANCH  61  62
ATOM     62  O   UNL A   1      31.731  29.017  25.784  1.00  0.00    -0.462 OA
BRANCH  62  63
ATOM     63  C   UNL A   1      31.386  27.763  26.253  1.00  0.00     0.310 C 
ATOM     64  O   UNL A   1      31.368  27.468  27.436  1.00  0.00    -0.252 OA
BRANCH  63  65
ATOM     65  C   UNL A   1      31.115  26.752  25.057  1.00  0.00     0.119 C 
ATOM     66  C   UNL A   1      30.492  25.038  25.112  1.00  0.00     0.100 C 
ATOM     67  C   UNL A   1      32.102  26.811  23.817  1.00  0.00     0.027 C 
ATOM     68  C   UNL A   1      31.180  24.798  23.385  1.00  0.00     0.025 C 
ATOM     69  C   UNL A   1      33.220  25.789  23.694  1.00  0.00    -0.027 C 
ATOM     70  C   UNL A   1      31.212  26.178  22.742  1.00  0.00     0.017 C 
ATOM     71  C   UNL A   1      32.691  24.621  23.310  1.00  0.00    -0.027 C 
BRANCH  66  72
ATOM     72  C   UNL A   1      30.420  23.529  26.711  1.00  0.00     0.229 C 
ATOM     73  O   UNL A   1      29.571  23.209  27.595  1.00  0.00    -0.274 OA
ATOM     74  N   UNL A   1      31.720  22.399  27.003  1.00  0.00    -0.323 N 
ATOM     75  H   UNL A   1      31.528  21.810  27.768  1.00  0.00     0.170 HD
BRANCH  74  76
ATOM     76  C   UNL A   1      33.187  22.067  26.326  1.00  0.00     0.078 A 
ATOM     77  C   UNL A   1      33.367  20.807  25.760  1.00  0.00     0.029 A 
ATOM     78  C   UNL A   1      34.358  22.940  26.089  1.00  0.00     0.165 A 
ATOM     79  C   UNL A   1      34.544  20.493  25.006  1.00  0.00     0.004 A 
ATOM     80  C   UNL A   1      35.540  22.600  25.435  1.00  0.00     0.078 A 
ATOM     81  F   UNL A   1      34.388  24.235  26.437  1.00  0.00    -0.203 F 
ATOM     82  C   UNL A   1      35.625  21.372  24.851  1.00  0.00     0.024 A 
ATOM     83  Cl  UNL A   1      36.839  23.736  25.304  1.00  0.00    -0.081 Cl
ENDBRANCH  74  76
ENDBRANCH  66  72
ENDBRANCH  63  65
ENDBRANCH  62  63
ENDBRANCH  61  62
ENDBRANCH   1  61
TORSDOF 13
ENDMDL
