MODEL 1
REMARK VINA RESULT:      -9.7      0.000      0.000
REMARK SMILES O=C(OCCOC(=O)[C@@H](CCOCCO)c1cccc(F)c1)c1ccc(-c2c3nc(c(-c4c(F)cccc4F)c4ccc([nH]4)c(-c4c(F)cccc4F)c4nc(c(-c5c(F)cccc5F)c5ccc2[nH]5)C=C4)C=C3)cc1
REMARK SMILES IDX 7 1 8 2 6 3 5 4 4 5 3 6 2 7 1 8 23 9 24 10 76 11 25 12 75 13
REMARK SMILES IDX 26 14 27 15 28 16 69 17 29 18 74 19 68 20 70 21 30 22 73 23
REMARK SMILES IDX 67 24 66 25 31 27 57 28 40 29 56 30 41 31 44 32 55 33 71 34
REMARK SMILES IDX 42 35 43 36 54 38 72 39 45 40 32 41 33 42 38 43 34 44 35 45
REMARK SMILES IDX 37 46 39 47 36 48 58 49 59 50 64 51 60 52 61 53 63 54 65 55
REMARK SMILES IDX 62 56 46 57 47 58 52 59 48 60 49 61 51 62 53 63 50 64 9 65
REMARK SMILES IDX 10 66 11 67 12 68 13 69 14 70 15 71 16 73 17 74 22 75 18 76
REMARK SMILES IDX 20 77 19 78 21 79
REMARK H PARENT 70 26 44 37 15 72
REMARK Flexibility Score: inf
ROOT
ATOM      1  C   UNL A   1      43.499  40.351  26.683  1.00  0.00     0.313 C 
ATOM      2  O   UNL A   1      42.680  40.532  25.794  1.00  0.00    -0.252 OA
ENDROOT
BRANCH   1   3
ATOM      3  O   UNL A   1      44.822  40.674  26.547  1.00  0.00    -0.462 OA
BRANCH   3   4
ATOM      4  C   UNL A   1      45.879  39.820  25.990  1.00  0.00     0.274 C 
BRANCH   4   5
ATOM      5  C   UNL A   1      46.660  38.934  26.979  1.00  0.00     0.275 C 
BRANCH   5   6
ATOM      6  O   UNL A   1      46.301  37.570  26.824  1.00  0.00    -0.458 OA
BRANCH   6   7
ATOM      7  C   UNL A   1      47.187  36.579  26.986  1.00  0.00     0.338 C 
ATOM      8  O   UNL A   1      48.378  36.746  26.742  1.00  0.00    -0.246 OA
BRANCH   7   9
ATOM      9  C   UNL A   1      46.775  35.222  27.427  1.00  0.00     0.060 A 
ATOM     10  C   UNL A   1      46.701  34.514  29.107  1.00  0.00     0.016 A 
ATOM     11  C   UNL A   1      45.946  34.358  26.112  1.00  0.00     0.016 A 
ATOM     12  C   UNL A   1      45.661  33.040  29.420  1.00  0.00     0.010 A 
ATOM     13  C   UNL A   1      44.974  32.923  26.428  1.00  0.00     0.010 A 
ATOM     14  C   UNL A   1      44.908  32.162  28.025  1.00  0.00    -0.014 A 
BRANCH  14  15
ATOM     15  C   UNL A   1      44.624  30.665  28.006  1.00  0.00     0.031 A 
ATOM     16  C   UNL A   1      45.708  29.621  27.642  1.00  0.00     0.074 A 
ATOM     17  C   UNL A   1      43.436  30.195  28.429  1.00  0.00     0.049 A 
ATOM     18  N   UNL A   1      45.583  28.319  27.476  1.00  0.00    -0.248 NA
ATOM     19  C   UNL A   1      47.111  30.045  27.485  1.00  0.00     0.031 C 
ATOM     20  C   UNL A   1      42.403  30.996  29.052  1.00  0.00     0.029 A 
ATOM     21  N   UNL A   1      42.880  28.938  28.404  1.00  0.00    -0.354 N 
ATOM     22  C   UNL A   1      46.863  27.820  27.203  1.00  0.00     0.074 A 
ATOM     23  C   UNL A   1      47.757  28.936  27.183  1.00  0.00     0.031 C 
ATOM     24  C   UNL A   1      41.334  30.256  29.330  1.00  0.00     0.029 A 
ATOM     25  C   UNL A   1      41.558  28.939  28.787  1.00  0.00     0.049 A 
ATOM     26  H   UNL A   1      43.373  28.127  28.143  1.00  0.00     0.167 HD
ATOM     27  C   UNL A   1      47.276  26.548  26.986  1.00  0.00     0.037 A 
ATOM     28  C   UNL A   1      40.577  28.030  28.664  1.00  0.00     0.037 A 
ATOM     29  C   UNL A   1      46.370  25.437  26.990  1.00  0.00     0.049 A 
ATOM     30  C   UNL A   1      40.968  26.676  28.211  1.00  0.00     0.074 A 
ATOM     31  C   UNL A   1      46.631  24.109  26.717  1.00  0.00     0.029 A 
ATOM     32  N   UNL A   1      45.013  25.543  27.263  1.00  0.00    -0.354 N 
ATOM     33  N   UNL A   1      42.166  26.264  27.873  1.00  0.00    -0.248 NA
ATOM     34  C   UNL A   1      39.927  25.649  28.176  1.00  0.00     0.031 C 
ATOM     35  C   UNL A   1      45.410  23.431  26.718  1.00  0.00     0.029 A 
ATOM     36  C   UNL A   1      44.407  24.314  27.095  1.00  0.00     0.049 A 
ATOM     37  H   UNL A   1      44.552  26.369  27.536  1.00  0.00     0.167 HD
ATOM     38  C   UNL A   1      42.041  24.913  27.631  1.00  0.00     0.074 A 
ATOM     39  C   UNL A   1      40.642  24.581  27.844  1.00  0.00     0.031 C 
ATOM     40  C   UNL A   1      43.008  24.030  27.293  1.00  0.00     0.037 A 
BRANCH  27  41
ATOM     41  C   UNL A   1      48.725  26.315  26.615  1.00  0.00     0.057 A 
ATOM     42  C   UNL A   1      49.632  25.866  27.587  1.00  0.00     0.134 A 
ATOM     43  C   UNL A   1      49.232  26.505  25.320  1.00  0.00     0.134 A 
ATOM     44  F   UNL A   1      49.227  25.657  28.848  1.00  0.00    -0.206 F 
ATOM     45  C   UNL A   1      50.975  25.613  27.290  1.00  0.00     0.040 A 
ATOM     46  C   UNL A   1      50.568  26.224  25.003  1.00  0.00     0.040 A 
ATOM     47  F   UNL A   1      48.429  26.911  24.326  1.00  0.00    -0.206 F 
ATOM     48  C   UNL A   1      51.445  25.781  25.990  1.00  0.00     0.006 A 
ENDBRANCH  27  41
BRANCH  28  49
ATOM     49  C   UNL A   1      39.194  28.452  29.007  1.00  0.00     0.057 A 
ATOM     50  C   UNL A   1      38.451  29.249  28.117  1.00  0.00     0.134 A 
ATOM     51  C   UNL A   1      38.690  28.294  30.299  1.00  0.00     0.134 A 
ATOM     52  F   UNL A   1      38.910  29.490  26.879  1.00  0.00    -0.206 F 
ATOM     53  C   UNL A   1      37.283  29.904  28.515  1.00  0.00     0.040 A 
ATOM     54  C   UNL A   1      37.511  28.928  30.704  1.00  0.00     0.040 A 
ATOM     55  F   UNL A   1      39.369  27.573  31.203  1.00  0.00    -0.206 F 
ATOM     56  C   UNL A   1      36.814  29.748  29.816  1.00  0.00     0.006 A 
ENDBRANCH  28  49
BRANCH  40  57
ATOM     57  C   UNL A   1      42.591  22.611  27.125  1.00  0.00     0.057 A 
ATOM     58  C   UNL A   1      42.361  22.096  25.843  1.00  0.00     0.134 A 
ATOM     59  C   UNL A   1      42.286  21.810  28.228  1.00  0.00     0.134 A 
ATOM     60  F   UNL A   1      42.631  22.832  24.753  1.00  0.00    -0.206 F 
ATOM     61  C   UNL A   1      41.796  20.838  25.667  1.00  0.00     0.040 A 
ATOM     62  C   UNL A   1      41.752  20.536  28.062  1.00  0.00     0.040 A 
ATOM     63  F   UNL A   1      42.503  22.257  29.474  1.00  0.00    -0.206 F 
ATOM     64  C   UNL A   1      41.489  20.057  26.780  1.00  0.00     0.006 A 
ENDBRANCH  40  57
ENDBRANCH  14  15
ENDBRANCH   7   9
ENDBRANCH   6   7
ENDBRANCH   5   6
ENDBRANCH   4   5
ENDBRANCH   3   4
ENDBRANCH   1   3
BRANCH   1  65
ATOM     65  C   UNL A   1      43.174  39.600  28.078  1.00  0.00     0.131 C 
BRANCH  65  66
ATOM     66  C   UNL A   1      41.889  40.337  29.222  1.00  0.00     0.048 C 
BRANCH  66  67
ATOM     67  C   UNL A   1      42.078  41.789  30.854  1.00  0.00     0.161 C 
BRANCH  67  68
ATOM     68  O   UNL A   1      43.366  42.527  31.548  1.00  0.00    -0.379 OA
BRANCH  68  69
ATOM     69  C   UNL A   1      43.530  43.373  32.729  1.00  0.00     0.188 C 
BRANCH  69  70
ATOM     70  C   UNL A   1      42.327  43.867  33.555  1.00  0.00     0.184 C 
BRANCH  70  71
ATOM     71  O   UNL A   1      41.954  42.924  34.547  1.00  0.00    -0.394 OA
ATOM     72  H   UNL A   1      42.709  42.349  34.748  1.00  0.00     0.210 HD
ENDBRANCH  70  71
ENDBRANCH  69  70
ENDBRANCH  68  69
ENDBRANCH  67  68
ENDBRANCH  66  67
ENDBRANCH  65  66
BRANCH  65  73
ATOM     73  C   UNL A   1      43.194  38.049  28.014  1.00  0.00    -0.031 A 
ATOM     74  C   UNL A   1      43.397  37.302  29.192  1.00  0.00     0.005 A 
ATOM     75  C   UNL A   1      42.918  37.324  26.843  1.00  0.00     0.043 A 
ATOM     76  C   UNL A   1      43.181  35.914  29.222  1.00  0.00     0.003 A 
ATOM     77  C   UNL A   1      42.685  35.951  26.887  1.00  0.00     0.123 A 
ATOM     78  C   UNL A   1      42.773  35.246  28.074  1.00  0.00     0.039 A 
ATOM     79  F   UNL A   1      42.323  35.315  25.765  1.00  0.00    -0.207 F 
ENDBRANCH  65  73
ENDBRANCH   1  65
TORSDOF 18
ENDMDL
MODEL 2
REMARK VINA RESULT:      -9.7      7.336     13.839
REMARK SMILES O=C(OCCOC(=O)[C@@H](CCOCCO)c1cccc(F)c1)c1ccc(-c2c3nc(c(-c4c(F)cccc4F)c4ccc([nH]4)c(-c4c(F)cccc4F)c4nc(c(-c5c(F)cccc5F)c5ccc2[nH]5)C=C4)C=C3)cc1
REMARK SMILES IDX 7 1 8 2 6 3 5 4 4 5 3 6 2 7 1 8 23 9 24 10 76 11 25 12 75 13
REMARK SMILES IDX 26 14 27 15 28 16 69 17 29 18 74 19 68 20 70 21 30 22 73 23
REMARK SMILES IDX 67 24 66 25 31 27 57 28 40 29 56 30 41 31 44 32 55 33 71 34
REMARK SMILES IDX 42 35 43 36 54 38 72 39 45 40 32 41 33 42 38 43 34 44 35 45
REMARK SMILES IDX 37 46 39 47 36 48 58 49 59 50 64 51 60 52 61 53 63 54 65 55
REMARK SMILES IDX 62 56 46 57 47 58 52 59 48 60 49 61 51 62 53 63 50 64 9 65
REMARK SMILES IDX 10 66 11 67 12 68 13 69 14 70 15 71 16 73 17 74 22 75 18 76
REMARK SMILES IDX 20 77 19 78 21 79
REMARK H PARENT 70 26 44 37 15 72
REMARK Flexibility Score: inf
ROOT
ATOM      1  C   UNL A   1      34.410  24.954  24.467  1.00  0.00     0.313 C 
ATOM      2  O   UNL A   1      34.364  25.140  25.674  1.00  0.00    -0.252 OA
ENDROOT
BRANCH   1   3
ATOM      3  O   UNL A   1      33.979  25.882  23.558  1.00  0.00    -0.462 OA
BRANCH   3   4
ATOM      4  C   UNL A   1      32.861  25.733  22.618  1.00  0.00     0.274 C 
BRANCH   4   5
ATOM      5  C   UNL A   1      31.447  26.022  23.158  1.00  0.00     0.275 C 
BRANCH   5   6
ATOM      6  O   UNL A   1      31.048  27.345  22.838  1.00  0.00    -0.458 OA
BRANCH   6   7
ATOM      7  C   UNL A   1      30.682  28.225  23.779  1.00  0.00     0.338 C 
ATOM      8  O   UNL A   1      29.588  28.780  23.737  1.00  0.00    -0.246 OA
BRANCH   7   9
ATOM      9  C   UNL A   1      31.588  28.608  24.892  1.00  0.00     0.060 A 
ATOM     10  C   UNL A   1      31.500  28.184  26.665  1.00  0.00     0.016 A 
ATOM     11  C   UNL A   1      33.107  29.285  24.262  1.00  0.00     0.016 A 
ATOM     12  C   UNL A   1      33.004  28.320  27.699  1.00  0.00     0.010 A 
ATOM     13  C   UNL A   1      34.535  29.436  25.282  1.00  0.00     0.010 A 
ATOM     14  C   UNL A   1      34.495  29.092  27.018  1.00  0.00    -0.014 A 
BRANCH  14  15
ATOM     15  C   UNL A   1      35.516  29.863  27.844  1.00  0.00     0.031 A 
ATOM     16  C   UNL A   1      36.993  29.411  27.968  1.00  0.00     0.074 A 
ATOM     17  C   UNL A   1      35.187  31.043  28.401  1.00  0.00     0.049 A 
ATOM     18  N   UNL A   1      37.951  29.906  28.727  1.00  0.00    -0.248 NA
ATOM     19  C   UNL A   1      37.496  28.312  27.125  1.00  0.00     0.031 C 
ATOM     20  C   UNL A   1      33.942  31.747  28.171  1.00  0.00     0.029 A 
ATOM     21  N   UNL A   1      35.853  31.869  29.275  1.00  0.00    -0.354 N 
ATOM     22  C   UNL A   1      39.113  29.179  28.439  1.00  0.00     0.074 A 
ATOM     23  C   UNL A   1      38.762  28.185  27.474  1.00  0.00     0.031 C 
ATOM     24  C   UNL A   1      33.895  32.869  28.884  1.00  0.00     0.029 A 
ATOM     25  C   UNL A   1      35.066  32.903  29.726  1.00  0.00     0.049 A 
ATOM     26  H   UNL A   1      36.789  31.735  29.547  1.00  0.00     0.167 HD
ATOM     27  C   UNL A   1      40.369  29.314  28.927  1.00  0.00     0.037 A 
ATOM     28  C   UNL A   1      35.195  33.762  30.750  1.00  0.00     0.037 A 
ATOM     29  C   UNL A   1      40.710  30.303  29.908  1.00  0.00     0.049 A 
ATOM     30  C   UNL A   1      36.498  33.779  31.454  1.00  0.00     0.074 A 
ATOM     31  C   UNL A   1      41.918  30.510  30.543  1.00  0.00     0.029 A 
ATOM     32  N   UNL A   1      39.814  31.237  30.410  1.00  0.00    -0.354 N 
ATOM     33  N   UNL A   1      37.539  33.017  31.219  1.00  0.00    -0.248 NA
ATOM     34  C   UNL A   1      36.688  34.782  32.500  1.00  0.00     0.031 C 
ATOM     35  C   UNL A   1      41.722  31.499  31.509  1.00  0.00     0.029 A 
ATOM     36  C   UNL A   1      40.424  31.980  31.402  1.00  0.00     0.049 A 
ATOM     37  H   UNL A   1      38.885  31.353  30.105  1.00  0.00     0.167 HD
ATOM     38  C   UNL A   1      38.534  33.479  32.053  1.00  0.00     0.074 A 
ATOM     39  C   UNL A   1      37.961  34.578  32.814  1.00  0.00     0.031 C 
ATOM     40  C   UNL A   1      39.811  33.047  32.153  1.00  0.00     0.037 A 
BRANCH  27  41
ATOM     41  C   UNL A   1      41.419  28.310  28.498  1.00  0.00     0.057 A 
ATOM     42  C   UNL A   1      41.491  27.060  29.132  1.00  0.00     0.134 A 
ATOM     43  C   UNL A   1      42.338  28.547  27.464  1.00  0.00     0.134 A 
ATOM     44  F   UNL A   1      40.646  26.755  30.128  1.00  0.00    -0.206 F 
ATOM     45  C   UNL A   1      42.426  26.091  28.757  1.00  0.00     0.040 A 
ATOM     46  C   UNL A   1      43.258  27.570  27.059  1.00  0.00     0.040 A 
ATOM     47  F   UNL A   1      42.324  29.706  26.791  1.00  0.00    -0.206 F 
ATOM     48  C   UNL A   1      43.307  26.340  27.709  1.00  0.00     0.006 A 
ENDBRANCH  27  41
BRANCH  28  49
ATOM     49  C   UNL A   1      34.035  34.630  31.079  1.00  0.00     0.057 A 
ATOM     50  C   UNL A   1      33.732  35.749  30.280  1.00  0.00     0.134 A 
ATOM     51  C   UNL A   1      33.375  34.521  32.305  1.00  0.00     0.134 A 
ATOM     52  F   UNL A   1      34.375  35.945  29.119  1.00  0.00    -0.206 F 
ATOM     53  C   UNL A   1      32.851  36.743  30.711  1.00  0.00     0.040 A 
ATOM     54  C   UNL A   1      32.475  35.499  32.737  1.00  0.00     0.040 A 
ATOM     55  F   UNL A   1      33.644  33.495  33.125  1.00  0.00    -0.206 F 
ATOM     56  C   UNL A   1      32.224  36.622  31.947  1.00  0.00     0.006 A 
ENDBRANCH  28  49
BRANCH  40  57
ATOM     57  C   UNL A   1      40.687  33.758  33.124  1.00  0.00     0.057 A 
ATOM     58  C   UNL A   1      41.618  34.699  32.668  1.00  0.00     0.134 A 
ATOM     59  C   UNL A   1      40.701  33.409  34.477  1.00  0.00     0.134 A 
ATOM     60  F   UNL A   1      41.648  35.060  31.375  1.00  0.00    -0.206 F 
ATOM     61  C   UNL A   1      42.569  35.239  33.526  1.00  0.00     0.040 A 
ATOM     62  C   UNL A   1      41.627  33.969  35.351  1.00  0.00     0.040 A 
ATOM     63  F   UNL A   1      39.818  32.523  34.960  1.00  0.00    -0.206 F 
ATOM     64  C   UNL A   1      42.575  34.872  34.871  1.00  0.00     0.006 A 
ENDBRANCH  40  57
ENDBRANCH  14  15
ENDBRANCH   7   9
ENDBRANCH   6   7
ENDBRANCH   5   6
ENDBRANCH   4   5
ENDBRANCH   3   4
ENDBRANCH   1   3
BRANCH   1  65
ATOM     65  C   UNL A   1      34.858  23.560  23.779  1.00  0.00     0.131 C 
BRANCH  65  66
ATOM     66  C   UNL A   1      36.645  23.018  23.921  1.00  0.00     0.048 C 
BRANCH  66  67
ATOM     67  C   UNL A   1      37.710  21.983  25.535  1.00  0.00     0.161 C 
BRANCH  67  68
ATOM     68  O   UNL A   1      39.277  21.551  25.741  1.00  0.00    -0.379 OA
BRANCH  68  69
ATOM     69  C   UNL A   1      40.259  21.786  26.798  1.00  0.00     0.188 C 
BRANCH  69  70
ATOM     70  C   UNL A   1      41.484  20.871  26.994  1.00  0.00     0.184 C 
BRANCH  70  71
ATOM     71  O   UNL A   1      42.176  20.660  25.773  1.00  0.00    -0.394 OA
ATOM     72  H   UNL A   1      43.091  20.396  25.961  1.00  0.00     0.210 HD
ENDBRANCH  70  71
ENDBRANCH  69  70
ENDBRANCH  68  69
ENDBRANCH  67  68
ENDBRANCH  66  67
ENDBRANCH  65  66
BRANCH  65  73
ATOM     73  C   UNL A   1      33.810  22.418  23.855  1.00  0.00    -0.031 A 
ATOM     74  C   UNL A   1      32.940  22.193  22.768  1.00  0.00     0.005 A 
ATOM     75  C   UNL A   1      33.737  21.511  24.924  1.00  0.00     0.043 A 
ATOM     76  C   UNL A   1      32.152  21.033  22.693  1.00  0.00     0.003 A 
ATOM     77  C   UNL A   1      32.969  20.352  24.831  1.00  0.00     0.123 A 
ATOM     78  C   UNL A   1      32.208  20.084  23.707  1.00  0.00     0.039 A 
ATOM     79  F   UNL A   1      33.007  19.462  25.832  1.00  0.00    -0.207 F 
ENDBRANCH  65  73
ENDBRANCH   1  65
TORSDOF 18
ENDMDL
MODEL 3
REMARK VINA RESULT:      -9.7      8.823     15.132
REMARK SMILES O=C(OCCOC(=O)[C@@H](CCOCCO)c1cccc(F)c1)c1ccc(-c2c3nc(c(-c4c(F)cccc4F)c4ccc([nH]4)c(-c4c(F)cccc4F)c4nc(c(-c5c(F)cccc5F)c5ccc2[nH]5)C=C4)C=C3)cc1
REMARK SMILES IDX 7 1 8 2 6 3 5 4 4 5 3 6 2 7 1 8 23 9 24 10 76 11 25 12 75 13
REMARK SMILES IDX 26 14 27 15 28 16 69 17 29 18 74 19 68 20 70 21 30 22 73 23
REMARK SMILES IDX 67 24 66 25 31 27 57 28 40 29 56 30 41 31 44 32 55 33 71 34
REMARK SMILES IDX 42 35 43 36 54 38 72 39 45 40 32 41 33 42 38 43 34 44 35 45
REMARK SMILES IDX 37 46 39 47 36 48 58 49 59 50 64 51 60 52 61 53 63 54 65 55
REMARK SMILES IDX 62 56 46 57 47 58 52 59 48 60 49 61 51 62 53 63 50 64 9 65
REMARK SMILES IDX 10 66 11 67 12 68 13 69 14 70 15 71 16 73 17 74 22 75 18 76
REMARK SMILES IDX 20 77 19 78 21 79
REMARK H PARENT 70 26 44 37 15 72
REMARK Flexibility Score: inf
ROOT
ATOM      1  C   UNL A   1      46.573  21.425  39.646  1.00  0.00     0.313 C 
ATOM      2  O   UNL A   1      45.387  21.429  39.943  1.00  0.00    -0.252 OA
ENDROOT
BRANCH   1   3
ATOM      3  O   UNL A   1      47.355  22.547  39.706  1.00  0.00    -0.462 OA
BRANCH   3   4
ATOM      4  C   UNL A   1      47.186  23.775  38.918  1.00  0.00     0.274 C 
BRANCH   4   5
ATOM      5  C   UNL A   1      46.405  23.658  37.595  1.00  0.00     0.275 C 
BRANCH   5   6
ATOM      6  O   UNL A   1      47.102  24.305  36.542  1.00  0.00    -0.458 OA
BRANCH   6   7
ATOM      7  C   UNL A   1      46.641  24.312  35.284  1.00  0.00     0.338 C 
ATOM      8  O   UNL A   1      47.242  23.732  34.385  1.00  0.00    -0.246 OA
BRANCH   7   9
ATOM      9  C   UNL A   1      45.412  25.052  34.902  1.00  0.00     0.060 A 
ATOM     10  C   UNL A   1      43.660  24.573  35.077  1.00  0.00     0.016 A 
ATOM     11  C   UNL A   1      45.787  26.754  34.545  1.00  0.00     0.016 A 
ATOM     12  C   UNL A   1      42.363  25.863  35.036  1.00  0.00     0.010 A 
ATOM     13  C   UNL A   1      44.522  27.977  34.480  1.00  0.00     0.010 A 
ATOM     14  C   UNL A   1      42.804  27.564  34.589  1.00  0.00    -0.014 A 
BRANCH  14  15
ATOM     15  C   UNL A   1      41.868  28.534  33.879  1.00  0.00     0.031 A 
ATOM     16  C   UNL A   1      41.243  29.756  34.597  1.00  0.00     0.074 A 
ATOM     17  C   UNL A   1      41.651  28.423  32.556  1.00  0.00     0.049 A 
ATOM     18  N   UNL A   1      40.340  30.608  34.151  1.00  0.00    -0.248 NA
ATOM     19  C   UNL A   1      41.694  30.120  35.952  1.00  0.00     0.031 C 
ATOM     20  C   UNL A   1      42.354  27.511  31.677  1.00  0.00     0.029 A 
ATOM     21  N   UNL A   1      40.783  29.066  31.706  1.00  0.00    -0.354 N 
ATOM     22  C   UNL A   1      40.144  31.557  35.162  1.00  0.00     0.074 A 
ATOM     23  C   UNL A   1      40.976  31.182  36.263  1.00  0.00     0.031 C 
ATOM     24  C   UNL A   1      41.897  27.609  30.432  1.00  0.00     0.029 A 
ATOM     25  C   UNL A   1      40.772  28.512  30.446  1.00  0.00     0.049 A 
ATOM     26  H   UNL A   1      40.232  29.837  31.969  1.00  0.00     0.167 HD
ATOM     27  C   UNL A   1      39.345  32.651  35.188  1.00  0.00     0.037 A 
ATOM     28  C   UNL A   1      39.925  28.629  29.411  1.00  0.00     0.037 A 
ATOM     29  C   UNL A   1      38.500  33.010  34.087  1.00  0.00     0.049 A 
ATOM     30  C   UNL A   1      38.888  29.683  29.506  1.00  0.00     0.074 A 
ATOM     31  C   UNL A   1      37.590  34.044  33.998  1.00  0.00     0.029 A 
ATOM     32  N   UNL A   1      38.454  32.316  32.886  1.00  0.00    -0.354 N 
ATOM     33  N   UNL A   1      38.671  30.497  30.510  1.00  0.00    -0.248 NA
ATOM     34  C   UNL A   1      38.028  29.891  28.342  1.00  0.00     0.031 C 
ATOM     35  C   UNL A   1      36.915  33.908  32.783  1.00  0.00     0.029 A 
ATOM     36  C   UNL A   1      37.478  32.856  32.073  1.00  0.00     0.049 A 
ATOM     37  H   UNL A   1      39.031  31.554  32.648  1.00  0.00     0.167 HD
ATOM     38  C   UNL A   1      37.681  31.357  30.085  1.00  0.00     0.074 A 
ATOM     39  C   UNL A   1      37.327  30.947  28.735  1.00  0.00     0.031 C 
ATOM     40  C   UNL A   1      37.140  32.404  30.747  1.00  0.00     0.037 A 
BRANCH  27  41
ATOM     41  C   UNL A   1      39.264  33.452  36.470  1.00  0.00     0.057 A 
ATOM     42  C   UNL A   1      38.408  33.038  37.502  1.00  0.00     0.134 A 
ATOM     43  C   UNL A   1      40.029  34.605  36.710  1.00  0.00     0.134 A 
ATOM     44  F   UNL A   1      37.646  31.944  37.352  1.00  0.00    -0.206 F 
ATOM     45  C   UNL A   1      38.315  33.729  38.713  1.00  0.00     0.040 A 
ATOM     46  C   UNL A   1      39.968  35.288  37.933  1.00  0.00     0.040 A 
ATOM     47  F   UNL A   1      40.890  35.058  35.787  1.00  0.00    -0.206 F 
ATOM     48  C   UNL A   1      39.106  34.853  38.937  1.00  0.00     0.006 A 
ENDBRANCH  27  41
BRANCH  28  49
ATOM     49  C   UNL A   1      40.107  27.710  28.258  1.00  0.00     0.057 A 
ATOM     50  C   UNL A   1      39.701  26.365  28.347  1.00  0.00     0.134 A 
ATOM     51  C   UNL A   1      40.900  28.069  27.167  1.00  0.00     0.134 A 
ATOM     52  F   UNL A   1      38.988  25.941  29.402  1.00  0.00    -0.206 F 
ATOM     53  C   UNL A   1      40.114  25.409  27.417  1.00  0.00     0.040 A 
ATOM     54  C   UNL A   1      41.303  27.125  26.217  1.00  0.00     0.040 A 
ATOM     55  F   UNL A   1      41.346  29.327  27.043  1.00  0.00    -0.206 F 
ATOM     56  C   UNL A   1      40.924  25.788  26.350  1.00  0.00     0.006 A 
ENDBRANCH  28  49
BRANCH  40  57
ATOM     57  C   UNL A   1      36.099  33.188  30.026  1.00  0.00     0.057 A 
ATOM     58  C   UNL A   1      34.745  32.981  30.312  1.00  0.00     0.134 A 
ATOM     59  C   UNL A   1      36.435  34.033  28.965  1.00  0.00     0.134 A 
ATOM     60  F   UNL A   1      34.374  32.171  31.316  1.00  0.00    -0.206 F 
ATOM     61  C   UNL A   1      33.752  33.560  29.530  1.00  0.00     0.040 A 
ATOM     62  C   UNL A   1      35.449  34.645  28.198  1.00  0.00     0.040 A 
ATOM     63  F   UNL A   1      37.720  34.272  28.665  1.00  0.00    -0.206 F 
ATOM     64  C   UNL A   1      34.104  34.393  28.469  1.00  0.00     0.006 A 
ENDBRANCH  40  57
ENDBRANCH  14  15
ENDBRANCH   7   9
ENDBRANCH   6   7
ENDBRANCH   5   6
ENDBRANCH   4   5
ENDBRANCH   3   4
ENDBRANCH   1   3
BRANCH   1  65
ATOM     65  C   UNL A   1      47.349  20.149  39.026  1.00  0.00     0.131 C 
BRANCH  65  66
ATOM     66  C   UNL A   1      47.371  18.548  39.996  1.00  0.00     0.048 C 
BRANCH  66  67
ATOM     67  C   UNL A   1      45.737  17.359  40.848  1.00  0.00     0.161 C 
BRANCH  67  68
ATOM     68  O   UNL A   1      44.106  17.461  40.736  1.00  0.00    -0.379 OA
BRANCH  68  69
ATOM     69  C   UNL A   1      43.106  16.788  39.910  1.00  0.00     0.188 C 
BRANCH  69  70
ATOM     70  C   UNL A   1      43.479  15.648  38.941  1.00  0.00     0.184 C 
BRANCH  70  71
ATOM     71  O   UNL A   1      44.401  16.084  37.955  1.00  0.00    -0.394 OA
ATOM     72  H   UNL A   1      44.698  15.324  37.430  1.00  0.00     0.210 HD
ENDBRANCH  70  71
ENDBRANCH  69  70
ENDBRANCH  68  69
ENDBRANCH  67  68
ENDBRANCH  66  67
ENDBRANCH  65  66
BRANCH  65  73
ATOM     73  C   UNL A   1      47.236  19.990  37.486  1.00  0.00    -0.031 A 
ATOM     74  C   UNL A   1      46.017  19.572  36.913  1.00  0.00     0.005 A 
ATOM     75  C   UNL A   1      48.268  20.340  36.599  1.00  0.00     0.043 A 
ATOM     76  C   UNL A   1      45.799  19.651  35.528  1.00  0.00     0.003 A 
ATOM     77  C   UNL A   1      48.034  20.435  35.228  1.00  0.00     0.123 A 
ATOM     78  C   UNL A   1      46.796  20.133  34.689  1.00  0.00     0.039 A 
ATOM     79  F   UNL A   1      49.016  20.871  34.428  1.00  0.00    -0.207 F 
ENDBRANCH  65  73
ENDBRANCH   1  65
TORSDOF 18
ENDMDL
