MODEL 1
REMARK VINA RESULT:     -10.4      0.000      0.000
REMARK SMILES C[C@](NC(=O)CSCc1cccs1)(C(=O)OCCOC(=O)c1ccc(-c2c3nc(c(-c4c(F)cccc4F)c4ccc([nH]4)c(-c4c(F)cccc4F)c4nc(c(-c5c(F)cccc5F)c5ccc2[nH]5)C=C4)C=C3)cc1)C(F)(F)F
REMARK SMILES IDX 16 1 14 2 15 3 2 4 1 5 76 6 77 7 78 8 79 9 3 10 4 11 5 13
REMARK SMILES IDX 6 14 7 15 8 16 9 17 10 18 13 19 11 20 12 21 17 22 18 23
REMARK SMILES IDX 19 24 20 25 21 26 22 27 23 28 75 29 24 30 74 31 25 32 26 33
REMARK SMILES IDX 27 34 68 35 28 36 73 37 67 38 69 39 29 40 72 41 66 42 65 43
REMARK SMILES IDX 30 45 56 46 39 47 55 48 40 49 43 50 54 51 70 52 41 53 42 54
REMARK SMILES IDX 53 56 71 57 44 58 31 59 32 60 37 61 33 62 34 63 36 64 38 65
REMARK SMILES IDX 35 66 57 67 58 68 63 69 59 70 60 71 62 72 64 73 61 74 45 75
REMARK SMILES IDX 46 76 51 77 47 78 48 79 50 80 52 81 49 82
REMARK H PARENT 3 12 69 44 43 55
REMARK Flexibility Score: inf
ROOT
ATOM      1  O   UNL A   1      30.750  27.642  24.678  1.00  0.00    -0.460 OA
ENDROOT
BRANCH   1   2
ATOM      2  C   UNL A   1      31.339  26.871  23.713  1.00  0.00     0.341 C 
ATOM      3  O   UNL A   1      31.128  27.014  22.514  1.00  0.00    -0.249 OA
BRANCH   2   4
ATOM      4  C   UNL A   1      32.237  25.759  24.300  1.00  0.00     0.231 C 
ATOM      5  C   UNL A   1      32.243  24.650  23.242  1.00  0.00     0.058 C 
BRANCH   4   6
ATOM      6  C   UNL A   1      33.616  26.419  24.443  1.00  0.00     0.422 C 
ATOM      7  F   UNL A   1      34.591  25.483  24.337  1.00  0.00    -0.168 F 
ATOM      8  F   UNL A   1      33.855  27.331  23.479  1.00  0.00    -0.168 F 
ATOM      9  F   UNL A   1      33.815  27.065  25.609  1.00  0.00    -0.168 F 
ENDBRANCH   4   6
BRANCH   4  10
ATOM     10  N   UNL A   1      31.605  25.239  25.565  1.00  0.00    -0.332 N 
ATOM     11  C   UNL A   1      31.863  24.208  26.411  1.00  0.00     0.231 C 
ATOM     12  H   UNL A   1      30.823  25.770  25.842  1.00  0.00     0.164 HD
ATOM     13  O   UNL A   1      30.992  23.952  27.249  1.00  0.00    -0.274 OA
BRANCH  11  14
ATOM     14  C   UNL A   1      33.163  23.427  26.409  1.00  0.00     0.169 C 
BRANCH  14  15
ATOM     15  S   UNL A   1      32.898  21.639  26.289  1.00  0.00    -0.146 SA
BRANCH  15  16
ATOM     16  C   UNL A   1      33.449  21.345  24.587  1.00  0.00     0.116 C 
BRANCH  16  17
ATOM     17  C   UNL A   1      34.876  21.749  24.362  1.00  0.00     0.014 A 
ATOM     18  C   UNL A   1      35.430  22.617  23.437  1.00  0.00     0.016 A 
ATOM     19  S   UNL A   1      36.085  21.100  25.397  1.00  0.00    -0.148 S 
ATOM     20  C   UNL A   1      36.844  22.732  23.571  1.00  0.00     0.012 A 
ATOM     21  C   UNL A   1      37.327  21.959  24.600  1.00  0.00     0.065 A 
ENDBRANCH  16  17
ENDBRANCH  15  16
ENDBRANCH  14  15
ENDBRANCH  11  14
ENDBRANCH   4  10
ENDBRANCH   2   4
ENDBRANCH   1   2
BRANCH   1  22
ATOM     22  C   UNL A   1      30.718  29.068  24.426  1.00  0.00     0.274 C 
BRANCH  22  23
ATOM     23  C   UNL A   1      32.044  29.703  24.840  1.00  0.00     0.275 C 
BRANCH  23  24
ATOM     24  O   UNL A   1      32.094  29.745  26.275  1.00  0.00    -0.458 OA
BRANCH  24  25
ATOM     25  C   UNL A   1      32.480  30.925  26.822  1.00  0.00     0.338 C 
ATOM     26  O   UNL A   1      31.825  31.952  26.865  1.00  0.00    -0.246 OA
BRANCH  25  27
ATOM     27  C   UNL A   1      33.825  30.773  27.435  1.00  0.00     0.060 A 
ATOM     28  C   UNL A   1      34.370  29.508  27.641  1.00  0.00     0.016 A 
ATOM     29  C   UNL A   1      34.521  31.890  27.897  1.00  0.00     0.016 A 
ATOM     30  C   UNL A   1      35.535  29.349  28.394  1.00  0.00     0.010 A 
ATOM     31  C   UNL A   1      35.760  31.731  28.541  1.00  0.00     0.010 A 
ATOM     32  C   UNL A   1      36.279  30.453  28.826  1.00  0.00    -0.014 A 
BRANCH  32  33
ATOM     33  C   UNL A   1      37.565  30.278  29.577  1.00  0.00     0.031 A 
ATOM     34  C   UNL A   1      38.720  29.530  28.956  1.00  0.00     0.074 A 
ATOM     35  C   UNL A   1      37.729  30.776  30.823  1.00  0.00     0.049 A 
ATOM     36  N   UNL A   1      39.775  29.009  29.533  1.00  0.00    -0.248 NA
ATOM     37  C   UNL A   1      38.674  29.323  27.501  1.00  0.00     0.031 C 
ATOM     38  C   UNL A   1      36.751  31.574  31.566  1.00  0.00     0.029 A 
ATOM     39  N   UNL A   1      38.796  30.686  31.689  1.00  0.00    -0.354 N 
ATOM     40  C   UNL A   1      40.464  28.335  28.532  1.00  0.00     0.074 A 
ATOM     41  C   UNL A   1      39.725  28.537  27.304  1.00  0.00     0.031 C 
ATOM     42  C   UNL A   1      37.282  31.949  32.739  1.00  0.00     0.029 A 
ATOM     43  C   UNL A   1      38.583  31.313  32.895  1.00  0.00     0.049 A 
ATOM     44  H   UNL A   1      39.632  30.216  31.466  1.00  0.00     0.167 HD
ATOM     45  C   UNL A   1      41.601  27.604  28.632  1.00  0.00     0.037 A 
ATOM     46  C   UNL A   1      39.307  31.327  34.030  1.00  0.00     0.037 A 
ATOM     47  C   UNL A   1      42.398  27.487  29.826  1.00  0.00     0.049 A 
ATOM     48  C   UNL A   1      40.561  30.508  34.123  1.00  0.00     0.074 A 
ATOM     49  C   UNL A   1      43.581  26.788  30.009  1.00  0.00     0.029 A 
ATOM     50  N   UNL A   1      42.117  28.113  31.029  1.00  0.00    -0.354 N 
ATOM     51  N   UNL A   1      41.133  29.769  33.205  1.00  0.00    -0.248 NA
ATOM     52  C   UNL A   1      41.243  30.488  35.426  1.00  0.00     0.031 C 
ATOM     53  C   UNL A   1      44.004  26.974  31.329  1.00  0.00     0.029 A 
ATOM     54  C   UNL A   1      43.100  27.812  31.959  1.00  0.00     0.049 A 
ATOM     55  H   UNL A   1      41.333  28.685  31.199  1.00  0.00     0.167 HD
ATOM     56  C   UNL A   1      42.232  29.187  33.821  1.00  0.00     0.074 A 
ATOM     57  C   UNL A   1      42.268  29.685  35.181  1.00  0.00     0.031 C 
ATOM     58  C   UNL A   1      43.121  28.304  33.310  1.00  0.00     0.037 A 
BRANCH  45  59
ATOM     59  C   UNL A   1      42.047  26.832  27.427  1.00  0.00     0.057 A 
ATOM     60  C   UNL A   1      42.887  27.380  26.453  1.00  0.00     0.134 A 
ATOM     61  C   UNL A   1      41.686  25.483  27.287  1.00  0.00     0.134 A 
ATOM     62  F   UNL A   1      43.259  28.667  26.523  1.00  0.00    -0.206 F 
ATOM     63  C   UNL A   1      43.349  26.618  25.378  1.00  0.00     0.040 A 
ATOM     64  C   UNL A   1      42.158  24.706  26.230  1.00  0.00     0.040 A 
ATOM     65  F   UNL A   1      40.889  24.895  28.193  1.00  0.00    -0.206 F 
ATOM     66  C   UNL A   1      42.992  25.274  25.270  1.00  0.00     0.006 A 
ENDBRANCH  45  59
BRANCH  46  67
ATOM     67  C   UNL A   1      38.810  32.073  35.215  1.00  0.00     0.057 A 
ATOM     68  C   UNL A   1      38.154  31.416  36.261  1.00  0.00     0.134 A 
ATOM     69  C   UNL A   1      38.977  33.460  35.325  1.00  0.00     0.134 A 
ATOM     70  F   UNL A   1      37.935  30.095  36.196  1.00  0.00    -0.206 F 
ATOM     71  C   UNL A   1      37.683  32.111  37.376  1.00  0.00     0.040 A 
ATOM     72  C   UNL A   1      38.537  34.162  36.447  1.00  0.00     0.040 A 
ATOM     73  F   UNL A   1      39.593  34.147  34.352  1.00  0.00    -0.206 F 
ATOM     74  C   UNL A   1      37.882  33.487  37.475  1.00  0.00     0.006 A 
ENDBRANCH  46  67
BRANCH  58  75
ATOM     75  C   UNL A   1      44.207  27.827  34.224  1.00  0.00     0.057 A 
ATOM     76  C   UNL A   1      45.409  28.533  34.358  1.00  0.00     0.134 A 
ATOM     77  C   UNL A   1      44.048  26.662  34.983  1.00  0.00     0.134 A 
ATOM     78  F   UNL A   1      45.627  29.648  33.645  1.00  0.00    -0.206 F 
ATOM     79  C   UNL A   1      46.424  28.085  35.205  1.00  0.00     0.040 A 
ATOM     80  C   UNL A   1      45.049  26.214  35.846  1.00  0.00     0.040 A 
ATOM     81  F   UNL A   1      42.918  25.944  34.900  1.00  0.00    -0.206 F 
ATOM     82  C   UNL A   1      46.244  26.924  35.954  1.00  0.00     0.006 A 
ENDBRANCH  58  75
ENDBRANCH  32  33
ENDBRANCH  25  27
ENDBRANCH  24  25
ENDBRANCH  23  24
ENDBRANCH  22  23
ENDBRANCH   1  22
TORSDOF 17
ENDMDL
MODEL 2
REMARK VINA RESULT:     -10.3      0.833      1.775
REMARK SMILES C[C@](NC(=O)CSCc1cccs1)(C(=O)OCCOC(=O)c1ccc(-c2c3nc(c(-c4c(F)cccc4F)c4ccc([nH]4)c(-c4c(F)cccc4F)c4nc(c(-c5c(F)cccc5F)c5ccc2[nH]5)C=C4)C=C3)cc1)C(F)(F)F
REMARK SMILES IDX 16 1 14 2 15 3 2 4 1 5 76 6 77 7 78 8 79 9 3 10 4 11 5 13
REMARK SMILES IDX 6 14 7 15 8 16 9 17 10 18 13 19 11 20 12 21 17 22 18 23
REMARK SMILES IDX 19 24 20 25 21 26 22 27 23 28 75 29 24 30 74 31 25 32 26 33
REMARK SMILES IDX 27 34 68 35 28 36 73 37 67 38 69 39 29 40 72 41 66 42 65 43
REMARK SMILES IDX 30 45 56 46 39 47 55 48 40 49 43 50 54 51 70 52 41 53 42 54
REMARK SMILES IDX 53 56 71 57 44 58 31 59 32 60 37 61 33 62 34 63 36 64 38 65
REMARK SMILES IDX 35 66 57 67 58 68 63 69 59 70 60 71 62 72 64 73 61 74 45 75
REMARK SMILES IDX 46 76 51 77 47 78 48 79 50 80 52 81 49 82
REMARK H PARENT 3 12 69 44 43 55
REMARK Flexibility Score: inf
ROOT
ATOM      1  O   UNL A   1      30.890  27.689  24.568  1.00  0.00    -0.460 OA
ENDROOT
BRANCH   1   2
ATOM      2  C   UNL A   1      31.399  26.868  23.598  1.00  0.00     0.341 C 
ATOM      3  O   UNL A   1      31.150  26.998  22.406  1.00  0.00    -0.249 OA
BRANCH   2   4
ATOM      4  C   UNL A   1      32.259  25.721  24.176  1.00  0.00     0.231 C 
ATOM      5  C   UNL A   1      32.233  24.624  23.105  1.00  0.00     0.058 C 
BRANCH   4   6
ATOM      6  C   UNL A   1      33.658  26.334  24.330  1.00  0.00     0.422 C 
ATOM      7  F   UNL A   1      33.789  26.886  25.561  1.00  0.00    -0.168 F 
ATOM      8  F   UNL A   1      34.640  25.417  24.216  1.00  0.00    -0.168 F 
ATOM      9  F   UNL A   1      33.956  27.296  23.433  1.00  0.00    -0.168 F 
ENDBRANCH   4   6
BRANCH   4  10
ATOM     10  N   UNL A   1      31.606  25.208  25.432  1.00  0.00    -0.332 N 
ATOM     11  C   UNL A   1      31.930  24.278  26.370  1.00  0.00     0.231 C 
ATOM     12  H   UNL A   1      30.745  25.647  25.618  1.00  0.00     0.164 HD
ATOM     13  O   UNL A   1      31.038  23.966  27.166  1.00  0.00    -0.274 OA
BRANCH  11  14
ATOM     14  C   UNL A   1      33.316  23.678  26.511  1.00  0.00     0.169 C 
BRANCH  14  15
ATOM     15  S   UNL A   1      33.283  22.020  27.241  1.00  0.00    -0.146 SA
BRANCH  15  16
ATOM     16  C   UNL A   1      34.281  21.115  26.029  1.00  0.00     0.116 C 
BRANCH  16  17
ATOM     17  C   UNL A   1      33.450  20.468  24.962  1.00  0.00     0.014 A 
ATOM     18  C   UNL A   1      32.881  21.000  23.818  1.00  0.00     0.016 A 
ATOM     19  S   UNL A   1      33.124  18.784  25.084  1.00  0.00    -0.148 S 
ATOM     20  C   UNL A   1      32.169  20.029  23.056  1.00  0.00     0.012 A 
ATOM     21  C   UNL A   1      32.222  18.782  23.634  1.00  0.00     0.065 A 
ENDBRANCH  16  17
ENDBRANCH  15  16
ENDBRANCH  14  15
ENDBRANCH  11  14
ENDBRANCH   4  10
ENDBRANCH   2   4
ENDBRANCH   1   2
BRANCH   1  22
ATOM     22  C   UNL A   1      30.919  29.109  24.284  1.00  0.00     0.274 C 
BRANCH  22  23
ATOM     23  C   UNL A   1      32.219  29.720  24.803  1.00  0.00     0.275 C 
BRANCH  23  24
ATOM     24  O   UNL A   1      32.150  29.771  26.237  1.00  0.00    -0.458 OA
BRANCH  24  25
ATOM     25  C   UNL A   1      32.528  30.941  26.810  1.00  0.00     0.338 C 
ATOM     26  O   UNL A   1      31.869  31.964  26.868  1.00  0.00    -0.246 OA
BRANCH  25  27
ATOM     27  C   UNL A   1      33.869  30.782  27.430  1.00  0.00     0.060 A 
ATOM     28  C   UNL A   1      34.402  29.514  27.649  1.00  0.00     0.016 A 
ATOM     29  C   UNL A   1      34.573  31.897  27.886  1.00  0.00     0.016 A 
ATOM     30  C   UNL A   1      35.563  29.350  28.407  1.00  0.00     0.010 A 
ATOM     31  C   UNL A   1      35.808  31.732  28.536  1.00  0.00     0.010 A 
ATOM     32  C   UNL A   1      36.314  30.452  28.833  1.00  0.00    -0.014 A 
BRANCH  32  33
ATOM     33  C   UNL A   1      37.596  30.271  29.591  1.00  0.00     0.031 A 
ATOM     34  C   UNL A   1      38.752  29.521  28.975  1.00  0.00     0.074 A 
ATOM     35  C   UNL A   1      37.755  30.767  30.838  1.00  0.00     0.049 A 
ATOM     36  N   UNL A   1      39.803  28.997  29.557  1.00  0.00    -0.248 NA
ATOM     37  C   UNL A   1      38.714  29.317  27.519  1.00  0.00     0.031 C 
ATOM     38  C   UNL A   1      36.775  31.567  31.578  1.00  0.00     0.029 A 
ATOM     39  N   UNL A   1      38.816  30.672  31.711  1.00  0.00    -0.354 N 
ATOM     40  C   UNL A   1      40.495  28.322  28.558  1.00  0.00     0.074 A 
ATOM     41  C   UNL A   1      39.763  28.528  27.327  1.00  0.00     0.031 C 
ATOM     42  C   UNL A   1      37.301  31.937  32.754  1.00  0.00     0.029 A 
ATOM     43  C   UNL A   1      38.599  31.297  32.916  1.00  0.00     0.049 A 
ATOM     44  H   UNL A   1      39.653  30.200  31.491  1.00  0.00     0.167 HD
ATOM     45  C   UNL A   1      41.629  27.587  28.663  1.00  0.00     0.037 A 
ATOM     46  C   UNL A   1      39.317  31.307  34.056  1.00  0.00     0.037 A 
ATOM     47  C   UNL A   1      42.419  27.466  29.861  1.00  0.00     0.049 A 
ATOM     48  C   UNL A   1      40.568  30.484  34.154  1.00  0.00     0.074 A 
ATOM     49  C   UNL A   1      43.599  26.764  30.049  1.00  0.00     0.029 A 
ATOM     50  N   UNL A   1      42.134  28.091  31.064  1.00  0.00    -0.354 N 
ATOM     51  N   UNL A   1      41.143  29.746  33.238  1.00  0.00    -0.248 NA
ATOM     52  C   UNL A   1      41.243  30.460  35.460  1.00  0.00     0.031 C 
ATOM     53  C   UNL A   1      44.016  26.946  31.372  1.00  0.00     0.029 A 
ATOM     54  C   UNL A   1      43.111  27.786  31.998  1.00  0.00     0.049 A 
ATOM     55  H   UNL A   1      41.351  28.665  31.230  1.00  0.00     0.167 HD
ATOM     56  C   UNL A   1      42.237  29.160  33.858  1.00  0.00     0.074 A 
ATOM     57  C   UNL A   1      42.267  29.654  35.219  1.00  0.00     0.031 C 
ATOM     58  C   UNL A   1      43.126  28.274  33.350  1.00  0.00     0.037 A 
BRANCH  45  59
ATOM     59  C   UNL A   1      42.080  26.816  27.459  1.00  0.00     0.057 A 
ATOM     60  C   UNL A   1      42.939  27.359  26.498  1.00  0.00     0.134 A 
ATOM     61  C   UNL A   1      41.703  25.474  27.307  1.00  0.00     0.134 A 
ATOM     62  F   UNL A   1      43.326  28.641  26.580  1.00  0.00    -0.206 F 
ATOM     63  C   UNL A   1      43.404  26.597  25.424  1.00  0.00     0.040 A 
ATOM     64  C   UNL A   1      42.176  24.696  26.251  1.00  0.00     0.040 A 
ATOM     65  F   UNL A   1      40.886  24.891  28.199  1.00  0.00    -0.206 F 
ATOM     66  C   UNL A   1      43.030  25.258  25.304  1.00  0.00     0.006 A 
ENDBRANCH  45  59
BRANCH  46  67
ATOM     67  C   UNL A   1      38.816  32.053  35.239  1.00  0.00     0.057 A 
ATOM     68  C   UNL A   1      38.999  33.434  35.354  1.00  0.00     0.134 A 
ATOM     69  C   UNL A   1      38.144  31.399  36.281  1.00  0.00     0.134 A 
ATOM     70  F   UNL A   1      39.664  34.109  34.405  1.00  0.00    -0.206 F 
ATOM     71  C   UNL A   1      38.533  34.141  36.464  1.00  0.00     0.040 A 
ATOM     72  C   UNL A   1      37.647  32.098  37.381  1.00  0.00     0.040 A 
ATOM     73  F   UNL A   1      37.943  30.075  36.231  1.00  0.00    -0.206 F 
ATOM     74  C   UNL A   1      37.846  33.474  37.476  1.00  0.00     0.006 A 
ENDBRANCH  46  67
BRANCH  58  75
ATOM     75  C   UNL A   1      44.206  27.793  34.269  1.00  0.00     0.057 A 
ATOM     76  C   UNL A   1      44.061  26.613  35.009  1.00  0.00     0.134 A 
ATOM     77  C   UNL A   1      45.403  28.505  34.406  1.00  0.00     0.134 A 
ATOM     78  F   UNL A   1      42.930  25.896  34.931  1.00  0.00    -0.206 F 
ATOM     79  C   UNL A   1      45.065  26.168  35.871  1.00  0.00     0.040 A 
ATOM     80  C   UNL A   1      46.421  28.060  35.252  1.00  0.00     0.040 A 
ATOM     81  F   UNL A   1      45.603  29.640  33.721  1.00  0.00    -0.206 F 
ATOM     82  C   UNL A   1      46.249  26.890  35.991  1.00  0.00     0.006 A 
ENDBRANCH  58  75
ENDBRANCH  32  33
ENDBRANCH  25  27
ENDBRANCH  24  25
ENDBRANCH  23  24
ENDBRANCH  22  23
ENDBRANCH   1  22
TORSDOF 17
ENDMDL
MODEL 3
REMARK VINA RESULT:     -10.1      1.287      2.025
REMARK SMILES C[C@](NC(=O)CSCc1cccs1)(C(=O)OCCOC(=O)c1ccc(-c2c3nc(c(-c4c(F)cccc4F)c4ccc([nH]4)c(-c4c(F)cccc4F)c4nc(c(-c5c(F)cccc5F)c5ccc2[nH]5)C=C4)C=C3)cc1)C(F)(F)F
REMARK SMILES IDX 16 1 14 2 15 3 2 4 1 5 76 6 77 7 78 8 79 9 3 10 4 11 5 13
REMARK SMILES IDX 6 14 7 15 8 16 9 17 10 18 13 19 11 20 12 21 17 22 18 23
REMARK SMILES IDX 19 24 20 25 21 26 22 27 23 28 75 29 24 30 74 31 25 32 26 33
REMARK SMILES IDX 27 34 68 35 28 36 73 37 67 38 69 39 29 40 72 41 66 42 65 43
REMARK SMILES IDX 30 45 56 46 39 47 55 48 40 49 43 50 54 51 70 52 41 53 42 54
REMARK SMILES IDX 53 56 71 57 44 58 31 59 32 60 37 61 33 62 34 63 36 64 38 65
REMARK SMILES IDX 35 66 57 67 58 68 63 69 59 70 60 71 62 72 64 73 61 74 45 75
REMARK SMILES IDX 46 76 51 77 47 78 48 79 50 80 52 81 49 82
REMARK H PARENT 3 12 69 44 43 55
REMARK Flexibility Score: inf
ROOT
ATOM      1  O   UNL A   1      31.443  27.607  25.031  1.00  0.00    -0.460 OA
ENDROOT
BRANCH   1   2
ATOM      2  C   UNL A   1      31.596  26.417  24.374  1.00  0.00     0.341 C 
ATOM      3  O   UNL A   1      31.039  26.155  23.315  1.00  0.00    -0.249 OA
BRANCH   2   4
ATOM      4  C   UNL A   1      32.489  25.418  25.144  1.00  0.00     0.231 C 
ATOM      5  C   UNL A   1      33.318  26.280  26.103  1.00  0.00     0.058 C 
BRANCH   4   6
ATOM      6  C   UNL A   1      31.495  24.522  25.898  1.00  0.00     0.422 C 
ATOM      7  F   UNL A   1      31.207  23.423  25.159  1.00  0.00    -0.168 F 
ATOM      8  F   UNL A   1      31.988  24.076  27.071  1.00  0.00    -0.168 F 
ATOM      9  F   UNL A   1      30.320  25.112  26.201  1.00  0.00    -0.168 F 
ENDBRANCH   4   6
BRANCH   4  10
ATOM     10  N   UNL A   1      33.407  24.731  24.168  1.00  0.00    -0.332 N 
ATOM     11  C   UNL A   1      34.582  24.056  24.269  1.00  0.00     0.231 C 
ATOM     12  H   UNL A   1      33.080  24.783  23.240  1.00  0.00     0.164 HD
ATOM     13  O   UNL A   1      35.167  23.807  23.209  1.00  0.00    -0.274 OA
BRANCH  11  14
ATOM     14  C   UNL A   1      35.152  23.559  25.584  1.00  0.00     0.169 C 
BRANCH  14  15
ATOM     15  S   UNL A   1      35.548  21.791  25.544  1.00  0.00    -0.146 SA
BRANCH  15  16
ATOM     16  C   UNL A   1      33.964  21.095  26.084  1.00  0.00     0.116 C 
BRANCH  16  17
ATOM     17  C   UNL A   1      33.266  20.335  24.996  1.00  0.00     0.014 A 
ATOM     18  C   UNL A   1      32.809  20.751  23.758  1.00  0.00     0.016 A 
ATOM     19  S   UNL A   1      32.968  18.658  25.228  1.00  0.00    -0.148 S 
ATOM     20  C   UNL A   1      32.205  19.699  23.013  1.00  0.00     0.012 A 
ATOM     21  C   UNL A   1      32.226  18.506  23.698  1.00  0.00     0.065 A 
ENDBRANCH  16  17
ENDBRANCH  15  16
ENDBRANCH  14  15
ENDBRANCH  11  14
ENDBRANCH   4  10
ENDBRANCH   2   4
ENDBRANCH   1   2
BRANCH   1  22
ATOM     22  C   UNL A   1      31.103  28.752  24.212  1.00  0.00     0.274 C 
BRANCH  22  23
ATOM     23  C   UNL A   1      31.238  30.037  25.026  1.00  0.00     0.275 C 
BRANCH  23  24
ATOM     24  O   UNL A   1      32.424  29.937  25.830  1.00  0.00    -0.458 OA
BRANCH  24  25
ATOM     25  C   UNL A   1      32.653  30.966  26.684  1.00  0.00     0.338 C 
ATOM     26  O   UNL A   1      31.881  31.870  26.951  1.00  0.00    -0.246 OA
BRANCH  25  27
ATOM     27  C   UNL A   1      33.989  30.803  27.315  1.00  0.00     0.060 A 
ATOM     28  C   UNL A   1      34.461  29.537  27.654  1.00  0.00     0.016 A 
ATOM     29  C   UNL A   1      34.748  31.921  27.658  1.00  0.00     0.016 A 
ATOM     30  C   UNL A   1      35.617  29.392  28.423  1.00  0.00     0.010 A 
ATOM     31  C   UNL A   1      35.978  31.759  28.320  1.00  0.00     0.010 A 
ATOM     32  C   UNL A   1      36.424  30.491  28.739  1.00  0.00    -0.014 A 
BRANCH  32  33
ATOM     33  C   UNL A   1      37.699  30.322  29.510  1.00  0.00     0.031 A 
ATOM     34  C   UNL A   1      38.858  29.557  28.917  1.00  0.00     0.074 A 
ATOM     35  C   UNL A   1      37.852  30.843  30.748  1.00  0.00     0.049 A 
ATOM     36  N   UNL A   1      39.903  29.042  29.515  1.00  0.00    -0.248 NA
ATOM     37  C   UNL A   1      38.829  29.324  27.465  1.00  0.00     0.031 C 
ATOM     38  C   UNL A   1      36.869  31.659  31.465  1.00  0.00     0.029 A 
ATOM     39  N   UNL A   1      38.907  30.763  31.629  1.00  0.00    -0.354 N 
ATOM     40  C   UNL A   1      40.601  28.345  28.536  1.00  0.00     0.074 A 
ATOM     41  C   UNL A   1      39.878  28.529  27.295  1.00  0.00     0.031 C 
ATOM     42  C   UNL A   1      37.388  32.052  32.636  1.00  0.00     0.029 A 
ATOM     43  C   UNL A   1      38.684  31.412  32.820  1.00  0.00     0.049 A 
ATOM     44  H   UNL A   1      39.744  30.284  31.424  1.00  0.00     0.167 HD
ATOM     45  C   UNL A   1      41.732  27.610  28.662  1.00  0.00     0.037 A 
ATOM     46  C   UNL A   1      39.394  31.443  33.964  1.00  0.00     0.037 A 
ATOM     47  C   UNL A   1      42.514  27.511  29.868  1.00  0.00     0.049 A 
ATOM     48  C   UNL A   1      40.641  30.619  34.087  1.00  0.00     0.074 A 
ATOM     49  C   UNL A   1      43.691  26.809  30.078  1.00  0.00     0.029 A 
ATOM     50  N   UNL A   1      42.222  28.160  31.056  1.00  0.00    -0.354 N 
ATOM     51  N   UNL A   1      41.221  29.861  33.189  1.00  0.00    -0.248 NA
ATOM     52  C   UNL A   1      41.308  30.619  35.398  1.00  0.00     0.031 C 
ATOM     53  C   UNL A   1      44.099  27.017  31.400  1.00  0.00     0.029 A 
ATOM     54  C   UNL A   1      43.191  27.871  32.003  1.00  0.00     0.049 A 
ATOM     55  H   UNL A   1      41.439  28.740  31.206  1.00  0.00     0.167 HD
ATOM     56  C   UNL A   1      42.309  29.285  33.829  1.00  0.00     0.074 A 
ATOM     57  C   UNL A   1      42.331  29.806  35.180  1.00  0.00     0.031 C 
ATOM     58  C   UNL A   1      43.199  28.387  33.345  1.00  0.00     0.037 A 
BRANCH  45  59
ATOM     59  C   UNL A   1      42.188  26.814  27.477  1.00  0.00     0.057 A 
ATOM     60  C   UNL A   1      41.780  25.494  27.257  1.00  0.00     0.134 A 
ATOM     61  C   UNL A   1      42.992  27.416  26.498  1.00  0.00     0.134 A 
ATOM     62  F   UNL A   1      41.021  24.858  28.161  1.00  0.00    -0.206 F 
ATOM     63  C   UNL A   1      42.158  24.798  26.107  1.00  0.00     0.040 A 
ATOM     64  C   UNL A   1      43.360  26.739  25.335  1.00  0.00     0.040 A 
ATOM     65  F   UNL A   1      43.411  28.683  26.645  1.00  0.00    -0.206 F 
ATOM     66  C   UNL A   1      42.943  25.424  25.137  1.00  0.00     0.006 A 
ENDBRANCH  45  59
BRANCH  46  67
ATOM     67  C   UNL A   1      38.886  32.213  35.128  1.00  0.00     0.057 A 
ATOM     68  C   UNL A   1      38.217  31.579  36.179  1.00  0.00     0.134 A 
ATOM     69  C   UNL A   1      39.058  33.601  35.214  1.00  0.00     0.134 A 
ATOM     70  F   UNL A   1      37.993  30.257  36.138  1.00  0.00    -0.206 F 
ATOM     71  C   UNL A   1      37.736  32.297  37.276  1.00  0.00     0.040 A 
ATOM     72  C   UNL A   1      38.608  34.327  36.318  1.00  0.00     0.040 A 
ATOM     73  F   UNL A   1      39.686  34.268  34.236  1.00  0.00    -0.206 F 
ATOM     74  C   UNL A   1      37.939  33.673  37.351  1.00  0.00     0.006 A 
ENDBRANCH  46  67
BRANCH  58  75
ATOM     75  C   UNL A   1      44.272  27.921  34.280  1.00  0.00     0.057 A 
ATOM     76  C   UNL A   1      45.475  28.624  34.418  1.00  0.00     0.134 A 
ATOM     77  C   UNL A   1      44.097  26.770  35.057  1.00  0.00     0.134 A 
ATOM     78  F   UNL A   1      45.706  29.726  33.689  1.00  0.00    -0.206 F 
ATOM     79  C   UNL A   1      46.477  28.186  35.286  1.00  0.00     0.040 A 
ATOM     80  C   UNL A   1      45.085  26.332  35.940  1.00  0.00     0.040 A 
ATOM     81  F   UNL A   1      42.966  26.056  34.972  1.00  0.00    -0.206 F 
ATOM     82  C   UNL A   1      46.282  27.039  36.052  1.00  0.00     0.006 A 
ENDBRANCH  58  75
ENDBRANCH  32  33
ENDBRANCH  25  27
ENDBRANCH  24  25
ENDBRANCH  23  24
ENDBRANCH  22  23
ENDBRANCH   1  22
TORSDOF 17
ENDMDL
