MODEL 1
REMARK VINA RESULT:     -12.4      0.000      0.000
REMARK SMILES [NH3+][C@H]1CN(C(=O)OCC2c3ccccc3-c3ccccc32)C[C@@H]1C(=O)OCCOC(=O)c1ccc(-c2c3nc(c(-c4c(F)cccc4F)c4ccc([nH]4)c(-c4c(F)cccc4F)c4nc(c(-c5c(F)cccc5F)c5ccc2[nH]5)C=C4)C=C3)cc1
REMARK SMILES IDX 27 1 26 2 24 3 25 4 23 5 2 6 3 7 4 8 22 9 1 10 5 14 6 15
REMARK SMILES IDX 7 16 8 17 9 18 10 19 21 20 11 21 15 22 16 23 20 24 12 25
REMARK SMILES IDX 14 26 17 27 19 28 13 29 18 30 28 31 29 32 30 33 31 34 32 35
REMARK SMILES IDX 33 36 85 37 34 38 84 39 35 40 36 41 37 42 78 43 38 44 83 45
REMARK SMILES IDX 77 46 79 47 39 48 82 49 76 50 75 51 40 53 66 54 49 55 65 56
REMARK SMILES IDX 50 57 53 58 64 59 80 60 51 61 52 62 63 64 81 65 54 66 41 67
REMARK SMILES IDX 42 68 47 69 43 70 44 71 46 72 48 73 45 74 67 75 68 76 73 77
REMARK SMILES IDX 69 78 70 79 72 80 74 81 71 82 55 83 56 84 61 85 57 86 58 87
REMARK SMILES IDX 60 88 62 89 59 90
REMARK H PARENT 1 11 1 12 1 13 79 52 53 63
REMARK Flexibility Score: inf
ROOT
ATOM      1  C   UNL A   1      31.405  31.085  25.891  1.00  0.00     0.274 C 
ENDROOT
BRANCH   1   2
ATOM      2  O   UNL A   1      31.944  29.839  26.382  1.00  0.00    -0.462 OA
BRANCH   2   3
ATOM      3  C   UNL A   1      31.725  28.763  25.584  1.00  0.00     0.317 C 
ATOM      4  O   UNL A   1      31.244  27.699  25.968  1.00  0.00    -0.252 OA
BRANCH   3   5
ATOM      5  C   UNL A   1      32.064  28.994  24.133  1.00  0.00     0.178 C 
ATOM      6  C   UNL A   1      30.946  28.741  23.115  1.00  0.00     0.216 C 
ATOM      7  C   UNL A   1      31.169  27.280  22.658  1.00  0.00     0.188 C 
ATOM      8  N   UNL A   1      32.550  26.990  22.980  1.00  0.00    -0.301 N 
ATOM      9  C   UNL A   1      33.181  28.069  23.698  1.00  0.00     0.145 C 
BRANCH   6  10
ATOM     10  N   UNL A   1      31.094  29.684  21.989  1.00  0.00    -0.353 N 
ATOM     11  H   UNL A   1      31.669  30.474  22.281  1.00  0.00     0.344 HD
ATOM     12  H   UNL A   1      30.174  30.020  21.703  1.00  0.00     0.344 HD
ATOM     13  H   UNL A   1      31.541  29.210  21.204  1.00  0.00     0.344 HD
ENDBRANCH   6  10
BRANCH   8  14
ATOM     14  C   UNL A   1      33.199  25.795  22.804  1.00  0.00     0.410 C 
ATOM     15  O   UNL A   1      34.032  25.617  21.923  1.00  0.00    -0.224 OA
BRANCH  14  16
ATOM     16  O   UNL A   1      32.726  24.820  23.629  1.00  0.00    -0.448 OA
BRANCH  16  17
ATOM     17  C   UNL A   1      33.350  23.534  23.438  1.00  0.00     0.248 C 
BRANCH  17  18
ATOM     18  C   UNL A   1      33.620  22.764  24.754  1.00  0.00     0.088 C 
ATOM     19  C   UNL A   1      33.500  21.245  24.656  1.00  0.00    -0.029 A 
ATOM     20  C   UNL A   1      35.096  22.914  25.141  1.00  0.00    -0.029 A 
ATOM     21  C   UNL A   1      32.359  20.468  24.500  1.00  0.00     0.005 A 
ATOM     22  C   UNL A   1      34.769  20.642  24.768  1.00  0.00    -0.014 A 
ATOM     23  C   UNL A   1      35.745  21.661  25.084  1.00  0.00    -0.014 A 
ATOM     24  C   UNL A   1      35.787  24.061  25.503  1.00  0.00     0.005 A 
ATOM     25  C   UNL A   1      32.507  19.090  24.334  1.00  0.00     0.000 A 
ATOM     26  C   UNL A   1      34.915  19.272  24.630  1.00  0.00     0.009 A 
ATOM     27  C   UNL A   1      37.097  21.548  25.362  1.00  0.00     0.009 A 
ATOM     28  C   UNL A   1      37.148  23.945  25.796  1.00  0.00     0.000 A 
ATOM     29  C   UNL A   1      33.777  18.497  24.384  1.00  0.00     0.001 A 
ATOM     30  C   UNL A   1      37.799  22.702  25.719  1.00  0.00     0.001 A 
ENDBRANCH  17  18
ENDBRANCH  16  17
ENDBRANCH  14  16
ENDBRANCH   8  14
ENDBRANCH   3   5
ENDBRANCH   2   3
ENDBRANCH   1   2
BRANCH   1  31
ATOM     31  C   UNL A   1      31.395  32.162  26.973  1.00  0.00     0.275 C 
BRANCH  31  32
ATOM     32  O   UNL A   1      32.362  33.184  26.670  1.00  0.00    -0.458 OA
BRANCH  32  33
ATOM     33  C   UNL A   1      32.885  33.815  27.748  1.00  0.00     0.338 C 
ATOM     34  O   UNL A   1      32.466  34.835  28.268  1.00  0.00    -0.246 OA
BRANCH  33  35
ATOM     35  C   UNL A   1      34.104  33.120  28.212  1.00  0.00     0.060 A 
ATOM     36  C   UNL A   1      34.050  31.814  28.698  1.00  0.00     0.016 A 
ATOM     37  C   UNL A   1      35.295  33.840  28.287  1.00  0.00     0.016 A 
ATOM     38  C   UNL A   1      35.136  31.290  29.399  1.00  0.00     0.010 A 
ATOM     39  C   UNL A   1      36.429  33.252  28.858  1.00  0.00     0.010 A 
ATOM     40  C   UNL A   1      36.352  31.990  29.470  1.00  0.00    -0.014 A 
BRANCH  40  41
ATOM     41  C   UNL A   1      37.532  31.397  30.163  1.00  0.00     0.031 A 
ATOM     42  C   UNL A   1      38.418  30.387  29.473  1.00  0.00     0.074 A 
ATOM     43  C   UNL A   1      37.819  31.763  31.430  1.00  0.00     0.049 A 
ATOM     44  N   UNL A   1      39.440  29.720  29.953  1.00  0.00    -0.248 NA
ATOM     45  C   UNL A   1      38.120  30.084  28.064  1.00  0.00     0.031 C 
ATOM     46  C   UNL A   1      37.065  32.735  32.224  1.00  0.00     0.029 A 
ATOM     47  N   UNL A   1      38.821  31.355  32.278  1.00  0.00    -0.354 N 
ATOM     48  C   UNL A   1      39.910  28.932  28.909  1.00  0.00     0.074 A 
ATOM     49  C   UNL A   1      39.022  29.152  27.788  1.00  0.00     0.031 C 
ATOM     50  C   UNL A   1      37.643  32.869  33.427  1.00  0.00     0.029 A 
ATOM     51  C   UNL A   1      38.755  31.932  33.523  1.00  0.00     0.049 A 
ATOM     52  H   UNL A   1      39.519  30.710  32.017  1.00  0.00     0.167 HD
ATOM     53  C   UNL A   1      40.995  28.123  28.871  1.00  0.00     0.037 A 
ATOM     54  C   UNL A   1      39.474  31.707  34.638  1.00  0.00     0.037 A 
ATOM     55  C   UNL A   1      41.869  27.869  29.987  1.00  0.00     0.049 A 
ATOM     56  C   UNL A   1      40.565  30.676  34.619  1.00  0.00     0.074 A 
ATOM     57  C   UNL A   1      42.986  27.053  30.041  1.00  0.00     0.029 A 
ATOM     58  N   UNL A   1      41.713  28.418  31.249  1.00  0.00    -0.354 N 
ATOM     59  N   UNL A   1      41.009  29.963  33.615  1.00  0.00    -0.248 NA
ATOM     60  C   UNL A   1      41.243  30.410  35.896  1.00  0.00     0.031 C 
ATOM     61  C   UNL A   1      43.477  27.068  31.352  1.00  0.00     0.029 A 
ATOM     62  C   UNL A   1      42.691  27.927  32.102  1.00  0.00     0.049 A 
ATOM     63  H   UNL A   1      41.012  29.059  31.505  1.00  0.00     0.167 HD
ATOM     64  C   UNL A   1      42.033  29.181  34.131  1.00  0.00     0.074 A 
ATOM     65  C   UNL A   1      42.152  29.516  35.534  1.00  0.00     0.031 C 
ATOM     66  C   UNL A   1      42.806  28.268  33.495  1.00  0.00     0.037 A 
BRANCH  53  67
ATOM     67  C   UNL A   1      41.309  27.449  27.567  1.00  0.00     0.057 A 
ATOM     68  C   UNL A   1      42.116  28.069  26.604  1.00  0.00     0.134 A 
ATOM     69  C   UNL A   1      40.848  26.157  27.291  1.00  0.00     0.134 A 
ATOM     70  F   UNL A   1      42.582  29.310  26.806  1.00  0.00    -0.206 F 
ATOM     71  C   UNL A   1      42.443  27.432  25.405  1.00  0.00     0.040 A 
ATOM     72  C   UNL A   1      41.183  25.502  26.104  1.00  0.00     0.040 A 
ATOM     73  F   UNL A   1      40.077  25.506  28.175  1.00  0.00    -0.206 F 
ATOM     74  C   UNL A   1      41.981  26.141  25.157  1.00  0.00     0.006 A 
ENDBRANCH  53  67
BRANCH  54  75
ATOM     75  C   UNL A   1      39.150  32.440  35.888  1.00  0.00     0.057 A 
ATOM     76  C   UNL A   1      39.686  33.704  36.148  1.00  0.00     0.134 A 
ATOM     77  C   UNL A   1      38.306  31.883  36.858  1.00  0.00     0.134 A 
ATOM     78  F   UNL A   1      40.521  34.278  35.269  1.00  0.00    -0.206 F 
ATOM     79  C   UNL A   1      39.404  34.386  37.333  1.00  0.00     0.040 A 
ATOM     80  C   UNL A   1      37.992  32.566  38.033  1.00  0.00     0.040 A 
ATOM     81  F   UNL A   1      37.760  30.673  36.668  1.00  0.00    -0.206 F 
ATOM     82  C   UNL A   1      38.549  33.819  38.276  1.00  0.00     0.006 A 
ENDBRANCH  54  75
BRANCH  66  83
ATOM     83  C   UNL A   1      43.870  27.592  34.307  1.00  0.00     0.057 A 
ATOM     84  C   UNL A   1      45.137  28.161  34.482  1.00  0.00     0.134 A 
ATOM     85  C   UNL A   1      43.617  26.365  34.935  1.00  0.00     0.134 A 
ATOM     86  F   UNL A   1      45.447  29.325  33.893  1.00  0.00    -0.206 F 
ATOM     87  C   UNL A   1      46.125  27.521  35.234  1.00  0.00     0.040 A 
ATOM     88  C   UNL A   1      44.588  25.728  35.708  1.00  0.00     0.040 A 
ATOM     89  F   UNL A   1      42.422  25.770  34.811  1.00  0.00    -0.206 F 
ATOM     90  C   UNL A   1      45.849  26.304  35.853  1.00  0.00     0.006 A 
ENDBRANCH  66  83
ENDBRANCH  40  41
ENDBRANCH  33  35
ENDBRANCH  32  33
ENDBRANCH  31  32
ENDBRANCH   1  31
TORSDOF 16
ENDMDL
MODEL 2
REMARK VINA RESULT:     -12.4      3.327      6.933
REMARK SMILES [NH3+][C@H]1CN(C(=O)OCC2c3ccccc3-c3ccccc32)C[C@@H]1C(=O)OCCOC(=O)c1ccc(-c2c3nc(c(-c4c(F)cccc4F)c4ccc([nH]4)c(-c4c(F)cccc4F)c4nc(c(-c5c(F)cccc5F)c5ccc2[nH]5)C=C4)C=C3)cc1
REMARK SMILES IDX 27 1 26 2 24 3 25 4 23 5 2 6 3 7 4 8 22 9 1 10 5 14 6 15
REMARK SMILES IDX 7 16 8 17 9 18 10 19 21 20 11 21 15 22 16 23 20 24 12 25
REMARK SMILES IDX 14 26 17 27 19 28 13 29 18 30 28 31 29 32 30 33 31 34 32 35
REMARK SMILES IDX 33 36 85 37 34 38 84 39 35 40 36 41 37 42 78 43 38 44 83 45
REMARK SMILES IDX 77 46 79 47 39 48 82 49 76 50 75 51 40 53 66 54 49 55 65 56
REMARK SMILES IDX 50 57 53 58 64 59 80 60 51 61 52 62 63 64 81 65 54 66 41 67
REMARK SMILES IDX 42 68 47 69 43 70 44 71 46 72 48 73 45 74 67 75 68 76 73 77
REMARK SMILES IDX 69 78 70 79 72 80 74 81 71 82 55 83 56 84 61 85 57 86 58 87
REMARK SMILES IDX 60 88 62 89 59 90
REMARK H PARENT 1 11 1 12 1 13 79 52 53 63
REMARK Flexibility Score: inf
ROOT
ATOM      1  C   UNL A   1      31.921  28.846  27.244  1.00  0.00     0.274 C 
ENDROOT
BRANCH   1   2
ATOM      2  O   UNL A   1      31.337  27.530  27.356  1.00  0.00    -0.462 OA
BRANCH   2   3
ATOM      3  C   UNL A   1      31.634  26.680  26.340  1.00  0.00     0.317 C 
ATOM      4  O   UNL A   1      32.199  25.599  26.480  1.00  0.00    -0.252 OA
BRANCH   3   5
ATOM      5  C   UNL A   1      31.146  27.143  24.989  1.00  0.00     0.178 C 
ATOM      6  C   UNL A   1      30.008  26.335  24.354  1.00  0.00     0.216 C 
ATOM      7  C   UNL A   1      30.728  25.310  23.446  1.00  0.00     0.188 C 
ATOM      8  N   UNL A   1      32.041  25.870  23.212  1.00  0.00    -0.301 N 
ATOM      9  C   UNL A   1      32.265  27.074  23.973  1.00  0.00     0.145 C 
BRANCH   6  10
ATOM     10  N   UNL A   1      29.151  27.243  23.565  1.00  0.00    -0.353 N 
ATOM     11  H   UNL A   1      28.876  28.037  24.143  1.00  0.00     0.344 HD
ATOM     12  H   UNL A   1      28.319  26.742  23.255  1.00  0.00     0.344 HD
ATOM     13  H   UNL A   1      29.669  27.577  22.752  1.00  0.00     0.344 HD
ENDBRANCH   6  10
BRANCH   8  14
ATOM     14  C   UNL A   1      33.062  25.294  22.500  1.00  0.00     0.410 C 
ATOM     15  O   UNL A   1      33.660  25.883  21.606  1.00  0.00    -0.224 OA
BRANCH  14  16
ATOM     16  O   UNL A   1      33.241  23.982  22.815  1.00  0.00    -0.448 OA
BRANCH  16  17
ATOM     17  C   UNL A   1      34.566  23.667  23.292  1.00  0.00     0.248 C 
BRANCH  17  18
ATOM     18  C   UNL A   1      34.584  22.933  24.656  1.00  0.00     0.088 C 
ATOM     19  C   UNL A   1      34.160  21.466  24.610  1.00  0.00    -0.029 A 
ATOM     20  C   UNL A   1      36.031  22.801  25.147  1.00  0.00    -0.029 A 
ATOM     21  C   UNL A   1      32.897  20.930  24.401  1.00  0.00     0.005 A 
ATOM     22  C   UNL A   1      35.267  20.626  24.843  1.00  0.00    -0.014 A 
ATOM     23  C   UNL A   1      36.410  21.441  25.190  1.00  0.00    -0.014 A 
ATOM     24  C   UNL A   1      36.918  23.803  25.513  1.00  0.00     0.005 A 
ATOM     25  C   UNL A   1      32.768  19.543  24.302  1.00  0.00     0.000 A 
ATOM     26  C   UNL A   1      35.136  19.249  24.772  1.00  0.00     0.009 A 
ATOM     27  C   UNL A   1      37.688  21.073  25.575  1.00  0.00     0.009 A 
ATOM     28  C   UNL A   1      38.203  23.429  25.914  1.00  0.00     0.000 A 
ATOM     29  C   UNL A   1      33.882  18.709  24.473  1.00  0.00     0.001 A 
ATOM     30  C   UNL A   1      38.588  22.078  25.937  1.00  0.00     0.001 A 
ENDBRANCH  17  18
ENDBRANCH  16  17
ENDBRANCH  14  16
ENDBRANCH   8  14
ENDBRANCH   3   5
ENDBRANCH   2   3
ENDBRANCH   1   2
BRANCH   1  31
ATOM     31  C   UNL A   1      33.446  28.794  27.287  1.00  0.00     0.275 C 
BRANCH  31  32
ATOM     32  O   UNL A   1      33.999  30.093  27.008  1.00  0.00    -0.458 OA
BRANCH  32  33
ATOM     33  C   UNL A   1      34.642  30.676  28.046  1.00  0.00     0.338 C 
ATOM     34  O   UNL A   1      34.248  31.622  28.708  1.00  0.00    -0.246 OA
BRANCH  33  35
ATOM     35  C   UNL A   1      35.956  30.037  28.265  1.00  0.00     0.060 A 
ATOM     36  C   UNL A   1      36.290  29.473  29.496  1.00  0.00     0.016 A 
ATOM     37  C   UNL A   1      36.918  30.127  27.260  1.00  0.00     0.016 A 
ATOM     38  C   UNL A   1      37.617  29.148  29.773  1.00  0.00     0.010 A 
ATOM     39  C   UNL A   1      38.216  29.660  27.494  1.00  0.00     0.010 A 
ATOM     40  C   UNL A   1      38.598  29.213  28.770  1.00  0.00    -0.014 A 
BRANCH  40  41
ATOM     41  C   UNL A   1      40.004  28.802  29.053  1.00  0.00     0.031 A 
ATOM     42  C   UNL A   1      40.973  29.744  29.726  1.00  0.00     0.074 A 
ATOM     43  C   UNL A   1      40.425  27.569  28.703  1.00  0.00     0.049 A 
ATOM     44  N   UNL A   1      42.249  29.573  29.980  1.00  0.00    -0.248 NA
ATOM     45  C   UNL A   1      40.448  31.044  30.169  1.00  0.00     0.031 C 
ATOM     46  C   UNL A   1      39.603  26.542  28.057  1.00  0.00     0.029 A 
ATOM     47  N   UNL A   1      41.654  26.967  28.834  1.00  0.00    -0.354 N 
ATOM     48  C   UNL A   1      42.671  30.733  30.619  1.00  0.00     0.074 A 
ATOM     49  C   UNL A   1      41.536  31.628  30.654  1.00  0.00     0.031 C 
ATOM     50  C   UNL A   1      40.337  25.435  27.875  1.00  0.00     0.029 A 
ATOM     51  C   UNL A   1      41.703  25.699  28.310  1.00  0.00     0.049 A 
ATOM     52  H   UNL A   1      42.424  27.405  29.264  1.00  0.00     0.167 HD
ATOM     53  C   UNL A   1      43.882  31.021  31.155  1.00  0.00     0.037 A 
ATOM     54  C   UNL A   1      42.735  24.850  28.150  1.00  0.00     0.037 A 
ATOM     55  C   UNL A   1      45.030  30.154  31.100  1.00  0.00     0.049 A 
ATOM     56  C   UNL A   1      44.107  25.262  28.598  1.00  0.00     0.074 A 
ATOM     57  C   UNL A   1      46.301  30.370  31.606  1.00  0.00     0.029 A 
ATOM     58  N   UNL A   1      45.050  28.912  30.488  1.00  0.00    -0.354 N 
ATOM     59  N   UNL A   1      44.479  26.351  29.223  1.00  0.00    -0.248 NA
ATOM     60  C   UNL A   1      45.205  24.331  28.303  1.00  0.00     0.031 C 
ATOM     61  C   UNL A   1      47.104  29.279  31.255  1.00  0.00     0.029 A 
ATOM     62  C   UNL A   1      46.322  28.365  30.569  1.00  0.00     0.049 A 
ATOM     63  H   UNL A   1      44.277  28.480  30.058  1.00  0.00     0.167 HD
ATOM     64  C   UNL A   1      45.848  26.227  29.417  1.00  0.00     0.074 A 
ATOM     65  C   UNL A   1      46.238  24.951  28.855  1.00  0.00     0.031 C 
ATOM     66  C   UNL A   1      46.703  27.094  30.011  1.00  0.00     0.037 A 
BRANCH  53  67
ATOM     67  C   UNL A   1      44.029  32.336  31.863  1.00  0.00     0.057 A 
ATOM     68  C   UNL A   1      43.755  32.461  33.231  1.00  0.00     0.134 A 
ATOM     69  C   UNL A   1      44.495  33.471  31.189  1.00  0.00     0.134 A 
ATOM     70  F   UNL A   1      43.297  31.412  33.930  1.00  0.00    -0.206 F 
ATOM     71  C   UNL A   1      43.926  33.673  33.902  1.00  0.00     0.040 A 
ATOM     72  C   UNL A   1      44.689  34.684  31.853  1.00  0.00     0.040 A 
ATOM     73  F   UNL A   1      44.783  33.416  29.881  1.00  0.00    -0.206 F 
ATOM     74  C   UNL A   1      44.402  34.787  33.214  1.00  0.00     0.006 A 
ENDBRANCH  53  67
BRANCH  54  75
ATOM     75  C   UNL A   1      42.521  23.540  27.486  1.00  0.00     0.057 A 
ATOM     76  C   UNL A   1      42.626  23.402  26.099  1.00  0.00     0.134 A 
ATOM     77  C   UNL A   1      42.191  22.396  28.226  1.00  0.00     0.134 A 
ATOM     78  F   UNL A   1      42.913  24.466  25.335  1.00  0.00    -0.206 F 
ATOM     79  C   UNL A   1      42.400  22.178  25.468  1.00  0.00     0.040 A 
ATOM     80  C   UNL A   1      41.991  21.160  27.612  1.00  0.00     0.040 A 
ATOM     81  F   UNL A   1      42.075  22.463  29.561  1.00  0.00    -0.206 F 
ATOM     82  C   UNL A   1      42.088  21.050  26.227  1.00  0.00     0.006 A 
ENDBRANCH  54  75
BRANCH  66  83
ATOM     83  C   UNL A   1      48.138  26.674  30.110  1.00  0.00     0.057 A 
ATOM     84  C   UNL A   1      48.614  25.925  31.193  1.00  0.00     0.134 A 
ATOM     85  C   UNL A   1      49.052  27.012  29.103  1.00  0.00     0.134 A 
ATOM     86  F   UNL A   1      47.794  25.586  32.198  1.00  0.00    -0.206 F 
ATOM     87  C   UNL A   1      49.955  25.544  31.282  1.00  0.00     0.040 A 
ATOM     88  C   UNL A   1      50.388  26.617  29.170  1.00  0.00     0.040 A 
ATOM     89  F   UNL A   1      48.659  27.724  28.037  1.00  0.00    -0.206 F 
ATOM     90  C   UNL A   1      50.844  25.887  30.265  1.00  0.00     0.006 A 
ENDBRANCH  66  83
ENDBRANCH  40  41
ENDBRANCH  33  35
ENDBRANCH  32  33
ENDBRANCH  31  32
ENDBRANCH   1  31
TORSDOF 16
ENDMDL
MODEL 3
REMARK VINA RESULT:     -12.3      3.651      7.321
REMARK SMILES [NH3+][C@H]1CN(C(=O)OCC2c3ccccc3-c3ccccc32)C[C@@H]1C(=O)OCCOC(=O)c1ccc(-c2c3nc(c(-c4c(F)cccc4F)c4ccc([nH]4)c(-c4c(F)cccc4F)c4nc(c(-c5c(F)cccc5F)c5ccc2[nH]5)C=C4)C=C3)cc1
REMARK SMILES IDX 27 1 26 2 24 3 25 4 23 5 2 6 3 7 4 8 22 9 1 10 5 14 6 15
REMARK SMILES IDX 7 16 8 17 9 18 10 19 21 20 11 21 15 22 16 23 20 24 12 25
REMARK SMILES IDX 14 26 17 27 19 28 13 29 18 30 28 31 29 32 30 33 31 34 32 35
REMARK SMILES IDX 33 36 85 37 34 38 84 39 35 40 36 41 37 42 78 43 38 44 83 45
REMARK SMILES IDX 77 46 79 47 39 48 82 49 76 50 75 51 40 53 66 54 49 55 65 56
REMARK SMILES IDX 50 57 53 58 64 59 80 60 51 61 52 62 63 64 81 65 54 66 41 67
REMARK SMILES IDX 42 68 47 69 43 70 44 71 46 72 48 73 45 74 67 75 68 76 73 77
REMARK SMILES IDX 69 78 70 79 72 80 74 81 71 82 55 83 56 84 61 85 57 86 58 87
REMARK SMILES IDX 60 88 62 89 59 90
REMARK H PARENT 1 11 1 12 1 13 79 52 53 63
REMARK Flexibility Score: inf
ROOT
ATOM      1  C   UNL A   1      31.779  29.484  27.058  1.00  0.00     0.274 C 
ENDROOT
BRANCH   1   2
ATOM      2  O   UNL A   1      31.406  29.334  25.671  1.00  0.00    -0.462 OA
BRANCH   2   3
ATOM      3  C   UNL A   1      32.214  28.523  24.941  1.00  0.00     0.317 C 
ATOM      4  O   UNL A   1      32.812  27.550  25.392  1.00  0.00    -0.252 OA
BRANCH   3   5
ATOM      5  C   UNL A   1      32.276  28.874  23.475  1.00  0.00     0.178 C 
ATOM      6  C   UNL A   1      30.962  28.783  22.689  1.00  0.00     0.216 C 
ATOM      7  C   UNL A   1      30.981  27.363  22.077  1.00  0.00     0.188 C 
ATOM      8  N   UNL A   1      32.373  26.966  22.085  1.00  0.00    -0.301 N 
ATOM      9  C   UNL A   1      33.212  27.933  22.747  1.00  0.00     0.145 C 
BRANCH   6  10
ATOM     10  N   UNL A   1      30.954  29.821  21.639  1.00  0.00    -0.353 N 
ATOM     11  H   UNL A   1      30.161  30.446  21.785  1.00  0.00     0.344 HD
ATOM     12  H   UNL A   1      30.875  29.378  20.723  1.00  0.00     0.344 HD
ATOM     13  H   UNL A   1      31.822  30.356  21.683  1.00  0.00     0.344 HD
ENDBRANCH   6  10
BRANCH   8  14
ATOM     14  C   UNL A   1      32.883  25.759  21.683  1.00  0.00     0.410 C 
ATOM     15  O   UNL A   1      33.160  25.514  20.514  1.00  0.00    -0.224 OA
BRANCH  14  16
ATOM     16  O   UNL A   1      32.926  24.848  22.694  1.00  0.00    -0.448 OA
BRANCH  16  17
ATOM     17  C   UNL A   1      33.215  23.502  22.263  1.00  0.00     0.248 C 
BRANCH  17  18
ATOM     18  C   UNL A   1      33.619  22.547  23.413  1.00  0.00     0.088 C 
ATOM     19  C   UNL A   1      34.976  22.836  24.052  1.00  0.00    -0.029 A 
ATOM     20  C   UNL A   1      32.684  22.762  24.609  1.00  0.00    -0.029 A 
ATOM     21  C   UNL A   1      36.246  22.649  23.523  1.00  0.00     0.005 A 
ATOM     22  C   UNL A   1      34.809  23.338  25.358  1.00  0.00    -0.014 A 
ATOM     23  C   UNL A   1      33.408  23.276  25.708  1.00  0.00    -0.014 A 
ATOM     24  C   UNL A   1      31.321  22.523  24.700  1.00  0.00     0.005 A 
ATOM     25  C   UNL A   1      37.348  23.083  24.262  1.00  0.00     0.000 A 
ATOM     26  C   UNL A   1      35.903  23.745  26.103  1.00  0.00     0.009 A 
ATOM     27  C   UNL A   1      32.769  23.582  26.898  1.00  0.00     0.009 A 
ATOM     28  C   UNL A   1      30.679  22.819  25.905  1.00  0.00     0.000 A 
ATOM     29  C   UNL A   1      37.177  23.640  25.538  1.00  0.00     0.001 A 
ATOM     30  C   UNL A   1      31.394  23.351  26.992  1.00  0.00     0.001 A 
ENDBRANCH  17  18
ENDBRANCH  16  17
ENDBRANCH  14  16
ENDBRANCH   8  14
ENDBRANCH   3   5
ENDBRANCH   2   3
ENDBRANCH   1   2
BRANCH   1  31
ATOM     31  C   UNL A   1      32.870  30.536  27.240  1.00  0.00     0.275 C 
BRANCH  31  32
ATOM     32  O   UNL A   1      34.117  29.908  27.590  1.00  0.00    -0.458 OA
BRANCH  32  33
ATOM     33  C   UNL A   1      34.907  30.628  28.420  1.00  0.00     0.338 C 
ATOM     34  O   UNL A   1      34.615  31.672  28.979  1.00  0.00    -0.246 OA
BRANCH  33  35
ATOM     35  C   UNL A   1      36.239  30.000  28.539  1.00  0.00     0.060 A 
ATOM     36  C   UNL A   1      36.656  29.408  29.731  1.00  0.00     0.016 A 
ATOM     37  C   UNL A   1      37.135  30.129  27.478  1.00  0.00     0.016 A 
ATOM     38  C   UNL A   1      38.001  29.093  29.915  1.00  0.00     0.010 A 
ATOM     39  C   UNL A   1      38.450  29.672  27.618  1.00  0.00     0.010 A 
ATOM     40  C   UNL A   1      38.916  29.197  28.855  1.00  0.00    -0.014 A 
BRANCH  40  41
ATOM     41  C   UNL A   1      40.342  28.796  29.037  1.00  0.00     0.031 A 
ATOM     42  C   UNL A   1      41.357  29.758  29.606  1.00  0.00     0.074 A 
ATOM     43  C   UNL A   1      40.739  27.554  28.690  1.00  0.00     0.049 A 
ATOM     44  N   UNL A   1      42.649  29.597  29.764  1.00  0.00    -0.248 NA
ATOM     45  C   UNL A   1      40.863  31.070  30.054  1.00  0.00     0.031 C 
ATOM     46  C   UNL A   1      39.873  26.509  28.139  1.00  0.00     0.029 A 
ATOM     47  N   UNL A   1      41.977  26.959  28.741  1.00  0.00    -0.354 N 
ATOM     48  C   UNL A   1      43.116  30.775  30.336  1.00  0.00     0.074 A 
ATOM     49  C   UNL A   1      41.983  31.669  30.436  1.00  0.00     0.031 C 
ATOM     50  C   UNL A   1      40.595  25.399  27.930  1.00  0.00     0.029 A 
ATOM     51  C   UNL A   1      41.990  25.677  28.249  1.00  0.00     0.049 A 
ATOM     52  H   UNL A   1      42.777  27.410  29.096  1.00  0.00     0.167 HD
ATOM     53  C   UNL A   1      44.363  31.080  30.767  1.00  0.00     0.037 A 
ATOM     54  C   UNL A   1      43.010  24.826  28.032  1.00  0.00     0.037 A 
ATOM     55  C   UNL A   1      45.508  30.213  30.646  1.00  0.00     0.049 A 
ATOM     56  C   UNL A   1      44.411  25.253  28.360  1.00  0.00     0.074 A 
ATOM     57  C   UNL A   1      46.813  30.446  31.045  1.00  0.00     0.029 A 
ATOM     58  N   UNL A   1      45.484  28.955  30.068  1.00  0.00    -0.354 N 
ATOM     59  N   UNL A   1      44.826  26.359  28.923  1.00  0.00    -0.248 NA
ATOM     60  C   UNL A   1      45.486  24.316  28.005  1.00  0.00     0.031 C 
ATOM     61  C   UNL A   1      47.591  29.347  30.662  1.00  0.00     0.029 A 
ATOM     62  C   UNL A   1      46.761  28.413  30.065  1.00  0.00     0.049 A 
ATOM     63  H   UNL A   1      44.682  28.510  29.713  1.00  0.00     0.167 HD
ATOM     64  C   UNL A   1      46.207  26.243  29.013  1.00  0.00     0.074 A 
ATOM     65  C   UNL A   1      46.557  24.953  28.457  1.00  0.00     0.031 C 
ATOM     66  C   UNL A   1      47.102  27.128  29.514  1.00  0.00     0.037 A 
BRANCH  53  67
ATOM     67  C   UNL A   1      44.561  32.414  31.425  1.00  0.00     0.057 A 
ATOM     68  C   UNL A   1      44.438  32.567  32.812  1.00  0.00     0.134 A 
ATOM     69  C   UNL A   1      44.924  33.541  30.678  1.00  0.00     0.134 A 
ATOM     70  F   UNL A   1      44.083  31.528  33.581  1.00  0.00    -0.206 F 
ATOM     71  C   UNL A   1      44.657  33.798  33.433  1.00  0.00     0.040 A 
ATOM     72  C   UNL A   1      45.165  34.773  31.290  1.00  0.00     0.040 A 
ATOM     73  F   UNL A   1      45.067  33.460  29.348  1.00  0.00    -0.206 F 
ATOM     74  C   UNL A   1      45.029  34.904  32.671  1.00  0.00     0.006 A 
ENDBRANCH  53  67
BRANCH  54  75
ATOM     75  C   UNL A   1      42.749  23.497  27.423  1.00  0.00     0.057 A 
ATOM     76  C   UNL A   1      42.436  22.387  28.212  1.00  0.00     0.134 A 
ATOM     77  C   UNL A   1      42.822  23.306  26.037  1.00  0.00     0.134 A 
ATOM     78  F   UNL A   1      42.377  22.501  29.547  1.00  0.00    -0.206 F 
ATOM     79  C   UNL A   1      42.214  21.129  27.648  1.00  0.00     0.040 A 
ATOM     80  C   UNL A   1      42.574  22.062  25.457  1.00  0.00     0.040 A 
ATOM     81  F   UNL A   1      43.118  24.332  25.226  1.00  0.00    -0.206 F 
ATOM     82  C   UNL A   1      42.276  20.967  26.264  1.00  0.00     0.006 A 
ENDBRANCH  54  75
BRANCH  66  83
ATOM     83  C   UNL A   1      48.543  26.714  29.512  1.00  0.00     0.057 A 
ATOM     84  C   UNL A   1      49.095  25.959  30.554  1.00  0.00     0.134 A 
ATOM     85  C   UNL A   1      49.384  27.062  28.446  1.00  0.00     0.134 A 
ATOM     86  F   UNL A   1      48.346  25.609  31.610  1.00  0.00    -0.206 F 
ATOM     87  C   UNL A   1      50.440  25.584  30.549  1.00  0.00     0.040 A 
ATOM     88  C   UNL A   1      50.723  26.672  28.419  1.00  0.00     0.040 A 
ATOM     89  F   UNL A   1      48.916  27.780  27.415  1.00  0.00    -0.206 F 
ATOM     90  C   UNL A   1      51.256  25.937  29.476  1.00  0.00     0.006 A 
ENDBRANCH  66  83
ENDBRANCH  40  41
ENDBRANCH  33  35
ENDBRANCH  32  33
ENDBRANCH  31  32
ENDBRANCH   1  31
TORSDOF 16
ENDMDL
