MODEL 1
REMARK VINA RESULT:     -10.1      0.000      0.000
REMARK SMILES Cc1c(CC(=O)N[C@@H](CCO)C(=O)OCCOC(=O)c2ccc(-c3c4nc(c(-c5c(F)cccc5F)c5ccc([nH]5)c(-c5c(F)cccc5F)c5nc(c(-c6c(F)cccc6F)c6ccc3[nH]6)C=C5)C=C4)cc2)cc(-c2ccc(S(C)(=O)=O)cc2)n1-c1ccc(F)cc1
REMARK SMILES IDX 14 1 12 2 13 3 8 4 7 5 5 6 6 7 4 9 3 10 1 11 2 12 86 13
REMARK SMILES IDX 74 14 75 15 87 16 88 17 93 18 89 19 92 20 90 21 91 22 76 23
REMARK SMILES IDX 77 24 85 25 78 26 84 27 79 28 80 29 81 30 82 31 83 32 9 33
REMARK SMILES IDX 10 34 11 35 15 37 16 38 17 39 18 40 19 41 20 42 21 43 73 44
REMARK SMILES IDX 22 45 72 46 23 47 24 48 25 49 66 50 26 51 71 52 65 53 67 54
REMARK SMILES IDX 27 55 70 56 64 57 63 58 28 60 54 61 37 62 53 63 38 64 41 65
REMARK SMILES IDX 52 66 68 67 39 68 40 69 51 71 69 72 42 73 29 74 30 75 35 76
REMARK SMILES IDX 31 77 32 78 34 79 36 80 33 81 55 82 56 83 61 84 57 85 58 86
REMARK SMILES IDX 60 87 62 88 59 89 43 90 44 91 49 92 45 93 46 94 48 95 50 96
REMARK SMILES IDX 47 97
REMARK H PARENT 7 8 11 36 67 59 41 70
REMARK Flexibility Score: inf
ROOT
ATOM      1  O   UNL A   1      32.366  29.859  26.858  1.00  0.00    -0.461 OA
ENDROOT
BRANCH   1   2
ATOM      2  C   UNL A   1      32.647  28.590  26.439  1.00  0.00     0.328 C 
ATOM      3  O   UNL A   1      33.544  27.893  26.901  1.00  0.00    -0.250 OA
BRANCH   2   4
ATOM      4  C   UNL A   1      31.631  28.075  25.395  1.00  0.00     0.194 C 
BRANCH   4   5
ATOM      5  N   UNL A   1      30.605  27.142  25.877  1.00  0.00    -0.342 N 
ATOM      6  C   UNL A   1      30.059  26.063  25.241  1.00  0.00     0.225 C 
ATOM      7  O   UNL A   1      29.173  25.439  25.830  1.00  0.00    -0.275 OA
ATOM      8  H   UNL A   1      30.264  27.318  26.784  1.00  0.00     0.164 HD
BRANCH   6   9
ATOM      9  C   UNL A   1      30.565  25.624  23.871  1.00  0.00     0.137 C 
BRANCH   9  10
ATOM     10  C   UNL A   1      31.625  24.559  23.928  1.00  0.00    -0.017 A 
ATOM     11  C   UNL A   1      33.767  25.983  24.226  1.00  0.00     0.065 C 
ATOM     12  C   UNL A   1      32.987  24.709  24.146  1.00  0.00     0.024 A 
ATOM     13  N   UNL A   1      33.565  23.442  24.215  1.00  0.00    -0.314 N 
ATOM     14  C   UNL A   1      31.391  23.168  23.761  1.00  0.00     0.033 A 
ATOM     15  C   UNL A   1      32.564  22.485  24.019  1.00  0.00     0.053 A 
BRANCH  13  16
ATOM     16  C   UNL A   1      34.937  23.152  24.461  1.00  0.00     0.046 A 
ATOM     17  C   UNL A   1      35.737  22.660  23.418  1.00  0.00     0.029 A 
ATOM     18  C   UNL A   1      35.459  23.278  25.755  1.00  0.00     0.029 A 
ATOM     19  C   UNL A   1      37.053  22.279  23.675  1.00  0.00     0.041 A 
ATOM     20  C   UNL A   1      36.775  22.887  26.004  1.00  0.00     0.041 A 
ATOM     21  C   UNL A   1      37.557  22.389  24.966  1.00  0.00     0.123 A 
ATOM     22  F   UNL A   1      38.812  21.997  25.216  1.00  0.00    -0.207 F 
ENDBRANCH  13  16
BRANCH  15  23
ATOM     23  C   UNL A   1      32.725  21.030  24.173  1.00  0.00    -0.001 A 
ATOM     24  C   UNL A   1      33.280  20.479  25.339  1.00  0.00     0.011 A 
ATOM     25  C   UNL A   1      32.303  20.169  23.150  1.00  0.00     0.011 A 
ATOM     26  C   UNL A   1      33.464  19.098  25.461  1.00  0.00     0.021 A 
ATOM     27  C   UNL A   1      32.481  18.787  23.267  1.00  0.00     0.021 A 
ATOM     28  C   UNL A   1      33.078  18.261  24.412  1.00  0.00     0.067 A 
BRANCH  28  29
ATOM     29  S   UNL A   1      33.309  16.506  24.580  1.00  0.00     0.175 S 
ATOM     30  C   UNL A   1      34.868  16.347  25.411  1.00  0.00     0.163 C 
ATOM     31  O   UNL A   1      32.273  16.017  25.447  1.00  0.00    -0.224 OA
ATOM     32  O   UNL A   1      33.484  15.961  23.233  1.00  0.00    -0.224 OA
ENDBRANCH  28  29
ENDBRANCH  15  23
ENDBRANCH   9  10
ENDBRANCH   6   9
ENDBRANCH   4   5
BRANCH   4  33
ATOM     33  C   UNL A   1      30.999  29.176  24.523  1.00  0.00     0.065 C 
BRANCH  33  34
ATOM     34  C   UNL A   1      31.175  29.006  23.018  1.00  0.00     0.159 C 
BRANCH  34  35
ATOM     35  O   UNL A   1      32.475  29.398  22.616  1.00  0.00    -0.396 OA
ATOM     36  H   UNL A   1      32.583  30.351  22.756  1.00  0.00     0.210 HD
ENDBRANCH  34  35
ENDBRANCH  33  34
ENDBRANCH   4  33
ENDBRANCH   2   4
ENDBRANCH   1   2
BRANCH   1  37
ATOM     37  C   UNL A   1      33.451  30.827  26.813  1.00  0.00     0.274 C 
BRANCH  37  38
ATOM     38  C   UNL A   1      34.074  31.050  28.222  1.00  0.00     0.275 C 
BRANCH  38  39
ATOM     39  O   UNL A   1      34.089  32.417  28.791  1.00  0.00    -0.458 OA
BRANCH  39  40
ATOM     40  C   UNL A   1      35.052  33.294  28.349  1.00  0.00     0.338 C 
ATOM     41  O   UNL A   1      34.837  34.134  27.484  1.00  0.00    -0.246 OA
BRANCH  40  42
ATOM     42  C   UNL A   1      36.439  33.171  29.021  1.00  0.00     0.060 A 
ATOM     43  C   UNL A   1      37.078  34.304  29.505  1.00  0.00     0.016 A 
ATOM     44  C   UNL A   1      37.271  32.026  28.973  1.00  0.00     0.016 A 
ATOM     45  C   UNL A   1      38.446  34.259  29.983  1.00  0.00     0.010 A 
ATOM     46  C   UNL A   1      38.698  32.006  29.403  1.00  0.00     0.010 A 
ATOM     47  C   UNL A   1      39.359  33.129  29.937  1.00  0.00    -0.014 A 
BRANCH  47  48
ATOM     48  C   UNL A   1      41.002  33.458  30.079  1.00  0.00     0.031 A 
ATOM     49  C   UNL A   1      41.375  32.527  31.183  1.00  0.00     0.074 A 
ATOM     50  C   UNL A   1      42.079  34.304  29.713  1.00  0.00     0.049 A 
ATOM     51  N   UNL A   1      40.737  32.619  32.318  1.00  0.00    -0.248 NA
ATOM     52  C   UNL A   1      42.096  31.269  30.989  1.00  0.00     0.031 C 
ATOM     53  C   UNL A   1      42.042  35.539  28.902  1.00  0.00     0.029 A 
ATOM     54  N   UNL A   1      43.511  34.284  29.987  1.00  0.00    -0.354 N 
ATOM     55  C   UNL A   1      41.224  31.615  33.111  1.00  0.00     0.074 A 
ATOM     56  C   UNL A   1      41.849  30.692  32.173  1.00  0.00     0.031 C 
ATOM     57  C   UNL A   1      43.291  36.031  28.624  1.00  0.00     0.029 A 
ATOM     58  C   UNL A   1      44.350  35.235  29.253  1.00  0.00     0.049 A 
ATOM     59  H   UNL A   1      43.899  33.656  30.640  1.00  0.00     0.167 HD
ATOM     60  C   UNL A   1      41.672  32.026  34.333  1.00  0.00     0.037 A 
ATOM     61  C   UNL A   1      45.745  35.445  29.208  1.00  0.00     0.037 A 
ATOM     62  C   UNL A   1      43.104  32.130  34.366  1.00  0.00     0.049 A 
ATOM     63  C   UNL A   1      46.252  34.983  30.500  1.00  0.00     0.074 A 
ATOM     64  C   UNL A   1      44.108  31.316  33.880  1.00  0.00     0.029 A 
ATOM     65  N   UNL A   1      43.646  33.389  34.509  1.00  0.00    -0.354 N 
ATOM     66  N   UNL A   1      46.156  35.727  31.556  1.00  0.00    -0.248 NA
ATOM     67  C   UNL A   1      47.020  33.755  30.659  1.00  0.00     0.031 C 
ATOM     68  C   UNL A   1      45.003  32.203  33.250  1.00  0.00     0.029 A 
ATOM     69  C   UNL A   1      44.782  33.484  33.736  1.00  0.00     0.049 A 
ATOM     70  H   UNL A   1      43.278  34.107  35.073  1.00  0.00     0.167 HD
ATOM     71  C   UNL A   1      46.338  34.842  32.564  1.00  0.00     0.074 A 
ATOM     72  C   UNL A   1      47.125  33.764  31.990  1.00  0.00     0.031 C 
ATOM     73  C   UNL A   1      45.320  34.787  33.454  1.00  0.00     0.037 A 
BRANCH  60  74
ATOM     74  C   UNL A   1      40.716  32.975  35.006  1.00  0.00     0.057 A 
ATOM     75  C   UNL A   1      39.815  32.470  35.944  1.00  0.00     0.134 A 
ATOM     76  C   UNL A   1      40.524  34.305  34.585  1.00  0.00     0.134 A 
ATOM     77  F   UNL A   1      39.963  31.226  36.425  1.00  0.00    -0.206 F 
ATOM     78  C   UNL A   1      38.722  33.225  36.383  1.00  0.00     0.040 A 
ATOM     79  C   UNL A   1      39.406  35.045  34.968  1.00  0.00     0.040 A 
ATOM     80  F   UNL A   1      41.398  34.898  33.755  1.00  0.00    -0.206 F 
ATOM     81  C   UNL A   1      38.492  34.499  35.862  1.00  0.00     0.006 A 
ENDBRANCH  60  74
BRANCH  61  82
ATOM     82  C   UNL A   1      46.973  36.152  28.482  1.00  0.00     0.057 A 
ATOM     83  C   UNL A   1      47.738  35.484  27.450  1.00  0.00     0.134 A 
ATOM     84  C   UNL A   1      47.152  37.539  28.441  1.00  0.00     0.134 A 
ATOM     85  F   UNL A   1      47.776  34.148  27.343  1.00  0.00    -0.206 F 
ATOM     86  C   UNL A   1      48.465  36.127  26.421  1.00  0.00     0.040 A 
ATOM     87  C   UNL A   1      47.920  38.197  27.429  1.00  0.00     0.040 A 
ATOM     88  F   UNL A   1      46.532  38.322  29.331  1.00  0.00    -0.206 F 
ATOM     89  C   UNL A   1      48.540  37.501  26.391  1.00  0.00     0.006 A 
ENDBRANCH  61  82
BRANCH  73  90
ATOM     90  C   UNL A   1      44.754  36.114  33.933  1.00  0.00     0.057 A 
ATOM     91  C   UNL A   1      43.819  36.943  33.272  1.00  0.00     0.134 A 
ATOM     92  C   UNL A   1      45.277  36.630  35.125  1.00  0.00     0.134 A 
ATOM     93  F   UNL A   1      43.139  36.547  32.186  1.00  0.00    -0.206 F 
ATOM     94  C   UNL A   1      43.512  38.234  33.725  1.00  0.00     0.040 A 
ATOM     95  C   UNL A   1      44.932  37.892  35.618  1.00  0.00     0.040 A 
ATOM     96  F   UNL A   1      46.142  35.904  35.850  1.00  0.00    -0.206 F 
ATOM     97  C   UNL A   1      44.070  38.713  34.902  1.00  0.00     0.006 A 
ENDBRANCH  73  90
ENDBRANCH  47  48
ENDBRANCH  40  42
ENDBRANCH  39  40
ENDBRANCH  38  39
ENDBRANCH  37  38
ENDBRANCH   1  37
TORSDOF 20
ENDMDL
MODEL 2
REMARK VINA RESULT:     -10.0      3.621      6.224
REMARK SMILES Cc1c(CC(=O)N[C@@H](CCO)C(=O)OCCOC(=O)c2ccc(-c3c4nc(c(-c5c(F)cccc5F)c5ccc([nH]5)c(-c5c(F)cccc5F)c5nc(c(-c6c(F)cccc6F)c6ccc3[nH]6)C=C5)C=C4)cc2)cc(-c2ccc(S(C)(=O)=O)cc2)n1-c1ccc(F)cc1
REMARK SMILES IDX 14 1 12 2 13 3 8 4 7 5 5 6 6 7 4 9 3 10 1 11 2 12 86 13
REMARK SMILES IDX 74 14 75 15 87 16 88 17 93 18 89 19 92 20 90 21 91 22 76 23
REMARK SMILES IDX 77 24 85 25 78 26 84 27 79 28 80 29 81 30 82 31 83 32 9 33
REMARK SMILES IDX 10 34 11 35 15 37 16 38 17 39 18 40 19 41 20 42 21 43 73 44
REMARK SMILES IDX 22 45 72 46 23 47 24 48 25 49 66 50 26 51 71 52 65 53 67 54
REMARK SMILES IDX 27 55 70 56 64 57 63 58 28 60 54 61 37 62 53 63 38 64 41 65
REMARK SMILES IDX 52 66 68 67 39 68 40 69 51 71 69 72 42 73 29 74 30 75 35 76
REMARK SMILES IDX 31 77 32 78 34 79 36 80 33 81 55 82 56 83 61 84 57 85 58 86
REMARK SMILES IDX 60 87 62 88 59 89 43 90 44 91 49 92 45 93 46 94 48 95 50 96
REMARK SMILES IDX 47 97
REMARK H PARENT 7 8 11 36 67 59 41 70
REMARK Flexibility Score: inf
ROOT
ATOM      1  O   UNL A   1      32.917  30.354  27.268  1.00  0.00    -0.461 OA
ENDROOT
BRANCH   1   2
ATOM      2  C   UNL A   1      33.238  29.260  26.515  1.00  0.00     0.328 C 
ATOM      3  O   UNL A   1      34.334  28.710  26.528  1.00  0.00    -0.250 OA
BRANCH   2   4
ATOM      4  C   UNL A   1      32.027  28.710  25.727  1.00  0.00     0.194 C 
BRANCH   4   5
ATOM      5  N   UNL A   1      31.201  27.704  26.406  1.00  0.00    -0.342 N 
ATOM      6  C   UNL A   1      30.691  26.537  25.911  1.00  0.00     0.225 C 
ATOM      7  O   UNL A   1      29.983  25.859  26.659  1.00  0.00    -0.275 OA
ATOM      8  H   UNL A   1      30.985  27.897  27.347  1.00  0.00     0.164 HD
BRANCH   6   9
ATOM      9  C   UNL A   1      31.028  26.074  24.498  1.00  0.00     0.137 C 
BRANCH   9  10
ATOM     10  C   UNL A   1      31.997  24.925  24.450  1.00  0.00    -0.017 A 
ATOM     11  C   UNL A   1      34.263  26.156  24.684  1.00  0.00     0.065 C 
ATOM     12  C   UNL A   1      33.376  24.954  24.597  1.00  0.00     0.024 A 
ATOM     13  N   UNL A   1      33.850  23.642  24.580  1.00  0.00    -0.314 N 
ATOM     14  C   UNL A   1      31.639  23.566  24.240  1.00  0.00     0.033 A 
ATOM     15  C   UNL A   1      32.764  22.779  24.403  1.00  0.00     0.053 A 
BRANCH  13  16
ATOM     16  C   UNL A   1      35.204  23.232  24.735  1.00  0.00     0.046 A 
ATOM     17  C   UNL A   1      35.863  22.605  23.667  1.00  0.00     0.029 A 
ATOM     18  C   UNL A   1      35.844  23.378  25.973  1.00  0.00     0.029 A 
ATOM     19  C   UNL A   1      37.154  22.110  23.843  1.00  0.00     0.041 A 
ATOM     20  C   UNL A   1      37.133  22.872  26.143  1.00  0.00     0.041 A 
ATOM     21  C   UNL A   1      37.774  22.241  25.080  1.00  0.00     0.123 A 
ATOM     22  F   UNL A   1      39.003  21.741  25.255  1.00  0.00    -0.207 F 
ENDBRANCH  13  16
BRANCH  15  23
ATOM     23  C   UNL A   1      32.811  21.311  24.487  1.00  0.00    -0.001 A 
ATOM     24  C   UNL A   1      33.096  20.661  25.700  1.00  0.00     0.011 A 
ATOM     25  C   UNL A   1      32.551  20.537  23.348  1.00  0.00     0.011 A 
ATOM     26  C   UNL A   1      33.176  19.267  25.763  1.00  0.00     0.021 A 
ATOM     27  C   UNL A   1      32.626  19.142  23.404  1.00  0.00     0.021 A 
ATOM     28  C   UNL A   1      32.957  18.516  24.606  1.00  0.00     0.067 A 
BRANCH  28  29
ATOM     29  S   UNL A   1      33.054  16.743  24.698  1.00  0.00     0.175 S 
ATOM     30  C   UNL A   1      34.693  16.424  25.295  1.00  0.00     0.163 C 
ATOM     31  O   UNL A   1      32.110  16.311  25.691  1.00  0.00    -0.224 OA
ATOM     32  O   UNL A   1      32.992  16.233  23.327  1.00  0.00    -0.224 OA
ENDBRANCH  28  29
ENDBRANCH  15  23
ENDBRANCH   9  10
ENDBRANCH   6   9
ENDBRANCH   4   5
BRANCH   4  33
ATOM     33  C   UNL A   1      31.144  29.792  25.079  1.00  0.00     0.065 C 
BRANCH  33  34
ATOM     34  C   UNL A   1      30.699  29.507  23.649  1.00  0.00     0.159 C 
BRANCH  34  35
ATOM     35  O   UNL A   1      31.814  29.254  22.815  1.00  0.00    -0.396 OA
ATOM     36  H   UNL A   1      31.638  29.601  21.926  1.00  0.00     0.210 HD
ENDBRANCH  34  35
ENDBRANCH  33  34
ENDBRANCH   4  33
ENDBRANCH   2   4
ENDBRANCH   1   2
BRANCH   1  37
ATOM     37  C   UNL A   1      34.002  31.256  27.621  1.00  0.00     0.274 C 
BRANCH  37  38
ATOM     38  C   UNL A   1      34.405  31.104  29.117  1.00  0.00     0.275 C 
BRANCH  38  39
ATOM     39  O   UNL A   1      34.453  32.311  29.973  1.00  0.00    -0.458 OA
BRANCH  39  40
ATOM     40  C   UNL A   1      35.531  33.157  29.846  1.00  0.00     0.338 C 
ATOM     41  O   UNL A   1      35.411  34.365  29.691  1.00  0.00    -0.246 OA
BRANCH  40  42
ATOM     42  C   UNL A   1      36.924  32.491  29.923  1.00  0.00     0.060 A 
ATOM     43  C   UNL A   1      37.488  31.930  28.786  1.00  0.00     0.016 A 
ATOM     44  C   UNL A   1      37.605  32.157  31.119  1.00  0.00     0.016 A 
ATOM     45  C   UNL A   1      38.708  31.147  28.850  1.00  0.00     0.010 A 
ATOM     46  C   UNL A   1      38.818  31.294  31.183  1.00  0.00     0.010 A 
ATOM     47  C   UNL A   1      39.437  30.748  30.042  1.00  0.00    -0.014 A 
BRANCH  47  48
ATOM     48  C   UNL A   1      40.501  29.454  29.897  1.00  0.00     0.031 A 
ATOM     49  C   UNL A   1      40.884  29.251  31.324  1.00  0.00     0.074 A 
ATOM     50  C   UNL A   1      41.253  28.628  29.024  1.00  0.00     0.049 A 
ATOM     51  N   UNL A   1      41.392  30.257  31.982  1.00  0.00    -0.248 NA
ATOM     52  C   UNL A   1      40.378  28.166  32.164  1.00  0.00     0.031 C 
ATOM     53  C   UNL A   1      41.400  28.735  27.558  1.00  0.00     0.029 A 
ATOM     54  N   UNL A   1      42.107  27.462  29.230  1.00  0.00    -0.354 N 
ATOM     55  C   UNL A   1      41.579  29.818  33.265  1.00  0.00     0.074 A 
ATOM     56  C   UNL A   1      40.721  28.644  33.368  1.00  0.00     0.031 C 
ATOM     57  C   UNL A   1      42.091  27.682  27.014  1.00  0.00     0.029 A 
ATOM     58  C   UNL A   1      42.559  26.742  28.036  1.00  0.00     0.049 A 
ATOM     59  H   UNL A   1      42.368  27.172  30.134  1.00  0.00     0.167 HD
ATOM     60  C   UNL A   1      42.843  29.998  33.746  1.00  0.00     0.037 A 
ATOM     61  C   UNL A   1      43.313  25.561  27.859  1.00  0.00     0.037 A 
ATOM     62  C   UNL A   1      43.606  28.782  33.700  1.00  0.00     0.049 A 
ATOM     63  C   UNL A   1      44.153  25.452  29.052  1.00  0.00     0.074 A 
ATOM     64  C   UNL A   1      43.294  27.474  34.016  1.00  0.00     0.029 A 
ATOM     65  N   UNL A   1      44.680  28.737  32.837  1.00  0.00    -0.354 N 
ATOM     66  N   UNL A   1      45.239  26.149  29.167  1.00  0.00    -0.248 NA
ATOM     67  C   UNL A   1      43.922  24.464  30.098  1.00  0.00     0.031 C 
ATOM     68  C   UNL A   1      43.806  26.723  32.940  1.00  0.00     0.029 A 
ATOM     69  C   UNL A   1      44.758  27.483  32.275  1.00  0.00     0.049 A 
ATOM     70  H   UNL A   1      45.293  29.485  32.652  1.00  0.00     0.167 HD
ATOM     71  C   UNL A   1      45.492  26.093  30.495  1.00  0.00     0.074 A 
ATOM     72  C   UNL A   1      44.867  24.864  30.953  1.00  0.00     0.031 C 
ATOM     73  C   UNL A   1      45.571  27.299  31.103  1.00  0.00     0.037 A 
BRANCH  60  74
ATOM     74  C   UNL A   1      43.381  31.372  33.449  1.00  0.00     0.057 A 
ATOM     75  C   UNL A   1      43.256  32.368  34.418  1.00  0.00     0.134 A 
ATOM     76  C   UNL A   1      43.803  31.776  32.167  1.00  0.00     0.134 A 
ATOM     77  F   UNL A   1      42.903  32.051  35.674  1.00  0.00    -0.206 F 
ATOM     78  C   UNL A   1      43.462  33.716  34.108  1.00  0.00     0.040 A 
ATOM     79  C   UNL A   1      43.952  33.120  31.830  1.00  0.00     0.040 A 
ATOM     80  F   UNL A   1      44.036  30.871  31.202  1.00  0.00    -0.206 F 
ATOM     81  C   UNL A   1      43.767  34.098  32.801  1.00  0.00     0.006 A 
ENDBRANCH  60  74
BRANCH  61  82
ATOM     82  C   UNL A   1      43.817  24.428  26.862  1.00  0.00     0.057 A 
ATOM     83  C   UNL A   1      43.051  23.221  26.627  1.00  0.00     0.134 A 
ATOM     84  C   UNL A   1      44.749  24.654  25.844  1.00  0.00     0.134 A 
ATOM     85  F   UNL A   1      42.149  22.768  27.508  1.00  0.00    -0.206 F 
ATOM     86  C   UNL A   1      43.107  22.428  25.458  1.00  0.00     0.040 A 
ATOM     87  C   UNL A   1      44.842  23.833  24.675  1.00  0.00     0.040 A 
ATOM     88  F   UNL A   1      45.558  25.718  25.898  1.00  0.00    -0.206 F 
ATOM     89  C   UNL A   1      43.994  22.748  24.454  1.00  0.00     0.006 A 
ENDBRANCH  61  82
BRANCH  73  90
ATOM     90  C   UNL A   1      46.381  28.373  30.397  1.00  0.00     0.057 A 
ATOM     91  C   UNL A   1      45.975  29.191  29.317  1.00  0.00     0.134 A 
ATOM     92  C   UNL A   1      47.716  28.522  30.792  1.00  0.00     0.134 A 
ATOM     93  F   UNL A   1      44.703  29.257  28.896  1.00  0.00    -0.206 F 
ATOM     94  C   UNL A   1      46.871  30.018  28.626  1.00  0.00     0.040 A 
ATOM     95  C   UNL A   1      48.604  29.388  30.148  1.00  0.00     0.040 A 
ATOM     96  F   UNL A   1      48.190  27.820  31.834  1.00  0.00    -0.206 F 
ATOM     97  C   UNL A   1      48.192  30.118  29.041  1.00  0.00     0.006 A 
ENDBRANCH  73  90
ENDBRANCH  47  48
ENDBRANCH  40  42
ENDBRANCH  39  40
ENDBRANCH  38  39
ENDBRANCH  37  38
ENDBRANCH   1  37
TORSDOF 20
ENDMDL
MODEL 3
REMARK VINA RESULT:      -9.9      5.393      9.013
REMARK SMILES Cc1c(CC(=O)N[C@@H](CCO)C(=O)OCCOC(=O)c2ccc(-c3c4nc(c(-c5c(F)cccc5F)c5ccc([nH]5)c(-c5c(F)cccc5F)c5nc(c(-c6c(F)cccc6F)c6ccc3[nH]6)C=C5)C=C4)cc2)cc(-c2ccc(S(C)(=O)=O)cc2)n1-c1ccc(F)cc1
REMARK SMILES IDX 14 1 12 2 13 3 8 4 7 5 5 6 6 7 4 9 3 10 1 11 2 12 86 13
REMARK SMILES IDX 74 14 75 15 87 16 88 17 93 18 89 19 92 20 90 21 91 22 76 23
REMARK SMILES IDX 77 24 85 25 78 26 84 27 79 28 80 29 81 30 82 31 83 32 9 33
REMARK SMILES IDX 10 34 11 35 15 37 16 38 17 39 18 40 19 41 20 42 21 43 73 44
REMARK SMILES IDX 22 45 72 46 23 47 24 48 25 49 66 50 26 51 71 52 65 53 67 54
REMARK SMILES IDX 27 55 70 56 64 57 63 58 28 60 54 61 37 62 53 63 38 64 41 65
REMARK SMILES IDX 52 66 68 67 39 68 40 69 51 71 69 72 42 73 29 74 30 75 35 76
REMARK SMILES IDX 31 77 32 78 34 79 36 80 33 81 55 82 56 83 61 84 57 85 58 86
REMARK SMILES IDX 60 87 62 88 59 89 43 90 44 91 49 92 45 93 46 94 48 95 50 96
REMARK SMILES IDX 47 97
REMARK H PARENT 7 8 11 36 67 59 41 70
REMARK Flexibility Score: inf
ROOT
ATOM      1  O   UNL A   1      38.063  33.153  30.894  1.00  0.00    -0.461 OA
ENDROOT
BRANCH   1   2
ATOM      2  C   UNL A   1      36.740  33.069  31.226  1.00  0.00     0.328 C 
ATOM      3  O   UNL A   1      36.124  33.937  31.834  1.00  0.00    -0.250 OA
BRANCH   2   4
ATOM      4  C   UNL A   1      36.066  31.806  30.644  1.00  0.00     0.194 C 
BRANCH   4   5
ATOM      5  N   UNL A   1      36.625  31.276  29.395  1.00  0.00    -0.342 N 
ATOM      6  C   UNL A   1      35.975  30.924  28.245  1.00  0.00     0.225 C 
ATOM      7  O   UNL A   1      36.652  30.459  27.325  1.00  0.00    -0.275 OA
ATOM      8  H   UNL A   1      37.602  31.159  29.383  1.00  0.00     0.164 HD
BRANCH   6   9
ATOM      9  C   UNL A   1      34.474  31.144  28.097  1.00  0.00     0.137 C 
BRANCH   9  10
ATOM     10  C   UNL A   1      33.792  30.119  27.233  1.00  0.00    -0.017 A 
ATOM     11  C   UNL A   1      31.610  31.359  26.593  1.00  0.00     0.065 C 
ATOM     12  C   UNL A   1      32.598  30.237  26.536  1.00  0.00     0.024 A 
ATOM     13  N   UNL A   1      32.406  29.073  25.791  1.00  0.00    -0.314 N 
ATOM     14  C   UNL A   1      34.283  28.811  26.980  1.00  0.00     0.033 A 
ATOM     15  C   UNL A   1      33.476  28.207  26.035  1.00  0.00     0.053 A 
BRANCH  13  16
ATOM     16  C   UNL A   1      31.319  28.804  24.912  1.00  0.00     0.046 A 
ATOM     17  C   UNL A   1      30.820  29.832  24.097  1.00  0.00     0.029 A 
ATOM     18  C   UNL A   1      30.701  27.547  24.924  1.00  0.00     0.029 A 
ATOM     19  C   UNL A   1      29.694  29.605  23.308  1.00  0.00     0.041 A 
ATOM     20  C   UNL A   1      29.569  27.332  24.137  1.00  0.00     0.041 A 
ATOM     21  C   UNL A   1      29.074  28.361  23.341  1.00  0.00     0.123 A 
ATOM     22  F   UNL A   1      27.977  28.154  22.603  1.00  0.00    -0.207 F 
ENDBRANCH  13  16
BRANCH  15  23
ATOM     23  C   UNL A   1      33.737  26.943  25.326  1.00  0.00    -0.001 A 
ATOM     24  C   UNL A   1      33.911  26.914  23.933  1.00  0.00     0.011 A 
ATOM     25  C   UNL A   1      33.833  25.745  26.047  1.00  0.00     0.011 A 
ATOM     26  C   UNL A   1      34.121  25.704  23.263  1.00  0.00     0.021 A 
ATOM     27  C   UNL A   1      34.046  24.533  25.385  1.00  0.00     0.021 A 
ATOM     28  C   UNL A   1      34.169  24.516  23.996  1.00  0.00     0.067 A 
BRANCH  28  29
ATOM     29  S   UNL A   1      34.443  22.984  23.136  1.00  0.00     0.175 S 
ATOM     30  C   UNL A   1      33.177  22.945  21.896  1.00  0.00     0.163 C 
ATOM     31  O   UNL A   1      35.721  23.078  22.487  1.00  0.00    -0.224 OA
ATOM     32  O   UNL A   1      34.154  21.901  24.077  1.00  0.00    -0.224 OA
ENDBRANCH  28  29
ENDBRANCH  15  23
ENDBRANCH   9  10
ENDBRANCH   6   9
ENDBRANCH   4   5
BRANCH   4  33
ATOM     33  C   UNL A   1      35.844  30.674  31.665  1.00  0.00     0.065 C 
BRANCH  33  34
ATOM     34  C   UNL A   1      36.820  29.506  31.574  1.00  0.00     0.159 C 
BRANCH  34  35
ATOM     35  O   UNL A   1      36.937  28.848  32.822  1.00  0.00    -0.396 OA
ATOM     36  H   UNL A   1      37.456  28.036  32.711  1.00  0.00     0.210 HD
ENDBRANCH  34  35
ENDBRANCH  33  34
ENDBRANCH   4  33
ENDBRANCH   2   4
ENDBRANCH   1   2
BRANCH   1  37
ATOM     37  C   UNL A   1      38.982  32.286  31.615  1.00  0.00     0.274 C 
BRANCH  37  38
ATOM     38  C   UNL A   1      38.804  32.423  33.156  1.00  0.00     0.275 C 
BRANCH  38  39
ATOM     39  O   UNL A   1      38.360  31.244  33.934  1.00  0.00    -0.458 OA
BRANCH  39  40
ATOM     40  C   UNL A   1      39.212  30.736  34.887  1.00  0.00     0.338 C 
ATOM     41  O   UNL A   1      38.979  30.801  36.088  1.00  0.00    -0.246 OA
BRANCH  40  42
ATOM     42  C   UNL A   1      40.494  30.057  34.354  1.00  0.00     0.060 A 
ATOM     43  C   UNL A   1      41.713  30.715  34.436  1.00  0.00     0.016 A 
ATOM     44  C   UNL A   1      40.527  28.902  33.535  1.00  0.00     0.016 A 
ATOM     45  C   UNL A   1      42.905  30.192  33.796  1.00  0.00     0.010 A 
ATOM     46  C   UNL A   1      41.741  28.410  32.824  1.00  0.00     0.010 A 
ATOM     47  C   UNL A   1      43.000  29.033  32.925  1.00  0.00    -0.014 A 
BRANCH  47  48
ATOM     48  C   UNL A   1      44.348  28.928  31.925  1.00  0.00     0.031 A 
ATOM     49  C   UNL A   1      43.851  29.647  30.717  1.00  0.00     0.074 A 
ATOM     50  C   UNL A   1      45.623  28.348  31.710  1.00  0.00     0.049 A 
ATOM     51  N   UNL A   1      42.758  29.221  30.143  1.00  0.00    -0.248 NA
ATOM     52  C   UNL A   1      44.239  31.010  30.354  1.00  0.00     0.031 C 
ATOM     53  C   UNL A   1      46.315  27.323  32.518  1.00  0.00     0.029 A 
ATOM     54  N   UNL A   1      46.646  28.521  30.684  1.00  0.00    -0.354 N 
ATOM     55  C   UNL A   1      42.499  30.094  29.122  1.00  0.00     0.074 A 
ATOM     56  C   UNL A   1      43.279  31.278  29.458  1.00  0.00     0.031 C 
ATOM     57  C   UNL A   1      47.600  27.092  32.100  1.00  0.00     0.029 A 
ATOM     58  C   UNL A   1      47.945  27.883  30.915  1.00  0.00     0.049 A 
ATOM     59  H   UNL A   1      46.471  29.046  29.868  1.00  0.00     0.167 HD
ATOM     60  C   UNL A   1      42.325  29.503  27.903  1.00  0.00     0.037 A 
ATOM     61  C   UNL A   1      49.160  27.896  30.196  1.00  0.00     0.037 A 
ATOM     62  C   UNL A   1      43.503  29.607  27.089  1.00  0.00     0.049 A 
ATOM     63  C   UNL A   1      48.786  28.143  28.803  1.00  0.00     0.074 A 
ATOM     64  C   UNL A   1      44.383  30.646  26.852  1.00  0.00     0.029 A 
ATOM     65  N   UNL A   1      44.175  28.442  26.792  1.00  0.00    -0.354 N 
ATOM     66  N   UNL A   1      48.335  27.184  28.056  1.00  0.00    -0.248 NA
ATOM     67  C   UNL A   1      49.036  29.408  28.125  1.00  0.00     0.031 C 
ATOM     68  C   UNL A   1      45.657  30.056  26.960  1.00  0.00     0.029 A 
ATOM     69  C   UNL A   1      45.530  28.683  26.806  1.00  0.00     0.049 A 
ATOM     70  H   UNL A   1      43.752  27.573  26.600  1.00  0.00     0.167 HD
ATOM     71  C   UNL A   1      47.743  27.852  27.038  1.00  0.00     0.074 A 
ATOM     72  C   UNL A   1      48.427  29.131  26.969  1.00  0.00     0.031 C 
ATOM     73  C   UNL A   1      46.432  27.564  26.865  1.00  0.00     0.037 A 
BRANCH  60  74
ATOM     74  C   UNL A   1      41.420  28.302  27.972  1.00  0.00     0.057 A 
ATOM     75  C   UNL A   1      40.067  28.460  27.671  1.00  0.00     0.134 A 
ATOM     76  C   UNL A   1      41.811  27.072  28.538  1.00  0.00     0.134 A 
ATOM     77  F   UNL A   1      39.629  29.587  27.089  1.00  0.00    -0.206 F 
ATOM     78  C   UNL A   1      39.129  27.474  27.993  1.00  0.00     0.040 A 
ATOM     79  C   UNL A   1      40.879  26.107  28.918  1.00  0.00     0.040 A 
ATOM     80  F   UNL A   1      43.105  26.803  28.773  1.00  0.00    -0.206 F 
ATOM     81  C   UNL A   1      39.529  26.313  28.657  1.00  0.00     0.006 A 
ENDBRANCH  60  74
BRANCH  61  82
ATOM     82  C   UNL A   1      50.713  27.551  30.179  1.00  0.00     0.057 A 
ATOM     83  C   UNL A   1      51.721  28.546  30.479  1.00  0.00     0.134 A 
ATOM     84  C   UNL A   1      51.216  26.252  30.307  1.00  0.00     0.134 A 
ATOM     85  F   UNL A   1      51.484  29.859  30.353  1.00  0.00    -0.206 F 
ATOM     86  C   UNL A   1      53.014  28.278  30.985  1.00  0.00     0.040 A 
ATOM     87  C   UNL A   1      52.538  25.970  30.779  1.00  0.00     0.040 A 
ATOM     88  F   UNL A   1      50.430  25.199  30.056  1.00  0.00    -0.206 F 
ATOM     89  C   UNL A   1      53.425  26.976  31.163  1.00  0.00     0.006 A 
ENDBRANCH  61  82
BRANCH  73  90
ATOM     90  C   UNL A   1      46.038  26.097  26.913  1.00  0.00     0.057 A 
ATOM     91  C   UNL A   1      45.814  25.300  28.060  1.00  0.00     0.134 A 
ATOM     92  C   UNL A   1      45.971  25.420  25.689  1.00  0.00     0.134 A 
ATOM     93  F   UNL A   1      45.725  25.815  29.295  1.00  0.00    -0.206 F 
ATOM     94  C   UNL A   1      45.637  23.911  27.983  1.00  0.00     0.040 A 
ATOM     95  C   UNL A   1      45.736  24.045  25.597  1.00  0.00     0.040 A 
ATOM     96  F   UNL A   1      46.129  26.094  24.539  1.00  0.00    -0.206 F 
ATOM     97  C   UNL A   1      45.598  23.279  26.748  1.00  0.00     0.006 A 
ENDBRANCH  73  90
ENDBRANCH  47  48
ENDBRANCH  40  42
ENDBRANCH  39  40
ENDBRANCH  38  39
ENDBRANCH  37  38
ENDBRANCH   1  37
TORSDOF 20
ENDMDL
