MODEL 1
REMARK VINA RESULT:     -13.2      0.000      0.000
REMARK SMILES O=C(OCCOC(=O)c1ccc(-c2c3nc(c(-c4c(F)cccc4F)c4ccc([nH]4)c(-c4c(F)cccc4F)c4nc(c(-c5c(F)cccc5F)c5ccc2[nH]5)C=C4)C=C3)cc1)C1=Cc2cc(Cl)cc(C#Cc3ccccc3)c2O[C@@H]1C(F)(F)F
REMARK SMILES IDX 4 1 3 2 2 3 1 4 63 5 64 6 81 7 65 8 80 9 66 10 79 11 67 12
REMARK SMILES IDX 70 13 68 14 69 15 82 16 83 17 84 18 85 19 71 20 72 21 73 22
REMARK SMILES IDX 74 23 78 24 75 25 77 26 76 27 5 28 6 29 7 30 8 31 9 32 10 33
REMARK SMILES IDX 62 34 11 35 61 36 12 37 13 38 14 39 55 40 15 41 60 42 54 43
REMARK SMILES IDX 56 44 16 45 59 46 53 47 52 48 17 50 43 51 26 52 42 53 27 54
REMARK SMILES IDX 30 55 41 56 57 57 28 58 29 59 40 61 58 62 31 63 18 64 19 65
REMARK SMILES IDX 24 66 20 67 21 68 23 69 25 70 22 71 44 72 45 73 50 74 46 75
REMARK SMILES IDX 47 76 49 77 51 78 48 79 32 80 33 81 38 82 34 83 35 84 37 85
REMARK SMILES IDX 39 86 36 87
REMARK H PARENT 56 49 30 60
REMARK Flexibility Score: inf
ROOT
ATOM      1  C   UNL A   1      46.308  22.122  25.133  1.00  0.00     0.275 C 
ENDROOT
BRANCH   1   2
ATOM      2  O   UNL A   1      45.165  21.444  25.951  1.00  0.00    -0.459 OA
BRANCH   2   3
ATOM      3  C   UNL A   1      43.973  21.484  25.345  1.00  0.00     0.338 C 
ATOM      4  O   UNL A   1      43.655  21.897  24.261  1.00  0.00    -0.246 OA
BRANCH   3   5
ATOM      5  C   UNL A   1      43.220  21.221  26.544  1.00  0.00     0.087 C 
ATOM      6  C   UNL A   1      42.699  22.467  27.133  1.00  0.00     0.027 C 
ATOM      7  C   UNL A   1      42.140  19.792  25.816  1.00  0.00     0.316 C 
ATOM      8  C   UNL A   1      40.947  22.913  27.105  1.00  0.00     0.020 A 
ATOM      9  O   UNL A   1      40.272  20.272  25.743  1.00  0.00    -0.474 OA
ATOM     10  C   UNL A   1      40.630  24.195  27.471  1.00  0.00     0.032 A 
ATOM     11  C   UNL A   1      39.737  21.908  26.352  1.00  0.00     0.143 A 
ATOM     12  C   UNL A   1      39.320  24.583  27.175  1.00  0.00     0.043 A 
ATOM     13  C   UNL A   1      38.479  22.394  26.102  1.00  0.00     0.069 A 
ATOM     14  Cl  UNL A   1      38.892  26.223  27.540  1.00  0.00    -0.084 Cl
ATOM     15  C   UNL A   1      38.320  23.746  26.537  1.00  0.00     0.041 A 
BRANCH   7  16
ATOM     16  C   UNL A   1      42.933  18.590  26.450  1.00  0.00     0.430 C 
ATOM     17  F   UNL A   1      42.795  18.542  27.782  1.00  0.00    -0.167 F 
ATOM     18  F   UNL A   1      42.360  17.424  26.017  1.00  0.00    -0.167 F 
ATOM     19  F   UNL A   1      44.217  18.434  26.085  1.00  0.00    -0.167 F 
ENDBRANCH   7  16
BRANCH  13  20
ATOM     20  C   UNL A   1      37.398  21.801  25.414  1.00  0.00    -0.058 C 
ATOM     21  C   UNL A   1      36.328  21.343  25.071  1.00  0.00    -0.062 C 
BRANCH  21  22
ATOM     22  C   UNL A   1      35.024  20.832  24.808  1.00  0.00     0.025 A 
ATOM     23  C   UNL A   1      33.985  21.703  24.464  1.00  0.00     0.017 A 
ATOM     24  C   UNL A   1      34.781  19.459  24.878  1.00  0.00     0.017 A 
ATOM     25  C   UNL A   1      32.698  21.208  24.240  1.00  0.00     0.001 A 
ATOM     26  C   UNL A   1      33.493  18.964  24.653  1.00  0.00     0.001 A 
ATOM     27  C   UNL A   1      32.452  19.839  24.347  1.00  0.00     0.000 A 
ENDBRANCH  21  22
ENDBRANCH  13  20
ENDBRANCH   3   5
ENDBRANCH   2   3
ENDBRANCH   1   2
BRANCH   1  28
ATOM     28  C   UNL A   1      46.665  24.263  24.974  1.00  0.00     0.275 C 
BRANCH  28  29
ATOM     29  O   UNL A   1      45.479  25.486  25.066  1.00  0.00    -0.458 OA
BRANCH  29  30
ATOM     30  C   UNL A   1      44.155  25.730  25.319  1.00  0.00     0.338 C 
ATOM     31  O   UNL A   1      43.160  25.265  24.799  1.00  0.00    -0.246 OA
BRANCH  30  32
ATOM     32  C   UNL A   1      44.139  26.408  26.655  1.00  0.00     0.060 A 
ATOM     33  C   UNL A   1      44.154  27.813  26.696  1.00  0.00     0.016 A 
ATOM     34  C   UNL A   1      43.727  25.688  27.778  1.00  0.00     0.016 A 
ATOM     35  C   UNL A   1      43.548  28.487  27.773  1.00  0.00     0.010 A 
ATOM     36  C   UNL A   1      43.139  26.362  28.852  1.00  0.00     0.010 A 
ATOM     37  C   UNL A   1      42.987  27.761  28.832  1.00  0.00    -0.014 A 
BRANCH  37  38
ATOM     38  C   UNL A   1      42.502  28.450  30.058  1.00  0.00     0.031 A 
ATOM     39  C   UNL A   1      41.206  29.191  29.904  1.00  0.00     0.074 A 
ATOM     40  C   UNL A   1      43.175  28.494  31.227  1.00  0.00     0.049 A 
ATOM     41  N   UNL A   1      40.549  29.924  30.760  1.00  0.00    -0.248 NA
ATOM     42  C   UNL A   1      40.586  29.109  28.569  1.00  0.00     0.031 C 
ATOM     43  C   UNL A   1      44.450  27.838  31.516  1.00  0.00     0.029 A 
ATOM     44  N   UNL A   1      42.870  29.147  32.402  1.00  0.00    -0.354 N 
ATOM     45  C   UNL A   1      39.439  30.382  30.068  1.00  0.00     0.074 A 
ATOM     46  C   UNL A   1      39.552  29.914  28.706  1.00  0.00     0.031 C 
ATOM     47  C   UNL A   1      44.816  28.123  32.785  1.00  0.00     0.029 A 
ATOM     48  C   UNL A   1      43.810  28.990  33.398  1.00  0.00     0.049 A 
ATOM     49  H   UNL A   1      42.050  29.680  32.521  1.00  0.00     0.167 HD
ATOM     50  C   UNL A   1      38.392  31.104  30.522  1.00  0.00     0.037 A 
ATOM     51  C   UNL A   1      43.837  29.488  34.654  1.00  0.00     0.037 A 
ATOM     52  C   UNL A   1      38.291  31.603  31.861  1.00  0.00     0.049 A 
ATOM     53  C   UNL A   1      42.690  30.358  35.126  1.00  0.00     0.074 A 
ATOM     54  C   UNL A   1      37.279  32.349  32.431  1.00  0.00     0.029 A 
ATOM     55  N   UNL A   1      39.259  31.415  32.836  1.00  0.00    -0.354 N 
ATOM     56  N   UNL A   1      41.598  30.713  34.489  1.00  0.00    -0.248 NA
ATOM     57  C   UNL A   1      42.774  30.888  36.497  1.00  0.00     0.031 C 
ATOM     58  C   UNL A   1      37.656  32.652  33.743  1.00  0.00     0.029 A 
ATOM     59  C   UNL A   1      38.876  32.047  34.004  1.00  0.00     0.049 A 
ATOM     60  H   UNL A   1      40.093  30.907  32.715  1.00  0.00     0.167 HD
ATOM     61  C   UNL A   1      40.848  31.457  35.394  1.00  0.00     0.074 A 
ATOM     62  C   UNL A   1      41.607  31.504  36.626  1.00  0.00     0.031 C 
ATOM     63  C   UNL A   1      39.637  32.047  35.228  1.00  0.00     0.037 A 
BRANCH  50  64
ATOM     64  C   UNL A   1      37.313  31.393  29.525  1.00  0.00     0.057 A 
ATOM     65  C   UNL A   1      37.268  32.613  28.831  1.00  0.00     0.134 A 
ATOM     66  C   UNL A   1      36.254  30.499  29.336  1.00  0.00     0.134 A 
ATOM     67  F   UNL A   1      38.233  33.529  29.002  1.00  0.00    -0.206 F 
ATOM     68  C   UNL A   1      36.178  32.954  28.029  1.00  0.00     0.040 A 
ATOM     69  C   UNL A   1      35.177  30.817  28.509  1.00  0.00     0.040 A 
ATOM     70  F   UNL A   1      36.233  29.322  29.979  1.00  0.00    -0.206 F 
ATOM     71  C   UNL A   1      35.129  32.053  27.867  1.00  0.00     0.006 A 
ENDBRANCH  50  64
BRANCH  51  72
ATOM     72  C   UNL A   1      44.951  29.173  35.598  1.00  0.00     0.057 A 
ATOM     73  C   UNL A   1      46.121  29.948  35.618  1.00  0.00     0.134 A 
ATOM     74  C   UNL A   1      44.924  28.046  36.427  1.00  0.00     0.134 A 
ATOM     75  F   UNL A   1      46.231  31.020  34.821  1.00  0.00    -0.206 F 
ATOM     76  C   UNL A   1      47.226  29.600  36.400  1.00  0.00     0.040 A 
ATOM     77  C   UNL A   1      46.015  27.698  37.234  1.00  0.00     0.040 A 
ATOM     78  F   UNL A   1      43.846  27.248  36.452  1.00  0.00    -0.206 F 
ATOM     79  C   UNL A   1      47.174  28.471  37.213  1.00  0.00     0.006 A 
ENDBRANCH  51  72
BRANCH  63  80
ATOM     80  C   UNL A   1      39.022  32.733  36.413  1.00  0.00     0.057 A 
ATOM     81  C   UNL A   1      38.146  32.075  37.285  1.00  0.00     0.134 A 
ATOM     82  C   UNL A   1      39.379  34.051  36.727  1.00  0.00     0.134 A 
ATOM     83  F   UNL A   1      37.759  30.815  37.039  1.00  0.00    -0.206 F 
ATOM     84  C   UNL A   1      37.635  32.711  38.418  1.00  0.00     0.040 A 
ATOM     85  C   UNL A   1      38.899  34.686  37.872  1.00  0.00     0.040 A 
ATOM     86  F   UNL A   1      40.225  34.733  35.941  1.00  0.00    -0.206 F 
ATOM     87  C   UNL A   1      38.020  34.016  38.720  1.00  0.00     0.006 A 
ENDBRANCH  63  80
ENDBRANCH  37  38
ENDBRANCH  30  32
ENDBRANCH  29  30
ENDBRANCH  28  29
ENDBRANCH   1  28
TORSDOF 14
ENDMDL
MODEL 2
REMARK VINA RESULT:     -12.5      0.682      6.092
REMARK SMILES O=C(OCCOC(=O)c1ccc(-c2c3nc(c(-c4c(F)cccc4F)c4ccc([nH]4)c(-c4c(F)cccc4F)c4nc(c(-c5c(F)cccc5F)c5ccc2[nH]5)C=C4)C=C3)cc1)C1=Cc2cc(Cl)cc(C#Cc3ccccc3)c2O[C@@H]1C(F)(F)F
REMARK SMILES IDX 4 1 3 2 2 3 1 4 63 5 64 6 81 7 65 8 80 9 66 10 79 11 67 12
REMARK SMILES IDX 70 13 68 14 69 15 82 16 83 17 84 18 85 19 71 20 72 21 73 22
REMARK SMILES IDX 74 23 78 24 75 25 77 26 76 27 5 28 6 29 7 30 8 31 9 32 10 33
REMARK SMILES IDX 62 34 11 35 61 36 12 37 13 38 14 39 55 40 15 41 60 42 54 43
REMARK SMILES IDX 56 44 16 45 59 46 53 47 52 48 17 50 43 51 26 52 42 53 27 54
REMARK SMILES IDX 30 55 41 56 57 57 28 58 29 59 40 61 58 62 31 63 18 64 19 65
REMARK SMILES IDX 24 66 20 67 21 68 23 69 25 70 22 71 44 72 45 73 50 74 46 75
REMARK SMILES IDX 47 76 49 77 51 78 48 79 32 80 33 81 38 82 34 83 35 84 37 85
REMARK SMILES IDX 39 86 36 87
REMARK H PARENT 56 49 30 60
REMARK Flexibility Score: inf
ROOT
ATOM      1  C   UNL A   1      46.344  21.696  25.078  1.00  0.00     0.275 C 
ENDROOT
BRANCH   1   2
ATOM      2  O   UNL A   1      45.145  20.908  25.690  1.00  0.00    -0.459 OA
BRANCH   2   3
ATOM      3  C   UNL A   1      43.957  21.251  25.178  1.00  0.00     0.338 C 
ATOM      4  O   UNL A   1      43.677  21.836  24.165  1.00  0.00    -0.246 OA
BRANCH   3   5
ATOM      5  C   UNL A   1      43.227  21.013  26.396  1.00  0.00     0.087 C 
ATOM      6  C   UNL A   1      42.725  22.272  26.973  1.00  0.00     0.027 C 
ATOM      7  C   UNL A   1      42.126  19.578  25.715  1.00  0.00     0.316 C 
ATOM      8  C   UNL A   1      40.976  22.728  26.973  1.00  0.00     0.020 A 
ATOM      9  O   UNL A   1      40.259  20.067  25.672  1.00  0.00    -0.474 OA
ATOM     10  C   UNL A   1      40.674  24.017  27.323  1.00  0.00     0.032 A 
ATOM     11  C   UNL A   1      39.745  21.717  26.262  1.00  0.00     0.143 A 
ATOM     12  C   UNL A   1      39.360  24.408  27.047  1.00  0.00     0.043 A 
ATOM     13  C   UNL A   1      38.485  22.206  26.029  1.00  0.00     0.069 A 
ATOM     14  Cl  UNL A   1      38.948  26.057  27.392  1.00  0.00    -0.084 Cl
ATOM     15  C   UNL A   1      38.342  23.566  26.444  1.00  0.00     0.041 A 
BRANCH   7  16
ATOM     16  C   UNL A   1      42.925  18.383  26.354  1.00  0.00     0.430 C 
ATOM     17  F   UNL A   1      42.897  18.417  27.693  1.00  0.00    -0.167 F 
ATOM     18  F   UNL A   1      42.275  17.219  26.041  1.00  0.00    -0.167 F 
ATOM     19  F   UNL A   1      44.166  18.153  25.895  1.00  0.00    -0.167 F 
ENDBRANCH   7  16
BRANCH  13  20
ATOM     20  C   UNL A   1      37.387  21.607  25.374  1.00  0.00    -0.058 C 
ATOM     21  C   UNL A   1      36.367  21.020  25.081  1.00  0.00    -0.062 C 
BRANCH  21  22
ATOM     22  C   UNL A   1      35.156  20.296  24.882  1.00  0.00     0.025 A 
ATOM     23  C   UNL A   1      33.928  20.967  24.883  1.00  0.00     0.017 A 
ATOM     24  C   UNL A   1      35.189  18.916  24.671  1.00  0.00     0.017 A 
ATOM     25  C   UNL A   1      32.738  20.254  24.723  1.00  0.00     0.001 A 
ATOM     26  C   UNL A   1      33.998  18.203  24.510  1.00  0.00     0.001 A 
ATOM     27  C   UNL A   1      32.774  18.871  24.549  1.00  0.00     0.000 A 
ENDBRANCH  21  22
ENDBRANCH  13  20
ENDBRANCH   3   5
ENDBRANCH   2   3
ENDBRANCH   1   2
BRANCH   1  28
ATOM     28  C   UNL A   1      46.810  23.791  25.436  1.00  0.00     0.275 C 
BRANCH  28  29
ATOM     29  O   UNL A   1      45.723  25.098  25.293  1.00  0.00    -0.458 OA
BRANCH  29  30
ATOM     30  C   UNL A   1      44.396  25.443  25.298  1.00  0.00     0.338 C 
ATOM     31  O   UNL A   1      43.473  25.010  24.636  1.00  0.00    -0.246 OA
BRANCH  30  32
ATOM     32  C   UNL A   1      44.203  26.207  26.571  1.00  0.00     0.060 A 
ATOM     33  C   UNL A   1      44.263  27.611  26.529  1.00  0.00     0.016 A 
ATOM     34  C   UNL A   1      43.599  25.573  27.659  1.00  0.00     0.016 A 
ATOM     35  C   UNL A   1      43.526  28.371  27.457  1.00  0.00     0.010 A 
ATOM     36  C   UNL A   1      42.880  26.332  28.588  1.00  0.00     0.010 A 
ATOM     37  C   UNL A   1      42.784  27.730  28.460  1.00  0.00    -0.014 A 
BRANCH  37  38
ATOM     38  C   UNL A   1      42.145  28.511  29.552  1.00  0.00     0.031 A 
ATOM     39  C   UNL A   1      42.816  28.406  30.890  1.00  0.00     0.074 A 
ATOM     40  C   UNL A   1      41.004  29.219  29.418  1.00  0.00     0.049 A 
ATOM     41  N   UNL A   1      42.482  28.920  32.042  1.00  0.00    -0.248 NA
ATOM     42  C   UNL A   1      44.028  27.567  30.924  1.00  0.00     0.031 C 
ATOM     43  C   UNL A   1      40.233  29.395  28.187  1.00  0.00     0.029 A 
ATOM     44  N   UNL A   1      40.280  29.922  30.359  1.00  0.00    -0.354 N 
ATOM     45  C   UNL A   1      43.447  28.471  32.932  1.00  0.00     0.074 A 
ATOM     46  C   UNL A   1      44.326  27.583  32.208  1.00  0.00     0.031 C 
ATOM     47  C   UNL A   1      39.148  30.154  28.450  1.00  0.00     0.029 A 
ATOM     48  C   UNL A   1      39.136  30.512  29.868  1.00  0.00     0.049 A 
ATOM     49  H   UNL A   1      40.557  29.996  31.301  1.00  0.00     0.167 HD
ATOM     50  C   UNL A   1      43.615  28.788  34.233  1.00  0.00     0.037 A 
ATOM     51  C   UNL A   1      38.202  31.257  30.500  1.00  0.00     0.037 A 
ATOM     52  C   UNL A   1      42.725  29.638  34.967  1.00  0.00     0.049 A 
ATOM     53  C   UNL A   1      38.366  31.543  31.979  1.00  0.00     0.074 A 
ATOM     54  C   UNL A   1      42.794  30.024  36.290  1.00  0.00     0.029 A 
ATOM     55  N   UNL A   1      41.586  30.219  34.430  1.00  0.00    -0.354 N 
ATOM     56  N   UNL A   1      39.332  31.186  32.794  1.00  0.00    -0.248 NA
ATOM     57  C   UNL A   1      37.314  32.346  32.624  1.00  0.00     0.031 C 
ATOM     58  C   UNL A   1      41.670  30.806  36.568  1.00  0.00     0.029 A 
ATOM     59  C   UNL A   1      40.932  30.950  35.403  1.00  0.00     0.049 A 
ATOM     60  H   UNL A   1      41.289  30.125  33.496  1.00  0.00     0.167 HD
ATOM     61  C   UNL A   1      39.032  31.762  34.024  1.00  0.00     0.074 A 
ATOM     62  C   UNL A   1      37.794  32.493  33.852  1.00  0.00     0.031 C 
ATOM     63  C   UNL A   1      39.717  31.698  35.193  1.00  0.00     0.037 A 
BRANCH  50  64
ATOM     64  C   UNL A   1      44.800  28.172  34.910  1.00  0.00     0.057 A 
ATOM     65  C   UNL A   1      46.092  28.696  34.742  1.00  0.00     0.134 A 
ATOM     66  C   UNL A   1      44.669  26.988  35.643  1.00  0.00     0.134 A 
ATOM     67  F   UNL A   1      46.287  29.806  34.015  1.00  0.00    -0.206 F 
ATOM     68  C   UNL A   1      47.216  28.031  35.233  1.00  0.00     0.040 A 
ATOM     69  C   UNL A   1      45.785  26.334  36.167  1.00  0.00     0.040 A 
ATOM     70  F   UNL A   1      43.464  26.431  35.830  1.00  0.00    -0.206 F 
ATOM     71  C   UNL A   1      47.062  26.846  35.948  1.00  0.00     0.006 A 
ENDBRANCH  50  64
BRANCH  51  72
ATOM     72  C   UNL A   1      37.033  31.833  29.770  1.00  0.00     0.057 A 
ATOM     73  C   UNL A   1      35.913  31.045  29.465  1.00  0.00     0.134 A 
ATOM     74  C   UNL A   1      37.040  33.142  29.274  1.00  0.00     0.134 A 
ATOM     75  F   UNL A   1      35.855  29.770  29.876  1.00  0.00    -0.206 F 
ATOM     76  C   UNL A   1      34.863  31.524  28.675  1.00  0.00     0.040 A 
ATOM     77  C   UNL A   1      35.985  33.642  28.502  1.00  0.00     0.040 A 
ATOM     78  F   UNL A   1      38.083  33.951  29.512  1.00  0.00    -0.206 F 
ATOM     79  C   UNL A   1      34.898  32.829  28.191  1.00  0.00     0.006 A 
ENDBRANCH  51  72
BRANCH  63  80
ATOM     80  C   UNL A   1      39.193  32.488  36.358  1.00  0.00     0.057 A 
ATOM     81  C   UNL A   1      39.599  33.803  36.612  1.00  0.00     0.134 A 
ATOM     82  C   UNL A   1      38.205  31.943  37.189  1.00  0.00     0.134 A 
ATOM     83  F   UNL A   1      40.546  34.381  35.858  1.00  0.00    -0.206 F 
ATOM     84  C   UNL A   1      39.052  34.543  37.662  1.00  0.00     0.040 A 
ATOM     85  C   UNL A   1      37.629  32.683  38.222  1.00  0.00     0.040 A 
ATOM     86  F   UNL A   1      37.761  30.693  36.991  1.00  0.00    -0.206 F 
ATOM     87  C   UNL A   1      38.057  33.986  38.463  1.00  0.00     0.006 A 
ENDBRANCH  63  80
ENDBRANCH  37  38
ENDBRANCH  30  32
ENDBRANCH  29  30
ENDBRANCH  28  29
ENDBRANCH   1  28
TORSDOF 14
ENDMDL
MODEL 3
REMARK VINA RESULT:     -12.5      5.324     12.019
REMARK SMILES O=C(OCCOC(=O)c1ccc(-c2c3nc(c(-c4c(F)cccc4F)c4ccc([nH]4)c(-c4c(F)cccc4F)c4nc(c(-c5c(F)cccc5F)c5ccc2[nH]5)C=C4)C=C3)cc1)C1=Cc2cc(Cl)cc(C#Cc3ccccc3)c2O[C@@H]1C(F)(F)F
REMARK SMILES IDX 4 1 3 2 2 3 1 4 63 5 64 6 81 7 65 8 80 9 66 10 79 11 67 12
REMARK SMILES IDX 70 13 68 14 69 15 82 16 83 17 84 18 85 19 71 20 72 21 73 22
REMARK SMILES IDX 74 23 78 24 75 25 77 26 76 27 5 28 6 29 7 30 8 31 9 32 10 33
REMARK SMILES IDX 62 34 11 35 61 36 12 37 13 38 14 39 55 40 15 41 60 42 54 43
REMARK SMILES IDX 56 44 16 45 59 46 53 47 52 48 17 50 43 51 26 52 42 53 27 54
REMARK SMILES IDX 30 55 41 56 57 57 28 58 29 59 40 61 58 62 31 63 18 64 19 65
REMARK SMILES IDX 24 66 20 67 21 68 23 69 25 70 22 71 44 72 45 73 50 74 46 75
REMARK SMILES IDX 47 76 49 77 51 78 48 79 32 80 33 81 38 82 34 83 35 84 37 85
REMARK SMILES IDX 39 86 36 87
REMARK H PARENT 56 49 30 60
REMARK Flexibility Score: inf
ROOT
ATOM      1  C   UNL A   1      34.976  35.313  33.606  1.00  0.00     0.275 C 
ENDROOT
BRANCH   1   2
ATOM      2  O   UNL A   1      35.057  35.257  32.050  1.00  0.00    -0.459 OA
BRANCH   2   3
ATOM      3  C   UNL A   1      34.470  34.177  31.519  1.00  0.00     0.338 C 
ATOM      4  O   UNL A   1      33.928  33.240  32.043  1.00  0.00    -0.246 OA
BRANCH   3   5
ATOM      5  C   UNL A   1      35.034  34.366  30.207  1.00  0.00     0.087 C 
ATOM      6  C   UNL A   1      36.096  33.382  29.936  1.00  0.00     0.027 C 
ATOM      7  C   UNL A   1      33.353  34.486  29.260  1.00  0.00     0.316 C 
ATOM      8  C   UNL A   1      35.901  32.018  28.765  1.00  0.00     0.020 A 
ATOM      9  O   UNL A   1      33.114  33.013  28.036  1.00  0.00    -0.474 OA
ATOM     10  C   UNL A   1      36.866  31.047  28.782  1.00  0.00     0.032 A 
ATOM     11  C   UNL A   1      34.422  31.748  27.882  1.00  0.00     0.143 A 
ATOM     12  C   UNL A   1      36.544  29.886  28.073  1.00  0.00     0.043 A 
ATOM     13  C   UNL A   1      34.206  30.564  27.223  1.00  0.00     0.069 A 
ATOM     14  Cl  UNL A   1      37.696  28.591  28.131  1.00  0.00    -0.084 Cl
ATOM     15  C   UNL A   1      35.306  29.661  27.348  1.00  0.00     0.041 A 
BRANCH   7  16
ATOM     16  C   UNL A   1      33.315  36.050  29.104  1.00  0.00     0.430 C 
ATOM     17  F   UNL A   1      34.312  36.504  28.332  1.00  0.00    -0.167 F 
ATOM     18  F   UNL A   1      32.183  36.383  28.408  1.00  0.00    -0.167 F 
ATOM     19  F   UNL A   1      33.191  36.782  30.224  1.00  0.00    -0.167 F 
ENDBRANCH   7  16
BRANCH  13  20
ATOM     20  C   UNL A   1      33.055  30.098  26.550  1.00  0.00    -0.058 C 
ATOM     21  C   UNL A   1      32.245  29.484  25.888  1.00  0.00    -0.062 C 
BRANCH  21  22
ATOM     22  C   UNL A   1      31.405  28.672  25.073  1.00  0.00     0.025 A 
ATOM     23  C   UNL A   1      30.818  29.204  23.920  1.00  0.00     0.017 A 
ATOM     24  C   UNL A   1      31.177  27.336  25.411  1.00  0.00     0.017 A 
ATOM     25  C   UNL A   1      29.968  28.419  23.138  1.00  0.00     0.001 A 
ATOM     26  C   UNL A   1      30.326  26.551  24.628  1.00  0.00     0.001 A 
ATOM     27  C   UNL A   1      29.713  27.096  23.500  1.00  0.00     0.000 A 
ENDBRANCH  21  22
ENDBRANCH  13  20
ENDBRANCH   3   5
ENDBRANCH   2   3
ENDBRANCH   1   2
BRANCH   1  28
ATOM     28  C   UNL A   1      35.901  33.906  34.984  1.00  0.00     0.275 C 
BRANCH  28  29
ATOM     29  O   UNL A   1      37.263  32.932  34.656  1.00  0.00    -0.458 OA
BRANCH  29  30
ATOM     30  C   UNL A   1      38.361  32.335  35.218  1.00  0.00     0.338 C 
ATOM     31  O   UNL A   1      38.692  32.246  36.384  1.00  0.00    -0.246 OA
BRANCH  30  32
ATOM     32  C   UNL A   1      38.910  31.451  34.141  1.00  0.00     0.060 A 
ATOM     33  C   UNL A   1      38.831  31.887  32.807  1.00  0.00     0.016 A 
ATOM     34  C   UNL A   1      39.808  30.438  34.485  1.00  0.00     0.016 A 
ATOM     35  C   UNL A   1      39.800  31.468  31.876  1.00  0.00     0.010 A 
ATOM     36  C   UNL A   1      40.760  30.014  33.554  1.00  0.00     0.010 A 
ATOM     37  C   UNL A   1      40.805  30.570  32.261  1.00  0.00    -0.014 A 
BRANCH  37  38
ATOM     38  C   UNL A   1      41.729  29.980  31.256  1.00  0.00     0.031 A 
ATOM     39  C   UNL A   1      42.976  30.771  30.993  1.00  0.00     0.074 A 
ATOM     40  C   UNL A   1      41.476  28.856  30.553  1.00  0.00     0.049 A 
ATOM     41  N   UNL A   1      43.948  30.555  30.149  1.00  0.00    -0.248 NA
ATOM     42  C   UNL A   1      43.121  32.005  31.787  1.00  0.00     0.031 C 
ATOM     43  C   UNL A   1      40.300  27.997  30.688  1.00  0.00     0.029 A 
ATOM     44  N   UNL A   1      42.211  28.249  29.556  1.00  0.00    -0.354 N 
ATOM     45  C   UNL A   1      44.818  31.621  30.318  1.00  0.00     0.074 A 
ATOM     46  C   UNL A   1      44.224  32.520  31.280  1.00  0.00     0.031 C 
ATOM     47  C   UNL A   1      40.394  26.977  29.808  1.00  0.00     0.029 A 
ATOM     48  C   UNL A   1      41.630  27.112  29.038  1.00  0.00     0.049 A 
ATOM     49  H   UNL A   1      43.076  28.598  29.242  1.00  0.00     0.167 HD
ATOM     50  C   UNL A   1      46.026  31.830  29.751  1.00  0.00     0.037 A 
ATOM     51  C   UNL A   1      42.061  26.284  28.060  1.00  0.00     0.037 A 
ATOM     52  C   UNL A   1      46.604  30.963  28.768  1.00  0.00     0.049 A 
ATOM     53  C   UNL A   1      43.385  26.574  27.381  1.00  0.00     0.074 A 
ATOM     54  C   UNL A   1      47.819  31.079  28.122  1.00  0.00     0.029 A 
ATOM     55  N   UNL A   1      45.987  29.822  28.279  1.00  0.00    -0.354 N 
ATOM     56  N   UNL A   1      44.245  27.539  27.611  1.00  0.00    -0.248 NA
ATOM     57  C   UNL A   1      43.803  25.651  26.312  1.00  0.00     0.031 C 
ATOM     58  C   UNL A   1      47.918  30.028  27.206  1.00  0.00     0.029 A 
ATOM     59  C   UNL A   1      46.790  29.230  27.323  1.00  0.00     0.049 A 
ATOM     60  H   UNL A   1      45.109  29.484  28.569  1.00  0.00     0.167 HD
ATOM     61  C   UNL A   1      45.320  27.309  26.759  1.00  0.00     0.074 A 
ATOM     62  C   UNL A   1      45.008  26.112  26.007  1.00  0.00     0.031 C 
ATOM     63  C   UNL A   1      46.468  28.017  26.613  1.00  0.00     0.037 A 
BRANCH  50  64
ATOM     64  C   UNL A   1      46.751  33.065  30.189  1.00  0.00     0.057 A 
ATOM     65  C   UNL A   1      46.665  34.260  29.457  1.00  0.00     0.134 A 
ATOM     66  C   UNL A   1      47.622  33.034  31.282  1.00  0.00     0.134 A 
ATOM     67  F   UNL A   1      45.877  34.341  28.374  1.00  0.00    -0.206 F 
ATOM     68  C   UNL A   1      47.466  35.361  29.765  1.00  0.00     0.040 A 
ATOM     69  C   UNL A   1      48.402  34.140  31.618  1.00  0.00     0.040 A 
ATOM     70  F   UNL A   1      47.758  31.919  32.014  1.00  0.00    -0.206 F 
ATOM     71  C   UNL A   1      48.337  35.301  30.850  1.00  0.00     0.006 A 
ENDBRANCH  50  64
BRANCH  51  72
ATOM     72  C   UNL A   1      41.284  25.074  27.658  1.00  0.00     0.057 A 
ATOM     73  C   UNL A   1      40.192  25.175  26.784  1.00  0.00     0.134 A 
ATOM     74  C   UNL A   1      41.542  23.811  28.205  1.00  0.00     0.134 A 
ATOM     75  F   UNL A   1      39.863  26.362  26.252  1.00  0.00    -0.206 F 
ATOM     76  C   UNL A   1      39.372  24.081  26.492  1.00  0.00     0.040 A 
ATOM     77  C   UNL A   1      40.744  22.701  27.903  1.00  0.00     0.040 A 
ATOM     78  F   UNL A   1      42.561  23.638  29.060  1.00  0.00    -0.206 F 
ATOM     79  C   UNL A   1      39.649  22.837  27.053  1.00  0.00     0.006 A 
ENDBRANCH  51  72
BRANCH  63  80
ATOM     80  C   UNL A   1      47.501  27.491  25.659  1.00  0.00     0.057 A 
ATOM     81  C   UNL A   1      47.444  27.740  24.283  1.00  0.00     0.134 A 
ATOM     82  C   UNL A   1      48.614  26.790  26.145  1.00  0.00     0.134 A 
ATOM     83  F   UNL A   1      46.403  28.399  23.753  1.00  0.00    -0.206 F 
ATOM     84  C   UNL A   1      48.449  27.297  23.421  1.00  0.00     0.040 A 
ATOM     85  C   UNL A   1      49.639  26.369  25.298  1.00  0.00     0.040 A 
ATOM     86  F   UNL A   1      48.737  26.530  27.455  1.00  0.00    -0.206 F 
ATOM     87  C   UNL A   1      49.555  26.619  23.930  1.00  0.00     0.006 A 
ENDBRANCH  63  80
ENDBRANCH  37  38
ENDBRANCH  30  32
ENDBRANCH  29  30
ENDBRANCH  28  29
ENDBRANCH   1  28
TORSDOF 14
ENDMDL
