MODEL 1
REMARK VINA RESULT:     -11.0      0.000      0.000
REMARK SMILES Cc1ccc(OCC(=O)Oc2ccc(C(=O)OCCOC(=O)c3ccc(-c4c5nc(c(-c6c(F)cccc6F)c6ccc([nH]6)c(-c6c(F)cccc6F)c6nc(c(-c7c(F)cccc7F)c7ccc4[nH]7)C=C6)C=C5)cc3)cc2)cc1C
REMARK SMILES IDX 17 1 15 2 16 3 14 4 11 5 12 6 78 7 13 8 77 9 10 10 8 11 9 12
REMARK SMILES IDX 7 13 6 14 5 15 1 16 2 17 3 18 80 19 4 20 79 21 81 22 18 23
REMARK SMILES IDX 19 24 20 25 21 26 22 27 23 28 24 29 76 30 25 31 75 32 26 33
REMARK SMILES IDX 27 34 28 35 69 36 29 37 74 38 68 39 70 40 30 41 73 42 67 43
REMARK SMILES IDX 66 44 31 46 57 47 40 48 56 49 41 50 44 51 55 52 71 53 42 54
REMARK SMILES IDX 43 55 54 57 72 58 45 59 32 60 33 61 38 62 34 63 35 64 37 65
REMARK SMILES IDX 39 66 36 67 58 68 59 69 64 70 60 71 61 72 63 73 65 74 62 75
REMARK SMILES IDX 46 76 47 77 52 78 48 79 49 80 51 81 53 82 50 83
REMARK H PARENT 70 45 44 56
REMARK Flexibility Score: inf
ROOT
ATOM      1  O   UNL A   1      36.778  22.857  25.153  1.00  0.00    -0.458 OA
ENDROOT
BRANCH   1   2
ATOM      2  C   UNL A   1      36.268  23.259  23.962  1.00  0.00     0.338 C 
ATOM      3  O   UNL A   1      36.667  22.930  22.855  1.00  0.00    -0.246 OA
BRANCH   2   4
ATOM      4  C   UNL A   1      35.066  24.109  24.156  1.00  0.00     0.060 A 
ATOM      5  C   UNL A   1      32.834  25.695  24.661  1.00  0.00     0.131 A 
ATOM      6  C   UNL A   1      33.846  25.620  25.612  1.00  0.00     0.048 A 
ATOM      7  C   UNL A   1      32.936  25.022  23.442  1.00  0.00     0.048 A 
ATOM      8  C   UNL A   1      34.951  24.809  25.368  1.00  0.00     0.019 A 
ATOM      9  C   UNL A   1      34.056  24.223  23.190  1.00  0.00     0.019 A 
BRANCH   5  10
ATOM     10  O   UNL A   1      31.738  26.497  24.992  1.00  0.00    -0.424 OA
BRANCH  10  11
ATOM     11  C   UNL A   1      31.159  26.200  26.220  1.00  0.00     0.349 C 
ATOM     12  O   UNL A   1      31.211  26.880  27.238  1.00  0.00    -0.248 OA
BRANCH  11  13
ATOM     13  C   UNL A   1      30.428  24.868  26.129  1.00  0.00     0.352 C 
BRANCH  13  14
ATOM     14  O   UNL A   1      30.846  23.875  27.055  1.00  0.00    -0.482 OA
BRANCH  14  15
ATOM     15  C   UNL A   1      31.786  22.968  26.647  1.00  0.00     0.120 A 
ATOM     16  C   UNL A   1      34.496  19.989  25.055  1.00  0.00     0.044 C 
ATOM     17  C   UNL A   1      33.537  21.027  25.570  1.00  0.00    -0.048 A 
ATOM     18  C   UNL A   1      33.749  21.570  26.846  1.00  0.00     0.007 A 
ATOM     19  C   UNL A   1      32.441  21.476  24.814  1.00  0.00    -0.045 A 
ATOM     20  C   UNL A   1      32.888  22.535  27.378  1.00  0.00     0.047 A 
ATOM     21  C   UNL A   1      31.572  22.435  25.373  1.00  0.00     0.050 A 
ATOM     22  C   UNL A   1      32.152  20.996  23.418  1.00  0.00     0.045 C 
ENDBRANCH  14  15
ENDBRANCH  13  14
ENDBRANCH  11  13
ENDBRANCH  10  11
ENDBRANCH   5  10
ENDBRANCH   2   4
ENDBRANCH   1   2
BRANCH   1  23
ATOM     23  C   UNL A   1      37.778  21.820  25.083  1.00  0.00     0.275 C 
BRANCH  23  24
ATOM     24  C   UNL A   1      38.937  22.128  26.028  1.00  0.00     0.275 C 
BRANCH  24  25
ATOM     25  O   UNL A   1      39.081  23.553  26.159  1.00  0.00    -0.458 OA
BRANCH  25  26
ATOM     26  C   UNL A   1      40.314  23.997  26.494  1.00  0.00     0.338 C 
ATOM     27  O   UNL A   1      41.391  23.524  26.176  1.00  0.00    -0.246 OA
BRANCH  26  28
ATOM     28  C   UNL A   1      40.179  25.185  27.355  1.00  0.00     0.060 A 
ATOM     29  C   UNL A   1      41.063  26.253  27.207  1.00  0.00     0.016 A 
ATOM     30  C   UNL A   1      39.231  25.193  28.376  1.00  0.00     0.016 A 
ATOM     31  C   UNL A   1      41.037  27.314  28.111  1.00  0.00     0.010 A 
ATOM     32  C   UNL A   1      39.163  26.289  29.244  1.00  0.00     0.010 A 
ATOM     33  C   UNL A   1      40.083  27.347  29.139  1.00  0.00    -0.014 A 
BRANCH  33  34
ATOM     34  C   UNL A   1      40.087  28.451  30.138  1.00  0.00     0.031 A 
ATOM     35  C   UNL A   1      41.107  28.460  31.248  1.00  0.00     0.074 A 
ATOM     36  C   UNL A   1      39.197  29.459  30.053  1.00  0.00     0.049 A 
ATOM     37  N   UNL A   1      41.183  29.239  32.297  1.00  0.00    -0.248 NA
ATOM     38  C   UNL A   1      42.174  27.451  31.171  1.00  0.00     0.031 C 
ATOM     39  C   UNL A   1      38.180  29.608  29.012  1.00  0.00     0.029 A 
ATOM     40  N   UNL A   1      39.013  30.557  30.857  1.00  0.00    -0.354 N 
ATOM     41  C   UNL A   1      42.270  28.781  33.032  1.00  0.00     0.074 A 
ATOM     42  C   UNL A   1      42.825  27.657  32.307  1.00  0.00     0.031 C 
ATOM     43  C   UNL A   1      37.503  30.748  29.220  1.00  0.00     0.029 A 
ATOM     44  C   UNL A   1      37.988  31.375  30.445  1.00  0.00     0.049 A 
ATOM     45  H   UNL A   1      39.561  30.740  31.654  1.00  0.00     0.167 HD
ATOM     46  C   UNL A   1      42.760  29.252  34.203  1.00  0.00     0.037 A 
ATOM     47  C   UNL A   1      37.477  32.489  31.003  1.00  0.00     0.037 A 
ATOM     48  C   UNL A   1      42.251  30.404  34.897  1.00  0.00     0.049 A 
ATOM     49  C   UNL A   1      38.033  32.989  32.306  1.00  0.00     0.074 A 
ATOM     50  C   UNL A   1      42.691  30.962  36.086  1.00  0.00     0.029 A 
ATOM     51  N   UNL A   1      41.199  31.190  34.454  1.00  0.00    -0.354 N 
ATOM     52  N   UNL A   1      39.020  32.509  33.021  1.00  0.00    -0.248 NA
ATOM     53  C   UNL A   1      37.387  34.174  32.890  1.00  0.00     0.031 C 
ATOM     54  C   UNL A   1      41.892  32.074  36.373  1.00  0.00     0.029 A 
ATOM     55  C   UNL A   1      40.973  32.225  35.347  1.00  0.00     0.049 A 
ATOM     56  H   UNL A   1      40.687  31.036  33.627  1.00  0.00     0.167 HD
ATOM     57  C   UNL A   1      39.115  33.330  34.137  1.00  0.00     0.074 A 
ATOM     58  C   UNL A   1      38.102  34.354  33.993  1.00  0.00     0.031 C 
ATOM     59  C   UNL A   1      39.961  33.236  35.192  1.00  0.00     0.037 A 
BRANCH  46  60
ATOM     60  C   UNL A   1      43.895  28.498  34.828  1.00  0.00     0.057 A 
ATOM     61  C   UNL A   1      45.231  28.855  34.614  1.00  0.00     0.134 A 
ATOM     62  C   UNL A   1      43.640  27.418  35.684  1.00  0.00     0.134 A 
ATOM     63  F   UNL A   1      45.540  29.871  33.794  1.00  0.00    -0.206 F 
ATOM     64  C   UNL A   1      46.277  28.154  35.218  1.00  0.00     0.040 A 
ATOM     65  C   UNL A   1      44.677  26.722  36.309  1.00  0.00     0.040 A 
ATOM     66  F   UNL A   1      42.382  27.029  35.933  1.00  0.00    -0.206 F 
ATOM     67  C   UNL A   1      46.000  27.088  36.073  1.00  0.00     0.006 A 
ENDBRANCH  46  60
BRANCH  47  68
ATOM     68  C   UNL A   1      36.350  33.193  30.345  1.00  0.00     0.057 A 
ATOM     69  C   UNL A   1      36.562  34.007  29.228  1.00  0.00     0.134 A 
ATOM     70  C   UNL A   1      35.037  33.066  30.815  1.00  0.00     0.134 A 
ATOM     71  F   UNL A   1      37.801  34.188  28.750  1.00  0.00    -0.206 F 
ATOM     72  C   UNL A   1      35.508  34.676  28.602  1.00  0.00     0.040 A 
ATOM     73  C   UNL A   1      33.971  33.710  30.186  1.00  0.00     0.040 A 
ATOM     74  F   UNL A   1      34.771  32.301  31.884  1.00  0.00    -0.206 F 
ATOM     75  C   UNL A   1      34.207  34.521  29.076  1.00  0.00     0.006 A 
ENDBRANCH  47  68
BRANCH  59  76
ATOM     76  C   UNL A   1      39.832  34.275  36.262  1.00  0.00     0.057 A 
ATOM     77  C   UNL A   1      39.037  34.065  37.395  1.00  0.00     0.134 A 
ATOM     78  C   UNL A   1      40.530  35.486  36.172  1.00  0.00     0.134 A 
ATOM     79  F   UNL A   1      38.335  32.929  37.531  1.00  0.00    -0.206 F 
ATOM     80  C   UNL A   1      38.928  35.031  38.396  1.00  0.00     0.040 A 
ATOM     81  C   UNL A   1      40.441  36.453  37.174  1.00  0.00     0.040 A 
ATOM     82  F   UNL A   1      41.310  35.745  35.112  1.00  0.00    -0.206 F 
ATOM     83  C   UNL A   1      39.634  36.227  38.288  1.00  0.00     0.006 A 
ENDBRANCH  59  76
ENDBRANCH  33  34
ENDBRANCH  26  28
ENDBRANCH  25  26
ENDBRANCH  24  25
ENDBRANCH  23  24
ENDBRANCH   1  23
TORSDOF 16
ENDMDL
MODEL 2
REMARK VINA RESULT:     -11.0      2.041      3.985
REMARK SMILES Cc1ccc(OCC(=O)Oc2ccc(C(=O)OCCOC(=O)c3ccc(-c4c5nc(c(-c6c(F)cccc6F)c6ccc([nH]6)c(-c6c(F)cccc6F)c6nc(c(-c7c(F)cccc7F)c7ccc4[nH]7)C=C6)C=C5)cc3)cc2)cc1C
REMARK SMILES IDX 17 1 15 2 16 3 14 4 11 5 12 6 78 7 13 8 77 9 10 10 8 11 9 12
REMARK SMILES IDX 7 13 6 14 5 15 1 16 2 17 3 18 80 19 4 20 79 21 81 22 18 23
REMARK SMILES IDX 19 24 20 25 21 26 22 27 23 28 24 29 76 30 25 31 75 32 26 33
REMARK SMILES IDX 27 34 28 35 69 36 29 37 74 38 68 39 70 40 30 41 73 42 67 43
REMARK SMILES IDX 66 44 31 46 57 47 40 48 56 49 41 50 44 51 55 52 71 53 42 54
REMARK SMILES IDX 43 55 54 57 72 58 45 59 32 60 33 61 38 62 34 63 35 64 37 65
REMARK SMILES IDX 39 66 36 67 58 68 59 69 64 70 60 71 61 72 63 73 65 74 62 75
REMARK SMILES IDX 46 76 47 77 52 78 48 79 49 80 51 81 53 82 50 83
REMARK H PARENT 70 45 44 56
REMARK Flexibility Score: inf
ROOT
ATOM      1  O   UNL A   1      41.153  20.885  25.803  1.00  0.00    -0.458 OA
ENDROOT
BRANCH   1   2
ATOM      2  C   UNL A   1      40.293  21.334  26.752  1.00  0.00     0.338 C 
ATOM      3  O   UNL A   1      40.491  21.354  27.957  1.00  0.00    -0.246 OA
BRANCH   2   4
ATOM      4  C   UNL A   1      39.067  21.902  26.135  1.00  0.00     0.060 A 
ATOM      5  C   UNL A   1      36.776  22.864  24.879  1.00  0.00     0.131 A 
ATOM      6  C   UNL A   1      37.142  21.533  24.704  1.00  0.00     0.048 A 
ATOM      7  C   UNL A   1      37.514  23.714  25.705  1.00  0.00     0.048 A 
ATOM      8  C   UNL A   1      38.300  21.060  25.315  1.00  0.00     0.019 A 
ATOM      9  C   UNL A   1      38.667  23.231  26.333  1.00  0.00     0.019 A 
BRANCH   5  10
ATOM     10  O   UNL A   1      35.624  23.279  24.205  1.00  0.00    -0.424 OA
BRANCH  10  11
ATOM     11  C   UNL A   1      34.637  23.807  25.028  1.00  0.00     0.349 C 
ATOM     12  O   UNL A   1      34.040  23.223  25.925  1.00  0.00    -0.248 OA
BRANCH  11  13
ATOM     13  C   UNL A   1      34.382  25.260  24.650  1.00  0.00     0.352 C 
BRANCH  13  14
ATOM     14  O   UNL A   1      33.021  25.665  24.654  1.00  0.00    -0.482 OA
BRANCH  14  15
ATOM     15  C   UNL A   1      32.715  26.892  25.177  1.00  0.00     0.120 A 
ATOM     16  C   UNL A   1      31.584  30.871  26.459  1.00  0.00     0.044 C 
ATOM     17  C   UNL A   1      31.946  29.490  25.985  1.00  0.00    -0.048 A 
ATOM     18  C   UNL A   1      32.857  28.734  26.737  1.00  0.00     0.007 A 
ATOM     19  C   UNL A   1      31.398  28.930  24.819  1.00  0.00    -0.045 A 
ATOM     20  C   UNL A   1      33.234  27.446  26.342  1.00  0.00     0.047 A 
ATOM     21  C   UNL A   1      31.803  27.638  24.425  1.00  0.00     0.050 A 
ATOM     22  C   UNL A   1      30.377  29.635  23.968  1.00  0.00     0.045 C 
ENDBRANCH  14  15
ENDBRANCH  13  14
ENDBRANCH  11  13
ENDBRANCH  10  11
ENDBRANCH   5  10
ENDBRANCH   2   4
ENDBRANCH   1   2
BRANCH   1  23
ATOM     23  C   UNL A   1      42.511  20.678  26.243  1.00  0.00     0.275 C 
BRANCH  23  24
ATOM     24  C   UNL A   1      43.473  21.549  25.437  1.00  0.00     0.275 C 
BRANCH  24  25
ATOM     25  O   UNL A   1      42.801  22.753  25.027  1.00  0.00    -0.458 OA
BRANCH  25  26
ATOM     26  C   UNL A   1      43.550  23.880  25.022  1.00  0.00     0.338 C 
ATOM     27  O   UNL A   1      44.536  24.118  24.349  1.00  0.00    -0.246 OA
BRANCH  26  28
ATOM     28  C   UNL A   1      42.996  24.828  26.003  1.00  0.00     0.060 A 
ATOM     29  C   UNL A   1      43.437  26.151  26.015  1.00  0.00     0.016 A 
ATOM     30  C   UNL A   1      42.107  24.375  26.977  1.00  0.00     0.016 A 
ATOM     31  C   UNL A   1      43.030  27.016  27.030  1.00  0.00     0.010 A 
ATOM     32  C   UNL A   1      41.649  25.261  27.958  1.00  0.00     0.010 A 
ATOM     33  C   UNL A   1      42.128  26.583  28.012  1.00  0.00    -0.014 A 
BRANCH  33  34
ATOM     34  C   UNL A   1      41.734  27.487  29.128  1.00  0.00     0.031 A 
ATOM     35  C   UNL A   1      42.528  27.495  30.408  1.00  0.00     0.074 A 
ATOM     36  C   UNL A   1      40.680  28.317  29.001  1.00  0.00     0.049 A 
ATOM     37  N   UNL A   1      42.264  28.089  31.544  1.00  0.00    -0.248 NA
ATOM     38  C   UNL A   1      43.781  26.724  30.412  1.00  0.00     0.031 C 
ATOM     39  C   UNL A   1      39.843  28.450  27.808  1.00  0.00     0.029 A 
ATOM     40  N   UNL A   1      40.138  29.214  29.889  1.00  0.00    -0.354 N 
ATOM     41  C   UNL A   1      43.283  27.719  32.413  1.00  0.00     0.074 A 
ATOM     42  C   UNL A   1      44.175  26.852  31.671  1.00  0.00     0.031 C 
ATOM     43  C   UNL A   1      38.917  29.398  28.025  1.00  0.00     0.029 A 
ATOM     44  C   UNL A   1      39.049  29.889  29.393  1.00  0.00     0.049 A 
ATOM     45  H   UNL A   1      40.494  29.357  30.795  1.00  0.00     0.167 HD
ATOM     46  C   UNL A   1      43.461  28.070  33.709  1.00  0.00     0.037 A 
ATOM     47  C   UNL A   1      38.230  30.783  29.980  1.00  0.00     0.037 A 
ATOM     48  C   UNL A   1      42.613  28.979  34.433  1.00  0.00     0.049 A 
ATOM     49  C   UNL A   1      38.444  31.151  31.421  1.00  0.00     0.074 A 
ATOM     50  C   UNL A   1      42.723  29.401  35.747  1.00  0.00     0.029 A 
ATOM     51  N   UNL A   1      41.510  29.623  33.898  1.00  0.00    -0.354 N 
ATOM     52  N   UNL A   1      39.375  30.745  32.247  1.00  0.00    -0.248 NA
ATOM     53  C   UNL A   1      37.476  32.086  32.015  1.00  0.00     0.031 C 
ATOM     54  C   UNL A   1      41.672  30.286  36.013  1.00  0.00     0.029 A 
ATOM     55  C   UNL A   1      40.926  30.437  34.856  1.00  0.00     0.049 A 
ATOM     56  H   UNL A   1      41.187  29.519  32.973  1.00  0.00     0.167 HD
ATOM     57  C   UNL A   1      39.109  31.372  33.457  1.00  0.00     0.074 A 
ATOM     58  C   UNL A   1      37.942  32.205  33.251  1.00  0.00     0.031 C 
ATOM     59  C   UNL A   1      39.766  31.259  34.637  1.00  0.00     0.037 A 
BRANCH  46  60
ATOM     60  C   UNL A   1      44.608  27.441  34.441  1.00  0.00     0.057 A 
ATOM     61  C   UNL A   1      44.492  26.201  35.078  1.00  0.00     0.134 A 
ATOM     62  C   UNL A   1      45.857  28.075  34.476  1.00  0.00     0.134 A 
ATOM     63  F   UNL A   1      43.319  25.551  35.092  1.00  0.00    -0.206 F 
ATOM     64  C   UNL A   1      45.575  25.619  35.741  1.00  0.00     0.040 A 
ATOM     65  C   UNL A   1      46.953  27.494  35.118  1.00  0.00     0.040 A 
ATOM     66  F   UNL A   1      46.035  29.263  33.880  1.00  0.00    -0.206 F 
ATOM     67  C   UNL A   1      46.811  26.264  35.756  1.00  0.00     0.006 A 
ENDBRANCH  46  60
BRANCH  47  68
ATOM     68  C   UNL A   1      37.107  31.371  29.210  1.00  0.00     0.057 A 
ATOM     69  C   UNL A   1      35.945  30.636  28.955  1.00  0.00     0.134 A 
ATOM     70  C   UNL A   1      37.169  32.678  28.714  1.00  0.00     0.134 A 
ATOM     71  F   UNL A   1      35.840  29.369  29.382  1.00  0.00    -0.206 F 
ATOM     72  C   UNL A   1      34.883  31.179  28.229  1.00  0.00     0.040 A 
ATOM     73  C   UNL A   1      36.106  33.242  28.006  1.00  0.00     0.040 A 
ATOM     74  F   UNL A   1      38.259  33.432  28.924  1.00  0.00    -0.206 F 
ATOM     75  C   UNL A   1      34.959  32.489  27.760  1.00  0.00     0.006 A 
ENDBRANCH  47  68
BRANCH  59  76
ATOM     76  C   UNL A   1      39.246  32.065  35.786  1.00  0.00     0.057 A 
ATOM     77  C   UNL A   1      38.322  31.533  36.694  1.00  0.00     0.134 A 
ATOM     78  C   UNL A   1      39.693  33.374  36.004  1.00  0.00     0.134 A 
ATOM     79  F   UNL A   1      37.848  30.288  36.531  1.00  0.00    -0.206 F 
ATOM     80  C   UNL A   1      37.847  32.282  37.771  1.00  0.00     0.040 A 
ATOM     81  C   UNL A   1      39.237  34.127  37.086  1.00  0.00     0.040 A 
ATOM     82  F   UNL A   1      40.580  33.937  35.171  1.00  0.00    -0.206 F 
ATOM     83  C   UNL A   1      38.308  33.582  37.972  1.00  0.00     0.006 A 
ENDBRANCH  59  76
ENDBRANCH  33  34
ENDBRANCH  26  28
ENDBRANCH  25  26
ENDBRANCH  24  25
ENDBRANCH  23  24
ENDBRANCH   1  23
TORSDOF 16
ENDMDL
MODEL 3
REMARK VINA RESULT:     -10.9      4.119      7.707
REMARK SMILES Cc1ccc(OCC(=O)Oc2ccc(C(=O)OCCOC(=O)c3ccc(-c4c5nc(c(-c6c(F)cccc6F)c6ccc([nH]6)c(-c6c(F)cccc6F)c6nc(c(-c7c(F)cccc7F)c7ccc4[nH]7)C=C6)C=C5)cc3)cc2)cc1C
REMARK SMILES IDX 17 1 15 2 16 3 14 4 11 5 12 6 78 7 13 8 77 9 10 10 8 11 9 12
REMARK SMILES IDX 7 13 6 14 5 15 1 16 2 17 3 18 80 19 4 20 79 21 81 22 18 23
REMARK SMILES IDX 19 24 20 25 21 26 22 27 23 28 24 29 76 30 25 31 75 32 26 33
REMARK SMILES IDX 27 34 28 35 69 36 29 37 74 38 68 39 70 40 30 41 73 42 67 43
REMARK SMILES IDX 66 44 31 46 57 47 40 48 56 49 41 50 44 51 55 52 71 53 42 54
REMARK SMILES IDX 43 55 54 57 72 58 45 59 32 60 33 61 38 62 34 63 35 64 37 65
REMARK SMILES IDX 39 66 36 67 58 68 59 69 64 70 60 71 61 72 63 73 65 74 62 75
REMARK SMILES IDX 46 76 47 77 52 78 48 79 49 80 51 81 53 82 50 83
REMARK H PARENT 70 45 44 56
REMARK Flexibility Score: inf
ROOT
ATOM      1  O   UNL A   1      34.768  22.704  24.801  1.00  0.00    -0.458 OA
ENDROOT
BRANCH   1   2
ATOM      2  C   UNL A   1      35.086  23.413  23.690  1.00  0.00     0.338 C 
ATOM      3  O   UNL A   1      35.766  23.024  22.753  1.00  0.00    -0.246 OA
BRANCH   2   4
ATOM      4  C   UNL A   1      34.420  24.741  23.694  1.00  0.00     0.060 A 
ATOM      5  C   UNL A   1      33.212  27.246  23.565  1.00  0.00     0.131 A 
ATOM      6  C   UNL A   1      33.405  26.520  22.393  1.00  0.00     0.048 A 
ATOM      7  C   UNL A   1      33.577  26.723  24.807  1.00  0.00     0.048 A 
ATOM      8  C   UNL A   1      34.029  25.277  22.457  1.00  0.00     0.019 A 
ATOM      9  C   UNL A   1      34.187  25.466  24.871  1.00  0.00     0.019 A 
BRANCH   5  10
ATOM     10  O   UNL A   1      32.614  28.501  23.419  1.00  0.00    -0.424 OA
BRANCH  10  11
ATOM     11  C   UNL A   1      31.344  28.599  23.974  1.00  0.00     0.349 C 
ATOM     12  O   UNL A   1      31.047  29.142  25.032  1.00  0.00    -0.248 OA
BRANCH  11  13
ATOM     13  C   UNL A   1      30.335  27.915  23.063  1.00  0.00     0.352 C 
BRANCH  13  14
ATOM     14  O   UNL A   1      29.428  27.031  23.706  1.00  0.00    -0.482 OA
BRANCH  14  15
ATOM     15  C   UNL A   1      29.942  25.948  24.366  1.00  0.00     0.120 A 
ATOM     16  C   UNL A   1      31.537  22.311  26.091  1.00  0.00     0.044 C 
ATOM     17  C   UNL A   1      30.997  23.561  25.455  1.00  0.00    -0.048 A 
ATOM     18  C   UNL A   1      30.552  24.604  26.281  1.00  0.00     0.007 A 
ATOM     19  C   UNL A   1      30.927  23.723  24.060  1.00  0.00    -0.045 A 
ATOM     20  C   UNL A   1      30.036  25.788  25.744  1.00  0.00     0.047 A 
ATOM     21  C   UNL A   1      30.387  24.914  23.536  1.00  0.00     0.050 A 
ATOM     22  C   UNL A   1      31.422  22.688  23.086  1.00  0.00     0.045 C 
ENDBRANCH  14  15
ENDBRANCH  13  14
ENDBRANCH  11  13
ENDBRANCH  10  11
ENDBRANCH   5  10
ENDBRANCH   2   4
ENDBRANCH   1   2
BRANCH   1  23
ATOM     23  C   UNL A   1      34.655  21.278  24.619  1.00  0.00     0.275 C 
BRANCH  23  24
ATOM     24  C   UNL A   1      35.965  20.585  24.989  1.00  0.00     0.275 C 
BRANCH  24  25
ATOM     25  O   UNL A   1      36.780  21.483  25.763  1.00  0.00    -0.458 OA
BRANCH  25  26
ATOM     26  C   UNL A   1      38.111  21.244  25.744  1.00  0.00     0.338 C 
ATOM     27  O   UNL A   1      38.685  20.246  25.347  1.00  0.00    -0.246 OA
BRANCH  26  28
ATOM     28  C   UNL A   1      38.815  22.406  26.312  1.00  0.00     0.060 A 
ATOM     29  C   UNL A   1      38.303  23.689  26.121  1.00  0.00     0.016 A 
ATOM     30  C   UNL A   1      40.040  22.226  26.952  1.00  0.00     0.016 A 
ATOM     31  C   UNL A   1      39.037  24.803  26.527  1.00  0.00     0.010 A 
ATOM     32  C   UNL A   1      40.746  23.341  27.416  1.00  0.00     0.010 A 
ATOM     33  C   UNL A   1      40.266  24.643  27.182  1.00  0.00    -0.014 A 
BRANCH  33  34
ATOM     34  C   UNL A   1      41.077  25.831  27.568  1.00  0.00     0.031 A 
ATOM     35  C   UNL A   1      40.485  26.889  28.463  1.00  0.00     0.074 A 
ATOM     36  C   UNL A   1      42.347  25.966  27.140  1.00  0.00     0.049 A 
ATOM     37  N   UNL A   1      40.965  28.063  28.788  1.00  0.00    -0.248 NA
ATOM     38  C   UNL A   1      39.175  26.589  29.061  1.00  0.00     0.031 C 
ATOM     39  C   UNL A   1      43.068  25.004  26.305  1.00  0.00     0.029 A 
ATOM     40  N   UNL A   1      43.262  26.967  27.358  1.00  0.00    -0.354 N 
ATOM     41  C   UNL A   1      39.994  28.663  29.581  1.00  0.00     0.074 A 
ATOM     42  C   UNL A   1      38.899  27.723  29.691  1.00  0.00     0.031 C 
ATOM     43  C   UNL A   1      44.321  25.444  26.111  1.00  0.00     0.029 A 
ATOM     44  C   UNL A   1      44.473  26.749  26.747  1.00  0.00     0.049 A 
ATOM     45  H   UNL A   1      43.067  27.766  27.899  1.00  0.00     0.167 HD
ATOM     46  C   UNL A   1      40.013  29.886  30.163  1.00  0.00     0.037 A 
ATOM     47  C   UNL A   1      45.573  27.523  26.680  1.00  0.00     0.037 A 
ATOM     48  C   UNL A   1      41.122  30.800  30.107  1.00  0.00     0.049 A 
ATOM     49  C   UNL A   1      45.568  28.878  27.329  1.00  0.00     0.074 A 
ATOM     50  C   UNL A   1      41.235  32.058  30.676  1.00  0.00     0.029 A 
ATOM     51  N   UNL A   1      42.321  30.547  29.460  1.00  0.00    -0.354 N 
ATOM     52  N   UNL A   1      44.620  29.458  28.022  1.00  0.00    -0.248 NA
ATOM     53  C   UNL A   1      46.780  29.695  27.165  1.00  0.00     0.031 C 
ATOM     54  C   UNL A   1      42.495  32.574  30.356  1.00  0.00     0.029 A 
ATOM     55  C   UNL A   1      43.177  31.626  29.611  1.00  0.00     0.049 A 
ATOM     56  H   UNL A   1      42.533  29.723  28.964  1.00  0.00     0.167 HD
ATOM     57  C   UNL A   1      45.118  30.704  28.378  1.00  0.00     0.074 A 
ATOM     58  C   UNL A   1      46.461  30.788  27.844  1.00  0.00     0.031 C 
ATOM     59  C   UNL A   1      44.510  31.695  29.075  1.00  0.00     0.037 A 
BRANCH  46  60
ATOM     60  C   UNL A   1      38.777  30.321  30.892  1.00  0.00     0.057 A 
ATOM     61  C   UNL A   1      38.586  30.058  32.252  1.00  0.00     0.134 A 
ATOM     62  C   UNL A   1      37.781  31.045  30.224  1.00  0.00     0.134 A 
ATOM     63  F   UNL A   1      39.497  29.357  32.944  1.00  0.00    -0.206 F 
ATOM     64  C   UNL A   1      37.437  30.486  32.922  1.00  0.00     0.040 A 
ATOM     65  C   UNL A   1      36.637  31.495  30.886  1.00  0.00     0.040 A 
ATOM     66  F   UNL A   1      37.906  31.333  28.920  1.00  0.00    -0.206 F 
ATOM     67  C   UNL A   1      36.462  31.211  32.239  1.00  0.00     0.006 A 
ENDBRANCH  46  60
BRANCH  47  68
ATOM     68  C   UNL A   1      46.767  27.045  25.941  1.00  0.00     0.057 A 
ATOM     69  C   UNL A   1      46.971  27.390  24.601  1.00  0.00     0.134 A 
ATOM     70  C   UNL A   1      47.730  26.237  26.556  1.00  0.00     0.134 A 
ATOM     71  F   UNL A   1      46.069  28.140  23.952  1.00  0.00    -0.206 F 
ATOM     72  C   UNL A   1      48.090  26.944  23.896  1.00  0.00     0.040 A 
ATOM     73  C   UNL A   1      48.864  25.802  25.870  1.00  0.00     0.040 A 
ATOM     74  F   UNL A   1      47.587  25.870  27.839  1.00  0.00    -0.206 F 
ATOM     75  C   UNL A   1      49.045  26.154  24.533  1.00  0.00     0.006 A 
ENDBRANCH  47  68
BRANCH  59  76
ATOM     76  C   UNL A   1      45.301  32.945  29.310  1.00  0.00     0.057 A 
ATOM     77  C   UNL A   1      45.229  34.032  28.431  1.00  0.00     0.134 A 
ATOM     78  C   UNL A   1      46.120  33.073  30.439  1.00  0.00     0.134 A 
ATOM     79  F   UNL A   1      44.471  33.964  27.326  1.00  0.00    -0.206 F 
ATOM     80  C   UNL A   1      45.958  35.200  28.658  1.00  0.00     0.040 A 
ATOM     81  C   UNL A   1      46.840  34.242  30.685  1.00  0.00     0.040 A 
ATOM     82  F   UNL A   1      46.227  32.067  31.320  1.00  0.00    -0.206 F 
ATOM     83  C   UNL A   1      46.764  35.309  29.791  1.00  0.00     0.006 A 
ENDBRANCH  59  76
ENDBRANCH  33  34
ENDBRANCH  26  28
ENDBRANCH  25  26
ENDBRANCH  24  25
ENDBRANCH  23  24
ENDBRANCH   1  23
TORSDOF 16
ENDMDL
