MODEL 1
REMARK VINA RESULT:      -9.8      0.000      0.000
REMARK SMILES Cc1ccncc1[C@H](F)C(=O)OCCOC(=O)c1ccc(-c2c3nc(c(-c4c(F)cccc4F)c4ccc([nH]4)c(-c4c(F)cccc4F)c4nc(c(-c5c(F)cccc5F)c5ccc2[nH]5)C=C4)C=C3)cc1
REMARK SMILES IDX 14 1 13 2 12 3 10 4 11 5 8 6 9 7 7 8 1 9 2 10 3 11 4 12 6 13
REMARK SMILES IDX 5 14 15 15 16 16 17 17 18 18 19 19 71 20 20 21 70 22 21 23
REMARK SMILES IDX 22 24 23 25 64 26 24 27 69 28 63 29 65 30 25 31 68 32 62 33
REMARK SMILES IDX 61 34 26 36 52 37 35 38 51 39 36 40 39 41 50 42 66 43 37 44
REMARK SMILES IDX 38 45 49 47 67 48 40 49 27 50 28 51 33 52 29 53 30 54 32 55
REMARK SMILES IDX 34 56 31 57 53 58 54 59 59 60 55 61 56 62 58 63 60 64 57 65
REMARK SMILES IDX 41 66 42 67 47 68 43 69 44 70 46 71 48 72 45 73
REMARK H PARENT 65 35 39 46
REMARK Flexibility Score: inf
ROOT
ATOM      1  C   UNL A   1      32.650  36.310  29.861  1.00  0.00     0.275 C 
ENDROOT
BRANCH   1   2
ATOM      2  C   UNL A   1      33.655  35.692  28.882  1.00  0.00     0.274 C 
BRANCH   2   3
ATOM      3  O   UNL A   1      33.722  34.263  29.032  1.00  0.00    -0.460 OA
BRANCH   3   4
ATOM      4  C   UNL A   1      34.587  33.595  28.218  1.00  0.00     0.345 C 
ATOM      5  O   UNL A   1      35.153  34.098  27.251  1.00  0.00    -0.248 OA
BRANCH   4   6
ATOM      6  C   UNL A   1      34.813  32.161  28.693  1.00  0.00     0.308 C 
ATOM      7  F   UNL A   1      34.403  32.006  29.994  1.00  0.00    -0.230 F 
BRANCH   6   8
ATOM      8  C   UNL A   1      34.234  31.070  27.811  1.00  0.00     0.019 A 
ATOM      9  C   UNL A   1      36.396  29.716  27.995  1.00  0.00     0.045 C 
ATOM     10  C   UNL A   1      34.986  29.915  27.505  1.00  0.00    -0.041 A 
ATOM     11  C   UNL A   1      34.388  28.890  26.760  1.00  0.00     0.024 A 
ATOM     12  C   UNL A   1      33.098  29.067  26.294  1.00  0.00     0.111 A 
ATOM     13  C   UNL A   1      32.957  31.152  27.252  1.00  0.00     0.118 A 
ATOM     14  N   UNL A   1      32.378  30.183  26.507  1.00  0.00    -0.264 NA
ENDBRANCH   6   8
ENDBRANCH   4   6
ENDBRANCH   3   4
ENDBRANCH   2   3
ENDBRANCH   1   2
BRANCH   1  15
ATOM     15  O   UNL A   1      32.351  35.431  30.963  1.00  0.00    -0.458 OA
BRANCH  15  16
ATOM     16  C   UNL A   1      32.727  35.881  32.182  1.00  0.00     0.338 C 
ATOM     17  O   UNL A   1      32.155  36.711  32.870  1.00  0.00    -0.246 OA
BRANCH  16  18
ATOM     18  C   UNL A   1      33.881  35.112  32.676  1.00  0.00     0.060 A 
ATOM     19  C   UNL A   1      35.152  35.671  32.505  1.00  0.00     0.016 A 
ATOM     20  C   UNL A   1      33.734  33.838  33.228  1.00  0.00     0.016 A 
ATOM     21  C   UNL A   1      36.285  34.953  32.868  1.00  0.00     0.010 A 
ATOM     22  C   UNL A   1      34.875  33.118  33.598  1.00  0.00     0.010 A 
ATOM     23  C   UNL A   1      36.155  33.666  33.407  1.00  0.00    -0.014 A 
BRANCH  23  24
ATOM     24  C   UNL A   1      37.371  32.884  33.724  1.00  0.00     0.031 A 
ATOM     25  C   UNL A   1      38.116  33.142  35.001  1.00  0.00     0.074 A 
ATOM     26  C   UNL A   1      37.787  31.925  32.878  1.00  0.00     0.049 A 
ATOM     27  N   UNL A   1      39.231  32.610  35.431  1.00  0.00    -0.248 NA
ATOM     28  C   UNL A   1      37.525  34.132  35.915  1.00  0.00     0.031 C 
ATOM     29  C   UNL A   1      37.124  31.559  31.626  1.00  0.00     0.029 A 
ATOM     30  N   UNL A   1      38.872  31.088  32.942  1.00  0.00    -0.354 N 
ATOM     31  C   UNL A   1      39.487  33.211  36.656  1.00  0.00     0.074 A 
ATOM     32  C   UNL A   1      38.420  34.161  36.892  1.00  0.00     0.031 C 
ATOM     33  C   UNL A   1      37.820  30.575  31.037  1.00  0.00     0.029 A 
ATOM     34  C   UNL A   1      38.996  30.270  31.846  1.00  0.00     0.049 A 
ATOM     35  H   UNL A   1      39.500  31.075  33.700  1.00  0.00     0.167 HD
ATOM     36  C   UNL A   1      40.518  32.986  37.506  1.00  0.00     0.037 A 
ATOM     37  C   UNL A   1      39.966  29.396  31.519  1.00  0.00     0.037 A 
ATOM     38  C   UNL A   1      41.570  32.034  37.269  1.00  0.00     0.049 A 
ATOM     39  C   UNL A   1      41.124  29.199  32.455  1.00  0.00     0.074 A 
ATOM     40  C   UNL A   1      42.652  31.724  38.076  1.00  0.00     0.029 A 
ATOM     41  N   UNL A   1      41.674  31.238  36.138  1.00  0.00    -0.354 N 
ATOM     42  N   UNL A   1      41.358  29.771  33.612  1.00  0.00    -0.248 NA
ATOM     43  C   UNL A   1      42.154  28.237  32.041  1.00  0.00     0.031 C 
ATOM     44  C   UNL A   1      43.430  30.767  37.414  1.00  0.00     0.029 A 
ATOM     45  C   UNL A   1      42.812  30.451  36.215  1.00  0.00     0.049 A 
ATOM     46  H   UNL A   1      41.034  31.234  35.390  1.00  0.00     0.167 HD
ATOM     47  C   UNL A   1      42.552  29.231  34.069  1.00  0.00     0.074 A 
ATOM     48  C   UNL A   1      42.986  28.272  33.074  1.00  0.00     0.031 C 
ATOM     49  C   UNL A   1      43.230  29.506  35.211  1.00  0.00     0.037 A 
BRANCH  36  50
ATOM     50  C   UNL A   1      40.566  33.813  38.756  1.00  0.00     0.057 A 
ATOM     51  C   UNL A   1      39.881  33.440  39.920  1.00  0.00     0.134 A 
ATOM     52  C   UNL A   1      41.321  34.992  38.800  1.00  0.00     0.134 A 
ATOM     53  F   UNL A   1      39.128  32.330  39.939  1.00  0.00    -0.206 F 
ATOM     54  C   UNL A   1      39.925  34.224  41.074  1.00  0.00     0.040 A 
ATOM     55  C   UNL A   1      41.391  35.772  39.955  1.00  0.00     0.040 A 
ATOM     56  F   UNL A   1      42.004  35.405  37.721  1.00  0.00    -0.206 F 
ATOM     57  C   UNL A   1      40.684  35.392  41.095  1.00  0.00     0.006 A 
ENDBRANCH  36  50
BRANCH  37  58
ATOM     58  C   UNL A   1      39.890  28.666  30.231  1.00  0.00     0.057 A 
ATOM     59  C   UNL A   1      39.182  27.466  30.116  1.00  0.00     0.134 A 
ATOM     60  C   UNL A   1      40.517  29.161  29.080  1.00  0.00     0.134 A 
ATOM     61  F   UNL A   1      38.580  26.931  31.188  1.00  0.00    -0.206 F 
ATOM     62  C   UNL A   1      39.105  26.779  28.903  1.00  0.00     0.040 A 
ATOM     63  C   UNL A   1      40.428  28.498  27.856  1.00  0.00     0.040 A 
ATOM     64  F   UNL A   1      41.209  30.309  29.128  1.00  0.00    -0.206 F 
ATOM     65  C   UNL A   1      39.723  27.300  27.767  1.00  0.00     0.006 A 
ENDBRANCH  37  58
BRANCH  49  66
ATOM     66  C   UNL A   1      44.499  28.745  35.449  1.00  0.00     0.057 A 
ATOM     67  C   UNL A   1      45.742  29.239  35.031  1.00  0.00     0.134 A 
ATOM     68  C   UNL A   1      44.483  27.524  36.134  1.00  0.00     0.134 A 
ATOM     69  F   UNL A   1      45.822  30.397  34.358  1.00  0.00    -0.206 F 
ATOM     70  C   UNL A   1      46.923  28.533  35.269  1.00  0.00     0.040 A 
ATOM     71  C   UNL A   1      45.659  26.821  36.397  1.00  0.00     0.040 A 
ATOM     72  F   UNL A   1      43.326  27.001  36.567  1.00  0.00    -0.206 F 
ATOM     73  C   UNL A   1      46.883  27.323  35.959  1.00  0.00     0.006 A 
ENDBRANCH  49  66
ENDBRANCH  23  24
ENDBRANCH  16  18
ENDBRANCH  15  16
ENDBRANCH   1  15
TORSDOF 12
ENDMDL
MODEL 2
REMARK VINA RESULT:      -9.8      4.825      9.768
REMARK SMILES Cc1ccncc1[C@H](F)C(=O)OCCOC(=O)c1ccc(-c2c3nc(c(-c4c(F)cccc4F)c4ccc([nH]4)c(-c4c(F)cccc4F)c4nc(c(-c5c(F)cccc5F)c5ccc2[nH]5)C=C4)C=C3)cc1
REMARK SMILES IDX 14 1 13 2 12 3 10 4 11 5 8 6 9 7 7 8 1 9 2 10 3 11 4 12 6 13
REMARK SMILES IDX 5 14 15 15 16 16 17 17 18 18 19 19 71 20 20 21 70 22 21 23
REMARK SMILES IDX 22 24 23 25 64 26 24 27 69 28 63 29 65 30 25 31 68 32 62 33
REMARK SMILES IDX 61 34 26 36 52 37 35 38 51 39 36 40 39 41 50 42 66 43 37 44
REMARK SMILES IDX 38 45 49 47 67 48 40 49 27 50 28 51 33 52 29 53 30 54 32 55
REMARK SMILES IDX 34 56 31 57 53 58 54 59 59 60 55 61 56 62 58 63 60 64 57 65
REMARK SMILES IDX 41 66 42 67 47 68 43 69 44 70 46 71 48 72 45 73
REMARK H PARENT 65 35 39 46
REMARK Flexibility Score: inf
ROOT
ATOM      1  C   UNL A   1      44.006  22.438  24.381  1.00  0.00     0.275 C 
ENDROOT
BRANCH   1   2
ATOM      2  C   UNL A   1      43.771  21.337  25.422  1.00  0.00     0.274 C 
BRANCH   2   3
ATOM      3  O   UNL A   1      42.511  21.511  26.093  1.00  0.00    -0.460 OA
BRANCH   3   4
ATOM      4  C   UNL A   1      41.628  20.474  26.031  1.00  0.00     0.345 C 
ATOM      5  O   UNL A   1      41.810  19.453  25.374  1.00  0.00    -0.248 OA
BRANCH   4   6
ATOM      6  C   UNL A   1      40.413  20.715  26.925  1.00  0.00     0.308 C 
ATOM      7  F   UNL A   1      40.800  20.958  28.220  1.00  0.00    -0.230 F 
BRANCH   6   8
ATOM      8  C   UNL A   1      39.435  21.771  26.446  1.00  0.00     0.019 A 
ATOM      9  C   UNL A   1      38.217  20.047  25.002  1.00  0.00     0.045 C 
ATOM     10  C   UNL A   1      38.393  21.437  25.553  1.00  0.00    -0.041 A 
ATOM     11  C   UNL A   1      37.457  22.417  25.200  1.00  0.00     0.024 A 
ATOM     12  C   UNL A   1      37.616  23.701  25.690  1.00  0.00     0.111 A 
ATOM     13  C   UNL A   1      39.515  23.108  26.841  1.00  0.00     0.118 A 
ATOM     14  N   UNL A   1      38.635  24.072  26.485  1.00  0.00    -0.264 NA
ENDBRANCH   6   8
ENDBRANCH   4   6
ENDBRANCH   3   4
ENDBRANCH   2   3
ENDBRANCH   1   2
BRANCH   1  15
ATOM     15  O   UNL A   1      43.333  23.666  24.725  1.00  0.00    -0.458 OA
BRANCH  15  16
ATOM     16  C   UNL A   1      44.140  24.680  25.115  1.00  0.00     0.338 C 
ATOM     17  O   UNL A   1      45.209  25.002  24.624  1.00  0.00    -0.246 OA
BRANCH  16  18
ATOM     18  C   UNL A   1      43.481  25.483  26.158  1.00  0.00     0.060 A 
ATOM     19  C   UNL A   1      43.896  26.810  26.313  1.00  0.00     0.016 A 
ATOM     20  C   UNL A   1      42.531  24.931  27.020  1.00  0.00     0.016 A 
ATOM     21  C   UNL A   1      43.376  27.589  27.339  1.00  0.00     0.010 A 
ATOM     22  C   UNL A   1      42.004  25.718  28.050  1.00  0.00     0.010 A 
ATOM     23  C   UNL A   1      42.435  27.045  28.223  1.00  0.00    -0.014 A 
BRANCH  23  24
ATOM     24  C   UNL A   1      41.942  27.863  29.354  1.00  0.00     0.031 A 
ATOM     25  C   UNL A   1      42.648  27.814  30.677  1.00  0.00     0.074 A 
ATOM     26  C   UNL A   1      40.878  28.668  29.181  1.00  0.00     0.049 A 
ATOM     27  N   UNL A   1      42.338  28.404  31.803  1.00  0.00    -0.248 NA
ATOM     28  C   UNL A   1      43.865  26.990  30.740  1.00  0.00     0.031 C 
ATOM     29  C   UNL A   1      40.135  28.827  27.931  1.00  0.00     0.029 A 
ATOM     30  N   UNL A   1      40.236  29.498  30.064  1.00  0.00    -0.354 N 
ATOM     31  C   UNL A   1      43.309  28.011  32.714  1.00  0.00     0.074 A 
ATOM     32  C   UNL A   1      44.208  27.118  32.014  1.00  0.00     0.031 C 
ATOM     33  C   UNL A   1      39.133  29.698  28.129  1.00  0.00     0.029 A 
ATOM     34  C   UNL A   1      39.140  30.125  29.525  1.00  0.00     0.049 A 
ATOM     35  H   UNL A   1      40.532  29.632  30.993  1.00  0.00     0.167 HD
ATOM     36  C   UNL A   1      43.438  28.366  34.015  1.00  0.00     0.037 A 
ATOM     37  C   UNL A   1      38.227  30.928  30.102  1.00  0.00     0.037 A 
ATOM     38  C   UNL A   1      42.545  29.262  34.702  1.00  0.00     0.049 A 
ATOM     39  C   UNL A   1      38.364  31.271  31.557  1.00  0.00     0.074 A 
ATOM     40  C   UNL A   1      42.599  29.695  36.016  1.00  0.00     0.029 A 
ATOM     41  N   UNL A   1      41.434  29.861  34.129  1.00  0.00    -0.354 N 
ATOM     42  N   UNL A   1      39.286  30.895  32.411  1.00  0.00    -0.248 NA
ATOM     43  C   UNL A   1      37.333  32.147  32.132  1.00  0.00     0.031 C 
ATOM     44  C   UNL A   1      41.497  30.526  36.248  1.00  0.00     0.029 A 
ATOM     45  C   UNL A   1      40.780  30.644  35.067  1.00  0.00     0.049 A 
ATOM     46  H   UNL A   1      41.149  29.746  33.193  1.00  0.00     0.167 HD
ATOM     47  C   UNL A   1      38.956  31.496  33.617  1.00  0.00     0.074 A 
ATOM     48  C   UNL A   1      37.758  32.277  33.382  1.00  0.00     0.031 C 
ATOM     49  C   UNL A   1      39.586  31.409  34.815  1.00  0.00     0.037 A 
BRANCH  36  50
ATOM     50  C   UNL A   1      44.573  27.756  34.782  1.00  0.00     0.057 A 
ATOM     51  C   UNL A   1      45.826  28.375  34.873  1.00  0.00     0.134 A 
ATOM     52  C   UNL A   1      44.404  26.537  35.451  1.00  0.00     0.134 A 
ATOM     53  F   UNL A   1      46.058  29.537  34.241  1.00  0.00    -0.206 F 
ATOM     54  C   UNL A   1      46.878  27.791  35.580  1.00  0.00     0.040 A 
ATOM     55  C   UNL A   1      45.441  25.955  36.181  1.00  0.00     0.040 A 
ATOM     56  F   UNL A   1      43.228  25.893  35.408  1.00  0.00    -0.206 F 
ATOM     57  C   UNL A   1      46.686  26.580  36.240  1.00  0.00     0.006 A 
ENDBRANCH  36  50
BRANCH  37  58
ATOM     58  C   UNL A   1      37.089  31.438  29.299  1.00  0.00     0.057 A 
ATOM     59  C   UNL A   1      35.963  30.647  29.050  1.00  0.00     0.134 A 
ATOM     60  C   UNL A   1      37.097  32.737  28.774  1.00  0.00     0.134 A 
ATOM     61  F   UNL A   1      35.906  29.389  29.509  1.00  0.00    -0.206 F 
ATOM     62  C   UNL A   1      34.887  31.127  28.300  1.00  0.00     0.040 A 
ATOM     63  C   UNL A   1      36.020  33.237  28.043  1.00  0.00     0.040 A 
ATOM     64  F   UNL A   1      38.149  33.543  28.981  1.00  0.00    -0.206 F 
ATOM     65  C   UNL A   1      34.911  32.428  27.800  1.00  0.00     0.006 A 
ENDBRANCH  37  58
BRANCH  49  66
ATOM     66  C   UNL A   1      39.002  32.192  35.951  1.00  0.00     0.057 A 
ATOM     67  C   UNL A   1      38.142  31.601  36.887  1.00  0.00     0.134 A 
ATOM     68  C   UNL A   1      39.328  33.541  36.132  1.00  0.00     0.134 A 
ATOM     69  F   UNL A   1      37.781  30.315  36.760  1.00  0.00    -0.206 F 
ATOM     70  C   UNL A   1      37.613  32.331  37.952  1.00  0.00     0.040 A 
ATOM     71  C   UNL A   1      38.823  34.276  37.206  1.00  0.00     0.040 A 
ATOM     72  F   UNL A   1      40.151  34.164  35.275  1.00  0.00    -0.206 F 
ATOM     73  C   UNL A   1      37.958  33.672  38.116  1.00  0.00     0.006 A 
ENDBRANCH  49  66
ENDBRANCH  23  24
ENDBRANCH  16  18
ENDBRANCH  15  16
ENDBRANCH   1  15
TORSDOF 12
ENDMDL
MODEL 3
REMARK VINA RESULT:      -9.6      0.328      6.518
REMARK SMILES Cc1ccncc1[C@H](F)C(=O)OCCOC(=O)c1ccc(-c2c3nc(c(-c4c(F)cccc4F)c4ccc([nH]4)c(-c4c(F)cccc4F)c4nc(c(-c5c(F)cccc5F)c5ccc2[nH]5)C=C4)C=C3)cc1
REMARK SMILES IDX 14 1 13 2 12 3 10 4 11 5 8 6 9 7 7 8 1 9 2 10 3 11 4 12 6 13
REMARK SMILES IDX 5 14 15 15 16 16 17 17 18 18 19 19 71 20 20 21 70 22 21 23
REMARK SMILES IDX 22 24 23 25 64 26 24 27 69 28 63 29 65 30 25 31 68 32 62 33
REMARK SMILES IDX 61 34 26 36 52 37 35 38 51 39 36 40 39 41 50 42 66 43 37 44
REMARK SMILES IDX 38 45 49 47 67 48 40 49 27 50 28 51 33 52 29 53 30 54 32 55
REMARK SMILES IDX 34 56 31 57 53 58 54 59 59 60 55 61 56 62 58 63 60 64 57 65
REMARK SMILES IDX 41 66 42 67 47 68 43 69 44 70 46 71 48 72 45 73
REMARK H PARENT 65 35 39 46
REMARK Flexibility Score: inf
ROOT
ATOM      1  C   UNL A   1      32.872  36.089  29.809  1.00  0.00     0.275 C 
ENDROOT
BRANCH   1   2
ATOM      2  C   UNL A   1      33.938  35.481  28.891  1.00  0.00     0.274 C 
BRANCH   2   3
ATOM      3  O   UNL A   1      34.191  34.104  29.222  1.00  0.00    -0.460 OA
BRANCH   3   4
ATOM      4  C   UNL A   1      34.937  33.382  28.340  1.00  0.00     0.345 C 
ATOM      5  O   UNL A   1      35.466  33.853  27.337  1.00  0.00    -0.248 OA
BRANCH   4   6
ATOM      6  C   UNL A   1      35.085  31.928  28.784  1.00  0.00     0.308 C 
ATOM      7  F   UNL A   1      34.659  31.767  30.080  1.00  0.00    -0.230 F 
BRANCH   6   8
ATOM      8  C   UNL A   1      34.454  30.888  27.876  1.00  0.00     0.019 A 
ATOM      9  C   UNL A   1      36.559  29.440  28.004  1.00  0.00     0.045 C 
ATOM     10  C   UNL A   1      35.155  29.712  27.532  1.00  0.00    -0.041 A 
ATOM     11  C   UNL A   1      34.510  28.735  26.763  1.00  0.00     0.024 A 
ATOM     12  C   UNL A   1      33.225  28.978  26.313  1.00  0.00     0.111 A 
ATOM     13  C   UNL A   1      33.178  31.039  27.330  1.00  0.00     0.118 A 
ATOM     14  N   UNL A   1      32.554  30.117  26.562  1.00  0.00    -0.264 NA
ENDBRANCH   6   8
ENDBRANCH   4   6
ENDBRANCH   3   4
ENDBRANCH   2   3
ENDBRANCH   1   2
BRANCH   1  15
ATOM     15  O   UNL A   1      32.508  35.202  30.886  1.00  0.00    -0.458 OA
BRANCH  15  16
ATOM     16  C   UNL A   1      32.796  35.650  32.129  1.00  0.00     0.338 C 
ATOM     17  O   UNL A   1      32.129  36.411  32.812  1.00  0.00    -0.246 OA
BRANCH  16  18
ATOM     18  C   UNL A   1      33.992  34.971  32.653  1.00  0.00     0.060 A 
ATOM     19  C   UNL A   1      35.226  35.607  32.481  1.00  0.00     0.016 A 
ATOM     20  C   UNL A   1      33.922  33.703  33.233  1.00  0.00     0.016 A 
ATOM     21  C   UNL A   1      36.399  34.973  32.872  1.00  0.00     0.010 A 
ATOM     22  C   UNL A   1      35.103  33.067  33.631  1.00  0.00     0.010 A 
ATOM     23  C   UNL A   1      36.347  33.693  33.440  1.00  0.00    -0.014 A 
BRANCH  23  24
ATOM     24  C   UNL A   1      37.608  33.000  33.788  1.00  0.00     0.031 A 
ATOM     25  C   UNL A   1      38.169  31.958  32.864  1.00  0.00     0.074 A 
ATOM     26  C   UNL A   1      38.259  33.328  34.917  1.00  0.00     0.049 A 
ATOM     27  N   UNL A   1      39.222  31.198  33.017  1.00  0.00    -0.248 NA
ATOM     28  C   UNL A   1      37.446  31.746  31.600  1.00  0.00     0.031 C 
ATOM     29  C   UNL A   1      37.830  34.350  35.872  1.00  0.00     0.029 A 
ATOM     30  N   UNL A   1      39.418  32.829  35.455  1.00  0.00    -0.354 N 
ATOM     31  C   UNL A   1      39.281  30.403  31.880  1.00  0.00     0.074 A 
ATOM     32  C   UNL A   1      38.147  30.762  31.055  1.00  0.00     0.031 C 
ATOM     33  C   UNL A   1      38.712  34.398  36.883  1.00  0.00     0.029 A 
ATOM     34  C   UNL A   1      39.742  33.386  36.667  1.00  0.00     0.049 A 
ATOM     35  H   UNL A   1      39.965  32.139  35.014  1.00  0.00     0.167 HD
ATOM     36  C   UNL A   1      40.201  29.463  31.556  1.00  0.00     0.037 A 
ATOM     37  C   UNL A   1      40.740  33.090  37.521  1.00  0.00     0.037 A 
ATOM     38  C   UNL A   1      41.331  29.118  32.378  1.00  0.00     0.049 A 
ATOM     39  C   UNL A   1      41.720  32.011  37.161  1.00  0.00     0.074 A 
ATOM     40  C   UNL A   1      42.327  28.188  32.130  1.00  0.00     0.029 A 
ATOM     41  N   UNL A   1      41.614  29.689  33.609  1.00  0.00    -0.354 N 
ATOM     42  N   UNL A   1      41.768  31.265  36.084  1.00  0.00    -0.248 NA
ATOM     43  C   UNL A   1      42.783  31.729  38.136  1.00  0.00     0.031 C 
ATOM     44  C   UNL A   1      43.191  28.170  33.230  1.00  0.00     0.029 A 
ATOM     45  C   UNL A   1      42.757  29.118  34.144  1.00  0.00     0.049 A 
ATOM     46  H   UNL A   1      41.081  30.395  34.040  1.00  0.00     0.167 HD
ATOM     47  C   UNL A   1      42.870  30.436  36.244  1.00  0.00     0.074 A 
ATOM     48  C   UNL A   1      43.473  30.783  37.515  1.00  0.00     0.031 C 
ATOM     49  C   UNL A   1      43.340  29.473  35.414  1.00  0.00     0.037 A 
BRANCH  36  50
ATOM     50  C   UNL A   1      39.997  28.723  30.268  1.00  0.00     0.057 A 
ATOM     51  C   UNL A   1      39.237  27.548  30.199  1.00  0.00     0.134 A 
ATOM     52  C   UNL A   1      40.558  29.200  29.076  1.00  0.00     0.134 A 
ATOM     53  F   UNL A   1      38.686  27.029  31.307  1.00  0.00    -0.206 F 
ATOM     54  C   UNL A   1      39.065  26.861  28.996  1.00  0.00     0.040 A 
ATOM     55  C   UNL A   1      40.374  28.535  27.864  1.00  0.00     0.040 A 
ATOM     56  F   UNL A   1      41.295  30.322  29.072  1.00  0.00    -0.206 F 
ATOM     57  C   UNL A   1      39.630  27.356  27.824  1.00  0.00     0.006 A 
ENDBRANCH  36  50
BRANCH  37  58
ATOM     58  C   UNL A   1      40.838  33.814  38.812  1.00  0.00     0.057 A 
ATOM     59  C   UNL A   1      40.085  33.423  39.924  1.00  0.00     0.134 A 
ATOM     60  C   UNL A   1      41.699  34.908  38.965  1.00  0.00     0.134 A 
ATOM     61  F   UNL A   1      39.228  32.397  39.832  1.00  0.00    -0.206 F 
ATOM     62  C   UNL A   1      40.180  34.099  41.142  1.00  0.00     0.040 A 
ATOM     63  C   UNL A   1      41.821  35.578  40.182  1.00  0.00     0.040 A 
ATOM     64  F   UNL A   1      42.447  35.329  37.934  1.00  0.00    -0.206 F 
ATOM     65  C   UNL A   1      41.056  35.176  41.275  1.00  0.00     0.006 A 
ENDBRANCH  37  58
BRANCH  49  66
ATOM     66  C   UNL A   1      44.574  28.742  35.848  1.00  0.00     0.057 A 
ATOM     67  C   UNL A   1      45.856  29.201  35.515  1.00  0.00     0.134 A 
ATOM     68  C   UNL A   1      44.483  27.587  36.633  1.00  0.00     0.134 A 
ATOM     69  F   UNL A   1      46.010  30.295  34.753  1.00  0.00    -0.206 F 
ATOM     70  C   UNL A   1      47.003  28.525  35.935  1.00  0.00     0.040 A 
ATOM     71  C   UNL A   1      45.622  26.915  37.077  1.00  0.00     0.040 A 
ATOM     72  F   UNL A   1      43.285  27.100  36.991  1.00  0.00    -0.206 F 
ATOM     73  C   UNL A   1      46.887  27.381  36.723  1.00  0.00     0.006 A 
ENDBRANCH  49  66
ENDBRANCH  23  24
ENDBRANCH  16  18
ENDBRANCH  15  16
ENDBRANCH   1  15
TORSDOF 12
ENDMDL
