MODEL 1
REMARK VINA RESULT:     -11.4      0.000      0.000
REMARK SMILES CC(=O)Nc1ccc2sc(C(=O)OCCOC(=O)c3ccc(-c4c5nc(c(-c6c(F)cccc6F)c6ccc([nH]6)c(-c6c(F)cccc6F)c6nc(c(-c7c(F)cccc7F)c7ccc4[nH]7)C=C6)C=C5)cc3)cc2c1
REMARK SMILES IDX 15 1 14 2 13 3 11 4 12 5 10 6 5 7 6 8 75 9 7 10 74 11 8 12
REMARK SMILES IDX 73 13 9 14 4 15 1 16 2 17 3 18 16 20 17 21 18 22 19 23 20 24
REMARK SMILES IDX 72 25 21 26 71 27 22 28 23 29 24 30 65 31 25 32 70 33 64 34
REMARK SMILES IDX 66 35 26 36 69 37 63 38 62 39 27 41 53 42 36 43 52 44 37 45
REMARK SMILES IDX 40 46 51 47 67 48 38 49 39 50 50 52 68 53 41 54 28 55 29 56
REMARK SMILES IDX 34 57 30 58 31 59 33 60 35 61 32 62 54 63 55 64 60 65 56 66
REMARK SMILES IDX 57 67 59 68 61 69 58 70 42 71 43 72 48 73 44 74 45 75 47 76
REMARK SMILES IDX 49 77 46 78
REMARK H PARENT 4 19 66 40 40 51
REMARK Flexibility Score: inf
ROOT
ATOM      1  C   UNL A   1      43.496  21.583  25.490  1.00  0.00     0.275 C 
ENDROOT
BRANCH   1   2
ATOM      2  C   UNL A   1      42.399  20.676  26.055  1.00  0.00     0.275 C 
BRANCH   2   3
ATOM      3  O   UNL A   1      41.085  21.133  25.677  1.00  0.00    -0.458 OA
BRANCH   3   4
ATOM      4  C   UNL A   1      40.252  21.436  26.714  1.00  0.00     0.348 C 
ATOM      5  O   UNL A   1      40.562  21.347  27.895  1.00  0.00    -0.245 OA
BRANCH   4   6
ATOM      6  C   UNL A   1      38.995  21.999  26.259  1.00  0.00     0.113 A 
ATOM      7  C   UNL A   1      34.900  22.804  23.977  1.00  0.00     0.041 A 
ATOM      8  C   UNL A   1      35.027  24.085  24.506  1.00  0.00     0.027 A 
ATOM      9  C   UNL A   1      35.828  21.821  24.318  1.00  0.00     0.035 A 
ATOM     10  C   UNL A   1      36.076  24.404  25.381  1.00  0.00     0.022 A 
ATOM     11  C   UNL A   1      36.954  22.151  25.103  1.00  0.00    -0.005 A 
ATOM     12  C   UNL A   1      37.044  23.423  25.666  1.00  0.00     0.035 A 
ATOM     13  C   UNL A   1      38.122  21.391  25.380  1.00  0.00     0.036 A 
ATOM     14  S   UNL A   1      38.434  23.551  26.688  1.00  0.00    -0.128 S 
BRANCH   7  15
ATOM     15  N   UNL A   1      33.863  22.423  23.117  1.00  0.00    -0.326 N 
ATOM     16  C   UNL A   1      32.266  21.652  24.847  1.00  0.00     0.114 C 
ATOM     17  C   UNL A   1      32.689  21.784  23.408  1.00  0.00     0.221 C 
ATOM     18  O   UNL A   1      31.957  21.411  22.491  1.00  0.00    -0.275 OA
ATOM     19  H   UNL A   1      33.996  22.648  22.168  1.00  0.00     0.169 HD
ENDBRANCH   7  15
ENDBRANCH   4   6
ENDBRANCH   3   4
ENDBRANCH   2   3
ENDBRANCH   1   2
BRANCH   1  20
ATOM     20  O   UNL A   1      42.932  22.771  24.898  1.00  0.00    -0.458 OA
BRANCH  20  21
ATOM     21  C   UNL A   1      43.669  23.896  25.040  1.00  0.00     0.338 C 
ATOM     22  O   UNL A   1      44.698  24.189  24.454  1.00  0.00    -0.246 OA
BRANCH  21  23
ATOM     23  C   UNL A   1      43.010  24.824  25.970  1.00  0.00     0.060 A 
ATOM     24  C   UNL A   1      43.430  26.149  25.972  1.00  0.00     0.016 A 
ATOM     25  C   UNL A   1      42.135  24.371  26.953  1.00  0.00     0.016 A 
ATOM     26  C   UNL A   1      43.073  27.005  27.009  1.00  0.00     0.010 A 
ATOM     27  C   UNL A   1      41.686  25.264  27.937  1.00  0.00     0.010 A 
ATOM     28  C   UNL A   1      42.180  26.582  28.002  1.00  0.00    -0.014 A 
BRANCH  28  29
ATOM     29  C   UNL A   1      41.800  27.504  29.112  1.00  0.00     0.031 A 
ATOM     30  C   UNL A   1      42.599  27.528  30.391  1.00  0.00     0.074 A 
ATOM     31  C   UNL A   1      40.753  28.344  28.975  1.00  0.00     0.049 A 
ATOM     32  N   UNL A   1      42.332  28.131  31.524  1.00  0.00    -0.248 NA
ATOM     33  C   UNL A   1      43.857  26.767  30.402  1.00  0.00     0.031 C 
ATOM     34  C   UNL A   1      39.917  28.473  27.779  1.00  0.00     0.029 A 
ATOM     35  N   UNL A   1      40.211  29.253  29.851  1.00  0.00    -0.354 N 
ATOM     36  C   UNL A   1      43.357  27.778  32.395  1.00  0.00     0.074 A 
ATOM     37  C   UNL A   1      44.247  26.903  31.662  1.00  0.00     0.031 C 
ATOM     38  C   UNL A   1      38.997  29.426  27.982  1.00  0.00     0.029 A 
ATOM     39  C   UNL A   1      39.109  29.909  29.352  1.00  0.00     0.049 A 
ATOM     40  H   UNL A   1      40.576  29.420  30.749  1.00  0.00     0.167 HD
ATOM     41  C   UNL A   1      43.540  28.149  33.685  1.00  0.00     0.037 A 
ATOM     42  C   UNL A   1      38.252  30.765  29.941  1.00  0.00     0.037 A 
ATOM     43  C   UNL A   1      42.681  29.060  34.398  1.00  0.00     0.049 A 
ATOM     44  C   UNL A   1      38.445  31.120  31.387  1.00  0.00     0.074 A 
ATOM     45  C   UNL A   1      42.792  29.509  35.704  1.00  0.00     0.029 A 
ATOM     46  N   UNL A   1      41.558  29.672  33.862  1.00  0.00    -0.354 N 
ATOM     47  N   UNL A   1      39.390  30.741  32.212  1.00  0.00    -0.248 NA
ATOM     48  C   UNL A   1      37.442  32.009  31.990  1.00  0.00     0.031 C 
ATOM     49  C   UNL A   1      41.714  30.360  35.970  1.00  0.00     0.029 A 
ATOM     50  C   UNL A   1      40.959  30.480  34.815  1.00  0.00     0.049 A 
ATOM     51  H   UNL A   1      41.234  29.551  32.940  1.00  0.00     0.167 HD
ATOM     52  C   UNL A   1      39.108  31.359  33.422  1.00  0.00     0.074 A 
ATOM     53  C   UNL A   1      37.914  32.152  33.220  1.00  0.00     0.031 C 
ATOM     54  C   UNL A   1      39.776  31.273  34.598  1.00  0.00     0.037 A 
BRANCH  41  55
ATOM     55  C   UNL A   1      44.697  27.546  34.429  1.00  0.00     0.057 A 
ATOM     56  C   UNL A   1      45.946  28.176  34.509  1.00  0.00     0.134 A 
ATOM     57  C   UNL A   1      44.543  26.334  35.116  1.00  0.00     0.134 A 
ATOM     58  F   UNL A   1      46.165  29.332  33.865  1.00  0.00    -0.206 F 
ATOM     59  C   UNL A   1      47.004  27.611  35.225  1.00  0.00     0.040 A 
ATOM     60  C   UNL A   1      45.584  25.774  35.858  1.00  0.00     0.040 A 
ATOM     61  F   UNL A   1      43.371  25.681  35.090  1.00  0.00    -0.206 F 
ATOM     62  C   UNL A   1      46.823  26.410  35.908  1.00  0.00     0.006 A 
ENDBRANCH  41  55
BRANCH  42  63
ATOM     63  C   UNL A   1      37.098  31.305  29.175  1.00  0.00     0.057 A 
ATOM     64  C   UNL A   1      37.108  32.612  28.674  1.00  0.00     0.134 A 
ATOM     65  C   UNL A   1      35.955  30.532  28.934  1.00  0.00     0.134 A 
ATOM     66  F   UNL A   1      38.163  33.410  28.894  1.00  0.00    -0.206 F 
ATOM     67  C   UNL A   1      36.019  33.134  27.974  1.00  0.00     0.040 A 
ATOM     68  C   UNL A   1      34.873  31.031  28.208  1.00  0.00     0.040 A 
ATOM     69  F   UNL A   1      35.882  29.271  29.386  1.00  0.00    -0.206 F 
ATOM     70  C   UNL A   1      34.900  32.339  27.733  1.00  0.00     0.006 A 
ENDBRANCH  42  63
BRANCH  54  71
ATOM     71  C   UNL A   1      39.254  32.090  35.743  1.00  0.00     0.057 A 
ATOM     72  C   UNL A   1      39.634  33.424  35.934  1.00  0.00     0.134 A 
ATOM     73  C   UNL A   1      38.337  31.541  36.648  1.00  0.00     0.134 A 
ATOM     74  F   UNL A   1      40.520  34.004  35.111  1.00  0.00    -0.206 F 
ATOM     75  C   UNL A   1      39.137  34.177  37.000  1.00  0.00     0.040 A 
ATOM     76  C   UNL A   1      37.814  32.291  37.701  1.00  0.00     0.040 A 
ATOM     77  F   UNL A   1      37.927  30.270  36.516  1.00  0.00    -0.206 F 
ATOM     78  C   UNL A   1      38.220  33.611  37.884  1.00  0.00     0.006 A 
ENDBRANCH  54  71
ENDBRANCH  28  29
ENDBRANCH  21  23
ENDBRANCH  20  21
ENDBRANCH   1  20
TORSDOF 12
ENDMDL
MODEL 2
REMARK VINA RESULT:     -11.3      4.816     10.390
REMARK SMILES CC(=O)Nc1ccc2sc(C(=O)OCCOC(=O)c3ccc(-c4c5nc(c(-c6c(F)cccc6F)c6ccc([nH]6)c(-c6c(F)cccc6F)c6nc(c(-c7c(F)cccc7F)c7ccc4[nH]7)C=C6)C=C5)cc3)cc2c1
REMARK SMILES IDX 15 1 14 2 13 3 11 4 12 5 10 6 5 7 6 8 75 9 7 10 74 11 8 12
REMARK SMILES IDX 73 13 9 14 4 15 1 16 2 17 3 18 16 20 17 21 18 22 19 23 20 24
REMARK SMILES IDX 72 25 21 26 71 27 22 28 23 29 24 30 65 31 25 32 70 33 64 34
REMARK SMILES IDX 66 35 26 36 69 37 63 38 62 39 27 41 53 42 36 43 52 44 37 45
REMARK SMILES IDX 40 46 51 47 67 48 38 49 39 50 50 52 68 53 41 54 28 55 29 56
REMARK SMILES IDX 34 57 30 58 31 59 33 60 35 61 32 62 54 63 55 64 60 65 56 66
REMARK SMILES IDX 57 67 59 68 61 69 58 70 42 71 43 72 48 73 44 74 45 75 47 76
REMARK SMILES IDX 49 77 46 78
REMARK H PARENT 4 19 66 40 40 51
REMARK Flexibility Score: inf
ROOT
ATOM      1  C   UNL A   1      33.164  35.842  29.835  1.00  0.00     0.275 C 
ENDROOT
BRANCH   1   2
ATOM      2  C   UNL A   1      33.295  36.078  31.342  1.00  0.00     0.275 C 
BRANCH   2   3
ATOM      3  O   UNL A   1      34.662  35.947  31.782  1.00  0.00    -0.458 OA
BRANCH   3   4
ATOM      4  C   UNL A   1      34.825  35.725  33.118  1.00  0.00     0.348 C 
ATOM      5  O   UNL A   1      34.248  36.352  33.996  1.00  0.00    -0.245 OA
BRANCH   4   6
ATOM      6  C   UNL A   1      35.665  34.571  33.382  1.00  0.00     0.113 A 
ATOM      7  C   UNL A   1      37.497  30.185  33.543  1.00  0.00     0.041 A 
ATOM      8  C   UNL A   1      38.259  30.700  34.587  1.00  0.00     0.027 A 
ATOM      9  C   UNL A   1      36.641  31.026  32.832  1.00  0.00     0.035 A 
ATOM     10  C   UNL A   1      38.182  32.057  34.936  1.00  0.00     0.022 A 
ATOM     11  C   UNL A   1      36.462  32.365  33.242  1.00  0.00    -0.005 A 
ATOM     12  C   UNL A   1      37.267  32.881  34.256  1.00  0.00     0.035 A 
ATOM     13  C   UNL A   1      35.496  33.321  32.825  1.00  0.00     0.036 A 
ATOM     14  S   UNL A   1      36.959  34.568  34.492  1.00  0.00    -0.128 S 
BRANCH   7  15
ATOM     15  N   UNL A   1      37.549  28.846  33.136  1.00  0.00    -0.326 N 
ATOM     16  C   UNL A   1      39.990  28.717  32.735  1.00  0.00     0.114 C 
ATOM     17  C   UNL A   1      38.606  28.134  32.639  1.00  0.00     0.221 C 
ATOM     18  O   UNL A   1      38.421  26.995  32.209  1.00  0.00    -0.275 OA
ATOM     19  H   UNL A   1      36.706  28.346  33.221  1.00  0.00     0.169 HD
ENDBRANCH   7  15
ENDBRANCH   4   6
ENDBRANCH   3   4
ENDBRANCH   2   3
ENDBRANCH   1   2
BRANCH   1  20
ATOM     20  O   UNL A   1      32.544  34.569  29.562  1.00  0.00    -0.458 OA
BRANCH  20  21
ATOM     21  C   UNL A   1      32.902  33.988  28.394  1.00  0.00     0.338 C 
ATOM     22  O   UNL A   1      32.281  33.980  27.345  1.00  0.00    -0.246 OA
BRANCH  21  23
ATOM     23  C   UNL A   1      34.246  33.401  28.508  1.00  0.00     0.060 A 
ATOM     24  C   UNL A   1      34.395  32.267  29.296  1.00  0.00     0.016 A 
ATOM     25  C   UNL A   1      35.370  34.055  28.010  1.00  0.00     0.016 A 
ATOM     26  C   UNL A   1      35.659  31.835  29.687  1.00  0.00     0.010 A 
ATOM     27  C   UNL A   1      36.645  33.555  28.314  1.00  0.00     0.010 A 
ATOM     28  C   UNL A   1      36.808  32.463  29.189  1.00  0.00    -0.014 A 
BRANCH  28  29
ATOM     29  C   UNL A   1      38.160  31.997  29.612  1.00  0.00     0.031 A 
ATOM     30  C   UNL A   1      38.702  30.679  29.117  1.00  0.00     0.074 A 
ATOM     31  C   UNL A   1      38.925  32.758  30.422  1.00  0.00     0.049 A 
ATOM     32  N   UNL A   1      39.773  30.026  29.498  1.00  0.00    -0.248 NA
ATOM     33  C   UNL A   1      37.934  30.000  28.062  1.00  0.00     0.031 C 
ATOM     34  C   UNL A   1      38.560  34.079  30.941  1.00  0.00     0.029 A 
ATOM     35  N   UNL A   1      40.173  32.533  30.952  1.00  0.00    -0.354 N 
ATOM     36  C   UNL A   1      39.776  28.840  28.771  1.00  0.00     0.074 A 
ATOM     37  C   UNL A   1      38.597  28.859  27.932  1.00  0.00     0.031 C 
ATOM     38  C   UNL A   1      39.570  34.558  31.680  1.00  0.00     0.029 A 
ATOM     39  C   UNL A   1      40.614  33.546  31.772  1.00  0.00     0.049 A 
ATOM     40  H   UNL A   1      40.701  31.725  30.762  1.00  0.00     0.167 HD
ATOM     41  C   UNL A   1      40.679  27.830  28.801  1.00  0.00     0.037 A 
ATOM     42  C   UNL A   1      41.708  33.634  32.553  1.00  0.00     0.037 A 
ATOM     43  C   UNL A   1      41.878  27.834  29.599  1.00  0.00     0.049 A 
ATOM     44  C   UNL A   1      42.666  32.479  32.609  1.00  0.00     0.074 A 
ATOM     45  C   UNL A   1      42.861  26.863  29.685  1.00  0.00     0.029 A 
ATOM     46  N   UNL A   1      42.264  28.867  30.440  1.00  0.00    -0.354 N 
ATOM     47  N   UNL A   1      42.631  31.344  31.954  1.00  0.00    -0.248 NA
ATOM     48  C   UNL A   1      43.807  32.610  33.525  1.00  0.00     0.031 C 
ATOM     49  C   UNL A   1      43.821  27.290  30.608  1.00  0.00     0.029 A 
ATOM     50  C   UNL A   1      43.462  28.548  31.061  1.00  0.00     0.049 A 
ATOM     51  H   UNL A   1      41.763  29.702  30.576  1.00  0.00     0.167 HD
ATOM     52  C   UNL A   1      43.752  30.635  32.364  1.00  0.00     0.074 A 
ATOM     53  C   UNL A   1      44.457  31.475  33.310  1.00  0.00     0.031 C 
ATOM     54  C   UNL A   1      44.158  29.397  31.993  1.00  0.00     0.037 A 
BRANCH  41  55
ATOM     55  C   UNL A   1      40.391  26.612  27.969  1.00  0.00     0.057 A 
ATOM     56  C   UNL A   1      39.509  25.609  28.390  1.00  0.00     0.134 A 
ATOM     57  C   UNL A   1      40.974  26.466  26.703  1.00  0.00     0.134 A 
ATOM     58  F   UNL A   1      38.926  25.680  29.596  1.00  0.00    -0.206 F 
ATOM     59  C   UNL A   1      39.236  24.495  27.593  1.00  0.00     0.040 A 
ATOM     60  C   UNL A   1      40.688  25.371  25.885  1.00  0.00     0.040 A 
ATOM     61  F   UNL A   1      41.822  27.393  26.233  1.00  0.00    -0.206 F 
ATOM     62  C   UNL A   1      39.820  24.377  26.333  1.00  0.00     0.006 A 
ENDBRANCH  41  55
BRANCH  42  63
ATOM     63  C   UNL A   1      41.928  34.843  33.389  1.00  0.00     0.057 A 
ATOM     64  C   UNL A   1      42.760  35.881  32.955  1.00  0.00     0.134 A 
ATOM     65  C   UNL A   1      41.320  34.985  34.643  1.00  0.00     0.134 A 
ATOM     66  F   UNL A   1      43.391  35.793  31.776  1.00  0.00    -0.206 F 
ATOM     67  C   UNL A   1      42.991  37.010  33.744  1.00  0.00     0.040 A 
ATOM     68  C   UNL A   1      41.517  36.122  35.427  1.00  0.00     0.040 A 
ATOM     69  F   UNL A   1      40.510  34.027  35.116  1.00  0.00    -0.206 F 
ATOM     70  C   UNL A   1      42.362  37.136  34.982  1.00  0.00     0.006 A 
ENDBRANCH  42  63
BRANCH  54  71
ATOM     71  C   UNL A   1      45.445  28.895  32.579  1.00  0.00     0.057 A 
ATOM     72  C   UNL A   1      46.684  29.165  31.985  1.00  0.00     0.134 A 
ATOM     73  C   UNL A   1      45.444  28.158  33.769  1.00  0.00     0.134 A 
ATOM     74  F   UNL A   1      46.753  29.853  30.836  1.00  0.00    -0.206 F 
ATOM     75  C   UNL A   1      47.876  28.698  32.543  1.00  0.00     0.040 A 
ATOM     76  C   UNL A   1      46.629  27.707  34.349  1.00  0.00     0.040 A 
ATOM     77  F   UNL A   1      44.290  27.871  34.392  1.00  0.00    -0.206 F 
ATOM     78  C   UNL A   1      47.850  27.971  33.732  1.00  0.00     0.006 A 
ENDBRANCH  54  71
ENDBRANCH  28  29
ENDBRANCH  21  23
ENDBRANCH  20  21
ENDBRANCH   1  20
TORSDOF 12
ENDMDL
MODEL 3
REMARK VINA RESULT:     -11.2      5.317     10.084
REMARK SMILES CC(=O)Nc1ccc2sc(C(=O)OCCOC(=O)c3ccc(-c4c5nc(c(-c6c(F)cccc6F)c6ccc([nH]6)c(-c6c(F)cccc6F)c6nc(c(-c7c(F)cccc7F)c7ccc4[nH]7)C=C6)C=C5)cc3)cc2c1
REMARK SMILES IDX 15 1 14 2 13 3 11 4 12 5 10 6 5 7 6 8 75 9 7 10 74 11 8 12
REMARK SMILES IDX 73 13 9 14 4 15 1 16 2 17 3 18 16 20 17 21 18 22 19 23 20 24
REMARK SMILES IDX 72 25 21 26 71 27 22 28 23 29 24 30 65 31 25 32 70 33 64 34
REMARK SMILES IDX 66 35 26 36 69 37 63 38 62 39 27 41 53 42 36 43 52 44 37 45
REMARK SMILES IDX 40 46 51 47 67 48 38 49 39 50 50 52 68 53 41 54 28 55 29 56
REMARK SMILES IDX 34 57 30 58 31 59 33 60 35 61 32 62 54 63 55 64 60 65 56 66
REMARK SMILES IDX 57 67 59 68 61 69 58 70 42 71 43 72 48 73 44 74 45 75 47 76
REMARK SMILES IDX 49 77 46 78
REMARK H PARENT 4 19 66 40 40 51
REMARK Flexibility Score: inf
ROOT
ATOM      1  C   UNL A   1      34.397  33.750  31.310  1.00  0.00     0.275 C 
ENDROOT
BRANCH   1   2
ATOM      2  C   UNL A   1      34.118  33.996  29.824  1.00  0.00     0.275 C 
BRANCH   2   3
ATOM      3  O   UNL A   1      33.721  32.784  29.151  1.00  0.00    -0.458 OA
BRANCH   3   4
ATOM      4  C   UNL A   1      34.457  32.462  28.049  1.00  0.00     0.348 C 
ATOM      5  O   UNL A   1      35.407  33.116  27.639  1.00  0.00    -0.245 OA
BRANCH   4   6
ATOM      6  C   UNL A   1      34.068  31.183  27.485  1.00  0.00     0.113 A 
ATOM      7  C   UNL A   1      31.599  27.519  25.725  1.00  0.00     0.041 A 
ATOM      8  C   UNL A   1      32.765  26.802  25.975  1.00  0.00     0.027 A 
ATOM      9  C   UNL A   1      31.571  28.895  25.950  1.00  0.00     0.035 A 
ATOM     10  C   UNL A   1      33.919  27.445  26.448  1.00  0.00     0.022 A 
ATOM     11  C   UNL A   1      32.683  29.539  26.535  1.00  0.00    -0.005 A 
ATOM     12  C   UNL A   1      33.861  28.821  26.734  1.00  0.00     0.035 A 
ATOM     13  C   UNL A   1      32.798  30.857  27.056  1.00  0.00     0.036 A 
ATOM     14  S   UNL A   1      35.117  29.848  27.336  1.00  0.00    -0.128 S 
BRANCH   7  15
ATOM     15  N   UNL A   1      30.425  26.936  25.232  1.00  0.00    -0.326 N 
ATOM     16  C   UNL A   1      30.846  27.330  22.823  1.00  0.00     0.114 C 
ATOM     17  C   UNL A   1      29.943  26.911  23.952  1.00  0.00     0.221 C 
ATOM     18  O   UNL A   1      28.818  26.461  23.736  1.00  0.00    -0.275 OA
ATOM     19  H   UNL A   1      29.867  26.477  25.902  1.00  0.00     0.169 HD
ENDBRANCH   7  15
ENDBRANCH   4   6
ENDBRANCH   3   4
ENDBRANCH   2   3
ENDBRANCH   1   2
BRANCH   1  20
ATOM     20  O   UNL A   1      34.606  32.347  31.572  1.00  0.00    -0.458 OA
BRANCH  20  21
ATOM     21  C   UNL A   1      35.622  32.060  32.417  1.00  0.00     0.338 C 
ATOM     22  O   UNL A   1      35.678  32.281  33.615  1.00  0.00    -0.246 OA
BRANCH  21  23
ATOM     23  C   UNL A   1      36.684  31.330  31.709  1.00  0.00     0.060 A 
ATOM     24  C   UNL A   1      37.639  30.670  32.472  1.00  0.00     0.016 A 
ATOM     25  C   UNL A   1      36.853  31.445  30.332  1.00  0.00     0.016 A 
ATOM     26  C   UNL A   1      38.819  30.216  31.894  1.00  0.00     0.010 A 
ATOM     27  C   UNL A   1      37.992  30.890  29.731  1.00  0.00     0.010 A 
ATOM     28  C   UNL A   1      39.010  30.304  30.508  1.00  0.00    -0.014 A 
BRANCH  28  29
ATOM     29  C   UNL A   1      40.278  29.815  29.893  1.00  0.00     0.031 A 
ATOM     30  C   UNL A   1      41.462  30.738  29.751  1.00  0.00     0.074 A 
ATOM     31  C   UNL A   1      40.389  28.536  29.479  1.00  0.00     0.049 A 
ATOM     32  N   UNL A   1      42.584  30.554  29.099  1.00  0.00    -0.248 NA
ATOM     33  C   UNL A   1      41.370  32.044  30.421  1.00  0.00     0.031 C 
ATOM     34  C   UNL A   1      39.350  27.510  29.597  1.00  0.00     0.029 A 
ATOM     35  N   UNL A   1      41.432  27.874  28.875  1.00  0.00    -0.354 N 
ATOM     36  C   UNL A   1      43.304  31.737  29.234  1.00  0.00     0.074 A 
ATOM     37  C   UNL A   1      42.489  32.634  30.025  1.00  0.00     0.031 C 
ATOM     38  C   UNL A   1      39.816  26.349  29.118  1.00  0.00     0.029 A 
ATOM     39  C   UNL A   1      41.149  26.563  28.568  1.00  0.00     0.049 A 
ATOM     40  H   UNL A   1      42.299  28.298  28.680  1.00  0.00     0.167 HD
ATOM     41  C   UNL A   1      44.530  32.044  28.746  1.00  0.00     0.037 A 
ATOM     42  C   UNL A   1      41.855  25.647  27.879  1.00  0.00     0.037 A 
ATOM     43  C   UNL A   1      45.361  31.133  28.001  1.00  0.00     0.049 A 
ATOM     44  C   UNL A   1      43.188  26.029  27.303  1.00  0.00     0.074 A 
ATOM     45  C   UNL A   1      46.625  31.348  27.478  1.00  0.00     0.029 A 
ATOM     46  N   UNL A   1      45.017  29.826  27.686  1.00  0.00    -0.354 N 
ATOM     47  N   UNL A   1      43.835  27.165  27.397  1.00  0.00    -0.248 NA
ATOM     48  C   UNL A   1      43.883  25.007  26.508  1.00  0.00     0.031 C 
ATOM     49  C   UNL A   1      47.028  30.187  26.810  1.00  0.00     0.029 A 
ATOM     50  C   UNL A   1      46.037  29.231  26.961  1.00  0.00     0.049 A 
ATOM     51  H   UNL A   1      44.174  29.387  27.940  1.00  0.00     0.167 HD
ATOM     52  C   UNL A   1      45.018  26.989  26.693  1.00  0.00     0.074 A 
ATOM     53  C   UNL A   1      45.009  25.630  26.192  1.00  0.00     0.031 C 
ATOM     54  C   UNL A   1      46.020  27.875  26.477  1.00  0.00     0.037 A 
BRANCH  41  55
ATOM     55  C   UNL A   1      45.040  33.440  28.969  1.00  0.00     0.057 A 
ATOM     56  C   UNL A   1      45.845  33.775  30.065  1.00  0.00     0.134 A 
ATOM     57  C   UNL A   1      44.758  34.453  28.044  1.00  0.00     0.134 A 
ATOM     58  F   UNL A   1      46.144  32.856  30.995  1.00  0.00    -0.206 F 
ATOM     59  C   UNL A   1      46.331  35.073  30.244  1.00  0.00     0.040 A 
ATOM     60  C   UNL A   1      45.260  35.747  28.197  1.00  0.00     0.040 A 
ATOM     61  F   UNL A   1      44.001  34.200  26.966  1.00  0.00    -0.206 F 
ATOM     62  C   UNL A   1      46.045  36.061  29.304  1.00  0.00     0.006 A 
ENDBRANCH  41  55
BRANCH  42  63
ATOM     63  C   UNL A   1      41.291  24.292  27.650  1.00  0.00     0.057 A 
ATOM     64  C   UNL A   1      41.748  23.184  28.373  1.00  0.00     0.134 A 
ATOM     65  C   UNL A   1      40.288  24.070  26.698  1.00  0.00     0.134 A 
ATOM     66  F   UNL A   1      42.724  23.327  29.281  1.00  0.00    -0.206 F 
ATOM     67  C   UNL A   1      41.239  21.903  28.148  1.00  0.00     0.040 A 
ATOM     68  C   UNL A   1      39.748  22.800  26.484  1.00  0.00     0.040 A 
ATOM     69  F   UNL A   1      39.805  25.089  25.971  1.00  0.00    -0.206 F 
ATOM     70  C   UNL A   1      40.230  21.711  27.206  1.00  0.00     0.006 A 
ENDBRANCH  42  63
BRANCH  54  71
ATOM     71  C   UNL A   1      47.208  27.388  25.701  1.00  0.00     0.057 A 
ATOM     72  C   UNL A   1      47.307  27.557  24.315  1.00  0.00     0.134 A 
ATOM     73  C   UNL A   1      48.279  26.768  26.356  1.00  0.00     0.134 A 
ATOM     74  F   UNL A   1      46.309  28.130  23.626  1.00  0.00    -0.206 F 
ATOM     75  C   UNL A   1      48.420  27.105  23.603  1.00  0.00     0.040 A 
ATOM     76  C   UNL A   1      49.408  26.335  25.660  1.00  0.00     0.040 A 
ATOM     77  F   UNL A   1      48.250  26.581  27.685  1.00  0.00    -0.206 F 
ATOM     78  C   UNL A   1      49.478  26.497  24.278  1.00  0.00     0.006 A 
ENDBRANCH  54  71
ENDBRANCH  28  29
ENDBRANCH  21  23
ENDBRANCH  20  21
ENDBRANCH   1  20
TORSDOF 12
ENDMDL
