MODEL 1
REMARK VINA RESULT:     -11.4      0.000      0.000
REMARK SMILES O=C(OCCOC(=O)c1ccc(-n2cnc3ccccc32)nc1)c1ccc(-c2c3nc(c(-c4c(F)cccc4F)c4ccc([nH]4)c(-c4c(F)cccc4F)c4nc(c(-c5c(F)cccc5F)c5ccc2[nH]5)C=C4)C=C3)cc1
REMARK SMILES IDX 4 1 3 2 2 3 1 4 24 5 25 6 77 7 26 8 76 9 27 10 28 11 29 12
REMARK SMILES IDX 70 13 30 14 75 15 69 16 71 17 31 18 74 19 68 20 67 21 32 23
REMARK SMILES IDX 58 24 41 25 57 26 42 27 45 28 56 29 72 30 43 31 44 32 55 34
REMARK SMILES IDX 73 35 46 36 33 37 34 38 39 39 35 40 36 41 38 42 40 43 37 44
REMARK SMILES IDX 59 45 60 46 65 47 61 48 62 49 64 50 66 51 63 52 47 53 48 54
REMARK SMILES IDX 53 55 49 56 50 57 52 58 54 59 51 60 5 61 6 62 7 63 8 64 9 65
REMARK SMILES IDX 10 66 23 67 11 68 22 69 12 70 13 71 14 72 21 73 15 74 16 75
REMARK SMILES IDX 20 76 17 77 19 78 18 79
REMARK H PARENT 71 22 45 33
REMARK Flexibility Score: inf
ROOT
ATOM      1  C   UNL A   1      45.790  23.886  39.397  1.00  0.00     0.275 C 
ENDROOT
BRANCH   1   2
ATOM      2  O   UNL A   1      45.488  24.461  38.108  1.00  0.00    -0.458 OA
BRANCH   2   3
ATOM      3  C   UNL A   1      46.358  24.174  37.119  1.00  0.00     0.338 C 
ATOM      4  O   UNL A   1      47.519  23.832  37.195  1.00  0.00    -0.246 OA
BRANCH   3   5
ATOM      5  C   UNL A   1      45.641  24.521  35.931  1.00  0.00     0.060 A 
ATOM      6  C   UNL A   1      46.008  26.121  35.175  1.00  0.00     0.016 A 
ATOM      7  C   UNL A   1      45.280  23.084  34.906  1.00  0.00     0.016 A 
ATOM      8  C   UNL A   1      45.913  26.298  33.386  1.00  0.00     0.010 A 
ATOM      9  C   UNL A   1      45.206  23.265  33.117  1.00  0.00     0.010 A 
ATOM     10  C   UNL A   1      45.522  24.863  32.335  1.00  0.00    -0.014 A 
BRANCH  10  11
ATOM     11  C   UNL A   1      45.368  25.074  30.859  1.00  0.00     0.031 A 
ATOM     12  C   UNL A   1      46.389  25.959  30.189  1.00  0.00     0.074 A 
ATOM     13  C   UNL A   1      44.479  24.464  30.033  1.00  0.00     0.049 A 
ATOM     14  N   UNL A   1      46.190  27.112  29.622  1.00  0.00    -0.248 NA
ATOM     15  C   UNL A   1      47.810  25.570  30.231  1.00  0.00     0.031 C 
ATOM     16  C   UNL A   1      43.450  23.470  30.331  1.00  0.00     0.029 A 
ATOM     17  N   UNL A   1      44.381  24.540  28.662  1.00  0.00    -0.354 N 
ATOM     18  C   UNL A   1      47.421  27.512  29.097  1.00  0.00     0.074 A 
ATOM     19  C   UNL A   1      48.398  26.635  29.683  1.00  0.00     0.031 C 
ATOM     20  C   UNL A   1      43.067  22.823  29.215  1.00  0.00     0.029 A 
ATOM     21  C   UNL A   1      43.666  23.494  28.087  1.00  0.00     0.049 A 
ATOM     22  H   UNL A   1      44.783  25.269  28.135  1.00  0.00     0.167 HD
ATOM     23  C   UNL A   1      47.540  28.384  28.051  1.00  0.00     0.037 A 
ATOM     24  C   UNL A   1      43.469  23.182  26.785  1.00  0.00     0.037 A 
ATOM     25  C   UNL A   1      46.316  29.098  27.807  1.00  0.00     0.049 A 
ATOM     26  C   UNL A   1      43.683  24.407  25.997  1.00  0.00     0.074 A 
ATOM     27  C   UNL A   1      45.510  29.970  28.510  1.00  0.00     0.029 A 
ATOM     28  N   UNL A   1      45.579  28.744  26.705  1.00  0.00    -0.354 N 
ATOM     29  N   UNL A   1      42.873  25.428  26.024  1.00  0.00    -0.248 NA
ATOM     30  C   UNL A   1      45.027  24.682  25.522  1.00  0.00     0.031 C 
ATOM     31  C   UNL A   1      44.183  29.681  28.074  1.00  0.00     0.029 A 
ATOM     32  C   UNL A   1      44.272  28.687  27.100  1.00  0.00     0.049 A 
ATOM     33  H   UNL A   1      45.926  28.565  25.801  1.00  0.00     0.167 HD
ATOM     34  C   UNL A   1      43.710  26.531  26.015  1.00  0.00     0.074 A 
ATOM     35  C   UNL A   1      45.012  26.015  25.596  1.00  0.00     0.031 C 
ATOM     36  C   UNL A   1      43.340  27.699  26.617  1.00  0.00     0.037 A 
BRANCH  23  37
ATOM     37  C   UNL A   1      48.639  28.331  26.998  1.00  0.00     0.057 A 
ATOM     38  C   UNL A   1      49.655  29.298  26.856  1.00  0.00     0.134 A 
ATOM     39  C   UNL A   1      48.879  27.124  26.308  1.00  0.00     0.134 A 
ATOM     40  F   UNL A   1      49.621  30.478  27.482  1.00  0.00    -0.206 F 
ATOM     41  C   UNL A   1      50.833  29.068  26.136  1.00  0.00     0.040 A 
ATOM     42  C   UNL A   1      50.079  26.864  25.630  1.00  0.00     0.040 A 
ATOM     43  F   UNL A   1      47.993  26.116  26.349  1.00  0.00    -0.206 F 
ATOM     44  C   UNL A   1      51.068  27.834  25.555  1.00  0.00     0.006 A 
ENDBRANCH  23  37
BRANCH  24  45
ATOM     45  C   UNL A   1      43.293  21.836  26.197  1.00  0.00     0.057 A 
ATOM     46  C   UNL A   1      42.072  21.144  26.325  1.00  0.00     0.134 A 
ATOM     47  C   UNL A   1      44.372  21.088  25.710  1.00  0.00     0.134 A 
ATOM     48  F   UNL A   1      40.990  21.739  26.851  1.00  0.00    -0.206 F 
ATOM     49  C   UNL A   1      41.933  19.792  25.998  1.00  0.00     0.040 A 
ATOM     50  C   UNL A   1      44.249  19.729  25.387  1.00  0.00     0.040 A 
ATOM     51  F   UNL A   1      45.585  21.644  25.588  1.00  0.00    -0.206 F 
ATOM     52  C   UNL A   1      43.030  19.075  25.540  1.00  0.00     0.006 A 
ENDBRANCH  24  45
BRANCH  36  53
ATOM     53  C   UNL A   1      41.909  27.849  27.045  1.00  0.00     0.057 A 
ATOM     54  C   UNL A   1      41.067  28.690  26.307  1.00  0.00     0.134 A 
ATOM     55  C   UNL A   1      41.385  27.305  28.227  1.00  0.00     0.134 A 
ATOM     56  F   UNL A   1      41.521  29.296  25.199  1.00  0.00    -0.206 F 
ATOM     57  C   UNL A   1      39.760  28.965  26.715  1.00  0.00     0.040 A 
ATOM     58  C   UNL A   1      40.068  27.547  28.630  1.00  0.00     0.040 A 
ATOM     59  F   UNL A   1      42.145  26.571  29.048  1.00  0.00    -0.206 F 
ATOM     60  C   UNL A   1      39.252  28.384  27.874  1.00  0.00     0.006 A 
ENDBRANCH  36  53
ENDBRANCH  10  11
ENDBRANCH   3   5
ENDBRANCH   2   3
ENDBRANCH   1   2
BRANCH   1  61
ATOM     61  C   UNL A   1      45.757  22.247  39.647  1.00  0.00     0.275 C 
BRANCH  61  62
ATOM     62  O   UNL A   1      45.745  20.812  38.232  1.00  0.00    -0.458 OA
BRANCH  62  63
ATOM     63  C   UNL A   1      46.025  19.688  37.429  1.00  0.00     0.339 C 
ATOM     64  O   UNL A   1      45.510  18.579  37.465  1.00  0.00    -0.246 OA
BRANCH  63  65
ATOM     65  C   UNL A   1      47.120  19.954  36.488  1.00  0.00     0.078 A 
ATOM     66  C   UNL A   1      46.900  19.905  35.115  1.00  0.00     0.021 A 
ATOM     67  C   UNL A   1      48.361  20.354  36.963  1.00  0.00     0.129 A 
ATOM     68  C   UNL A   1      47.911  20.344  34.270  1.00  0.00     0.048 A 
ATOM     69  N   UNL A   1      49.389  20.717  36.159  1.00  0.00    -0.238 NA
ATOM     70  C   UNL A   1      49.111  20.784  34.834  1.00  0.00     0.138 A 
BRANCH  70  71
ATOM     71  N   UNL A   1      50.025  21.470  34.006  1.00  0.00    -0.283 N 
ATOM     72  C   UNL A   1      51.181  20.965  33.466  1.00  0.00     0.206 A 
ATOM     73  C   UNL A   1      49.975  22.813  33.676  1.00  0.00     0.074 A 
ATOM     74  N   UNL A   1      51.769  21.831  32.665  1.00  0.00    -0.236 NA
ATOM     75  C   UNL A   1      51.047  22.992  32.807  1.00  0.00     0.089 A 
ATOM     76  C   UNL A   1      49.164  23.875  34.107  1.00  0.00     0.029 A 
ATOM     77  C   UNL A   1      51.268  24.262  32.253  1.00  0.00     0.030 A 
ATOM     78  C   UNL A   1      49.422  25.138  33.575  1.00  0.00     0.002 A 
ATOM     79  C   UNL A   1      50.445  25.328  32.646  1.00  0.00     0.002 A 
ENDBRANCH  70  71
ENDBRANCH  63  65
ENDBRANCH  62  63
ENDBRANCH  61  62
ENDBRANCH   1  61
TORSDOF 12
ENDMDL
MODEL 2
REMARK VINA RESULT:     -11.4      6.697     11.892
REMARK SMILES O=C(OCCOC(=O)c1ccc(-n2cnc3ccccc32)nc1)c1ccc(-c2c3nc(c(-c4c(F)cccc4F)c4ccc([nH]4)c(-c4c(F)cccc4F)c4nc(c(-c5c(F)cccc5F)c5ccc2[nH]5)C=C4)C=C3)cc1
REMARK SMILES IDX 4 1 3 2 2 3 1 4 24 5 25 6 77 7 26 8 76 9 27 10 28 11 29 12
REMARK SMILES IDX 70 13 30 14 75 15 69 16 71 17 31 18 74 19 68 20 67 21 32 23
REMARK SMILES IDX 58 24 41 25 57 26 42 27 45 28 56 29 72 30 43 31 44 32 55 34
REMARK SMILES IDX 73 35 46 36 33 37 34 38 39 39 35 40 36 41 38 42 40 43 37 44
REMARK SMILES IDX 59 45 60 46 65 47 61 48 62 49 64 50 66 51 63 52 47 53 48 54
REMARK SMILES IDX 53 55 49 56 50 57 52 58 54 59 51 60 5 61 6 62 7 63 8 64 9 65
REMARK SMILES IDX 10 66 23 67 11 68 22 69 12 70 13 71 14 72 21 73 15 74 16 75
REMARK SMILES IDX 20 76 17 77 19 78 18 79
REMARK H PARENT 71 22 45 33
REMARK Flexibility Score: inf
ROOT
ATOM      1  C   UNL A   1      33.160  34.240  28.228  1.00  0.00     0.275 C 
ENDROOT
BRANCH   1   2
ATOM      2  O   UNL A   1      34.272  33.433  28.670  1.00  0.00    -0.458 OA
BRANCH   2   3
ATOM      3  C   UNL A   1      34.335  32.190  28.153  1.00  0.00     0.338 C 
ATOM      4  O   UNL A   1      33.614  31.663  27.333  1.00  0.00    -0.246 OA
BRANCH   3   5
ATOM      5  C   UNL A   1      35.370  31.562  28.916  1.00  0.00     0.060 A 
ATOM      6  C   UNL A   1      35.560  29.772  28.745  1.00  0.00     0.016 A 
ATOM      7  C   UNL A   1      36.812  32.622  29.116  1.00  0.00     0.016 A 
ATOM      8  C   UNL A   1      37.199  29.039  28.875  1.00  0.00     0.010 A 
ATOM      9  C   UNL A   1      38.450  31.882  29.225  1.00  0.00     0.010 A 
ATOM     10  C   UNL A   1      38.666  30.093  29.105  1.00  0.00    -0.014 A 
BRANCH  10  11
ATOM     11  C   UNL A   1      40.000  29.436  29.296  1.00  0.00     0.031 A 
ATOM     12  C   UNL A   1      40.472  29.255  30.716  1.00  0.00     0.074 A 
ATOM     13  C   UNL A   1      40.783  28.878  28.336  1.00  0.00     0.049 A 
ATOM     14  N   UNL A   1      41.497  29.813  31.289  1.00  0.00    -0.248 NA
ATOM     15  C   UNL A   1      39.665  28.437  31.639  1.00  0.00     0.031 C 
ATOM     16  C   UNL A   1      40.566  28.766  26.895  1.00  0.00     0.029 A 
ATOM     17  N   UNL A   1      41.951  28.165  28.481  1.00  0.00    -0.354 N 
ATOM     18  C   UNL A   1      41.558  29.292  32.584  1.00  0.00     0.074 A 
ATOM     19  C   UNL A   1      40.300  28.629  32.797  1.00  0.00     0.031 C 
ATOM     20  C   UNL A   1      41.348  27.809  26.363  1.00  0.00     0.029 A 
ATOM     21  C   UNL A   1      42.274  27.378  27.380  1.00  0.00     0.049 A 
ATOM     22  H   UNL A   1      42.508  28.208  29.293  1.00  0.00     0.167 HD
ATOM     23  C   UNL A   1      42.711  29.243  33.317  1.00  0.00     0.037 A 
ATOM     24  C   UNL A   1      43.267  26.472  27.214  1.00  0.00     0.037 A 
ATOM     25  C   UNL A   1      43.733  30.093  32.766  1.00  0.00     0.049 A 
ATOM     26  C   UNL A   1      44.323  26.785  28.191  1.00  0.00     0.074 A 
ATOM     27  C   UNL A   1      43.885  31.442  32.519  1.00  0.00     0.029 A 
ATOM     28  N   UNL A   1      44.779  29.491  32.112  1.00  0.00    -0.354 N 
ATOM     29  N   UNL A   1      45.079  27.844  28.115  1.00  0.00    -0.248 NA
ATOM     30  C   UNL A   1      44.242  26.161  29.499  1.00  0.00     0.031 C 
ATOM     31  C   UNL A   1      44.680  31.514  31.336  1.00  0.00     0.029 A 
ATOM     32  C   UNL A   1      44.999  30.207  30.969  1.00  0.00     0.049 A 
ATOM     33  H   UNL A   1      45.276  28.695  32.410  1.00  0.00     0.167 HD
ATOM     34  C   UNL A   1      45.195  28.279  29.424  1.00  0.00     0.074 A 
ATOM     35  C   UNL A   1      44.753  27.148  30.240  1.00  0.00     0.031 C 
ATOM     36  C   UNL A   1      45.367  29.602  29.713  1.00  0.00     0.037 A 
BRANCH  23  37
ATOM     37  C   UNL A   1      43.059  28.148  34.316  1.00  0.00     0.057 A 
ATOM     38  C   UNL A   1      43.428  26.834  33.963  1.00  0.00     0.134 A 
ATOM     39  C   UNL A   1      43.344  28.496  35.654  1.00  0.00     0.134 A 
ATOM     40  F   UNL A   1      43.283  26.351  32.725  1.00  0.00    -0.206 F 
ATOM     41  C   UNL A   1      44.071  25.958  34.844  1.00  0.00     0.040 A 
ATOM     42  C   UNL A   1      44.037  27.645  36.527  1.00  0.00     0.040 A 
ATOM     43  F   UNL A   1      43.041  29.714  36.130  1.00  0.00    -0.206 F 
ATOM     44  C   UNL A   1      44.415  26.375  36.118  1.00  0.00     0.006 A 
ENDBRANCH  23  37
BRANCH  24  45
ATOM     45  C   UNL A   1      43.242  25.251  26.379  1.00  0.00     0.057 A 
ATOM     46  C   UNL A   1      42.566  24.093  26.812  1.00  0.00     0.134 A 
ATOM     47  C   UNL A   1      44.070  25.095  25.262  1.00  0.00     0.134 A 
ATOM     48  F   UNL A   1      41.804  24.107  27.916  1.00  0.00    -0.206 F 
ATOM     49  C   UNL A   1      42.710  22.855  26.179  1.00  0.00     0.040 A 
ATOM     50  C   UNL A   1      44.231  23.857  24.622  1.00  0.00     0.040 A 
ATOM     51  F   UNL A   1      44.786  26.128  24.795  1.00  0.00    -0.206 F 
ATOM     52  C   UNL A   1      43.558  22.731  25.087  1.00  0.00     0.006 A 
ENDBRANCH  24  45
BRANCH  36  53
ATOM     53  C   UNL A   1      45.702  30.532  28.583  1.00  0.00     0.057 A 
ATOM     54  C   UNL A   1      47.033  30.924  28.402  1.00  0.00     0.134 A 
ATOM     55  C   UNL A   1      44.742  31.152  27.769  1.00  0.00     0.134 A 
ATOM     56  F   UNL A   1      47.998  30.419  29.187  1.00  0.00    -0.206 F 
ATOM     57  C   UNL A   1      47.398  31.873  27.446  1.00  0.00     0.040 A 
ATOM     58  C   UNL A   1      45.097  32.081  26.787  1.00  0.00     0.040 A 
ATOM     59  F   UNL A   1      43.435  30.917  27.938  1.00  0.00    -0.206 F 
ATOM     60  C   UNL A   1      46.430  32.448  26.627  1.00  0.00     0.006 A 
ENDBRANCH  36  53
ENDBRANCH  10  11
ENDBRANCH   3   5
ENDBRANCH   2   3
ENDBRANCH   1   2
BRANCH   1  61
ATOM     61  C   UNL A   1      32.917  35.775  28.809  1.00  0.00     0.275 C 
BRANCH  61  62
ATOM     62  O   UNL A   1      32.701  36.315  30.738  1.00  0.00    -0.458 OA
BRANCH  62  63
ATOM     63  C   UNL A   1      32.806  36.440  32.138  1.00  0.00     0.339 C 
ATOM     64  O   UNL A   1      32.232  37.229  32.876  1.00  0.00    -0.246 OA
BRANCH  63  65
ATOM     65  C   UNL A   1      33.787  35.501  32.694  1.00  0.00     0.078 A 
ATOM     66  C   UNL A   1      34.131  34.345  32.000  1.00  0.00     0.021 A 
ATOM     67  C   UNL A   1      34.455  35.811  33.870  1.00  0.00     0.129 A 
ATOM     68  C   UNL A   1      35.194  33.586  32.472  1.00  0.00     0.048 A 
ATOM     69  N   UNL A   1      35.446  35.049  34.392  1.00  0.00    -0.238 NA
ATOM     70  C   UNL A   1      35.849  33.999  33.635  1.00  0.00     0.138 A 
BRANCH  70  71
ATOM     71  N   UNL A   1      37.078  33.388  33.961  1.00  0.00    -0.283 N 
ATOM     72  C   UNL A   1      37.354  32.648  35.083  1.00  0.00     0.206 A 
ATOM     73  C   UNL A   1      38.263  33.517  33.258  1.00  0.00     0.074 A 
ATOM     74  N   UNL A   1      38.569  32.140  35.051  1.00  0.00    -0.236 NA
ATOM     75  C   UNL A   1      39.155  32.693  33.937  1.00  0.00     0.089 A 
ATOM     76  C   UNL A   1      38.648  34.317  32.169  1.00  0.00     0.029 A 
ATOM     77  C   UNL A   1      40.468  32.572  33.457  1.00  0.00     0.030 A 
ATOM     78  C   UNL A   1      39.968  34.211  31.729  1.00  0.00     0.002 A 
ATOM     79  C   UNL A   1      40.861  33.337  32.349  1.00  0.00     0.002 A 
ENDBRANCH  70  71
ENDBRANCH  63  65
ENDBRANCH  62  63
ENDBRANCH  61  62
ENDBRANCH   1  61
TORSDOF 12
ENDMDL
MODEL 3
REMARK VINA RESULT:     -11.4      6.460     12.187
REMARK SMILES O=C(OCCOC(=O)c1ccc(-n2cnc3ccccc32)nc1)c1ccc(-c2c3nc(c(-c4c(F)cccc4F)c4ccc([nH]4)c(-c4c(F)cccc4F)c4nc(c(-c5c(F)cccc5F)c5ccc2[nH]5)C=C4)C=C3)cc1
REMARK SMILES IDX 4 1 3 2 2 3 1 4 24 5 25 6 77 7 26 8 76 9 27 10 28 11 29 12
REMARK SMILES IDX 70 13 30 14 75 15 69 16 71 17 31 18 74 19 68 20 67 21 32 23
REMARK SMILES IDX 58 24 41 25 57 26 42 27 45 28 56 29 72 30 43 31 44 32 55 34
REMARK SMILES IDX 73 35 46 36 33 37 34 38 39 39 35 40 36 41 38 42 40 43 37 44
REMARK SMILES IDX 59 45 60 46 65 47 61 48 62 49 64 50 66 51 63 52 47 53 48 54
REMARK SMILES IDX 53 55 49 56 50 57 52 58 54 59 51 60 5 61 6 62 7 63 8 64 9 65
REMARK SMILES IDX 10 66 23 67 11 68 22 69 12 70 13 71 14 72 21 73 15 74 16 75
REMARK SMILES IDX 20 76 17 77 19 78 18 79
REMARK H PARENT 71 22 45 33
REMARK Flexibility Score: inf
ROOT
ATOM      1  C   UNL A   1      34.403  35.838  33.713  1.00  0.00     0.275 C 
ENDROOT
BRANCH   1   2
ATOM      2  O   UNL A   1      35.711  35.325  33.381  1.00  0.00    -0.458 OA
BRANCH   2   3
ATOM      3  C   UNL A   1      35.894  34.006  33.588  1.00  0.00     0.338 C 
ATOM      4  O   UNL A   1      35.201  33.223  34.202  1.00  0.00    -0.246 OA
BRANCH   3   5
ATOM      5  C   UNL A   1      37.193  33.758  33.045  1.00  0.00     0.060 A 
ATOM      6  C   UNL A   1      38.531  33.414  34.211  1.00  0.00     0.016 A 
ATOM      7  C   UNL A   1      37.121  32.913  31.456  1.00  0.00     0.016 A 
ATOM      8  C   UNL A   1      39.852  32.288  33.735  1.00  0.00     0.010 A 
ATOM      9  C   UNL A   1      38.437  31.773  30.997  1.00  0.00     0.010 A 
ATOM     10  C   UNL A   1      39.811  31.444  32.122  1.00  0.00    -0.014 A 
BRANCH  10  11
ATOM     11  C   UNL A   1      40.974  30.583  31.731  1.00  0.00     0.031 A 
ATOM     12  C   UNL A   1      42.023  31.216  30.851  1.00  0.00     0.074 A 
ATOM     13  C   UNL A   1      41.251  29.329  32.175  1.00  0.00     0.049 A 
ATOM     14  N   UNL A   1      42.331  30.897  29.629  1.00  0.00    -0.248 NA
ATOM     15  C   UNL A   1      42.751  32.398  31.344  1.00  0.00     0.031 C 
ATOM     16  C   UNL A   1      40.523  28.486  33.120  1.00  0.00     0.029 A 
ATOM     17  N   UNL A   1      42.363  28.554  31.934  1.00  0.00    -0.354 N 
ATOM     18  C   UNL A   1      43.395  31.724  29.261  1.00  0.00     0.074 A 
ATOM     19  C   UNL A   1      43.459  32.748  30.268  1.00  0.00     0.031 C 
ATOM     20  C   UNL A   1      41.313  27.510  33.604  1.00  0.00     0.029 A 
ATOM     21  C   UNL A   1      42.544  27.524  32.853  1.00  0.00     0.049 A 
ATOM     22  H   UNL A   1      42.976  28.715  31.180  1.00  0.00     0.167 HD
ATOM     23  C   UNL A   1      44.294  31.396  28.285  1.00  0.00     0.037 A 
ATOM     24  C   UNL A   1      43.569  26.651  32.997  1.00  0.00     0.037 A 
ATOM     25  C   UNL A   1      43.820  30.317  27.460  1.00  0.00     0.049 A 
ATOM     26  C   UNL A   1      44.276  26.580  31.707  1.00  0.00     0.074 A 
ATOM     27  C   UNL A   1      42.748  30.099  26.619  1.00  0.00     0.029 A 
ATOM     28  N   UNL A   1      44.396  29.083  27.630  1.00  0.00    -0.354 N 
ATOM     29  N   UNL A   1      43.768  26.029  30.640  1.00  0.00    -0.248 NA
ATOM     30  C   UNL A   1      45.364  27.512  31.477  1.00  0.00     0.031 C 
ATOM     31  C   UNL A   1      42.445  28.712  26.759  1.00  0.00     0.029 A 
ATOM     32  C   UNL A   1      43.382  28.167  27.638  1.00  0.00     0.049 A 
ATOM     33  H   UNL A   1      45.357  28.894  27.728  1.00  0.00     0.167 HD
ATOM     34  C   UNL A   1      44.144  26.871  29.607  1.00  0.00     0.074 A 
ATOM     35  C   UNL A   1      45.212  27.701  30.165  1.00  0.00     0.031 C 
ATOM     36  C   UNL A   1      43.367  27.007  28.492  1.00  0.00     0.037 A 
BRANCH  23  37
ATOM     37  C   UNL A   1      45.766  31.785  28.295  1.00  0.00     0.057 A 
ATOM     38  C   UNL A   1      46.701  31.349  29.255  1.00  0.00     0.134 A 
ATOM     39  C   UNL A   1      46.339  32.353  27.136  1.00  0.00     0.134 A 
ATOM     40  F   UNL A   1      46.340  30.738  30.388  1.00  0.00    -0.206 F 
ATOM     41  C   UNL A   1      48.085  31.420  29.064  1.00  0.00     0.040 A 
ATOM     42  C   UNL A   1      47.724  32.379  26.911  1.00  0.00     0.040 A 
ATOM     43  F   UNL A   1      45.569  32.816  26.140  1.00  0.00    -0.206 F 
ATOM     44  C   UNL A   1      48.601  31.898  27.872  1.00  0.00     0.006 A 
ENDBRANCH  23  37
BRANCH  24  45
ATOM     45  C   UNL A   1      44.060  26.037  34.249  1.00  0.00     0.057 A 
ATOM     46  C   UNL A   1      43.862  24.665  34.509  1.00  0.00     0.134 A 
ATOM     47  C   UNL A   1      44.514  26.805  35.328  1.00  0.00     0.134 A 
ATOM     48  F   UNL A   1      43.359  23.848  33.571  1.00  0.00    -0.206 F 
ATOM     49  C   UNL A   1      44.093  24.095  35.763  1.00  0.00     0.040 A 
ATOM     50  C   UNL A   1      44.742  26.247  36.594  1.00  0.00     0.040 A 
ATOM     51  F   UNL A   1      44.697  28.126  35.194  1.00  0.00    -0.206 F 
ATOM     52  C   UNL A   1      44.521  24.890  36.817  1.00  0.00     0.006 A 
ENDBRANCH  24  45
BRANCH  36  53
ATOM     53  C   UNL A   1      42.248  26.027  28.290  1.00  0.00     0.057 A 
ATOM     54  C   UNL A   1      42.465  24.913  27.471  1.00  0.00     0.134 A 
ATOM     55  C   UNL A   1      40.942  26.224  28.760  1.00  0.00     0.134 A 
ATOM     56  F   UNL A   1      43.676  24.696  26.934  1.00  0.00    -0.206 F 
ATOM     57  C   UNL A   1      41.437  24.026  27.147  1.00  0.00     0.040 A 
ATOM     58  C   UNL A   1      39.910  25.326  28.469  1.00  0.00     0.040 A 
ATOM     59  F   UNL A   1      40.616  27.314  29.466  1.00  0.00    -0.206 F 
ATOM     60  C   UNL A   1      40.156  24.225  27.656  1.00  0.00     0.006 A 
ENDBRANCH  36  53
ENDBRANCH  10  11
ENDBRANCH   3   5
ENDBRANCH   2   3
ENDBRANCH   1   2
BRANCH   1  61
ATOM     61  C   UNL A   1      33.670  37.007  32.793  1.00  0.00     0.275 C 
BRANCH  61  62
ATOM     62  O   UNL A   1      33.385  36.971  30.799  1.00  0.00    -0.458 OA
BRANCH  62  63
ATOM     63  C   UNL A   1      33.305  36.605  29.440  1.00  0.00     0.339 C 
ATOM     64  O   UNL A   1      32.752  37.198  28.523  1.00  0.00    -0.246 OA
BRANCH  63  65
ATOM     65  C   UNL A   1      33.948  35.310  29.189  1.00  0.00     0.078 A 
ATOM     66  C   UNL A   1      33.939  34.316  30.163  1.00  0.00     0.021 A 
ATOM     67  C   UNL A   1      34.483  35.031  27.940  1.00  0.00     0.129 A 
ATOM     68  C   UNL A   1      34.393  33.050  29.815  1.00  0.00     0.048 A 
ATOM     69  N   UNL A   1      34.999  33.827  27.597  1.00  0.00    -0.238 NA
ATOM     70  C   UNL A   1      34.864  32.840  28.517  1.00  0.00     0.138 A 
BRANCH  70  71
ATOM     71  N   UNL A   1      35.071  31.511  28.089  1.00  0.00    -0.283 N 
ATOM     72  C   UNL A   1      36.274  30.858  27.996  1.00  0.00     0.206 A 
ATOM     73  C   UNL A   1      34.106  30.660  27.582  1.00  0.00     0.074 A 
ATOM     74  N   UNL A   1      36.123  29.596  27.649  1.00  0.00    -0.236 NA
ATOM     75  C   UNL A   1      34.785  29.465  27.361  1.00  0.00     0.089 A 
ATOM     76  C   UNL A   1      32.758  30.841  27.230  1.00  0.00     0.029 A 
ATOM     77  C   UNL A   1      34.075  28.361  26.865  1.00  0.00     0.030 A 
ATOM     78  C   UNL A   1      32.078  29.743  26.702  1.00  0.00     0.002 A 
ATOM     79  C   UNL A   1      32.719  28.515  26.540  1.00  0.00     0.002 A 
ENDBRANCH  70  71
ENDBRANCH  63  65
ENDBRANCH  62  63
ENDBRANCH  61  62
ENDBRANCH   1  61
TORSDOF 12
ENDMDL
