MODEL 1
REMARK VINA RESULT:     -11.9      0.000      0.000
REMARK SMILES COc1ccc2c(c1)c(CC(=O)OCCOC(=O)c1ccc(-c3c4nc(c(-c5c(F)cccc5F)c5ccc([nH]5)c(-c5c(F)cccc5F)c5nc(c(-c6c(F)cccc6F)c6ccc3[nH]6)C=C5)C=C4)cc1)c(C)n2Cc1ccn(C(F)F)c(=O)c1
REMARK SMILES IDX 14 1 13 2 11 3 12 4 10 5 9 6 3 7 4 8 8 9 5 10 7 11 6 12
REMARK SMILES IDX 75 13 73 14 74 15 2 16 1 17 76 18 77 19 78 20 86 21 79 22
REMARK SMILES IDX 84 23 80 24 85 25 81 26 82 27 83 28 15 29 16 30 17 31 18 32
REMARK SMILES IDX 19 33 20 34 72 35 21 36 71 37 22 38 23 39 24 40 65 41 25 42
REMARK SMILES IDX 70 43 64 44 66 45 26 46 69 47 63 48 62 49 27 51 53 52 36 53
REMARK SMILES IDX 52 54 37 55 40 56 51 57 67 58 38 59 39 60 50 62 68 63 41 64
REMARK SMILES IDX 28 65 29 66 34 67 30 68 31 69 33 70 35 71 32 72 54 73 55 74
REMARK SMILES IDX 60 75 56 76 57 77 59 78 61 79 58 80 42 81 43 82 48 83 44 84
REMARK SMILES IDX 45 85 47 86 49 87 46 88
REMARK H PARENT 66 50 40 61
REMARK Flexibility Score: inf
ROOT
ATOM      1  C   UNL A   1      39.289  22.507  26.392  1.00  0.00     0.274 C 
ENDROOT
BRANCH   1   2
ATOM      2  O   UNL A   1      38.142  21.670  26.121  1.00  0.00    -0.462 OA
BRANCH   2   3
ATOM      3  C   UNL A   1      37.344  22.097  25.116  1.00  0.00     0.310 C 
ATOM      4  O   UNL A   1      37.457  21.731  23.947  1.00  0.00    -0.252 OA
BRANCH   3   5
ATOM      5  C   UNL A   1      36.381  23.185  25.477  1.00  0.00     0.160 C 
BRANCH   5   6
ATOM      6  C   UNL A   1      34.939  23.192  25.059  1.00  0.00    -0.008 A 
ATOM      7  C   UNL A   1      33.362  25.495  22.361  1.00  0.00     0.119 A 
ATOM      8  C   UNL A   1      32.096  24.941  22.421  1.00  0.00     0.048 A 
ATOM      9  C   UNL A   1      34.400  24.910  23.107  1.00  0.00     0.057 A 
ATOM     10  C   UNL A   1      31.833  23.864  23.280  1.00  0.00     0.031 A 
ATOM     11  C   UNL A   1      34.164  23.897  24.067  1.00  0.00     0.007 A 
ATOM     12  C   UNL A   1      32.851  23.406  24.140  1.00  0.00     0.049 A 
ATOM     13  N   UNL A   1      32.845  22.448  25.136  1.00  0.00    -0.340 N 
ATOM     14  C   UNL A   1      33.998  22.569  25.875  1.00  0.00     0.020 A 
ATOM     15  C   UNL A   1      34.200  22.054  27.261  1.00  0.00     0.065 C 
BRANCH   7  16
ATOM     16  O   UNL A   1      33.729  26.556  21.577  1.00  0.00    -0.497 OA
ATOM     17  C   UNL A   1      33.747  27.848  22.177  1.00  0.00     0.278 C 
ENDBRANCH   7  16
BRANCH  13  18
ATOM     18  C   UNL A   1      31.799  21.450  25.358  1.00  0.00     0.158 C 
BRANCH  18  19
ATOM     19  C   UNL A   1      32.210  20.093  24.820  1.00  0.00    -0.021 A 
ATOM     20  C   UNL A   1      32.745  19.105  25.737  1.00  0.00     0.024 A 
ATOM     21  C   UNL A   1      32.121  19.776  23.518  1.00  0.00     0.077 A 
ATOM     22  C   UNL A   1      33.303  17.979  25.282  1.00  0.00     0.095 A 
ATOM     23  C   UNL A   1      32.640  18.471  23.006  1.00  0.00     0.255 A 
ATOM     24  N   UNL A   1      33.290  17.675  23.937  1.00  0.00    -0.258 N 
ATOM     25  O   UNL A   1      32.476  18.200  21.822  1.00  0.00    -0.269 OA
BRANCH  24  26
ATOM     26  C   UNL A   1      33.876  16.448  23.468  1.00  0.00     0.451 C 
ATOM     27  F   UNL A   1      34.625  16.666  22.360  1.00  0.00    -0.185 F 
ATOM     28  F   UNL A   1      34.669  15.883  24.409  1.00  0.00    -0.185 F 
ENDBRANCH  24  26
ENDBRANCH  18  19
ENDBRANCH  13  18
ENDBRANCH   5   6
ENDBRANCH   3   5
ENDBRANCH   2   3
ENDBRANCH   1   2
BRANCH   1  29
ATOM     29  C   UNL A   1      40.564  21.662  26.445  1.00  0.00     0.275 C 
BRANCH  29  30
ATOM     30  O   UNL A   1      41.634  22.478  26.951  1.00  0.00    -0.458 OA
BRANCH  30  31
ATOM     31  C   UNL A   1      42.422  23.104  26.042  1.00  0.00     0.338 C 
ATOM     32  O   UNL A   1      42.761  22.693  24.946  1.00  0.00    -0.246 OA
BRANCH  31  33
ATOM     33  C   UNL A   1      42.492  24.507  26.488  1.00  0.00     0.060 A 
ATOM     34  C   UNL A   1      43.230  24.850  27.620  1.00  0.00     0.016 A 
ATOM     35  C   UNL A   1      41.585  25.411  25.933  1.00  0.00     0.016 A 
ATOM     36  C   UNL A   1      42.917  26.023  28.296  1.00  0.00     0.010 A 
ATOM     37  C   UNL A   1      41.231  26.543  26.639  1.00  0.00     0.010 A 
ATOM     38  C   UNL A   1      41.841  26.806  27.857  1.00  0.00    -0.014 A 
BRANCH  38  39
ATOM     39  C   UNL A   1      41.538  28.065  28.515  1.00  0.00     0.031 A 
ATOM     40  C   UNL A   1      42.589  29.067  28.239  1.00  0.00     0.074 A 
ATOM     41  C   UNL A   1      40.411  28.411  29.166  1.00  0.00     0.049 A 
ATOM     42  N   UNL A   1      43.582  29.361  29.006  1.00  0.00    -0.248 NA
ATOM     43  C   UNL A   1      42.681  29.633  26.885  1.00  0.00     0.031 C 
ATOM     44  C   UNL A   1      39.133  27.710  29.262  1.00  0.00     0.029 A 
ATOM     45  N   UNL A   1      40.184  29.558  29.872  1.00  0.00    -0.354 N 
ATOM     46  C   UNL A   1      44.310  30.319  28.315  1.00  0.00     0.074 A 
ATOM     47  C   UNL A   1      43.855  30.258  26.953  1.00  0.00     0.031 C 
ATOM     48  C   UNL A   1      38.211  28.526  29.835  1.00  0.00     0.029 A 
ATOM     49  C   UNL A   1      38.871  29.744  30.283  1.00  0.00     0.049 A 
ATOM     50  H   UNL A   1      40.898  30.204  30.075  1.00  0.00     0.167 HD
ATOM     51  C   UNL A   1      45.002  31.273  28.992  1.00  0.00     0.037 A 
ATOM     52  C   UNL A   1      38.379  30.827  30.940  1.00  0.00     0.037 A 
ATOM     53  C   UNL A   1      45.161  30.894  30.381  1.00  0.00     0.049 A 
ATOM     54  C   UNL A   1      39.526  31.529  31.568  1.00  0.00     0.074 A 
ATOM     55  C   UNL A   1      45.719  29.819  31.048  1.00  0.00     0.029 A 
ATOM     56  N   UNL A   1      44.340  31.509  31.297  1.00  0.00    -0.354 N 
ATOM     57  N   UNL A   1      40.200  31.060  32.578  1.00  0.00    -0.248 NA
ATOM     58  C   UNL A   1      40.199  32.565  30.799  1.00  0.00     0.031 C 
ATOM     59  C   UNL A   1      44.861  29.582  32.165  1.00  0.00     0.029 A 
ATOM     60  C   UNL A   1      43.859  30.553  32.149  1.00  0.00     0.049 A 
ATOM     61  H   UNL A   1      44.135  32.471  31.333  1.00  0.00     0.167 HD
ATOM     62  C   UNL A   1      41.519  31.391  32.305  1.00  0.00     0.074 A 
ATOM     63  C   UNL A   1      41.444  32.410  31.260  1.00  0.00     0.031 C 
ATOM     64  C   UNL A   1      42.545  30.606  32.749  1.00  0.00     0.037 A 
BRANCH  51  65
ATOM     65  C   UNL A   1      45.113  32.714  28.540  1.00  0.00     0.057 A 
ATOM     66  C   UNL A   1      46.276  33.325  28.026  1.00  0.00     0.134 A 
ATOM     67  C   UNL A   1      43.920  33.419  28.294  1.00  0.00     0.134 A 
ATOM     68  F   UNL A   1      47.501  32.812  28.167  1.00  0.00    -0.206 F 
ATOM     69  C   UNL A   1      46.242  34.480  27.241  1.00  0.00     0.040 A 
ATOM     70  C   UNL A   1      43.870  34.548  27.470  1.00  0.00     0.040 A 
ATOM     71  F   UNL A   1      42.745  32.970  28.763  1.00  0.00    -0.206 F 
ATOM     72  C   UNL A   1      45.032  35.068  26.919  1.00  0.00     0.006 A 
ENDBRANCH  51  65
BRANCH  52  73
ATOM     73  C   UNL A   1      37.029  31.436  30.912  1.00  0.00     0.057 A 
ATOM     74  C   UNL A   1      36.608  32.202  29.814  1.00  0.00     0.134 A 
ATOM     75  C   UNL A   1      36.241  31.535  32.070  1.00  0.00     0.134 A 
ATOM     76  F   UNL A   1      37.327  32.237  28.683  1.00  0.00    -0.206 F 
ATOM     77  C   UNL A   1      35.485  33.036  29.869  1.00  0.00     0.040 A 
ATOM     78  C   UNL A   1      35.114  32.366  32.140  1.00  0.00     0.040 A 
ATOM     79  F   UNL A   1      36.583  30.877  33.187  1.00  0.00    -0.206 F 
ATOM     80  C   UNL A   1      34.740  33.131  31.039  1.00  0.00     0.006 A 
ENDBRANCH  52  73
BRANCH  64  81
ATOM     81  C   UNL A   1      42.219  29.562  33.783  1.00  0.00     0.057 A 
ATOM     82  C   UNL A   1      42.432  29.865  35.132  1.00  0.00     0.134 A 
ATOM     83  C   UNL A   1      41.811  28.253  33.485  1.00  0.00     0.134 A 
ATOM     84  F   UNL A   1      42.872  31.083  35.490  1.00  0.00    -0.206 F 
ATOM     85  C   UNL A   1      42.236  28.921  36.141  1.00  0.00     0.040 A 
ATOM     86  C   UNL A   1      41.578  27.307  34.488  1.00  0.00     0.040 A 
ATOM     87  F   UNL A   1      41.671  27.839  32.218  1.00  0.00    -0.206 F 
ATOM     88  C   UNL A   1      41.795  27.639  35.821  1.00  0.00     0.006 A 
ENDBRANCH  64  81
ENDBRANCH  38  39
ENDBRANCH  31  33
ENDBRANCH  30  31
ENDBRANCH  29  30
ENDBRANCH   1  29
TORSDOF 16
ENDMDL
MODEL 2
REMARK VINA RESULT:     -11.8      4.057      8.912
REMARK SMILES COc1ccc2c(c1)c(CC(=O)OCCOC(=O)c1ccc(-c3c4nc(c(-c5c(F)cccc5F)c5ccc([nH]5)c(-c5c(F)cccc5F)c5nc(c(-c6c(F)cccc6F)c6ccc3[nH]6)C=C5)C=C4)cc1)c(C)n2Cc1ccn(C(F)F)c(=O)c1
REMARK SMILES IDX 14 1 13 2 11 3 12 4 10 5 9 6 3 7 4 8 8 9 5 10 7 11 6 12
REMARK SMILES IDX 75 13 73 14 74 15 2 16 1 17 76 18 77 19 78 20 86 21 79 22
REMARK SMILES IDX 84 23 80 24 85 25 81 26 82 27 83 28 15 29 16 30 17 31 18 32
REMARK SMILES IDX 19 33 20 34 72 35 21 36 71 37 22 38 23 39 24 40 65 41 25 42
REMARK SMILES IDX 70 43 64 44 66 45 26 46 69 47 63 48 62 49 27 51 53 52 36 53
REMARK SMILES IDX 52 54 37 55 40 56 51 57 67 58 38 59 39 60 50 62 68 63 41 64
REMARK SMILES IDX 28 65 29 66 34 67 30 68 31 69 33 70 35 71 32 72 54 73 55 74
REMARK SMILES IDX 60 75 56 76 57 77 59 78 61 79 58 80 42 81 43 82 48 83 44 84
REMARK SMILES IDX 45 85 47 86 49 87 46 88
REMARK H PARENT 66 50 40 61
REMARK Flexibility Score: inf
ROOT
ATOM      1  C   UNL A   1      33.077  31.811  27.571  1.00  0.00     0.274 C 
ENDROOT
BRANCH   1   2
ATOM      2  O   UNL A   1      33.757  30.558  27.338  1.00  0.00    -0.462 OA
BRANCH   2   3
ATOM      3  C   UNL A   1      32.950  29.507  27.067  1.00  0.00     0.310 C 
ATOM      4  O   UNL A   1      31.763  29.453  27.387  1.00  0.00    -0.252 OA
BRANCH   3   5
ATOM      5  C   UNL A   1      33.626  28.312  26.469  1.00  0.00     0.160 C 
BRANCH   5   6
ATOM      6  C   UNL A   1      32.938  27.334  25.562  1.00  0.00    -0.008 A 
ATOM      7  C   UNL A   1      31.706  23.789  26.554  1.00  0.00     0.119 A 
ATOM      8  C   UNL A   1      31.124  23.493  25.334  1.00  0.00     0.048 A 
ATOM      9  C   UNL A   1      32.227  25.077  26.767  1.00  0.00     0.057 A 
ATOM     10  C   UNL A   1      31.132  24.436  24.297  1.00  0.00     0.031 A 
ATOM     11  C   UNL A   1      32.357  26.024  25.723  1.00  0.00     0.007 A 
ATOM     12  C   UNL A   1      31.810  25.658  24.483  1.00  0.00     0.049 A 
ATOM     13  N   UNL A   1      32.056  26.708  23.620  1.00  0.00    -0.340 N 
ATOM     14  C   UNL A   1      32.997  27.535  24.185  1.00  0.00     0.020 A 
ATOM     15  C   UNL A   1      33.852  28.511  23.448  1.00  0.00     0.065 C 
BRANCH   7  16
ATOM     16  O   UNL A   1      31.774  22.943  27.628  1.00  0.00    -0.497 OA
ATOM     17  C   UNL A   1      33.037  22.356  27.930  1.00  0.00     0.278 C 
ENDBRANCH   7  16
BRANCH  13  18
ATOM     18  C   UNL A   1      31.409  26.923  22.325  1.00  0.00     0.158 C 
BRANCH  18  19
ATOM     19  C   UNL A   1      30.317  27.969  22.424  1.00  0.00    -0.021 A 
ATOM     20  C   UNL A   1      30.599  29.324  21.990  1.00  0.00     0.024 A 
ATOM     21  C   UNL A   1      29.098  27.697  22.921  1.00  0.00     0.077 A 
ATOM     22  C   UNL A   1      29.741  30.318  22.243  1.00  0.00     0.095 A 
ATOM     23  C   UNL A   1      28.084  28.778  23.108  1.00  0.00     0.255 A 
ATOM     24  N   UNL A   1      28.517  30.065  22.826  1.00  0.00    -0.258 N 
ATOM     25  O   UNL A   1      26.966  28.469  23.503  1.00  0.00    -0.269 OA
BRANCH  24  26
ATOM     26  C   UNL A   1      27.597  31.144  23.071  1.00  0.00     0.451 C 
ATOM     27  F   UNL A   1      27.870  31.750  24.251  1.00  0.00    -0.185 F 
ATOM     28  F   UNL A   1      27.654  32.079  22.093  1.00  0.00    -0.185 F 
ENDBRANCH  24  26
ENDBRANCH  18  19
ENDBRANCH  13  18
ENDBRANCH   5   6
ENDBRANCH   3   5
ENDBRANCH   2   3
ENDBRANCH   1   2
BRANCH   1  29
ATOM     29  C   UNL A   1      34.075  32.885  28.011  1.00  0.00     0.275 C 
BRANCH  29  30
ATOM     30  O   UNL A   1      35.391  32.306  28.032  1.00  0.00    -0.458 OA
BRANCH  30  31
ATOM     31  C   UNL A   1      35.951  32.077  29.246  1.00  0.00     0.338 C 
ATOM     32  O   UNL A   1      35.464  32.297  30.341  1.00  0.00    -0.246 OA
BRANCH  31  33
ATOM     33  C   UNL A   1      37.099  31.190  28.983  1.00  0.00     0.060 A 
ATOM     34  C   UNL A   1      36.894  29.842  28.688  1.00  0.00     0.016 A 
ATOM     35  C   UNL A   1      38.370  31.657  29.319  1.00  0.00     0.016 A 
ATOM     36  C   UNL A   1      37.927  28.941  28.915  1.00  0.00     0.010 A 
ATOM     37  C   UNL A   1      39.375  30.755  29.604  1.00  0.00     0.010 A 
ATOM     38  C   UNL A   1      39.128  29.395  29.477  1.00  0.00    -0.014 A 
BRANCH  38  39
ATOM     39  C   UNL A   1      40.240  28.479  29.665  1.00  0.00     0.031 A 
ATOM     40  C   UNL A   1      40.637  28.422  31.087  1.00  0.00     0.074 A 
ATOM     41  C   UNL A   1      40.787  27.642  28.764  1.00  0.00     0.049 A 
ATOM     42  N   UNL A   1      41.600  29.079  31.637  1.00  0.00    -0.248 NA
ATOM     43  C   UNL A   1      39.739  27.753  32.040  1.00  0.00     0.031 C 
ATOM     44  C   UNL A   1      40.337  27.291  27.418  1.00  0.00     0.029 A 
ATOM     45  N   UNL A   1      41.900  26.868  28.925  1.00  0.00    -0.354 N 
ATOM     46  C   UNL A   1      41.564  28.730  32.979  1.00  0.00     0.074 A 
ATOM     47  C   UNL A   1      40.279  28.127  33.199  1.00  0.00     0.031 C 
ATOM     48  C   UNL A   1      41.070  26.246  26.954  1.00  0.00     0.029 A 
ATOM     49  C   UNL A   1      42.135  25.956  27.904  1.00  0.00     0.049 A 
ATOM     50  H   UNL A   1      42.493  26.950  29.706  1.00  0.00     0.167 HD
ATOM     51  C   UNL A   1      42.710  28.704  33.710  1.00  0.00     0.037 A 
ATOM     52  C   UNL A   1      43.134  25.035  27.860  1.00  0.00     0.037 A 
ATOM     53  C   UNL A   1      43.766  29.421  33.025  1.00  0.00     0.049 A 
ATOM     54  C   UNL A   1      44.191  25.477  28.803  1.00  0.00     0.074 A 
ATOM     55  C   UNL A   1      43.932  30.711  32.557  1.00  0.00     0.029 A 
ATOM     56  N   UNL A   1      44.717  28.668  32.378  1.00  0.00    -0.354 N 
ATOM     57  N   UNL A   1      44.957  26.510  28.602  1.00  0.00    -0.248 NA
ATOM     58  C   UNL A   1      44.115  25.019  30.182  1.00  0.00     0.031 C 
ATOM     59  C   UNL A   1      44.654  30.575  31.332  1.00  0.00     0.029 A 
ATOM     60  C   UNL A   1      44.934  29.222  31.146  1.00  0.00     0.049 A 
ATOM     61  H   UNL A   1      45.166  27.870  32.740  1.00  0.00     0.167 HD
ATOM     62  C   UNL A   1      45.087  27.101  29.850  1.00  0.00     0.074 A 
ATOM     63  C   UNL A   1      44.642  26.081  30.798  1.00  0.00     0.031 C 
ATOM     64  C   UNL A   1      45.270  28.449  29.971  1.00  0.00     0.037 A 
BRANCH  51  65
ATOM     65  C   UNL A   1      43.009  27.663  34.770  1.00  0.00     0.057 A 
ATOM     66  C   UNL A   1      42.952  27.873  36.164  1.00  0.00     0.134 A 
ATOM     67  C   UNL A   1      43.024  26.312  34.378  1.00  0.00     0.134 A 
ATOM     68  F   UNL A   1      42.938  29.084  36.726  1.00  0.00    -0.206 F 
ATOM     69  C   UNL A   1      42.810  26.830  37.082  1.00  0.00     0.040 A 
ATOM     70  C   UNL A   1      42.834  25.264  35.285  1.00  0.00     0.040 A 
ATOM     71  F   UNL A   1      43.118  25.971  33.083  1.00  0.00    -0.206 F 
ATOM     72  C   UNL A   1      42.701  25.523  36.641  1.00  0.00     0.006 A 
ENDBRANCH  51  65
BRANCH  52  73
ATOM     73  C   UNL A   1      43.177  23.695  27.231  1.00  0.00     0.057 A 
ATOM     74  C   UNL A   1      43.623  23.534  25.909  1.00  0.00     0.134 A 
ATOM     75  C   UNL A   1      42.511  22.595  27.794  1.00  0.00     0.134 A 
ATOM     76  F   UNL A   1      44.207  24.546  25.253  1.00  0.00    -0.206 F 
ATOM     77  C   UNL A   1      43.399  22.360  25.182  1.00  0.00     0.040 A 
ATOM     78  C   UNL A   1      42.280  21.413  27.077  1.00  0.00     0.040 A 
ATOM     79  F   UNL A   1      42.009  22.663  29.036  1.00  0.00    -0.206 F 
ATOM     80  C   UNL A   1      42.714  21.297  25.760  1.00  0.00     0.006 A 
ENDBRANCH  52  73
BRANCH  64  81
ATOM     81  C   UNL A   1      45.628  29.213  28.726  1.00  0.00     0.057 A 
ATOM     82  C   UNL A   1      46.977  29.477  28.466  1.00  0.00     0.134 A 
ATOM     83  C   UNL A   1      44.691  29.780  27.847  1.00  0.00     0.134 A 
ATOM     84  F   UNL A   1      47.928  29.011  29.291  1.00  0.00    -0.206 F 
ATOM     85  C   UNL A   1      47.382  30.253  27.378  1.00  0.00     0.040 A 
ATOM     86  C   UNL A   1      45.084  30.530  26.735  1.00  0.00     0.040 A 
ATOM     87  F   UNL A   1      43.375  29.662  28.065  1.00  0.00    -0.206 F 
ATOM     88  C   UNL A   1      46.434  30.772  26.500  1.00  0.00     0.006 A 
ENDBRANCH  64  81
ENDBRANCH  38  39
ENDBRANCH  31  33
ENDBRANCH  30  31
ENDBRANCH  29  30
ENDBRANCH   1  29
TORSDOF 16
ENDMDL
MODEL 3
REMARK VINA RESULT:     -11.4      3.286      5.323
REMARK SMILES COc1ccc2c(c1)c(CC(=O)OCCOC(=O)c1ccc(-c3c4nc(c(-c5c(F)cccc5F)c5ccc([nH]5)c(-c5c(F)cccc5F)c5nc(c(-c6c(F)cccc6F)c6ccc3[nH]6)C=C5)C=C4)cc1)c(C)n2Cc1ccn(C(F)F)c(=O)c1
REMARK SMILES IDX 14 1 13 2 11 3 12 4 10 5 9 6 3 7 4 8 8 9 5 10 7 11 6 12
REMARK SMILES IDX 75 13 73 14 74 15 2 16 1 17 76 18 77 19 78 20 86 21 79 22
REMARK SMILES IDX 84 23 80 24 85 25 81 26 82 27 83 28 15 29 16 30 17 31 18 32
REMARK SMILES IDX 19 33 20 34 72 35 21 36 71 37 22 38 23 39 24 40 65 41 25 42
REMARK SMILES IDX 70 43 64 44 66 45 26 46 69 47 63 48 62 49 27 51 53 52 36 53
REMARK SMILES IDX 52 54 37 55 40 56 51 57 67 58 38 59 39 60 50 62 68 63 41 64
REMARK SMILES IDX 28 65 29 66 34 67 30 68 31 69 33 70 35 71 32 72 54 73 55 74
REMARK SMILES IDX 60 75 56 76 57 77 59 78 61 79 58 80 42 81 43 82 48 83 44 84
REMARK SMILES IDX 45 85 47 86 49 87 46 88
REMARK H PARENT 66 50 40 61
REMARK Flexibility Score: inf
ROOT
ATOM      1  C   UNL A   1      36.738  22.432  25.483  1.00  0.00     0.274 C 
ENDROOT
BRANCH   1   2
ATOM      2  O   UNL A   1      35.931  21.825  24.448  1.00  0.00    -0.462 OA
BRANCH   2   3
ATOM      3  C   UNL A   1      34.827  22.523  24.098  1.00  0.00     0.310 C 
ATOM      4  O   UNL A   1      33.906  22.060  23.428  1.00  0.00    -0.252 OA
BRANCH   3   5
ATOM      5  C   UNL A   1      34.848  23.979  24.450  1.00  0.00     0.160 C 
BRANCH   5   6
ATOM      6  C   UNL A   1      33.610  24.796  24.681  1.00  0.00    -0.008 A 
ATOM      7  C   UNL A   1      30.537  23.722  26.795  1.00  0.00     0.119 A 
ATOM      8  C   UNL A   1      29.847  24.914  26.661  1.00  0.00     0.048 A 
ATOM      9  C   UNL A   1      31.840  23.626  26.277  1.00  0.00     0.057 A 
ATOM     10  C   UNL A   1      30.406  25.981  25.945  1.00  0.00     0.031 A 
ATOM     11  C   UNL A   1      32.404  24.630  25.455  1.00  0.00     0.007 A 
ATOM     12  C   UNL A   1      31.643  25.798  25.293  1.00  0.00     0.049 A 
ATOM     13  N   UNL A   1      32.367  26.626  24.457  1.00  0.00    -0.340 N 
ATOM     14  C   UNL A   1      33.360  25.890  23.856  1.00  0.00     0.020 A 
ATOM     15  C   UNL A   1      34.072  26.256  22.596  1.00  0.00     0.065 C 
BRANCH   7  16
ATOM     16  O   UNL A   1      30.083  22.611  27.454  1.00  0.00    -0.497 OA
ATOM     17  C   UNL A   1      28.673  22.439  27.569  1.00  0.00     0.278 C 
ENDBRANCH   7  16
BRANCH  13  18
ATOM     18  C   UNL A   1      32.136  28.056  24.256  1.00  0.00     0.158 C 
BRANCH  18  19
ATOM     19  C   UNL A   1      32.732  28.874  25.385  1.00  0.00    -0.021 A 
ATOM     20  C   UNL A   1      31.988  30.005  25.904  1.00  0.00     0.024 A 
ATOM     21  C   UNL A   1      33.939  28.606  25.911  1.00  0.00     0.077 A 
ATOM     22  C   UNL A   1      32.556  30.868  26.752  1.00  0.00     0.095 A 
ATOM     23  C   UNL A   1      34.544  29.499  26.944  1.00  0.00     0.255 A 
ATOM     24  N   UNL A   1      33.826  30.648  27.241  1.00  0.00    -0.258 N 
ATOM     25  O   UNL A   1      35.618  29.176  27.441  1.00  0.00    -0.269 OA
BRANCH  24  26
ATOM     26  C   UNL A   1      34.414  31.577  28.171  1.00  0.00     0.451 C 
ATOM     27  F   UNL A   1      35.641  31.967  27.750  1.00  0.00    -0.185 F 
ATOM     28  F   UNL A   1      33.647  32.683  28.321  1.00  0.00    -0.185 F 
ENDBRANCH  24  26
ENDBRANCH  18  19
ENDBRANCH  13  18
ENDBRANCH   5   6
ENDBRANCH   3   5
ENDBRANCH   2   3
ENDBRANCH   1   2
BRANCH   1  29
ATOM     29  C   UNL A   1      38.218  22.115  25.258  1.00  0.00     0.275 C 
BRANCH  29  30
ATOM     30  O   UNL A   1      38.881  22.093  26.533  1.00  0.00    -0.458 OA
BRANCH  30  31
ATOM     31  C   UNL A   1      40.139  22.596  26.590  1.00  0.00     0.338 C 
ATOM     32  O   UNL A   1      41.077  22.336  25.856  1.00  0.00    -0.246 OA
BRANCH  31  33
ATOM     33  C   UNL A   1      40.049  23.770  27.477  1.00  0.00     0.060 A 
ATOM     34  C   UNL A   1      38.963  24.641  27.383  1.00  0.00     0.016 A 
ATOM     35  C   UNL A   1      41.193  24.137  28.187  1.00  0.00     0.016 A 
ATOM     36  C   UNL A   1      39.107  25.944  27.844  1.00  0.00     0.010 A 
ATOM     37  C   UNL A   1      41.356  25.448  28.587  1.00  0.00     0.010 A 
ATOM     38  C   UNL A   1      40.345  26.367  28.344  1.00  0.00    -0.014 A 
BRANCH  38  39
ATOM     39  C   UNL A   1      40.496  27.706  28.886  1.00  0.00     0.031 A 
ATOM     40  C   UNL A   1      41.639  28.399  28.256  1.00  0.00     0.074 A 
ATOM     41  C   UNL A   1      39.669  28.362  29.722  1.00  0.00     0.049 A 
ATOM     42  N   UNL A   1      42.831  28.498  28.738  1.00  0.00    -0.248 NA
ATOM     43  C   UNL A   1      41.515  28.827  26.854  1.00  0.00     0.031 C 
ATOM     44  C   UNL A   1      38.333  28.002  30.189  1.00  0.00     0.029 A 
ATOM     45  N   UNL A   1      39.880  29.577  30.308  1.00  0.00    -0.354 N 
ATOM     46  C   UNL A   1      43.556  29.198  27.785  1.00  0.00     0.074 A 
ATOM     47  C   UNL A   1      42.778  29.151  26.578  1.00  0.00     0.031 C 
ATOM     48  C   UNL A   1      37.783  29.057  30.845  1.00  0.00     0.029 A 
ATOM     49  C   UNL A   1      38.783  30.106  30.974  1.00  0.00     0.049 A 
ATOM     50  H   UNL A   1      40.745  30.043  30.261  1.00  0.00     0.167 HD
ATOM     51  C   UNL A   1      44.586  30.001  28.162  1.00  0.00     0.037 A 
ATOM     52  C   UNL A   1      38.718  31.321  31.580  1.00  0.00     0.037 A 
ATOM     53  C   UNL A   1      44.996  29.697  29.518  1.00  0.00     0.049 A 
ATOM     54  C   UNL A   1      40.109  31.767  31.840  1.00  0.00     0.074 A 
ATOM     55  C   UNL A   1      45.453  28.570  30.176  1.00  0.00     0.029 A 
ATOM     56  N   UNL A   1      44.582  30.558  30.507  1.00  0.00    -0.354 N 
ATOM     57  N   UNL A   1      40.892  31.222  32.726  1.00  0.00    -0.248 NA
ATOM     58  C   UNL A   1      40.781  32.550  30.814  1.00  0.00     0.031 C 
ATOM     59  C   UNL A   1      44.866  28.630  31.477  1.00  0.00     0.029 A 
ATOM     60  C   UNL A   1      44.129  29.811  31.561  1.00  0.00     0.049 A 
ATOM     61  H   UNL A   1      44.608  31.541  30.464  1.00  0.00     0.167 HD
ATOM     62  C   UNL A   1      42.142  31.203  32.126  1.00  0.00     0.074 A 
ATOM     63  C   UNL A   1      42.036  32.130  31.002  1.00  0.00     0.031 C 
ATOM     64  C   UNL A   1      43.048  30.226  32.427  1.00  0.00     0.037 A 
BRANCH  51  65
ATOM     65  C   UNL A   1      44.894  31.336  27.516  1.00  0.00     0.057 A 
ATOM     66  C   UNL A   1      44.233  32.552  27.792  1.00  0.00     0.134 A 
ATOM     67  C   UNL A   1      46.122  31.473  26.843  1.00  0.00     0.134 A 
ATOM     68  F   UNL A   1      43.054  32.625  28.414  1.00  0.00    -0.206 F 
ATOM     69  C   UNL A   1      44.799  33.800  27.520  1.00  0.00     0.040 A 
ATOM     70  C   UNL A   1      46.718  32.717  26.611  1.00  0.00     0.040 A 
ATOM     71  F   UNL A   1      46.835  30.393  26.484  1.00  0.00    -0.206 F 
ATOM     72  C   UNL A   1      46.067  33.886  26.973  1.00  0.00     0.006 A 
ENDBRANCH  51  65
BRANCH  52  73
ATOM     73  C   UNL A   1      37.569  32.237  31.775  1.00  0.00     0.057 A 
ATOM     74  C   UNL A   1      36.751  32.132  32.911  1.00  0.00     0.134 A 
ATOM     75  C   UNL A   1      37.070  33.027  30.728  1.00  0.00     0.134 A 
ATOM     76  F   UNL A   1      37.099  31.346  33.940  1.00  0.00    -0.206 F 
ATOM     77  C   UNL A   1      35.500  32.755  32.993  1.00  0.00     0.040 A 
ATOM     78  C   UNL A   1      35.820  33.656  30.796  1.00  0.00     0.040 A 
ATOM     79  F   UNL A   1      37.756  33.155  29.583  1.00  0.00    -0.206 F 
ATOM     80  C   UNL A   1      35.023  33.510  31.927  1.00  0.00     0.006 A 
ENDBRANCH  52  73
BRANCH  64  81
ATOM     81  C   UNL A   1      42.768  29.370  33.632  1.00  0.00     0.057 A 
ATOM     82  C   UNL A   1      43.398  29.687  34.840  1.00  0.00     0.134 A 
ATOM     83  C   UNL A   1      41.993  28.200  33.610  1.00  0.00     0.134 A 
ATOM     84  F   UNL A   1      44.196  30.764  34.924  1.00  0.00    -0.206 F 
ATOM     85  C   UNL A   1      43.256  28.891  35.978  1.00  0.00     0.040 A 
ATOM     86  C   UNL A   1      41.815  27.412  34.751  1.00  0.00     0.040 A 
ATOM     87  F   UNL A   1      41.427  27.762  32.477  1.00  0.00    -0.206 F 
ATOM     88  C   UNL A   1      42.451  27.755  35.940  1.00  0.00     0.006 A 
ENDBRANCH  64  81
ENDBRANCH  38  39
ENDBRANCH  31  33
ENDBRANCH  30  31
ENDBRANCH  29  30
ENDBRANCH   1  29
TORSDOF 16
ENDMDL
