MODEL 1
REMARK VINA RESULT:     -10.3      0.000      0.000
REMARK SMILES O=C(C[C@H](c1ccsc1)n1cccc1)OCCOC(=O)c1ccc(-c2c3nc(c(-c4c(F)cccc4F)c4ccc([nH]4)c(-c4c(F)cccc4F)c4nc(c(-c5c(F)cccc5F)c5ccc2[nH]5)C=C4)C=C3)cc1
REMARK SMILES IDX 16 1 15 2 2 3 1 4 3 5 4 6 10 7 11 8 14 9 12 10 13 11 5 12
REMARK SMILES IDX 6 13 9 14 7 15 8 16 17 17 18 18 19 19 20 20 21 21 22 22
REMARK SMILES IDX 74 23 23 24 73 25 24 26 25 27 26 28 67 29 27 30 72 31 66 32
REMARK SMILES IDX 68 33 28 34 71 35 65 36 64 37 29 39 55 40 38 41 54 42 39 43
REMARK SMILES IDX 42 44 53 45 69 46 40 47 41 48 52 50 70 51 43 52 30 53 31 54
REMARK SMILES IDX 36 55 32 56 33 57 35 58 37 59 34 60 56 61 57 62 62 63 58 64
REMARK SMILES IDX 59 65 61 66 63 67 60 68 44 69 45 70 50 71 46 72 47 73 49 74
REMARK SMILES IDX 51 75 48 76
REMARK H PARENT 68 38 42 49
REMARK Flexibility Score: inf
ROOT
ATOM      1  C   UNL A   1      37.783  20.048  25.039  1.00  0.00     0.274 C 
ENDROOT
BRANCH   1   2
ATOM      2  O   UNL A   1      37.916  21.351  25.632  1.00  0.00    -0.462 OA
BRANCH   2   3
ATOM      3  C   UNL A   1      37.338  22.510  25.266  1.00  0.00     0.308 C 
ATOM      4  O   UNL A   1      37.865  23.566  25.618  1.00  0.00    -0.252 OA
BRANCH   3   5
ATOM      5  C   UNL A   1      36.026  22.564  24.518  1.00  0.00     0.153 C 
BRANCH   5   6
ATOM      6  C   UNL A   1      34.739  22.375  25.332  1.00  0.00     0.128 C 
BRANCH   6   7
ATOM      7  N   UNL A   1      34.027  23.628  25.643  1.00  0.00    -0.346 N 
ATOM      8  C   UNL A   1      34.372  24.873  25.165  1.00  0.00     0.086 A 
ATOM      9  C   UNL A   1      32.903  23.766  26.424  1.00  0.00     0.086 A 
ATOM     10  C   UNL A   1      33.411  25.775  25.567  1.00  0.00     0.019 A 
ATOM     11  C   UNL A   1      32.480  25.074  26.363  1.00  0.00     0.019 A 
ENDBRANCH   6   7
BRANCH   6  12
ATOM     12  C   UNL A   1      33.777  21.435  24.615  1.00  0.00    -0.014 A 
ATOM     13  C   UNL A   1      32.904  21.796  23.526  1.00  0.00     0.017 A 
ATOM     14  C   UNL A   1      33.662  20.084  24.889  1.00  0.00     0.070 A 
ATOM     15  C   UNL A   1      32.173  20.733  23.048  1.00  0.00     0.065 A 
ATOM     16  S   UNL A   1      32.530  19.290  23.883  1.00  0.00    -0.152 S 
ENDBRANCH   6  12
ENDBRANCH   5   6
ENDBRANCH   3   5
ENDBRANCH   2   3
ENDBRANCH   1   2
BRANCH   1  17
ATOM     17  C   UNL A   1      38.968  19.139  25.311  1.00  0.00     0.275 C 
BRANCH  17  18
ATOM     18  O   UNL A   1      39.879  19.743  26.217  1.00  0.00    -0.458 OA
BRANCH  18  19
ATOM     19  C   UNL A   1      41.184  19.417  26.067  1.00  0.00     0.338 C 
ATOM     20  O   UNL A   1      41.647  18.349  25.752  1.00  0.00    -0.246 OA
BRANCH  19  21
ATOM     21  C   UNL A   1      41.973  20.620  26.397  1.00  0.00     0.060 A 
ATOM     22  C   UNL A   1      42.147  20.941  27.744  1.00  0.00     0.016 A 
ATOM     23  C   UNL A   1      42.409  21.482  25.374  1.00  0.00     0.016 A 
ATOM     24  C   UNL A   1      42.616  22.200  28.064  1.00  0.00     0.010 A 
ATOM     25  C   UNL A   1      42.902  22.725  25.689  1.00  0.00     0.010 A 
ATOM     26  C   UNL A   1      42.916  23.098  27.029  1.00  0.00    -0.014 A 
BRANCH  26  27
ATOM     27  C   UNL A   1      43.172  24.496  27.378  1.00  0.00     0.031 A 
ATOM     28  C   UNL A   1      41.854  25.262  27.541  1.00  0.00     0.074 A 
ATOM     29  C   UNL A   1      44.508  24.814  27.401  1.00  0.00     0.049 A 
ATOM     30  N   UNL A   1      41.571  26.492  27.259  1.00  0.00    -0.248 NA
ATOM     31  C   UNL A   1      40.639  24.534  28.011  1.00  0.00     0.031 C 
ATOM     32  C   UNL A   1      45.627  23.836  27.284  1.00  0.00     0.029 A 
ATOM     33  N   UNL A   1      45.216  25.989  27.510  1.00  0.00    -0.354 N 
ATOM     34  C   UNL A   1      40.255  26.748  27.710  1.00  0.00     0.074 A 
ATOM     35  C   UNL A   1      39.692  25.475  28.042  1.00  0.00     0.031 C 
ATOM     36  C   UNL A   1      46.824  24.458  27.226  1.00  0.00     0.029 A 
ATOM     37  C   UNL A   1      46.622  25.889  27.290  1.00  0.00     0.049 A 
ATOM     38  H   UNL A   1      44.781  26.845  27.725  1.00  0.00     0.167 HD
ATOM     39  C   UNL A   1      39.783  28.015  27.911  1.00  0.00     0.037 A 
ATOM     40  C   UNL A   1      47.537  26.895  27.107  1.00  0.00     0.037 A 
ATOM     41  C   UNL A   1      40.788  28.957  27.546  1.00  0.00     0.049 A 
ATOM     42  C   UNL A   1      46.758  28.116  27.320  1.00  0.00     0.074 A 
ATOM     43  C   UNL A   1      41.281  29.326  26.322  1.00  0.00     0.029 A 
ATOM     44  N   UNL A   1      41.691  29.302  28.525  1.00  0.00    -0.354 N 
ATOM     45  N   UNL A   1      46.339  28.523  28.478  1.00  0.00    -0.248 NA
ATOM     46  C   UNL A   1      46.300  28.870  26.148  1.00  0.00     0.031 C 
ATOM     47  C   UNL A   1      42.668  29.398  26.555  1.00  0.00     0.029 A 
ATOM     48  C   UNL A   1      42.926  29.366  27.932  1.00  0.00     0.049 A 
ATOM     49  H   UNL A   1      41.487  29.472  29.474  1.00  0.00     0.167 HD
ATOM     50  C   UNL A   1      45.295  29.344  28.134  1.00  0.00     0.074 A 
ATOM     51  C   UNL A   1      45.528  29.759  26.764  1.00  0.00     0.031 C 
ATOM     52  C   UNL A   1      44.097  29.197  28.758  1.00  0.00     0.037 A 
BRANCH  39  53
ATOM     53  C   UNL A   1      38.580  28.560  28.627  1.00  0.00     0.057 A 
ATOM     54  C   UNL A   1      37.835  29.588  28.000  1.00  0.00     0.134 A 
ATOM     55  C   UNL A   1      38.340  28.383  29.992  1.00  0.00     0.134 A 
ATOM     56  F   UNL A   1      37.944  29.816  26.681  1.00  0.00    -0.206 F 
ATOM     57  C   UNL A   1      37.015  30.469  28.710  1.00  0.00     0.040 A 
ATOM     58  C   UNL A   1      37.484  29.235  30.707  1.00  0.00     0.040 A 
ATOM     59  F   UNL A   1      38.988  27.449  30.699  1.00  0.00    -0.206 F 
ATOM     60  C   UNL A   1      36.854  30.305  30.076  1.00  0.00     0.006 A 
ENDBRANCH  39  53
BRANCH  40  61
ATOM     61  C   UNL A   1      48.971  27.105  26.667  1.00  0.00     0.057 A 
ATOM     62  C   UNL A   1      49.961  27.811  27.352  1.00  0.00     0.134 A 
ATOM     63  C   UNL A   1      49.446  26.459  25.487  1.00  0.00     0.134 A 
ATOM     64  F   UNL A   1      49.667  28.570  28.414  1.00  0.00    -0.206 F 
ATOM     65  C   UNL A   1      51.321  27.773  26.964  1.00  0.00     0.040 A 
ATOM     66  C   UNL A   1      50.792  26.367  25.122  1.00  0.00     0.040 A 
ATOM     67  F   UNL A   1      48.614  25.863  24.621  1.00  0.00    -0.206 F 
ATOM     68  C   UNL A   1      51.746  27.013  25.878  1.00  0.00     0.006 A 
ENDBRANCH  40  61
BRANCH  52  69
ATOM     69  C   UNL A   1      44.174  28.498  30.112  1.00  0.00     0.057 A 
ATOM     70  C   UNL A   1      44.920  29.066  31.155  1.00  0.00     0.134 A 
ATOM     71  C   UNL A   1      43.661  27.219  30.383  1.00  0.00     0.134 A 
ATOM     72  F   UNL A   1      45.434  30.298  31.020  1.00  0.00    -0.206 F 
ATOM     73  C   UNL A   1      45.175  28.391  32.358  1.00  0.00     0.040 A 
ATOM     74  C   UNL A   1      43.899  26.529  31.581  1.00  0.00     0.040 A 
ATOM     75  F   UNL A   1      42.903  26.583  29.494  1.00  0.00    -0.206 F 
ATOM     76  C   UNL A   1      44.673  27.112  32.573  1.00  0.00     0.006 A 
ENDBRANCH  52  69
ENDBRANCH  26  27
ENDBRANCH  19  21
ENDBRANCH  18  19
ENDBRANCH  17  18
ENDBRANCH   1  17
TORSDOF 14
ENDMDL
MODEL 2
REMARK VINA RESULT:     -10.3      1.090      2.109
REMARK SMILES O=C(C[C@H](c1ccsc1)n1cccc1)OCCOC(=O)c1ccc(-c2c3nc(c(-c4c(F)cccc4F)c4ccc([nH]4)c(-c4c(F)cccc4F)c4nc(c(-c5c(F)cccc5F)c5ccc2[nH]5)C=C4)C=C3)cc1
REMARK SMILES IDX 16 1 15 2 2 3 1 4 3 5 4 6 10 7 11 8 14 9 12 10 13 11 5 12
REMARK SMILES IDX 6 13 9 14 7 15 8 16 17 17 18 18 19 19 20 20 21 21 22 22
REMARK SMILES IDX 74 23 23 24 73 25 24 26 25 27 26 28 67 29 27 30 72 31 66 32
REMARK SMILES IDX 68 33 28 34 71 35 65 36 64 37 29 39 55 40 38 41 54 42 39 43
REMARK SMILES IDX 42 44 53 45 69 46 40 47 41 48 52 50 70 51 43 52 30 53 31 54
REMARK SMILES IDX 36 55 32 56 33 57 35 58 37 59 34 60 56 61 57 62 62 63 58 64
REMARK SMILES IDX 59 65 61 66 63 67 60 68 44 69 45 70 50 71 46 72 47 73 49 74
REMARK SMILES IDX 51 75 48 76
REMARK H PARENT 68 38 42 49
REMARK Flexibility Score: inf
ROOT
ATOM      1  C   UNL A   1      39.005  21.575  25.839  1.00  0.00     0.274 C 
ENDROOT
BRANCH   1   2
ATOM      2  O   UNL A   1      37.633  21.878  25.535  1.00  0.00    -0.462 OA
BRANCH   2   3
ATOM      3  C   UNL A   1      36.965  23.034  25.703  1.00  0.00     0.308 C 
ATOM      4  O   UNL A   1      37.613  24.069  25.868  1.00  0.00    -0.252 OA
BRANCH   3   5
ATOM      5  C   UNL A   1      35.457  23.098  25.784  1.00  0.00     0.153 C 
BRANCH   5   6
ATOM      6  C   UNL A   1      34.704  23.620  24.554  1.00  0.00     0.128 C 
BRANCH   6   7
ATOM      7  N   UNL A   1      33.772  22.647  23.953  1.00  0.00    -0.346 N 
ATOM      8  C   UNL A   1      33.491  21.401  24.469  1.00  0.00     0.086 A 
ATOM      9  C   UNL A   1      33.019  22.820  22.816  1.00  0.00     0.086 A 
ATOM     10  C   UNL A   1      32.491  20.832  23.710  1.00  0.00     0.019 A 
ATOM     11  C   UNL A   1      32.191  21.731  22.664  1.00  0.00     0.019 A 
ENDBRANCH   6   7
BRANCH   6  12
ATOM     12  C   UNL A   1      33.930  24.889  24.889  1.00  0.00    -0.014 A 
ATOM     13  C   UNL A   1      33.833  26.060  24.053  1.00  0.00     0.017 A 
ATOM     14  C   UNL A   1      33.166  25.055  26.029  1.00  0.00     0.070 A 
ATOM     15  C   UNL A   1      33.035  27.042  24.592  1.00  0.00     0.065 A 
ATOM     16  S   UNL A   1      32.381  26.572  26.096  1.00  0.00    -0.152 S 
ENDBRANCH   6  12
ENDBRANCH   5   6
ENDBRANCH   3   5
ENDBRANCH   2   3
ENDBRANCH   1   2
BRANCH   1  17
ATOM     17  C   UNL A   1      39.406  20.161  25.463  1.00  0.00     0.275 C 
BRANCH  17  18
ATOM     18  O   UNL A   1      40.233  19.580  26.461  1.00  0.00    -0.458 OA
BRANCH  18  19
ATOM     19  C   UNL A   1      41.527  19.371  26.126  1.00  0.00     0.338 C 
ATOM     20  O   UNL A   1      42.012  18.383  25.634  1.00  0.00    -0.246 OA
BRANCH  19  21
ATOM     21  C   UNL A   1      42.276  20.584  26.509  1.00  0.00     0.060 A 
ATOM     22  C   UNL A   1      42.324  20.927  27.861  1.00  0.00     0.016 A 
ATOM     23  C   UNL A   1      42.800  21.433  25.517  1.00  0.00     0.016 A 
ATOM     24  C   UNL A   1      42.756  22.193  28.203  1.00  0.00     0.010 A 
ATOM     25  C   UNL A   1      43.256  22.684  25.855  1.00  0.00     0.010 A 
ATOM     26  C   UNL A   1      43.144  23.077  27.186  1.00  0.00    -0.014 A 
BRANCH  26  27
ATOM     27  C   UNL A   1      43.360  24.481  27.535  1.00  0.00     0.031 A 
ATOM     28  C   UNL A   1      42.021  25.216  27.670  1.00  0.00     0.074 A 
ATOM     29  C   UNL A   1      44.687  24.832  27.580  1.00  0.00     0.049 A 
ATOM     30  N   UNL A   1      41.714  26.439  27.378  1.00  0.00    -0.248 NA
ATOM     31  C   UNL A   1      40.816  24.460  28.120  1.00  0.00     0.031 C 
ATOM     32  C   UNL A   1      45.832  23.882  27.488  1.00  0.00     0.029 A 
ATOM     33  N   UNL A   1      45.365  26.024  27.699  1.00  0.00    -0.354 N 
ATOM     34  C   UNL A   1      40.384  26.664  27.804  1.00  0.00     0.074 A 
ATOM     35  C   UNL A   1      39.845  25.379  28.130  1.00  0.00     0.031 C 
ATOM     36  C   UNL A   1      47.015  24.532  27.450  1.00  0.00     0.029 A 
ATOM     37  C   UNL A   1      46.777  25.957  27.505  1.00  0.00     0.049 A 
ATOM     38  H   UNL A   1      44.905  26.870  27.903  1.00  0.00     0.167 HD
ATOM     39  C   UNL A   1      39.878  27.920  27.992  1.00  0.00     0.037 A 
ATOM     40  C   UNL A   1      47.671  26.985  27.336  1.00  0.00     0.037 A 
ATOM     41  C   UNL A   1      40.867  28.884  27.643  1.00  0.00     0.049 A 
ATOM     42  C   UNL A   1      46.858  28.188  27.530  1.00  0.00     0.074 A 
ATOM     43  C   UNL A   1      41.373  29.262  26.427  1.00  0.00     0.029 A 
ATOM     44  N   UNL A   1      41.742  29.254  28.637  1.00  0.00    -0.354 N 
ATOM     45  N   UNL A   1      46.408  28.588  28.679  1.00  0.00    -0.248 NA
ATOM     46  C   UNL A   1      46.404  28.926  26.348  1.00  0.00     0.031 C 
ATOM     47  C   UNL A   1      42.754  29.368  26.686  1.00  0.00     0.029 A 
ATOM     48  C   UNL A   1      42.986  29.346  28.067  1.00  0.00     0.049 A 
ATOM     49  H   UNL A   1      41.517  29.422  29.581  1.00  0.00     0.167 HD
ATOM     50  C   UNL A   1      45.351  29.382  28.313  1.00  0.00     0.074 A 
ATOM     51  C   UNL A   1      45.599  29.799  26.947  1.00  0.00     0.031 C 
ATOM     52  C   UNL A   1      44.145  29.207  28.915  1.00  0.00     0.037 A 
BRANCH  39  53
ATOM     53  C   UNL A   1      38.649  28.437  28.684  1.00  0.00     0.057 A 
ATOM     54  C   UNL A   1      37.924  29.485  28.067  1.00  0.00     0.134 A 
ATOM     55  C   UNL A   1      38.362  28.213  30.033  1.00  0.00     0.134 A 
ATOM     56  F   UNL A   1      38.078  29.759  26.761  1.00  0.00    -0.206 F 
ATOM     57  C   UNL A   1      37.077  30.339  28.777  1.00  0.00     0.040 A 
ATOM     58  C   UNL A   1      37.479  29.038  30.746  1.00  0.00     0.040 A 
ATOM     59  F   UNL A   1      38.988  27.256  30.729  1.00  0.00    -0.206 F 
ATOM     60  C   UNL A   1      36.868  30.129  30.131  1.00  0.00     0.006 A 
ENDBRANCH  39  53
BRANCH  40  61
ATOM     61  C   UNL A   1      49.107  27.229  26.923  1.00  0.00     0.057 A 
ATOM     62  C   UNL A   1      49.705  26.859  25.717  1.00  0.00     0.134 A 
ATOM     63  C   UNL A   1      49.961  27.996  27.770  1.00  0.00     0.134 A 
ATOM     64  F   UNL A   1      49.089  26.041  24.856  1.00  0.00    -0.206 F 
ATOM     65  C   UNL A   1      50.989  27.316  25.340  1.00  0.00     0.040 A 
ATOM     66  C   UNL A   1      51.208  28.500  27.389  1.00  0.00     0.040 A 
ATOM     67  F   UNL A   1      49.617  28.311  29.027  1.00  0.00    -0.206 F 
ATOM     68  C   UNL A   1      51.722  28.176  26.153  1.00  0.00     0.006 A 
ENDBRANCH  40  61
BRANCH  52  69
ATOM     69  C   UNL A   1      44.214  28.515  30.273  1.00  0.00     0.057 A 
ATOM     70  C   UNL A   1      44.929  29.102  31.327  1.00  0.00     0.134 A 
ATOM     71  C   UNL A   1      43.724  27.226  30.540  1.00  0.00     0.134 A 
ATOM     72  F   UNL A   1      45.418  30.345  31.196  1.00  0.00    -0.206 F 
ATOM     73  C   UNL A   1      45.178  28.437  32.536  1.00  0.00     0.040 A 
ATOM     74  C   UNL A   1      43.957  26.545  31.744  1.00  0.00     0.040 A 
ATOM     75  F   UNL A   1      42.997  26.570  29.640  1.00  0.00    -0.206 F 
ATOM     76  C   UNL A   1      44.700  27.148  32.747  1.00  0.00     0.006 A 
ENDBRANCH  52  69
ENDBRANCH  26  27
ENDBRANCH  19  21
ENDBRANCH  18  19
ENDBRANCH  17  18
ENDBRANCH   1  17
TORSDOF 14
ENDMDL
MODEL 3
REMARK VINA RESULT:     -10.0      5.056     10.045
REMARK SMILES O=C(C[C@H](c1ccsc1)n1cccc1)OCCOC(=O)c1ccc(-c2c3nc(c(-c4c(F)cccc4F)c4ccc([nH]4)c(-c4c(F)cccc4F)c4nc(c(-c5c(F)cccc5F)c5ccc2[nH]5)C=C4)C=C3)cc1
REMARK SMILES IDX 16 1 15 2 2 3 1 4 3 5 4 6 10 7 11 8 14 9 12 10 13 11 5 12
REMARK SMILES IDX 6 13 9 14 7 15 8 16 17 17 18 18 19 19 20 20 21 21 22 22
REMARK SMILES IDX 74 23 23 24 73 25 24 26 25 27 26 28 67 29 27 30 72 31 66 32
REMARK SMILES IDX 68 33 28 34 71 35 65 36 64 37 29 39 55 40 38 41 54 42 39 43
REMARK SMILES IDX 42 44 53 45 69 46 40 47 41 48 52 50 70 51 43 52 30 53 31 54
REMARK SMILES IDX 36 55 32 56 33 57 35 58 37 59 34 60 56 61 57 62 62 63 58 64
REMARK SMILES IDX 59 65 61 66 63 67 60 68 44 69 45 70 50 71 46 72 47 73 49 74
REMARK SMILES IDX 51 75 48 76
REMARK H PARENT 68 38 42 49
REMARK Flexibility Score: inf
ROOT
ATOM      1  C   UNL A   1      33.404  31.476  27.655  1.00  0.00     0.274 C 
ENDROOT
BRANCH   1   2
ATOM      2  O   UNL A   1      33.177  30.527  26.599  1.00  0.00    -0.462 OA
BRANCH   2   3
ATOM      3  C   UNL A   1      33.800  29.358  26.363  1.00  0.00     0.308 C 
ATOM      4  O   UNL A   1      34.586  28.930  27.209  1.00  0.00    -0.252 OA
BRANCH   3   5
ATOM      5  C   UNL A   1      33.639  28.596  25.067  1.00  0.00     0.153 C 
BRANCH   5   6
ATOM      6  C   UNL A   1      32.681  27.398  25.065  1.00  0.00     0.128 C 
BRANCH   6   7
ATOM      7  N   UNL A   1      31.506  27.560  24.190  1.00  0.00    -0.346 N 
ATOM      8  C   UNL A   1      30.325  26.861  24.316  1.00  0.00     0.086 A 
ATOM      9  C   UNL A   1      31.375  28.436  23.138  1.00  0.00     0.086 A 
ATOM     10  C   UNL A   1      29.422  27.366  23.404  1.00  0.00     0.019 A 
ATOM     11  C   UNL A   1      30.086  28.364  22.660  1.00  0.00     0.019 A 
ENDBRANCH   6   7
BRANCH   6  12
ATOM     12  C   UNL A   1      33.411  26.121  24.666  1.00  0.00    -0.014 A 
ATOM     13  C   UNL A   1      33.438  25.547  23.343  1.00  0.00     0.017 A 
ATOM     14  C   UNL A   1      34.197  25.374  25.524  1.00  0.00     0.070 A 
ATOM     15  C   UNL A   1      34.209  24.410  23.266  1.00  0.00     0.065 A 
ATOM     16  S   UNL A   1      34.920  24.023  24.766  1.00  0.00    -0.152 S 
ENDBRANCH   6  12
ENDBRANCH   5   6
ENDBRANCH   3   5
ENDBRANCH   2   3
ENDBRANCH   1   2
BRANCH   1  17
ATOM     17  C   UNL A   1      32.464  32.666  27.607  1.00  0.00     0.275 C 
BRANCH  17  18
ATOM     18  O   UNL A   1      33.186  33.884  27.492  1.00  0.00    -0.458 OA
BRANCH  18  19
ATOM     19  C   UNL A   1      33.186  34.689  28.579  1.00  0.00     0.338 C 
ATOM     20  O   UNL A   1      32.380  35.538  28.870  1.00  0.00    -0.246 OA
BRANCH  19  21
ATOM     21  C   UNL A   1      34.398  34.367  29.358  1.00  0.00     0.060 A 
ATOM     22  C   UNL A   1      35.640  34.605  28.767  1.00  0.00     0.016 A 
ATOM     23  C   UNL A   1      34.288  33.712  30.598  1.00  0.00     0.016 A 
ATOM     24  C   UNL A   1      36.761  34.044  29.346  1.00  0.00     0.010 A 
ATOM     25  C   UNL A   1      35.405  33.175  31.191  1.00  0.00     0.010 A 
ATOM     26  C   UNL A   1      36.613  33.275  30.509  1.00  0.00    -0.014 A 
BRANCH  26  27
ATOM     27  C   UNL A   1      37.758  32.488  30.969  1.00  0.00     0.031 A 
ATOM     28  C   UNL A   1      37.916  31.218  30.124  1.00  0.00     0.074 A 
ATOM     29  C   UNL A   1      38.369  33.015  32.081  1.00  0.00     0.049 A 
ATOM     30  N   UNL A   1      38.320  30.039  30.468  1.00  0.00    -0.248 NA
ATOM     31  C   UNL A   1      37.482  31.234  28.696  1.00  0.00     0.031 C 
ATOM     32  C   UNL A   1      38.064  34.346  32.680  1.00  0.00     0.029 A 
ATOM     33  N   UNL A   1      39.343  32.572  32.946  1.00  0.00    -0.354 N 
ATOM     34  C   UNL A   1      38.404  29.251  29.296  1.00  0.00     0.074 A 
ATOM     35  C   UNL A   1      37.754  29.999  28.264  1.00  0.00     0.031 C 
ATOM     36  C   UNL A   1      38.744  34.539  33.830  1.00  0.00     0.029 A 
ATOM     37  C   UNL A   1      39.551  33.372  34.109  1.00  0.00     0.049 A 
ATOM     38  H   UNL A   1      39.863  31.754  32.774  1.00  0.00     0.167 HD
ATOM     39  C   UNL A   1      39.138  28.099  29.239  1.00  0.00     0.037 A 
ATOM     40  C   UNL A   1      40.270  33.074  35.239  1.00  0.00     0.037 A 
ATOM     41  C   UNL A   1      39.710  27.840  30.518  1.00  0.00     0.049 A 
ATOM     42  C   UNL A   1      40.892  31.785  34.926  1.00  0.00     0.074 A 
ATOM     43  C   UNL A   1      39.143  27.430  31.697  1.00  0.00     0.029 A 
ATOM     44  N   UNL A   1      40.928  28.423  30.776  1.00  0.00    -0.354 N 
ATOM     45  N   UNL A   1      41.876  31.632  34.095  1.00  0.00    -0.248 NA
ATOM     46  C   UNL A   1      40.293  30.565  35.475  1.00  0.00     0.031 C 
ATOM     47  C   UNL A   1      39.788  28.243  32.650  1.00  0.00     0.029 A 
ATOM     48  C   UNL A   1      40.894  28.877  32.069  1.00  0.00     0.049 A 
ATOM     49  H   UNL A   1      41.684  28.499  30.148  1.00  0.00     0.167 HD
ATOM     50  C   UNL A   1      41.764  30.307  33.759  1.00  0.00     0.074 A 
ATOM     51  C   UNL A   1      41.033  29.666  34.835  1.00  0.00     0.031 C 
ATOM     52  C   UNL A   1      41.785  29.947  32.448  1.00  0.00     0.037 A 
BRANCH  39  53
ATOM     53  C   UNL A   1      39.624  27.248  28.101  1.00  0.00     0.057 A 
ATOM     54  C   UNL A   1      39.577  25.841  28.248  1.00  0.00     0.134 A 
ATOM     55  C   UNL A   1      40.430  27.722  27.062  1.00  0.00     0.134 A 
ATOM     56  F   UNL A   1      38.796  25.268  29.179  1.00  0.00    -0.206 F 
ATOM     57  C   UNL A   1      40.383  24.975  27.506  1.00  0.00     0.040 A 
ATOM     58  C   UNL A   1      41.210  26.857  26.281  1.00  0.00     0.040 A 
ATOM     59  F   UNL A   1      40.563  29.033  26.827  1.00  0.00    -0.206 F 
ATOM     60  C   UNL A   1      41.222  25.487  26.530  1.00  0.00     0.006 A 
ENDBRANCH  39  53
BRANCH  40  61
ATOM     61  C   UNL A   1      40.498  33.582  36.647  1.00  0.00     0.057 A 
ATOM     62  C   UNL A   1      39.570  33.602  37.690  1.00  0.00     0.134 A 
ATOM     63  C   UNL A   1      41.803  34.007  37.038  1.00  0.00     0.134 A 
ATOM     64  F   UNL A   1      38.275  33.347  37.475  1.00  0.00    -0.206 F 
ATOM     65  C   UNL A   1      39.939  33.900  39.023  1.00  0.00     0.040 A 
ATOM     66  C   UNL A   1      42.194  34.250  38.358  1.00  0.00     0.040 A 
ATOM     67  F   UNL A   1      42.784  34.198  36.145  1.00  0.00    -0.206 F 
ATOM     68  C   UNL A   1      41.259  34.177  39.367  1.00  0.00     0.006 A 
ENDBRANCH  40  61
BRANCH  52  69
ATOM     69  C   UNL A   1      42.437  30.972  31.525  1.00  0.00     0.057 A 
ATOM     70  C   UNL A   1      43.786  31.315  31.696  1.00  0.00     0.134 A 
ATOM     71  C   UNL A   1      41.751  31.736  30.567  1.00  0.00     0.134 A 
ATOM     72  F   UNL A   1      44.549  30.631  32.563  1.00  0.00    -0.206 F 
ATOM     73  C   UNL A   1      44.392  32.372  31.000  1.00  0.00     0.040 A 
ATOM     74  C   UNL A   1      42.340  32.793  29.857  1.00  0.00     0.040 A 
ATOM     75  F   UNL A   1      40.476  31.490  30.279  1.00  0.00    -0.206 F 
ATOM     76  C   UNL A   1      43.667  33.124  30.082  1.00  0.00     0.006 A 
ENDBRANCH  52  69
ENDBRANCH  26  27
ENDBRANCH  19  21
ENDBRANCH  18  19
ENDBRANCH  17  18
ENDBRANCH   1  17
TORSDOF 14
ENDMDL
