MODEL 1
REMARK VINA RESULT:     -11.5      0.000      0.000
REMARK SMILES C[C@H](Oc1ccc(C(=O)NCc2ccccc2)cc1)C(=O)OCCOC(=O)c1ccc(-c2c3nc(c(-c4c(F)cccc4F)c4ccc([nH]4)c(-c4c(F)cccc4F)c4nc(c(-c5c(F)cccc5F)c5ccc2[nH]5)C=C4)C=C3)cc1
REMARK SMILES IDX 22 1 20 2 21 3 2 4 1 5 3 6 4 7 5 8 19 9 6 10 18 11 7 12 8 13
REMARK SMILES IDX 9 14 10 15 11 17 12 18 13 19 17 20 14 21 16 22 15 23 23 24
REMARK SMILES IDX 24 25 25 26 26 27 27 28 28 29 29 30 81 31 30 32 80 33 31 34
REMARK SMILES IDX 32 35 33 36 74 37 34 38 79 39 73 40 75 41 35 42 78 43 72 44
REMARK SMILES IDX 71 45 36 47 62 48 45 49 61 50 46 51 49 52 60 53 76 54 47 55
REMARK SMILES IDX 48 56 59 58 77 59 50 60 37 61 38 62 43 63 39 64 40 65 42 66
REMARK SMILES IDX 44 67 41 68 63 69 64 70 69 71 65 72 66 73 68 74 70 75 67 76
REMARK SMILES IDX 51 77 52 78 57 79 53 80 54 81 56 82 58 83 55 84
REMARK H PARENT 10 16 75 46 49 57
REMARK Flexibility Score: inf
ROOT
ATOM      1  O   UNL A   1      41.187  21.244  25.686  1.00  0.00    -0.459 OA
ENDROOT
BRANCH   1   2
ATOM      2  C   UNL A   1      40.320  21.703  26.633  1.00  0.00     0.347 C 
ATOM      3  O   UNL A   1      40.420  21.485  27.835  1.00  0.00    -0.248 OA
BRANCH   2   4
ATOM      4  C   UNL A   1      39.148  22.472  26.017  1.00  0.00     0.279 C 
ATOM      5  C   UNL A   1      38.791  23.597  26.986  1.00  0.00     0.066 C 
BRANCH   4   6
ATOM      6  O   UNL A   1      38.091  21.543  25.770  1.00  0.00    -0.479 OA
BRANCH   6   7
ATOM      7  C   UNL A   1      37.010  21.899  25.026  1.00  0.00     0.120 A 
ATOM      8  C   UNL A   1      36.936  22.953  24.125  1.00  0.00     0.047 A 
ATOM      9  C   UNL A   1      35.876  21.117  25.254  1.00  0.00     0.047 A 
ATOM     10  C   UNL A   1      35.706  23.277  23.536  1.00  0.00     0.017 A 
ATOM     11  C   UNL A   1      34.645  21.442  24.671  1.00  0.00     0.017 A 
ATOM     12  C   UNL A   1      34.544  22.537  23.813  1.00  0.00     0.040 A 
BRANCH  12  13
ATOM     13  C   UNL A   1      33.262  23.064  23.267  1.00  0.00     0.251 C 
ATOM     14  O   UNL A   1      33.030  22.917  22.064  1.00  0.00    -0.269 OA
ATOM     15  N   UNL A   1      32.319  23.719  24.011  1.00  0.00    -0.348 N 
ATOM     16  H   UNL A   1      31.579  24.087  23.475  1.00  0.00     0.164 HD
BRANCH  15  17
ATOM     17  C   UNL A   1      32.191  23.975  25.429  1.00  0.00     0.152 C 
BRANCH  17  18
ATOM     18  C   UNL A   1      32.426  25.420  25.813  1.00  0.00    -0.029 A 
ATOM     19  C   UNL A   1      33.676  26.049  25.704  1.00  0.00     0.005 A 
ATOM     20  C   UNL A   1      31.349  26.165  26.322  1.00  0.00     0.005 A 
ATOM     21  C   UNL A   1      33.845  27.381  26.089  1.00  0.00     0.000 A 
ATOM     22  C   UNL A   1      31.519  27.498  26.705  1.00  0.00     0.000 A 
ATOM     23  C   UNL A   1      32.767  28.105  26.589  1.00  0.00     0.000 A 
ENDBRANCH  17  18
ENDBRANCH  15  17
ENDBRANCH  12  13
ENDBRANCH   6   7
ENDBRANCH   4   6
ENDBRANCH   2   4
ENDBRANCH   1   2
BRANCH   1  24
ATOM     24  C   UNL A   1      42.520  20.920  26.122  1.00  0.00     0.274 C 
BRANCH  24  25
ATOM     25  C   UNL A   1      43.573  21.776  25.415  1.00  0.00     0.275 C 
BRANCH  25  26
ATOM     26  O   UNL A   1      43.028  23.042  24.997  1.00  0.00    -0.458 OA
BRANCH  26  27
ATOM     27  C   UNL A   1      43.852  24.103  25.145  1.00  0.00     0.338 C 
ATOM     28  O   UNL A   1      44.835  24.381  24.473  1.00  0.00    -0.246 OA
BRANCH  27  29
ATOM     29  C   UNL A   1      43.315  24.993  26.183  1.00  0.00     0.060 A 
ATOM     30  C   UNL A   1      43.818  26.296  26.259  1.00  0.00     0.016 A 
ATOM     31  C   UNL A   1      42.365  24.543  27.101  1.00  0.00     0.016 A 
ATOM     32  C   UNL A   1      43.363  27.162  27.250  1.00  0.00     0.010 A 
ATOM     33  C   UNL A   1      41.917  25.409  28.102  1.00  0.00     0.010 A 
ATOM     34  C   UNL A   1      42.417  26.721  28.184  1.00  0.00    -0.014 A 
BRANCH  34  35
ATOM     35  C   UNL A   1      41.981  27.617  29.279  1.00  0.00     0.031 A 
ATOM     36  C   UNL A   1      42.708  27.597  30.591  1.00  0.00     0.074 A 
ATOM     37  C   UNL A   1      40.932  28.439  29.096  1.00  0.00     0.049 A 
ATOM     38  N   UNL A   1      42.427  28.225  31.702  1.00  0.00    -0.248 NA
ATOM     39  C   UNL A   1      43.914  26.756  30.660  1.00  0.00     0.031 C 
ATOM     40  C   UNL A   1      40.172  28.574  27.853  1.00  0.00     0.029 A 
ATOM     41  N   UNL A   1      40.318  29.308  29.962  1.00  0.00    -0.354 N 
ATOM     42  C   UNL A   1      43.407  27.843  32.609  1.00  0.00     0.074 A 
ATOM     43  C   UNL A   1      44.283  26.919  31.921  1.00  0.00     0.031 C 
ATOM     44  C   UNL A   1      39.184  29.462  28.041  1.00  0.00     0.029 A 
ATOM     45  C   UNL A   1      39.215  29.926  29.427  1.00  0.00     0.049 A 
ATOM     46  H   UNL A   1      40.637  29.471  30.879  1.00  0.00     0.167 HD
ATOM     47  C   UNL A   1      43.558  28.231  33.898  1.00  0.00     0.037 A 
ATOM     48  C   UNL A   1      38.313  30.745  30.000  1.00  0.00     0.037 A 
ATOM     49  C   UNL A   1      42.689  29.160  34.572  1.00  0.00     0.049 A 
ATOM     50  C   UNL A   1      38.467  31.108  31.451  1.00  0.00     0.074 A 
ATOM     51  C   UNL A   1      42.780  29.641  35.867  1.00  0.00     0.029 A 
ATOM     52  N   UNL A   1      41.567  29.743  34.006  1.00  0.00    -0.354 N 
ATOM     53  N   UNL A   1      39.404  30.755  32.296  1.00  0.00    -0.248 NA
ATOM     54  C   UNL A   1      37.432  31.977  32.031  1.00  0.00     0.031 C 
ATOM     55  C   UNL A   1      41.686  30.483  36.097  1.00  0.00     0.029 A 
ATOM     56  C   UNL A   1      40.938  30.558  34.933  1.00  0.00     0.049 A 
ATOM     57  H   UNL A   1      41.261  29.599  33.081  1.00  0.00     0.167 HD
ATOM     58  C   UNL A   1      39.084  31.369  33.500  1.00  0.00     0.074 A 
ATOM     59  C   UNL A   1      37.872  32.129  33.273  1.00  0.00     0.031 C 
ATOM     60  C   UNL A   1      39.733  31.308  34.688  1.00  0.00     0.037 A 
BRANCH  47  61
ATOM     61  C   UNL A   1      44.689  27.626  34.674  1.00  0.00     0.057 A 
ATOM     62  C   UNL A   1      44.547  26.423  35.375  1.00  0.00     0.134 A 
ATOM     63  C   UNL A   1      45.948  28.239  34.686  1.00  0.00     0.134 A 
ATOM     64  F   UNL A   1      43.363  25.793  35.412  1.00  0.00    -0.206 F 
ATOM     65  C   UNL A   1      45.614  25.858  36.076  1.00  0.00     0.040 A 
ATOM     66  C   UNL A   1      47.028  27.674  35.365  1.00  0.00     0.040 A 
ATOM     67  F   UNL A   1      46.151  29.392  34.032  1.00  0.00    -0.206 F 
ATOM     68  C   UNL A   1      46.860  26.480  36.067  1.00  0.00     0.006 A 
ENDBRANCH  47  61
BRANCH  48  69
ATOM     69  C   UNL A   1      37.163  31.249  29.210  1.00  0.00     0.057 A 
ATOM     70  C   UNL A   1      37.139  32.558  28.717  1.00  0.00     0.134 A 
ATOM     71  C   UNL A   1      36.055  30.436  28.939  1.00  0.00     0.134 A 
ATOM     72  F   UNL A   1      38.160  33.391  28.964  1.00  0.00    -0.206 F 
ATOM     73  C   UNL A   1      36.050  33.045  27.992  1.00  0.00     0.040 A 
ATOM     74  C   UNL A   1      34.971  30.902  28.197  1.00  0.00     0.040 A 
ATOM     75  F   UNL A   1      36.018  29.172  29.386  1.00  0.00    -0.206 F 
ATOM     76  C   UNL A   1      34.963  32.213  27.725  1.00  0.00     0.006 A 
ENDBRANCH  48  69
BRANCH  60  77
ATOM     77  C   UNL A   1      39.160  32.098  35.825  1.00  0.00     0.057 A 
ATOM     78  C   UNL A   1      38.254  31.533  36.730  1.00  0.00     0.134 A 
ATOM     79  C   UNL A   1      39.554  33.424  36.043  1.00  0.00     0.134 A 
ATOM     80  F   UNL A   1      37.827  30.272  36.566  1.00  0.00    -0.206 F 
ATOM     81  C   UNL A   1      37.748  32.264  37.806  1.00  0.00     0.040 A 
ATOM     82  C   UNL A   1      39.073  34.158  37.129  1.00  0.00     0.040 A 
ATOM     83  F   UNL A   1      40.425  34.021  35.215  1.00  0.00    -0.206 F 
ATOM     84  C   UNL A   1      38.165  33.578  38.011  1.00  0.00     0.006 A 
ENDBRANCH  60  77
ENDBRANCH  34  35
ENDBRANCH  27  29
ENDBRANCH  26  27
ENDBRANCH  25  26
ENDBRANCH  24  25
ENDBRANCH   1  24
TORSDOF 16
ENDMDL
MODEL 2
REMARK VINA RESULT:     -11.3      1.757      3.314
REMARK SMILES C[C@H](Oc1ccc(C(=O)NCc2ccccc2)cc1)C(=O)OCCOC(=O)c1ccc(-c2c3nc(c(-c4c(F)cccc4F)c4ccc([nH]4)c(-c4c(F)cccc4F)c4nc(c(-c5c(F)cccc5F)c5ccc2[nH]5)C=C4)C=C3)cc1
REMARK SMILES IDX 22 1 20 2 21 3 2 4 1 5 3 6 4 7 5 8 19 9 6 10 18 11 7 12 8 13
REMARK SMILES IDX 9 14 10 15 11 17 12 18 13 19 17 20 14 21 16 22 15 23 23 24
REMARK SMILES IDX 24 25 25 26 26 27 27 28 28 29 29 30 81 31 30 32 80 33 31 34
REMARK SMILES IDX 32 35 33 36 74 37 34 38 79 39 73 40 75 41 35 42 78 43 72 44
REMARK SMILES IDX 71 45 36 47 62 48 45 49 61 50 46 51 49 52 60 53 76 54 47 55
REMARK SMILES IDX 48 56 59 58 77 59 50 60 37 61 38 62 43 63 39 64 40 65 42 66
REMARK SMILES IDX 44 67 41 68 63 69 64 70 69 71 65 72 66 73 68 74 70 75 67 76
REMARK SMILES IDX 51 77 52 78 57 79 53 80 54 81 56 82 58 83 55 84
REMARK H PARENT 10 16 75 46 49 57
REMARK Flexibility Score: inf
ROOT
ATOM      1  O   UNL A   1      43.857  20.333  24.916  1.00  0.00    -0.459 OA
ENDROOT
BRANCH   1   2
ATOM      2  C   UNL A   1      43.477  19.152  25.478  1.00  0.00     0.347 C 
ATOM      3  O   UNL A   1      43.975  18.062  25.218  1.00  0.00    -0.248 OA
BRANCH   2   4
ATOM      4  C   UNL A   1      42.291  19.322  26.432  1.00  0.00     0.279 C 
ATOM      5  C   UNL A   1      42.613  18.527  27.695  1.00  0.00     0.066 C 
BRANCH   4   6
ATOM      6  O   UNL A   1      41.110  18.900  25.748  1.00  0.00    -0.479 OA
BRANCH   6   7
ATOM      7  C   UNL A   1      40.010  19.699  25.700  1.00  0.00     0.120 A 
ATOM      8  C   UNL A   1      38.776  19.375  25.153  1.00  0.00     0.047 A 
ATOM      9  C   UNL A   1      40.205  20.975  26.233  1.00  0.00     0.047 A 
ATOM     10  C   UNL A   1      37.781  20.357  25.055  1.00  0.00     0.017 A 
ATOM     11  C   UNL A   1      39.215  21.959  26.132  1.00  0.00     0.017 A 
ATOM     12  C   UNL A   1      37.993  21.664  25.528  1.00  0.00     0.040 A 
BRANCH  12  13
ATOM     13  C   UNL A   1      36.936  22.671  25.227  1.00  0.00     0.251 C 
ATOM     14  O   UNL A   1      37.259  23.699  24.626  1.00  0.00    -0.269 OA
ATOM     15  N   UNL A   1      35.622  22.540  25.582  1.00  0.00    -0.348 N 
ATOM     16  H   UNL A   1      35.081  23.340  25.393  1.00  0.00     0.164 HD
BRANCH  15  17
ATOM     17  C   UNL A   1      34.870  21.457  26.179  1.00  0.00     0.152 C 
BRANCH  17  18
ATOM     18  C   UNL A   1      34.039  20.671  25.188  1.00  0.00    -0.029 A 
ATOM     19  C   UNL A   1      32.979  21.234  24.459  1.00  0.00     0.005 A 
ATOM     20  C   UNL A   1      34.325  19.308  25.000  1.00  0.00     0.005 A 
ATOM     21  C   UNL A   1      32.230  20.460  23.569  1.00  0.00     0.000 A 
ATOM     22  C   UNL A   1      33.577  18.536  24.109  1.00  0.00     0.000 A 
ATOM     23  C   UNL A   1      32.529  19.112  23.394  1.00  0.00     0.000 A 
ENDBRANCH  17  18
ENDBRANCH  15  17
ENDBRANCH  12  13
ENDBRANCH   6   7
ENDBRANCH   4   6
ENDBRANCH   2   4
ENDBRANCH   1   2
BRANCH   1  24
ATOM     24  C   UNL A   1      45.239  20.710  25.058  1.00  0.00     0.274 C 
BRANCH  24  25
ATOM     25  C   UNL A   1      45.405  22.227  25.181  1.00  0.00     0.275 C 
BRANCH  25  26
ATOM     26  O   UNL A   1      44.443  22.788  26.094  1.00  0.00    -0.458 OA
BRANCH  26  27
ATOM     27  C   UNL A   1      43.511  23.589  25.531  1.00  0.00     0.338 C 
ATOM     28  O   UNL A   1      43.030  23.497  24.411  1.00  0.00    -0.246 OA
BRANCH  27  29
ATOM     29  C   UNL A   1      43.028  24.550  26.532  1.00  0.00     0.060 A 
ATOM     30  C   UNL A   1      43.667  25.791  26.616  1.00  0.00     0.016 A 
ATOM     31  C   UNL A   1      41.993  24.222  27.409  1.00  0.00     0.016 A 
ATOM     32  C   UNL A   1      43.265  26.718  27.575  1.00  0.00     0.010 A 
ATOM     33  C   UNL A   1      41.597  25.148  28.377  1.00  0.00     0.010 A 
ATOM     34  C   UNL A   1      42.234  26.399  28.468  1.00  0.00    -0.014 A 
BRANCH  34  35
ATOM     35  C   UNL A   1      41.850  27.356  29.531  1.00  0.00     0.031 A 
ATOM     36  C   UNL A   1      42.570  27.336  30.846  1.00  0.00     0.074 A 
ATOM     37  C   UNL A   1      40.853  28.233  29.315  1.00  0.00     0.049 A 
ATOM     38  N   UNL A   1      42.324  28.016  31.934  1.00  0.00    -0.248 NA
ATOM     39  C   UNL A   1      43.723  26.427  30.948  1.00  0.00     0.031 C 
ATOM     40  C   UNL A   1      40.107  28.372  28.064  1.00  0.00     0.029 A 
ATOM     41  N   UNL A   1      40.290  29.166  30.149  1.00  0.00    -0.354 N 
ATOM     42  C   UNL A   1      43.276  27.606  32.858  1.00  0.00     0.074 A 
ATOM     43  C   UNL A   1      44.097  26.609  32.206  1.00  0.00     0.031 C 
ATOM     44  C   UNL A   1      39.173  29.323  28.218  1.00  0.00     0.029 A 
ATOM     45  C   UNL A   1      39.228  29.831  29.587  1.00  0.00     0.049 A 
ATOM     46  H   UNL A   1      40.615  29.340  31.061  1.00  0.00     0.167 HD
ATOM     47  C   UNL A   1      43.446  28.027  34.134  1.00  0.00     0.037 A 
ATOM     48  C   UNL A   1      38.375  30.721  30.128  1.00  0.00     0.037 A 
ATOM     49  C   UNL A   1      42.633  29.028  34.773  1.00  0.00     0.049 A 
ATOM     50  C   UNL A   1      38.546  31.123  31.567  1.00  0.00     0.074 A 
ATOM     51  C   UNL A   1      42.749  29.546  36.051  1.00  0.00     0.029 A 
ATOM     52  N   UNL A   1      41.550  29.659  34.181  1.00  0.00    -0.354 N 
ATOM     53  N   UNL A   1      39.458  30.742  32.429  1.00  0.00    -0.248 NA
ATOM     54  C   UNL A   1      37.564  32.071  32.113  1.00  0.00     0.031 C 
ATOM     55  C   UNL A   1      41.707  30.460  36.248  1.00  0.00     0.029 A 
ATOM     56  C   UNL A   1      40.968  30.541  35.079  1.00  0.00     0.049 A 
ATOM     57  H   UNL A   1      41.239  29.503  33.260  1.00  0.00     0.167 HD
ATOM     58  C   UNL A   1      39.171  31.414  33.610  1.00  0.00     0.074 A 
ATOM     59  C   UNL A   1      38.008  32.238  33.351  1.00  0.00     0.031 C 
ATOM     60  C   UNL A   1      39.812  31.353  34.802  1.00  0.00     0.037 A 
BRANCH  47  61
ATOM     61  C   UNL A   1      44.536  27.381  34.936  1.00  0.00     0.057 A 
ATOM     62  C   UNL A   1      45.829  27.916  34.994  1.00  0.00     0.134 A 
ATOM     63  C   UNL A   1      44.277  26.231  35.691  1.00  0.00     0.134 A 
ATOM     64  F   UNL A   1      46.145  29.010  34.283  1.00  0.00    -0.206 F 
ATOM     65  C   UNL A   1      46.831  27.319  35.760  1.00  0.00     0.040 A 
ATOM     66  C   UNL A   1      45.263  25.637  36.478  1.00  0.00     0.040 A 
ATOM     67  F   UNL A   1      43.058  25.671  35.682  1.00  0.00    -0.206 F 
ATOM     68  C   UNL A   1      46.547  26.179  36.511  1.00  0.00     0.006 A 
ENDBRANCH  47  61
BRANCH  48  69
ATOM     69  C   UNL A   1      37.260  31.268  29.316  1.00  0.00     0.057 A 
ATOM     70  C   UNL A   1      36.111  30.513  29.060  1.00  0.00     0.134 A 
ATOM     71  C   UNL A   1      37.325  32.555  28.767  1.00  0.00     0.134 A 
ATOM     72  F   UNL A   1      36.002  29.265  29.539  1.00  0.00    -0.206 F 
ATOM     73  C   UNL A   1      35.069  31.014  28.278  1.00  0.00     0.040 A 
ATOM     74  C   UNL A   1      36.281  33.076  28.003  1.00  0.00     0.040 A 
ATOM     75  F   UNL A   1      38.402  33.327  28.975  1.00  0.00    -0.206 F 
ATOM     76  C   UNL A   1      35.150  32.303  27.751  1.00  0.00     0.006 A 
ENDBRANCH  48  69
BRANCH  60  77
ATOM     77  C   UNL A   1      39.284  32.215  35.909  1.00  0.00     0.057 A 
ATOM     78  C   UNL A   1      39.739  33.525  36.102  1.00  0.00     0.134 A 
ATOM     79  C   UNL A   1      38.276  31.745  36.761  1.00  0.00     0.134 A 
ATOM     80  F   UNL A   1      40.713  34.027  35.328  1.00  0.00    -0.206 F 
ATOM     81  C   UNL A   1      39.220  34.334  37.114  1.00  0.00     0.040 A 
ATOM     82  C   UNL A   1      37.734  32.553  37.762  1.00  0.00     0.040 A 
ATOM     83  F   UNL A   1      37.792  30.502  36.623  1.00  0.00    -0.206 F 
ATOM     84  C   UNL A   1      38.209  33.850  37.942  1.00  0.00     0.006 A 
ENDBRANCH  60  77
ENDBRANCH  34  35
ENDBRANCH  27  29
ENDBRANCH  26  27
ENDBRANCH  25  26
ENDBRANCH  24  25
ENDBRANCH   1  24
TORSDOF 16
ENDMDL
MODEL 3
REMARK VINA RESULT:     -11.3      1.300      2.686
REMARK SMILES C[C@H](Oc1ccc(C(=O)NCc2ccccc2)cc1)C(=O)OCCOC(=O)c1ccc(-c2c3nc(c(-c4c(F)cccc4F)c4ccc([nH]4)c(-c4c(F)cccc4F)c4nc(c(-c5c(F)cccc5F)c5ccc2[nH]5)C=C4)C=C3)cc1
REMARK SMILES IDX 22 1 20 2 21 3 2 4 1 5 3 6 4 7 5 8 19 9 6 10 18 11 7 12 8 13
REMARK SMILES IDX 9 14 10 15 11 17 12 18 13 19 17 20 14 21 16 22 15 23 23 24
REMARK SMILES IDX 24 25 25 26 26 27 27 28 28 29 29 30 81 31 30 32 80 33 31 34
REMARK SMILES IDX 32 35 33 36 74 37 34 38 79 39 73 40 75 41 35 42 78 43 72 44
REMARK SMILES IDX 71 45 36 47 62 48 45 49 61 50 46 51 49 52 60 53 76 54 47 55
REMARK SMILES IDX 48 56 59 58 77 59 50 60 37 61 38 62 43 63 39 64 40 65 42 66
REMARK SMILES IDX 44 67 41 68 63 69 64 70 69 71 65 72 66 73 68 74 70 75 67 76
REMARK SMILES IDX 51 77 52 78 57 79 53 80 54 81 56 82 58 83 55 84
REMARK H PARENT 10 16 75 46 49 57
REMARK Flexibility Score: inf
ROOT
ATOM      1  O   UNL A   1      41.430  21.464  25.649  1.00  0.00    -0.459 OA
ENDROOT
BRANCH   1   2
ATOM      2  C   UNL A   1      40.475  21.615  26.609  1.00  0.00     0.347 C 
ATOM      3  O   UNL A   1      40.469  21.030  27.686  1.00  0.00    -0.248 OA
BRANCH   2   4
ATOM      4  C   UNL A   1      39.353  22.556  26.162  1.00  0.00     0.279 C 
ATOM      5  C   UNL A   1      39.453  23.814  27.022  1.00  0.00     0.066 C 
BRANCH   4   6
ATOM      6  O   UNL A   1      38.115  21.853  26.279  1.00  0.00    -0.479 OA
BRANCH   6   7
ATOM      7  C   UNL A   1      37.025  22.236  25.560  1.00  0.00     0.120 A 
ATOM      8  C   UNL A   1      35.766  22.535  26.062  1.00  0.00     0.047 A 
ATOM      9  C   UNL A   1      37.238  22.283  24.180  1.00  0.00     0.047 A 
ATOM     10  C   UNL A   1      34.707  22.781  25.177  1.00  0.00     0.017 A 
ATOM     11  C   UNL A   1      36.181  22.523  23.295  1.00  0.00     0.017 A 
ATOM     12  C   UNL A   1      34.897  22.763  23.784  1.00  0.00     0.040 A 
BRANCH  12  13
ATOM     13  C   UNL A   1      33.678  22.872  22.935  1.00  0.00     0.251 C 
ATOM     14  O   UNL A   1      33.714  23.607  21.945  1.00  0.00    -0.269 OA
ATOM     15  N   UNL A   1      32.503  22.217  23.185  1.00  0.00    -0.348 N 
ATOM     16  H   UNL A   1      31.769  22.478  22.583  1.00  0.00     0.164 HD
BRANCH  15  17
ATOM     17  C   UNL A   1      32.126  21.215  24.159  1.00  0.00     0.152 C 
BRANCH  17  18
ATOM     18  C   UNL A   1      32.711  19.847  23.886  1.00  0.00    -0.029 A 
ATOM     19  C   UNL A   1      33.740  19.284  24.658  1.00  0.00     0.005 A 
ATOM     20  C   UNL A   1      32.219  19.109  22.796  1.00  0.00     0.005 A 
ATOM     21  C   UNL A   1      34.259  18.024  24.352  1.00  0.00     0.000 A 
ATOM     22  C   UNL A   1      32.738  17.848  22.492  1.00  0.00     0.000 A 
ATOM     23  C   UNL A   1      33.758  17.306  23.270  1.00  0.00     0.000 A 
ENDBRANCH  17  18
ENDBRANCH  15  17
ENDBRANCH  12  13
ENDBRANCH   6   7
ENDBRANCH   4   6
ENDBRANCH   2   4
ENDBRANCH   1   2
BRANCH   1  24
ATOM     24  C   UNL A   1      42.793  21.341  26.095  1.00  0.00     0.274 C 
BRANCH  24  25
ATOM     25  C   UNL A   1      43.758  22.115  25.193  1.00  0.00     0.275 C 
BRANCH  25  26
ATOM     26  O   UNL A   1      43.274  23.443  24.922  1.00  0.00    -0.458 OA
BRANCH  26  27
ATOM     27  C   UNL A   1      44.141  24.442  25.199  1.00  0.00     0.338 C 
ATOM     28  O   UNL A   1      45.186  24.702  24.621  1.00  0.00    -0.246 OA
BRANCH  27  29
ATOM     29  C   UNL A   1      43.575  25.298  26.251  1.00  0.00     0.060 A 
ATOM     30  C   UNL A   1      43.886  26.662  26.229  1.00  0.00     0.016 A 
ATOM     31  C   UNL A   1      42.789  24.763  27.272  1.00  0.00     0.016 A 
ATOM     32  C   UNL A   1      43.399  27.502  27.227  1.00  0.00     0.010 A 
ATOM     33  C   UNL A   1      42.310  25.606  28.279  1.00  0.00     0.010 A 
ATOM     34  C   UNL A   1      42.617  26.979  28.264  1.00  0.00    -0.014 A 
BRANCH  34  35
ATOM     35  C   UNL A   1      42.155  27.857  29.362  1.00  0.00     0.031 A 
ATOM     36  C   UNL A   1      42.883  27.855  30.673  1.00  0.00     0.074 A 
ATOM     37  C   UNL A   1      41.082  28.649  29.182  1.00  0.00     0.049 A 
ATOM     38  N   UNL A   1      42.584  28.470  31.787  1.00  0.00    -0.248 NA
ATOM     39  C   UNL A   1      44.114  27.050  30.739  1.00  0.00     0.031 C 
ATOM     40  C   UNL A   1      40.318  28.765  27.940  1.00  0.00     0.029 A 
ATOM     41  N   UNL A   1      40.443  29.496  30.052  1.00  0.00    -0.354 N 
ATOM     42  C   UNL A   1      43.575  28.114  32.693  1.00  0.00     0.074 A 
ATOM     43  C   UNL A   1      44.479  27.220  32.001  1.00  0.00     0.031 C 
ATOM     44  C   UNL A   1      39.303  29.622  28.131  1.00  0.00     0.029 A 
ATOM     45  C   UNL A   1      39.322  30.082  29.518  1.00  0.00     0.049 A 
ATOM     46  H   UNL A   1      40.757  29.665  30.969  1.00  0.00     0.167 HD
ATOM     47  C   UNL A   1      43.715  28.502  33.982  1.00  0.00     0.037 A 
ATOM     48  C   UNL A   1      38.396  30.872  30.095  1.00  0.00     0.037 A 
ATOM     49  C   UNL A   1      42.819  29.402  34.660  1.00  0.00     0.049 A 
ATOM     50  C   UNL A   1      38.539  31.235  31.547  1.00  0.00     0.074 A 
ATOM     51  C   UNL A   1      42.896  29.882  35.956  1.00  0.00     0.029 A 
ATOM     52  N   UNL A   1      41.680  29.954  34.096  1.00  0.00    -0.354 N 
ATOM     53  N   UNL A   1      39.487  30.907  32.391  1.00  0.00    -0.248 NA
ATOM     54  C   UNL A   1      37.479  32.070  32.131  1.00  0.00     0.031 C 
ATOM     55  C   UNL A   1      41.778  30.690  36.190  1.00  0.00     0.029 A 
ATOM     56  C   UNL A   1      41.027  30.746  35.027  1.00  0.00     0.049 A 
ATOM     57  H   UNL A   1      41.378  29.804  33.171  1.00  0.00     0.167 HD
ATOM     58  C   UNL A   1      39.149  31.506  33.597  1.00  0.00     0.074 A 
ATOM     59  C   UNL A   1      37.915  32.231  33.373  1.00  0.00     0.031 C 
ATOM     60  C   UNL A   1      39.801  31.461  34.784  1.00  0.00     0.037 A 
BRANCH  47  61
ATOM     61  C   UNL A   1      44.864  27.929  34.756  1.00  0.00     0.057 A 
ATOM     62  C   UNL A   1      44.759  26.719  35.451  1.00  0.00     0.134 A 
ATOM     63  C   UNL A   1      46.104  28.580  34.771  1.00  0.00     0.134 A 
ATOM     64  F   UNL A   1      43.595  26.052  35.485  1.00  0.00    -0.206 F 
ATOM     65  C   UNL A   1      45.842  26.184  36.150  1.00  0.00     0.040 A 
ATOM     66  C   UNL A   1      47.200  28.045  35.448  1.00  0.00     0.040 A 
ATOM     67  F   UNL A   1      46.272  29.742  34.122  1.00  0.00    -0.206 F 
ATOM     68  C   UNL A   1      47.069  26.844  36.144  1.00  0.00     0.006 A 
ENDBRANCH  47  61
BRANCH  48  69
ATOM     69  C   UNL A   1      37.231  31.344  29.307  1.00  0.00     0.057 A 
ATOM     70  C   UNL A   1      37.205  32.625  28.746  1.00  0.00     0.134 A 
ATOM     71  C   UNL A   1      36.110  30.528  29.106  1.00  0.00     0.134 A 
ATOM     72  F   UNL A   1      38.238  33.461  28.925  1.00  0.00    -0.206 F 
ATOM     73  C   UNL A   1      36.102  33.083  28.022  1.00  0.00     0.040 A 
ATOM     74  C   UNL A   1      35.012  30.964  28.366  1.00  0.00     0.040 A 
ATOM     75  F   UNL A   1      36.074  29.290  29.620  1.00  0.00    -0.206 F 
ATOM     76  C   UNL A   1      35.003  32.248  27.826  1.00  0.00     0.006 A 
ENDBRANCH  48  69
BRANCH  60  77
ATOM     77  C   UNL A   1      39.204  32.230  35.924  1.00  0.00     0.057 A 
ATOM     78  C   UNL A   1      39.510  33.579  36.140  1.00  0.00     0.134 A 
ATOM     79  C   UNL A   1      38.279  31.628  36.785  1.00  0.00     0.134 A 
ATOM     80  F   UNL A   1      40.400  34.208  35.358  1.00  0.00    -0.206 F 
ATOM     81  C   UNL A   1      38.926  34.300  37.183  1.00  0.00     0.040 A 
ATOM     82  C   UNL A   1      37.671  32.345  37.818  1.00  0.00     0.040 A 
ATOM     83  F   UNL A   1      37.938  30.340  36.627  1.00  0.00    -0.206 F 
ATOM     84  C   UNL A   1      37.998  33.684  38.020  1.00  0.00     0.006 A 
ENDBRANCH  60  77
ENDBRANCH  34  35
ENDBRANCH  27  29
ENDBRANCH  26  27
ENDBRANCH  25  26
ENDBRANCH  24  25
ENDBRANCH   1  24
TORSDOF 16
ENDMDL
