MODEL 1
REMARK VINA RESULT:     -10.9      0.000      0.000
REMARK SMILES O=C(OCCOC(=O)[C@H](c1ccccc1)N1C(=O)/C(=C/c2ccc(-c3nc4ccccc4s3)o2)SC1=S)c1ccc(-c2c3nc(c(-c4c(F)cccc4F)c4ccc([nH]4)c(-c4c(F)cccc4F)c4nc(c(-c5c(F)cccc5F)c5ccc2[nH]5)C=C4)C=C3)cc1
REMARK SMILES IDX 5 1 4 2 3 3 2 4 1 5 38 6 39 7 91 8 40 9 90 10 41 11 42 12
REMARK SMILES IDX 43 13 84 14 44 15 89 16 83 17 85 18 45 19 88 20 82 21 81 22
REMARK SMILES IDX 46 24 72 25 55 26 71 27 56 28 59 29 70 30 86 31 57 32 58 33
REMARK SMILES IDX 69 35 87 36 60 37 47 38 48 39 53 40 49 41 50 42 52 43 54 44
REMARK SMILES IDX 51 45 73 46 74 47 79 48 75 49 76 50 78 51 80 52 77 53 61 54
REMARK SMILES IDX 62 55 67 56 63 57 64 58 66 59 68 60 65 61 6 62 7 63 8 64
REMARK SMILES IDX 9 65 16 66 17 67 36 68 18 69 19 70 35 71 37 72 20 73 21 74
REMARK SMILES IDX 22 75 34 76 23 77 24 78 25 79 26 80 33 81 27 82 32 83 28 84
REMARK SMILES IDX 31 85 29 86 30 87 10 88 11 89 15 90 12 91 14 92 13 93
REMARK H PARENT 85 23 59 34
REMARK Flexibility Score: inf
ROOT
ATOM      1  C   UNL A   1      44.638  39.477  30.842  1.00  0.00     0.274 C 
ENDROOT
BRANCH   1   2
ATOM      2  C   UNL A   1      45.914  38.666  30.627  1.00  0.00     0.275 C 
BRANCH   2   3
ATOM      3  O   UNL A   1      45.649  37.281  30.318  1.00  0.00    -0.458 OA
BRANCH   3   4
ATOM      4  C   UNL A   1      45.818  36.570  29.177  1.00  0.00     0.338 C 
ATOM      5  O   UNL A   1      46.060  37.198  28.146  1.00  0.00    -0.246 OA
BRANCH   4   6
ATOM      6  C   UNL A   1      45.659  35.079  29.043  1.00  0.00     0.060 A 
ATOM      7  C   UNL A   1      45.676  34.342  27.857  1.00  0.00     0.016 A 
ATOM      8  C   UNL A   1      45.502  34.354  30.244  1.00  0.00     0.016 A 
ATOM      9  C   UNL A   1      45.596  32.945  27.864  1.00  0.00     0.010 A 
ATOM     10  C   UNL A   1      45.408  32.954  30.259  1.00  0.00     0.010 A 
ATOM     11  C   UNL A   1      45.449  32.242  29.060  1.00  0.00    -0.014 A 
BRANCH  11  12
ATOM     12  C   UNL A   1      45.116  30.801  28.979  1.00  0.00     0.031 A 
ATOM     13  C   UNL A   1      43.668  30.422  29.035  1.00  0.00     0.074 A 
ATOM     14  C   UNL A   1      46.058  29.874  28.730  1.00  0.00     0.049 A 
ATOM     15  N   UNL A   1      43.106  29.264  28.817  1.00  0.00    -0.248 NA
ATOM     16  C   UNL A   1      42.728  31.495  29.398  1.00  0.00     0.031 C 
ATOM     17  C   UNL A   1      47.493  30.129  28.691  1.00  0.00     0.029 A 
ATOM     18  N   UNL A   1      45.952  28.539  28.426  1.00  0.00    -0.354 N 
ATOM     19  C   UNL A   1      41.751  29.464  29.037  1.00  0.00     0.074 A 
ATOM     20  C   UNL A   1      41.577  30.845  29.428  1.00  0.00     0.031 C 
ATOM     21  C   UNL A   1      48.130  29.009  28.305  1.00  0.00     0.029 A 
ATOM     22  C   UNL A   1      47.150  27.955  28.084  1.00  0.00     0.049 A 
ATOM     23  H   UNL A   1      45.099  28.047  28.449  1.00  0.00     0.167 HD
ATOM     24  C   UNL A   1      40.740  28.573  28.925  1.00  0.00     0.037 A 
ATOM     25  C   UNL A   1      47.414  26.715  27.627  1.00  0.00     0.037 A 
ATOM     26  C   UNL A   1      40.929  27.199  28.553  1.00  0.00     0.049 A 
ATOM     27  C   UNL A   1      46.269  25.748  27.490  1.00  0.00     0.074 A 
ATOM     28  C   UNL A   1      39.987  26.195  28.440  1.00  0.00     0.029 A 
ATOM     29  N   UNL A   1      42.159  26.634  28.241  1.00  0.00    -0.354 N 
ATOM     30  N   UNL A   1      44.989  25.948  27.693  1.00  0.00    -0.248 NA
ATOM     31  C   UNL A   1      46.607  24.377  27.084  1.00  0.00     0.031 C 
ATOM     32  C   UNL A   1      40.652  25.011  28.106  1.00  0.00     0.029 A 
ATOM     33  C   UNL A   1      42.001  25.291  27.948  1.00  0.00     0.049 A 
ATOM     34  H   UNL A   1      43.016  27.119  28.229  1.00  0.00     0.167 HD
ATOM     35  C   UNL A   1      44.369  24.734  27.438  1.00  0.00     0.074 A 
ATOM     36  C   UNL A   1      45.410  23.812  27.028  1.00  0.00     0.031 C 
ATOM     37  C   UNL A   1      43.060  24.400  27.547  1.00  0.00     0.037 A 
BRANCH  24  38
ATOM     38  C   UNL A   1      39.371  29.064  29.287  1.00  0.00     0.057 A 
ATOM     39  C   UNL A   1      38.880  29.006  30.600  1.00  0.00     0.134 A 
ATOM     40  C   UNL A   1      38.507  29.538  28.294  1.00  0.00     0.134 A 
ATOM     41  F   UNL A   1      39.645  28.528  31.592  1.00  0.00    -0.206 F 
ATOM     42  C   UNL A   1      37.563  29.362  30.901  1.00  0.00     0.040 A 
ATOM     43  C   UNL A   1      37.200  29.925  28.588  1.00  0.00     0.040 A 
ATOM     44  F   UNL A   1      38.911  29.610  27.016  1.00  0.00    -0.206 F 
ATOM     45  C   UNL A   1      36.720  29.825  29.892  1.00  0.00     0.006 A 
ENDBRANCH  24  38
BRANCH  25  46
ATOM     46  C   UNL A   1      48.793  26.285  27.265  1.00  0.00     0.057 A 
ATOM     47  C   UNL A   1      49.662  25.750  28.228  1.00  0.00     0.134 A 
ATOM     48  C   UNL A   1      49.308  26.485  25.981  1.00  0.00     0.134 A 
ATOM     49  F   UNL A   1      49.240  25.564  29.488  1.00  0.00    -0.206 F 
ATOM     50  C   UNL A   1      50.996  25.453  27.932  1.00  0.00     0.040 A 
ATOM     51  C   UNL A   1      50.637  26.189  25.670  1.00  0.00     0.040 A 
ATOM     52  F   UNL A   1      48.526  26.970  25.006  1.00  0.00    -0.206 F 
ATOM     53  C   UNL A   1      51.487  25.676  26.649  1.00  0.00     0.006 A 
ENDBRANCH  25  46
BRANCH  37  54
ATOM     54  C   UNL A   1      42.687  22.991  27.193  1.00  0.00     0.057 A 
ATOM     55  C   UNL A   1      42.640  22.547  25.866  1.00  0.00     0.134 A 
ATOM     56  C   UNL A   1      42.402  22.062  28.201  1.00  0.00     0.134 A 
ATOM     57  F   UNL A   1      42.890  23.394  24.854  1.00  0.00    -0.206 F 
ATOM     58  C   UNL A   1      42.292  21.234  25.552  1.00  0.00     0.040 A 
ATOM     59  C   UNL A   1      42.084  20.738  27.900  1.00  0.00     0.040 A 
ATOM     60  F   UNL A   1      42.438  22.424  29.492  1.00  0.00    -0.206 F 
ATOM     61  C   UNL A   1      42.021  20.324  26.572  1.00  0.00     0.006 A 
ENDBRANCH  37  54
ENDBRANCH  11  12
ENDBRANCH   4   6
ENDBRANCH   3   4
ENDBRANCH   2   3
ENDBRANCH   1   2
BRANCH   1  62
ATOM     62  O   UNL A   1      43.695  39.170  29.808  1.00  0.00    -0.460 OA
BRANCH  62  63
ATOM     63  C   UNL A   1      43.012  40.183  29.203  1.00  0.00     0.334 C 
ATOM     64  O   UNL A   1      42.864  41.302  29.681  1.00  0.00    -0.249 OA
BRANCH  63  65
ATOM     65  C   UNL A   1      42.354  39.650  27.920  1.00  0.00     0.232 C 
BRANCH  65  66
ATOM     66  N   UNL A   1      42.851  40.438  26.777  1.00  0.00    -0.274 N 
ATOM     67  C   UNL A   1      41.865  40.980  25.957  1.00  0.00     0.267 C 
ATOM     68  C   UNL A   1      44.144  40.819  26.486  1.00  0.00     0.149 C 
ATOM     69  O   UNL A   1      40.658  40.909  26.133  1.00  0.00    -0.268 OA
ATOM     70  C   UNL A   1      42.465  41.673  24.800  1.00  0.00     0.084 C 
ATOM     71  S   UNL A   1      44.172  41.665  24.946  1.00  0.00    -0.054 SA
ATOM     72  S   UNL A   1      45.578  40.608  27.298  1.00  0.00    -0.052 S 
ATOM     73  C   UNL A   1      41.730  42.184  23.803  1.00  0.00     0.068 C 
BRANCH  73  74
ATOM     74  C   UNL A   1      42.360  42.673  22.630  1.00  0.00     0.129 A 
ATOM     75  C   UNL A   1      42.319  42.123  21.356  1.00  0.00     0.051 A 
ATOM     76  O   UNL A   1      43.182  43.771  22.595  1.00  0.00    -0.454 OA
ATOM     77  C   UNL A   1      43.202  42.859  20.551  1.00  0.00     0.054 A 
ATOM     78  C   UNL A   1      43.721  43.867  21.338  1.00  0.00     0.163 A 
BRANCH  78  79
ATOM     79  C   UNL A   1      44.703  44.823  20.926  1.00  0.00     0.160 A 
ATOM     80  N   UNL A   1      45.663  45.193  21.746  1.00  0.00    -0.233 NA
ATOM     81  S   UNL A   1      44.637  45.635  19.424  1.00  0.00    -0.111 S 
ATOM     82  C   UNL A   1      46.356  46.252  21.199  1.00  0.00     0.082 A 
ATOM     83  C   UNL A   1      45.923  46.663  19.937  1.00  0.00     0.055 A 
ATOM     84  C   UNL A   1      47.416  46.938  21.818  1.00  0.00     0.030 A 
ATOM     85  C   UNL A   1      46.504  47.759  19.280  1.00  0.00     0.021 A 
ATOM     86  C   UNL A   1      48.001  48.031  21.174  1.00  0.00     0.002 A 
ATOM     87  C   UNL A   1      47.544  48.438  19.924  1.00  0.00     0.002 A 
ENDBRANCH  78  79
ENDBRANCH  73  74
ENDBRANCH  65  66
BRANCH  65  88
ATOM     88  C   UNL A   1      42.325  38.135  27.752  1.00  0.00    -0.014 A 
ATOM     89  C   UNL A   1      41.777  37.274  28.716  1.00  0.00     0.006 A 
ATOM     90  C   UNL A   1      42.904  37.553  26.608  1.00  0.00     0.006 A 
ATOM     91  C   UNL A   1      41.857  35.886  28.570  1.00  0.00     0.000 A 
ATOM     92  C   UNL A   1      42.932  36.165  26.435  1.00  0.00     0.000 A 
ATOM     93  C   UNL A   1      42.427  35.332  27.427  1.00  0.00     0.000 A 
ENDBRANCH  65  88
ENDBRANCH  63  65
ENDBRANCH  62  63
ENDBRANCH   1  62
TORSDOF 15
ENDMDL
MODEL 2
REMARK VINA RESULT:     -10.9      1.849      6.415
REMARK SMILES O=C(OCCOC(=O)[C@H](c1ccccc1)N1C(=O)/C(=C/c2ccc(-c3nc4ccccc4s3)o2)SC1=S)c1ccc(-c2c3nc(c(-c4c(F)cccc4F)c4ccc([nH]4)c(-c4c(F)cccc4F)c4nc(c(-c5c(F)cccc5F)c5ccc2[nH]5)C=C4)C=C3)cc1
REMARK SMILES IDX 5 1 4 2 3 3 2 4 1 5 38 6 39 7 91 8 40 9 90 10 41 11 42 12
REMARK SMILES IDX 43 13 84 14 44 15 89 16 83 17 85 18 45 19 88 20 82 21 81 22
REMARK SMILES IDX 46 24 72 25 55 26 71 27 56 28 59 29 70 30 86 31 57 32 58 33
REMARK SMILES IDX 69 35 87 36 60 37 47 38 48 39 53 40 49 41 50 42 52 43 54 44
REMARK SMILES IDX 51 45 73 46 74 47 79 48 75 49 76 50 78 51 80 52 77 53 61 54
REMARK SMILES IDX 62 55 67 56 63 57 64 58 66 59 68 60 65 61 6 62 7 63 8 64
REMARK SMILES IDX 9 65 16 66 17 67 36 68 18 69 19 70 35 71 37 72 20 73 21 74
REMARK SMILES IDX 22 75 34 76 23 77 24 78 25 79 26 80 33 81 27 82 32 83 28 84
REMARK SMILES IDX 31 85 29 86 30 87 10 88 11 89 15 90 12 91 14 92 13 93
REMARK H PARENT 85 23 59 34
REMARK Flexibility Score: inf
ROOT
ATOM      1  C   UNL A   1      44.362  38.298  30.358  1.00  0.00     0.274 C 
ENDROOT
BRANCH   1   2
ATOM      2  C   UNL A   1      44.512  38.174  31.873  1.00  0.00     0.275 C 
BRANCH   2   3
ATOM      3  O   UNL A   1      45.611  37.322  32.256  1.00  0.00    -0.458 OA
BRANCH   3   4
ATOM      4  C   UNL A   1      45.636  36.066  32.763  1.00  0.00     0.338 C 
ATOM      5  O   UNL A   1      45.929  35.937  33.952  1.00  0.00    -0.246 OA
BRANCH   4   6
ATOM      6  C   UNL A   1      45.411  34.800  31.979  1.00  0.00     0.060 A 
ATOM      7  C   UNL A   1      45.371  34.676  30.588  1.00  0.00     0.016 A 
ATOM      8  C   UNL A   1      45.247  33.617  32.732  1.00  0.00     0.016 A 
ATOM      9  C   UNL A   1      45.231  33.428  29.970  1.00  0.00     0.010 A 
ATOM     10  C   UNL A   1      45.094  32.363  32.120  1.00  0.00     0.010 A 
ATOM     11  C   UNL A   1      45.079  32.266  30.728  1.00  0.00    -0.014 A 
BRANCH  11  12
ATOM     12  C   UNL A   1      44.683  31.026  30.021  1.00  0.00     0.031 A 
ATOM     13  C   UNL A   1      45.754  30.017  29.743  1.00  0.00     0.074 A 
ATOM     14  C   UNL A   1      43.394  30.748  29.756  1.00  0.00     0.049 A 
ATOM     15  N   UNL A   1      45.645  28.794  29.298  1.00  0.00    -0.248 NA
ATOM     16  C   UNL A   1      47.138  30.453  29.990  1.00  0.00     0.031 C 
ATOM     17  C   UNL A   1      42.282  31.670  29.954  1.00  0.00     0.029 A 
ATOM     18  N   UNL A   1      42.794  29.600  29.300  1.00  0.00    -0.354 N 
ATOM     19  C   UNL A   1      46.946  28.323  29.192  1.00  0.00     0.074 A 
ATOM     20  C   UNL A   1      47.827  29.396  29.594  1.00  0.00     0.031 C 
ATOM     21  C   UNL A   1      41.127  31.030  29.696  1.00  0.00     0.029 A 
ATOM     22  C   UNL A   1      41.420  29.659  29.301  1.00  0.00     0.049 A 
ATOM     23  H   UNL A   1      43.300  28.810  29.001  1.00  0.00     0.167 HD
ATOM     24  C   UNL A   1      47.367  27.102  28.792  1.00  0.00     0.037 A 
ATOM     25  C   UNL A   1      40.508  28.704  29.032  1.00  0.00     0.037 A 
ATOM     26  C   UNL A   1      46.481  26.051  28.378  1.00  0.00     0.049 A 
ATOM     27  C   UNL A   1      41.003  27.347  28.609  1.00  0.00     0.074 A 
ATOM     28  C   UNL A   1      46.793  24.786  27.920  1.00  0.00     0.029 A 
ATOM     29  N   UNL A   1      45.096  26.154  28.365  1.00  0.00    -0.354 N 
ATOM     30  N   UNL A   1      42.235  26.907  28.519  1.00  0.00    -0.248 NA
ATOM     31  C   UNL A   1      39.982  26.361  28.229  1.00  0.00     0.031 C 
ATOM     32  C   UNL A   1      45.599  24.139  27.584  1.00  0.00     0.029 A 
ATOM     33  C   UNL A   1      44.540  24.978  27.894  1.00  0.00     0.049 A 
ATOM     34  H   UNL A   1      44.586  26.947  28.651  1.00  0.00     0.167 HD
ATOM     35  C   UNL A   1      42.139  25.597  28.075  1.00  0.00     0.074 A 
ATOM     36  C   UNL A   1      40.725  25.301  27.951  1.00  0.00     0.031 C 
ATOM     37  C   UNL A   1      43.127  24.718  27.779  1.00  0.00     0.037 A 
BRANCH  24  38
ATOM     38  C   UNL A   1      48.850  26.896  28.721  1.00  0.00     0.057 A 
ATOM     39  C   UNL A   1      49.592  27.202  27.570  1.00  0.00     0.134 A 
ATOM     40  C   UNL A   1      49.534  26.318  29.796  1.00  0.00     0.134 A 
ATOM     41  F   UNL A   1      48.990  27.725  26.492  1.00  0.00    -0.206 F 
ATOM     42  C   UNL A   1      50.952  26.899  27.479  1.00  0.00     0.040 A 
ATOM     43  C   UNL A   1      50.899  26.039  29.727  1.00  0.00     0.040 A 
ATOM     44  F   UNL A   1      48.882  25.992  30.923  1.00  0.00    -0.206 F 
ATOM     45  C   UNL A   1      51.610  26.318  28.562  1.00  0.00     0.006 A 
ENDBRANCH  24  38
BRANCH  25  46
ATOM     46  C   UNL A   1      39.045  28.959  29.136  1.00  0.00     0.057 A 
ATOM     47  C   UNL A   1      38.315  29.454  28.045  1.00  0.00     0.134 A 
ATOM     48  C   UNL A   1      38.360  28.809  30.345  1.00  0.00     0.134 A 
ATOM     49  F   UNL A   1      38.920  29.653  26.864  1.00  0.00    -0.206 F 
ATOM     50  C   UNL A   1      36.968  29.811  28.160  1.00  0.00     0.040 A 
ATOM     51  C   UNL A   1      37.014  29.157  30.475  1.00  0.00     0.040 A 
ATOM     52  F   UNL A   1      38.990  28.318  31.423  1.00  0.00    -0.206 F 
ATOM     53  C   UNL A   1      36.315  29.664  29.380  1.00  0.00     0.006 A 
ENDBRANCH  25  46
BRANCH  37  54
ATOM     54  C   UNL A   1      42.707  23.354  27.319  1.00  0.00     0.057 A 
ATOM     55  C   UNL A   1      42.675  23.005  25.963  1.00  0.00     0.134 A 
ATOM     56  C   UNL A   1      42.359  22.369  28.253  1.00  0.00     0.134 A 
ATOM     57  F   UNL A   1      42.984  23.908  25.020  1.00  0.00    -0.206 F 
ATOM     58  C   UNL A   1      42.283  21.732  25.550  1.00  0.00     0.040 A 
ATOM     59  C   UNL A   1      41.996  21.084  27.853  1.00  0.00     0.040 A 
ATOM     60  F   UNL A   1      42.377  22.639  29.567  1.00  0.00    -0.206 F 
ATOM     61  C   UNL A   1      41.950  20.766  26.497  1.00  0.00     0.006 A 
ENDBRANCH  37  54
ENDBRANCH  11  12
ENDBRANCH   4   6
ENDBRANCH   3   4
ENDBRANCH   2   3
ENDBRANCH   1   2
BRANCH   1  62
ATOM     62  O   UNL A   1      45.645  38.534  29.767  1.00  0.00    -0.460 OA
BRANCH  62  63
ATOM     63  C   UNL A   1      46.124  37.660  28.837  1.00  0.00     0.334 C 
ATOM     64  O   UNL A   1      47.233  37.140  28.879  1.00  0.00    -0.249 OA
BRANCH  63  65
ATOM     65  C   UNL A   1      45.117  37.554  27.680  1.00  0.00     0.232 C 
BRANCH  65  66
ATOM     66  N   UNL A   1      45.292  38.722  26.798  1.00  0.00    -0.274 N 
ATOM     67  C   UNL A   1      44.240  39.634  26.805  1.00  0.00     0.267 C 
ATOM     68  C   UNL A   1      46.403  39.100  26.073  1.00  0.00     0.149 C 
ATOM     69  O   UNL A   1      43.239  39.580  27.505  1.00  0.00    -0.268 OA
ATOM     70  C   UNL A   1      44.474  40.716  25.828  1.00  0.00     0.084 C 
ATOM     71  S   UNL A   1      46.022  40.525  25.118  1.00  0.00    -0.054 SA
ATOM     72  S   UNL A   1      47.930  38.457  25.959  1.00  0.00    -0.052 S 
ATOM     73  C   UNL A   1      43.561  41.659  25.561  1.00  0.00     0.068 C 
BRANCH  73  74
ATOM     74  C   UNL A   1      43.761  42.562  24.486  1.00  0.00     0.129 A 
ATOM     75  C   UNL A   1      44.287  43.845  24.545  1.00  0.00     0.051 A 
ATOM     76  O   UNL A   1      43.392  42.310  23.188  1.00  0.00    -0.454 OA
ATOM     77  C   UNL A   1      44.159  44.412  23.268  1.00  0.00     0.054 A 
ATOM     78  C   UNL A   1      43.604  43.447  22.451  1.00  0.00     0.163 A 
BRANCH  78  79
ATOM     79  C   UNL A   1      43.256  43.621  21.074  1.00  0.00     0.160 A 
ATOM     80  N   UNL A   1      44.168  43.969  20.192  1.00  0.00    -0.233 NA
ATOM     81  S   UNL A   1      41.650  43.519  20.501  1.00  0.00    -0.111 S 
ATOM     82  C   UNL A   1      43.560  44.262  18.990  1.00  0.00     0.082 A 
ATOM     83  C   UNL A   1      42.173  44.105  18.965  1.00  0.00     0.055 A 
ATOM     84  C   UNL A   1      44.219  44.718  17.834  1.00  0.00     0.030 A 
ATOM     85  C   UNL A   1      41.416  44.412  17.824  1.00  0.00     0.021 A 
ATOM     86  C   UNL A   1      43.477  45.028  16.693  1.00  0.00     0.002 A 
ATOM     87  C   UNL A   1      42.093  44.883  16.692  1.00  0.00     0.002 A 
ENDBRANCH  78  79
ENDBRANCH  73  74
ENDBRANCH  65  66
BRANCH  65  88
ATOM     88  C   UNL A   1      44.999  36.192  27.006  1.00  0.00    -0.014 A 
ATOM     89  C   UNL A   1      43.777  35.671  26.553  1.00  0.00     0.006 A 
ATOM     90  C   UNL A   1      46.148  35.390  26.859  1.00  0.00     0.006 A 
ATOM     91  C   UNL A   1      43.697  34.377  26.028  1.00  0.00     0.000 A 
ATOM     92  C   UNL A   1      46.075  34.119  26.280  1.00  0.00     0.000 A 
ATOM     93  C   UNL A   1      44.845  33.605  25.885  1.00  0.00     0.000 A 
ENDBRANCH  65  88
ENDBRANCH  63  65
ENDBRANCH  62  63
ENDBRANCH   1  62
TORSDOF 15
ENDMDL
MODEL 3
REMARK VINA RESULT:     -10.8      6.757     11.160
REMARK SMILES O=C(OCCOC(=O)[C@H](c1ccccc1)N1C(=O)/C(=C/c2ccc(-c3nc4ccccc4s3)o2)SC1=S)c1ccc(-c2c3nc(c(-c4c(F)cccc4F)c4ccc([nH]4)c(-c4c(F)cccc4F)c4nc(c(-c5c(F)cccc5F)c5ccc2[nH]5)C=C4)C=C3)cc1
REMARK SMILES IDX 5 1 4 2 3 3 2 4 1 5 38 6 39 7 91 8 40 9 90 10 41 11 42 12
REMARK SMILES IDX 43 13 84 14 44 15 89 16 83 17 85 18 45 19 88 20 82 21 81 22
REMARK SMILES IDX 46 24 72 25 55 26 71 27 56 28 59 29 70 30 86 31 57 32 58 33
REMARK SMILES IDX 69 35 87 36 60 37 47 38 48 39 53 40 49 41 50 42 52 43 54 44
REMARK SMILES IDX 51 45 73 46 74 47 79 48 75 49 76 50 78 51 80 52 77 53 61 54
REMARK SMILES IDX 62 55 67 56 63 57 64 58 66 59 68 60 65 61 6 62 7 63 8 64
REMARK SMILES IDX 9 65 16 66 17 67 36 68 18 69 19 70 35 71 37 72 20 73 21 74
REMARK SMILES IDX 22 75 34 76 23 77 24 78 25 79 26 80 33 81 27 82 32 83 28 84
REMARK SMILES IDX 31 85 29 86 30 87 10 88 11 89 15 90 12 91 14 92 13 93
REMARK H PARENT 85 23 59 34
REMARK Flexibility Score: inf
ROOT
ATOM      1  C   UNL A   1      35.851  34.242  34.779  1.00  0.00     0.274 C 
ENDROOT
BRANCH   1   2
ATOM      2  C   UNL A   1      37.200  33.850  35.378  1.00  0.00     0.275 C 
BRANCH   2   3
ATOM      3  O   UNL A   1      37.169  32.562  36.028  1.00  0.00    -0.458 OA
BRANCH   3   4
ATOM      4  C   UNL A   1      38.143  31.648  36.250  1.00  0.00     0.338 C 
ATOM      5  O   UNL A   1      38.285  31.236  37.402  1.00  0.00    -0.246 OA
BRANCH   4   6
ATOM      6  C   UNL A   1      39.123  31.144  35.224  1.00  0.00     0.060 A 
ATOM      7  C   UNL A   1      38.838  30.322  34.131  1.00  0.00     0.016 A 
ATOM      8  C   UNL A   1      40.461  31.568  35.374  1.00  0.00     0.016 A 
ATOM      9  C   UNL A   1      39.823  29.981  33.198  1.00  0.00     0.010 A 
ATOM     10  C   UNL A   1      41.458  31.221  34.449  1.00  0.00     0.010 A 
ATOM     11  C   UNL A   1      41.140  30.415  33.355  1.00  0.00    -0.014 A 
BRANCH  11  12
ATOM     12  C   UNL A   1      42.175  29.815  32.482  1.00  0.00     0.031 A 
ATOM     13  C   UNL A   1      42.723  30.663  31.375  1.00  0.00     0.074 A 
ATOM     14  C   UNL A   1      42.706  28.608  32.747  1.00  0.00     0.049 A 
ATOM     15  N   UNL A   1      43.740  30.441  30.588  1.00  0.00    -0.248 NA
ATOM     16  C   UNL A   1      42.017  31.928  31.114  1.00  0.00     0.031 C 
ATOM     17  C   UNL A   1      42.225  27.690  33.774  1.00  0.00     0.029 A 
ATOM     18  N   UNL A   1      43.786  27.958  32.203  1.00  0.00    -0.354 N 
ATOM     19  C   UNL A   1      43.783  31.528  29.726  1.00  0.00     0.074 A 
ATOM     20  C   UNL A   1      42.678  32.394  30.069  1.00  0.00     0.031 C 
ATOM     21  C   UNL A   1      43.052  26.631  33.841  1.00  0.00     0.029 A 
ATOM     22  C   UNL A   1      44.110  26.789  32.852  1.00  0.00     0.049 A 
ATOM     23  H   UNL A   1      44.282  28.297  31.423  1.00  0.00     0.167 HD
ATOM     24  C   UNL A   1      44.666  31.779  28.734  1.00  0.00     0.037 A 
ATOM     25  C   UNL A   1      45.155  25.957  32.675  1.00  0.00     0.037 A 
ATOM     26  C   UNL A   1      45.750  30.900  28.392  1.00  0.00     0.049 A 
ATOM     27  C   UNL A   1      46.137  26.270  31.578  1.00  0.00     0.074 A 
ATOM     28  C   UNL A   1      46.687  31.033  27.385  1.00  0.00     0.029 A 
ATOM     29  N   UNL A   1      46.032  29.711  29.052  1.00  0.00    -0.354 N 
ATOM     30  N   UNL A   1      46.174  27.304  30.773  1.00  0.00    -0.248 NA
ATOM     31  C   UNL A   1      47.207  25.290  31.350  1.00  0.00     0.031 C 
ATOM     32  C   UNL A   1      47.508  29.900  27.405  1.00  0.00     0.029 A 
ATOM     33  C   UNL A   1      47.122  29.094  28.466  1.00  0.00     0.049 A 
ATOM     34  H   UNL A   1      45.531  29.362  29.824  1.00  0.00     0.167 HD
ATOM     35  C   UNL A   1      47.269  27.102  29.945  1.00  0.00     0.074 A 
ATOM     36  C   UNL A   1      47.891  25.864  30.373  1.00  0.00     0.031 C 
ATOM     37  C   UNL A   1      47.715  27.859  28.914  1.00  0.00     0.037 A 
BRANCH  24  38
ATOM     38  C   UNL A   1      44.426  33.015  27.921  1.00  0.00     0.057 A 
ATOM     39  C   UNL A   1      44.736  34.296  28.402  1.00  0.00     0.134 A 
ATOM     40  C   UNL A   1      43.811  32.927  26.668  1.00  0.00     0.134 A 
ATOM     41  F   UNL A   1      45.294  34.452  29.612  1.00  0.00    -0.206 F 
ATOM     42  C   UNL A   1      44.403  35.445  27.681  1.00  0.00     0.040 A 
ATOM     43  C   UNL A   1      43.501  34.066  25.925  1.00  0.00     0.040 A 
ATOM     44  F   UNL A   1      43.480  31.732  26.154  1.00  0.00    -0.206 F 
ATOM     45  C   UNL A   1      43.785  35.330  26.437  1.00  0.00     0.006 A 
ENDBRANCH  24  38
BRANCH  25  46
ATOM     46  C   UNL A   1      45.354  24.750  33.525  1.00  0.00     0.057 A 
ATOM     47  C   UNL A   1      44.782  23.518  33.179  1.00  0.00     0.134 A 
ATOM     48  C   UNL A   1      46.035  24.817  34.744  1.00  0.00     0.134 A 
ATOM     49  F   UNL A   1      44.087  23.393  32.038  1.00  0.00    -0.206 F 
ATOM     50  C   UNL A   1      44.859  22.406  34.024  1.00  0.00     0.040 A 
ATOM     51  C   UNL A   1      46.125  23.715  35.596  1.00  0.00     0.040 A 
ATOM     52  F   UNL A   1      46.628  25.958  35.126  1.00  0.00    -0.206 F 
ATOM     53  C   UNL A   1      45.531  22.505  35.239  1.00  0.00     0.006 A 
ENDBRANCH  25  46
BRANCH  37  54
ATOM     54  C   UNL A   1      48.943  27.378  28.200  1.00  0.00     0.057 A 
ATOM     55  C   UNL A   1      50.231  27.750  28.607  1.00  0.00     0.134 A 
ATOM     56  C   UNL A   1      48.831  26.506  27.111  1.00  0.00     0.134 A 
ATOM     57  F   UNL A   1      50.403  28.595  29.636  1.00  0.00    -0.206 F 
ATOM     58  C   UNL A   1      51.364  27.295  27.934  1.00  0.00     0.040 A 
ATOM     59  C   UNL A   1      49.959  26.019  26.450  1.00  0.00     0.040 A 
ATOM     60  F   UNL A   1      47.626  26.106  26.678  1.00  0.00    -0.206 F 
ATOM     61  C   UNL A   1      51.229  26.420  26.857  1.00  0.00     0.006 A 
ENDBRANCH  37  54
ENDBRANCH  11  12
ENDBRANCH   4   6
ENDBRANCH   3   4
ENDBRANCH   2   3
ENDBRANCH   1   2
BRANCH   1  62
ATOM     62  O   UNL A   1      35.320  33.140  34.035  1.00  0.00    -0.460 OA
BRANCH  62  63
ATOM     63  C   UNL A   1      34.466  33.381  32.999  1.00  0.00     0.334 C 
ATOM     64  O   UNL A   1      33.303  32.999  32.955  1.00  0.00    -0.249 OA
BRANCH  63  65
ATOM     65  C   UNL A   1      35.238  34.071  31.862  1.00  0.00     0.232 C 
BRANCH  65  66
ATOM     66  N   UNL A   1      36.260  33.137  31.355  1.00  0.00    -0.274 N 
ATOM     67  C   UNL A   1      35.763  31.994  30.734  1.00  0.00     0.267 C 
ATOM     68  C   UNL A   1      37.627  33.302  31.292  1.00  0.00     0.149 C 
ATOM     69  O   UNL A   1      34.586  31.737  30.528  1.00  0.00    -0.268 OA
ATOM     70  C   UNL A   1      36.861  31.089  30.341  1.00  0.00     0.084 C 
ATOM     71  S   UNL A   1      38.368  31.829  30.685  1.00  0.00    -0.054 SA
ATOM     72  S   UNL A   1      38.615  34.578  31.687  1.00  0.00    -0.052 S 
ATOM     73  C   UNL A   1      36.644  29.872  29.826  1.00  0.00     0.068 C 
BRANCH  73  74
ATOM     74  C   UNL A   1      37.725  28.973  29.640  1.00  0.00     0.129 A 
ATOM     75  C   UNL A   1      38.189  28.011  30.527  1.00  0.00     0.051 A 
ATOM     76  O   UNL A   1      38.540  28.963  28.536  1.00  0.00    -0.454 OA
ATOM     77  C   UNL A   1      39.360  27.464  29.982  1.00  0.00     0.054 A 
ATOM     78  C   UNL A   1      39.554  28.067  28.755  1.00  0.00     0.163 A 
BRANCH  78  79
ATOM     79  C   UNL A   1      40.663  27.836  27.880  1.00  0.00     0.160 A 
ATOM     80  N   UNL A   1      40.783  26.694  27.239  1.00  0.00    -0.233 NA
ATOM     81  S   UNL A   1      41.952  28.944  27.700  1.00  0.00    -0.111 S 
ATOM     82  C   UNL A   1      42.014  26.638  26.622  1.00  0.00     0.082 A 
ATOM     83  C   UNL A   1      42.818  27.768  26.784  1.00  0.00     0.055 A 
ATOM     84  C   UNL A   1      42.509  25.544  25.888  1.00  0.00     0.030 A 
ATOM     85  C   UNL A   1      44.116  27.832  26.252  1.00  0.00     0.021 A 
ATOM     86  C   UNL A   1      43.799  25.595  25.356  1.00  0.00     0.002 A 
ATOM     87  C   UNL A   1      44.592  26.723  25.543  1.00  0.00     0.002 A 
ENDBRANCH  78  79
ENDBRANCH  73  74
ENDBRANCH  65  66
BRANCH  65  88
ATOM     88  C   UNL A   1      34.399  34.807  30.822  1.00  0.00    -0.014 A 
ATOM     89  C   UNL A   1      34.566  34.620  29.441  1.00  0.00     0.006 A 
ATOM     90  C   UNL A   1      33.440  35.747  31.245  1.00  0.00     0.006 A 
ATOM     91  C   UNL A   1      33.845  35.385  28.519  1.00  0.00     0.000 A 
ATOM     92  C   UNL A   1      32.677  36.470  30.322  1.00  0.00     0.000 A 
ATOM     93  C   UNL A   1      32.897  36.304  28.958  1.00  0.00     0.000 A 
ENDBRANCH  65  88
ENDBRANCH  63  65
ENDBRANCH  62  63
ENDBRANCH   1  62
TORSDOF 15
ENDMDL
