MODEL 1
REMARK VINA RESULT:     -10.1      0.000      0.000
REMARK SMILES CC(C)=CC[N@H+]1CC[C@@H](C(=O)OCCOC(=O)c2ccc(-c3c4nc(c(-c5c(F)cccc5F)c5ccc([nH]5)c(-c5c(F)cccc5F)c5nc(c(-c6c(F)cccc6F)c6ccc3[nH]6)C=C5)C=C4)cc2)[C@H]1C
REMARK SMILES IDX 13 1 12 2 10 3 11 4 9 5 6 6 7 7 72 8 8 10 73 11 5 12 4 13
REMARK SMILES IDX 1 14 2 15 3 16 14 17 15 18 16 19 17 20 18 21 19 22 71 23
REMARK SMILES IDX 20 24 70 25 21 26 22 27 23 28 64 29 24 30 69 31 63 32 65 33
REMARK SMILES IDX 25 34 68 35 62 36 61 37 26 39 52 40 35 41 51 42 36 43 39 44
REMARK SMILES IDX 50 45 66 46 37 47 38 48 49 50 67 51 40 52 27 53 28 54 33 55
REMARK SMILES IDX 29 56 30 57 32 58 34 59 31 60 53 61 54 62 59 63 55 64 56 65
REMARK SMILES IDX 58 66 60 67 57 68 41 69 42 70 47 71 43 72 44 73 46 74 48 75
REMARK SMILES IDX 45 76
REMARK H PARENT 6 9 65 38 39 49
REMARK Flexibility Score: inf
ROOT
ATOM      1  C   UNL A   1      34.555  34.189  30.168  1.00  0.00     0.274 C 
ENDROOT
BRANCH   1   2
ATOM      2  O   UNL A   1      33.780  33.377  29.265  1.00  0.00    -0.462 OA
BRANCH   2   3
ATOM      3  C   UNL A   1      34.455  32.740  28.287  1.00  0.00     0.315 C 
ATOM      4  O   UNL A   1      35.333  33.262  27.605  1.00  0.00    -0.252 OA
BRANCH   3   5
ATOM      5  C   UNL A   1      34.059  31.296  28.080  1.00  0.00     0.162 C 
ATOM      6  N   UNL A   1      32.982  29.445  27.075  1.00  0.00    -0.329 N 
ATOM      7  C   UNL A   1      34.412  29.156  27.221  1.00  0.00     0.263 C 
ATOM      8  C   UNL A   1      32.701  30.835  27.518  1.00  0.00     0.195 C 
ATOM      9  H   UNL A   1      32.424  28.892  27.725  1.00  0.00     0.348 HD
ATOM     10  C   UNL A   1      35.074  30.519  27.268  1.00  0.00     0.083 C 
ATOM     11  C   UNL A   1      32.023  31.758  26.506  1.00  0.00     0.076 C 
BRANCH   6  12
ATOM     12  C   UNL A   1      32.375  28.903  25.865  1.00  0.00     0.291 C 
BRANCH  12  13
ATOM     13  C   UNL A   1      33.296  28.861  24.673  1.00  0.00     0.032 C 
ATOM     14  C   UNL A   1      31.537  28.434  22.933  1.00  0.00     0.039 C 
ATOM     15  C   UNL A   1      32.956  28.626  23.390  1.00  0.00    -0.075 C 
ATOM     16  C   UNL A   1      34.028  28.491  22.345  1.00  0.00     0.039 C 
ENDBRANCH  12  13
ENDBRANCH   6  12
ENDBRANCH   3   5
ENDBRANCH   2   3
ENDBRANCH   1   2
BRANCH   1  17
ATOM     17  C   UNL A   1      34.401  33.697  31.610  1.00  0.00     0.275 C 
BRANCH  17  18
ATOM     18  O   UNL A   1      34.827  32.327  31.759  1.00  0.00    -0.458 OA
BRANCH  18  19
ATOM     19  C   UNL A   1      35.892  32.137  32.571  1.00  0.00     0.338 C 
ATOM     20  O   UNL A   1      35.950  32.329  33.773  1.00  0.00    -0.246 OA
BRANCH  19  21
ATOM     21  C   UNL A   1      36.992  31.512  31.821  1.00  0.00     0.060 A 
ATOM     22  C   UNL A   1      38.030  30.932  32.551  1.00  0.00     0.016 A 
ATOM     23  C   UNL A   1      37.057  31.575  30.429  1.00  0.00     0.016 A 
ATOM     24  C   UNL A   1      39.140  30.405  31.903  1.00  0.00     0.010 A 
ATOM     25  C   UNL A   1      38.176  31.047  29.773  1.00  0.00     0.010 A 
ATOM     26  C   UNL A   1      39.225  30.466  30.509  1.00  0.00    -0.014 A 
BRANCH  26  27
ATOM     27  C   UNL A   1      40.442  29.957  29.836  1.00  0.00     0.031 A 
ATOM     28  C   UNL A   1      41.622  30.861  29.642  1.00  0.00     0.074 A 
ATOM     29  C   UNL A   1      40.498  28.672  29.443  1.00  0.00     0.049 A 
ATOM     30  N   UNL A   1      42.742  30.634  29.006  1.00  0.00    -0.248 NA
ATOM     31  C   UNL A   1      41.532  32.200  30.249  1.00  0.00     0.031 C 
ATOM     32  C   UNL A   1      39.438  27.682  29.637  1.00  0.00     0.029 A 
ATOM     33  N   UNL A   1      41.492  27.978  28.802  1.00  0.00    -0.354 N 
ATOM     34  C   UNL A   1      43.482  31.804  29.115  1.00  0.00     0.074 A 
ATOM     35  C   UNL A   1      42.681  32.743  29.872  1.00  0.00     0.031 C 
ATOM     36  C   UNL A   1      39.838  26.507  29.125  1.00  0.00     0.029 A 
ATOM     37  C   UNL A   1      41.160  26.674  28.527  1.00  0.00     0.049 A 
ATOM     38  H   UNL A   1      42.359  28.376  28.561  1.00  0.00     0.167 HD
ATOM     39  C   UNL A   1      44.717  32.066  28.626  1.00  0.00     0.037 A 
ATOM     40  C   UNL A   1      41.834  25.731  27.843  1.00  0.00     0.037 A 
ATOM     41  C   UNL A   1      45.514  31.123  27.888  1.00  0.00     0.049 A 
ATOM     42  C   UNL A   1      43.178  26.068  27.262  1.00  0.00     0.074 A 
ATOM     43  C   UNL A   1      46.774  31.298  27.342  1.00  0.00     0.029 A 
ATOM     44  N   UNL A   1      45.131  29.822  27.602  1.00  0.00    -0.354 N 
ATOM     45  N   UNL A   1      43.855  27.189  27.338  1.00  0.00    -0.248 NA
ATOM     46  C   UNL A   1      43.849  25.013  26.489  1.00  0.00     0.031 C 
ATOM     47  C   UNL A   1      47.141  30.110  26.699  1.00  0.00     0.029 A 
ATOM     48  C   UNL A   1      46.124  29.185  26.876  1.00  0.00     0.049 A 
ATOM     49  H   UNL A   1      44.278  29.410  27.874  1.00  0.00     0.167 HD
ATOM     50  C   UNL A   1      45.034  26.970  26.640  1.00  0.00     0.074 A 
ATOM     51  C   UNL A   1      44.989  25.604  26.159  1.00  0.00     0.031 C 
ATOM     52  C   UNL A   1      46.061  27.824  26.412  1.00  0.00     0.037 A 
BRANCH  39  53
ATOM     53  C   UNL A   1      45.268  33.441  28.850  1.00  0.00     0.057 A 
ATOM     54  C   UNL A   1      44.975  34.506  27.989  1.00  0.00     0.134 A 
ATOM     55  C   UNL A   1      46.076  33.710  29.962  1.00  0.00     0.134 A 
ATOM     56  F   UNL A   1      44.219  34.308  26.898  1.00  0.00    -0.206 F 
ATOM     57  C   UNL A   1      45.475  35.788  28.220  1.00  0.00     0.040 A 
ATOM     58  C   UNL A   1      46.567  34.993  30.214  1.00  0.00     0.040 A 
ATOM     59  F   UNL A   1      46.393  32.733  30.826  1.00  0.00    -0.206 F 
ATOM     60  C   UNL A   1      46.269  36.035  29.339  1.00  0.00     0.006 A 
ENDBRANCH  39  53
BRANCH  40  61
ATOM     61  C   UNL A   1      41.235  24.389  27.643  1.00  0.00     0.057 A 
ATOM     62  C   UNL A   1      41.695  23.277  28.355  1.00  0.00     0.134 A 
ATOM     63  C   UNL A   1      40.197  24.188  26.725  1.00  0.00     0.134 A 
ATOM     64  F   UNL A   1      42.704  23.404  29.230  1.00  0.00    -0.206 F 
ATOM     65  C   UNL A   1      41.151  22.007  28.153  1.00  0.00     0.040 A 
ATOM     66  C   UNL A   1      39.629  22.929  26.530  1.00  0.00     0.040 A 
ATOM     67  F   UNL A   1      39.714  25.215  26.012  1.00  0.00    -0.206 F 
ATOM     68  C   UNL A   1      40.111  21.831  27.242  1.00  0.00     0.006 A 
ENDBRANCH  40  61
BRANCH  52  69
ATOM     69  C   UNL A   1      47.226  27.294  25.634  1.00  0.00     0.057 A 
ATOM     70  C   UNL A   1      47.352  27.519  24.258  1.00  0.00     0.134 A 
ATOM     71  C   UNL A   1      48.246  26.581  26.274  1.00  0.00     0.134 A 
ATOM     72  F   UNL A   1      46.400  28.184  23.587  1.00  0.00    -0.206 F 
ATOM     73  C   UNL A   1      48.447  27.036  23.540  1.00  0.00     0.040 A 
ATOM     74  C   UNL A   1      49.356  26.109  25.571  1.00  0.00     0.040 A 
ATOM     75  F   UNL A   1      48.185  26.338  27.592  1.00  0.00    -0.206 F 
ATOM     76  C   UNL A   1      49.455  26.333  24.199  1.00  0.00     0.006 A 
ENDBRANCH  52  69
ENDBRANCH  26  27
ENDBRANCH  19  21
ENDBRANCH  18  19
ENDBRANCH  17  18
ENDBRANCH   1  17
TORSDOF 13
ENDMDL
MODEL 2
REMARK VINA RESULT:     -10.1      4.092      6.421
REMARK SMILES CC(C)=CC[N@H+]1CC[C@@H](C(=O)OCCOC(=O)c2ccc(-c3c4nc(c(-c5c(F)cccc5F)c5ccc([nH]5)c(-c5c(F)cccc5F)c5nc(c(-c6c(F)cccc6F)c6ccc3[nH]6)C=C5)C=C4)cc2)[C@H]1C
REMARK SMILES IDX 13 1 12 2 10 3 11 4 9 5 6 6 7 7 72 8 8 10 73 11 5 12 4 13
REMARK SMILES IDX 1 14 2 15 3 16 14 17 15 18 16 19 17 20 18 21 19 22 71 23
REMARK SMILES IDX 20 24 70 25 21 26 22 27 23 28 64 29 24 30 69 31 63 32 65 33
REMARK SMILES IDX 25 34 68 35 62 36 61 37 26 39 52 40 35 41 51 42 36 43 39 44
REMARK SMILES IDX 50 45 66 46 37 47 38 48 49 50 67 51 40 52 27 53 28 54 33 55
REMARK SMILES IDX 29 56 30 57 32 58 34 59 31 60 53 61 54 62 59 63 55 64 56 65
REMARK SMILES IDX 58 66 60 67 57 68 41 69 42 70 47 71 43 72 44 73 46 74 48 75
REMARK SMILES IDX 45 76
REMARK H PARENT 6 9 65 38 39 49
REMARK Flexibility Score: inf
ROOT
ATOM      1  C   UNL A   1      33.474  34.761  28.796  1.00  0.00     0.274 C 
ENDROOT
BRANCH   1   2
ATOM      2  O   UNL A   1      32.959  34.578  30.129  1.00  0.00    -0.462 OA
BRANCH   2   3
ATOM      3  C   UNL A   1      33.476  35.364  31.095  1.00  0.00     0.315 C 
ATOM      4  O   UNL A   1      33.463  36.592  31.062  1.00  0.00    -0.252 OA
BRANCH   3   5
ATOM      5  C   UNL A   1      34.082  34.619  32.262  1.00  0.00     0.162 C 
ATOM      6  N   UNL A   1      35.746  33.496  33.513  1.00  0.00    -0.329 N 
ATOM      7  C   UNL A   1      35.131  34.536  34.344  1.00  0.00     0.263 C 
ATOM      8  C   UNL A   1      35.189  33.555  32.137  1.00  0.00     0.195 C 
ATOM      9  H   UNL A   1      35.470  32.564  33.821  1.00  0.00     0.348 HD
ATOM     10  C   UNL A   1      34.584  35.543  33.352  1.00  0.00     0.083 C 
ATOM     11  C   UNL A   1      36.189  33.729  30.995  1.00  0.00     0.076 C 
BRANCH   6  12
ATOM     12  C   UNL A   1      37.174  33.307  33.740  1.00  0.00     0.291 C 
BRANCH  12  13
ATOM     13  C   UNL A   1      37.659  33.785  35.084  1.00  0.00     0.032 C 
ATOM     14  C   UNL A   1      38.143  31.525  36.065  1.00  0.00     0.039 C 
ATOM     15  C   UNL A   1      38.057  33.025  36.124  1.00  0.00    -0.075 C 
ATOM     16  C   UNL A   1      38.387  33.671  37.440  1.00  0.00     0.039 C 
ENDBRANCH  12  13
ENDBRANCH   6  12
ENDBRANCH   3   5
ENDBRANCH   2   3
ENDBRANCH   1   2
BRANCH   1  17
ATOM     17  C   UNL A   1      33.393  33.455  27.999  1.00  0.00     0.275 C 
BRANCH  17  18
ATOM     18  O   UNL A   1      34.678  32.811  27.891  1.00  0.00    -0.458 OA
BRANCH  18  19
ATOM     19  C   UNL A   1      34.646  31.458  27.848  1.00  0.00     0.338 C 
ATOM     20  O   UNL A   1      33.834  30.755  27.271  1.00  0.00    -0.246 OA
BRANCH  19  21
ATOM     21  C   UNL A   1      35.842  30.905  28.499  1.00  0.00     0.060 A 
ATOM     22  C   UNL A   1      37.069  31.515  28.232  1.00  0.00     0.016 A 
ATOM     23  C   UNL A   1      35.784  29.752  29.283  1.00  0.00     0.016 A 
ATOM     24  C   UNL A   1      38.247  30.986  28.745  1.00  0.00     0.010 A 
ATOM     25  C   UNL A   1      36.969  29.215  29.798  1.00  0.00     0.010 A 
ATOM     26  C   UNL A   1      38.206  29.827  29.526  1.00  0.00    -0.014 A 
BRANCH  26  27
ATOM     27  C   UNL A   1      39.475  29.240  30.014  1.00  0.00     0.031 A 
ATOM     28  C   UNL A   1      40.128  29.791  31.245  1.00  0.00     0.074 A 
ATOM     29  C   UNL A   1      40.010  28.185  29.373  1.00  0.00     0.049 A 
ATOM     30  N   UNL A   1      41.278  29.475  31.783  1.00  0.00    -0.248 NA
ATOM     31  C   UNL A   1      39.388  30.836  31.972  1.00  0.00     0.031 C 
ATOM     32  C   UNL A   1      39.431  27.523  28.204  1.00  0.00     0.029 A 
ATOM     33  N   UNL A   1      41.163  27.483  29.620  1.00  0.00    -0.354 N 
ATOM     34  C   UNL A   1      41.411  30.294  32.897  1.00  0.00     0.074 A 
ATOM     35  C   UNL A   1      40.229  31.127  32.954  1.00  0.00     0.031 C 
ATOM     36  C   UNL A   1      40.231  26.510  27.835  1.00  0.00     0.029 A 
ATOM     37  C   UNL A   1      41.399  26.482  28.711  1.00  0.00     0.049 A 
ATOM     38  H   UNL A   1      41.762  27.679  30.376  1.00  0.00     0.167 HD
ATOM     39  C   UNL A   1      42.430  30.342  33.788  1.00  0.00     0.037 A 
ATOM     40  C   UNL A   1      42.455  25.657  28.581  1.00  0.00     0.037 A 
ATOM     41  C   UNL A   1      43.595  29.499  33.734  1.00  0.00     0.049 A 
ATOM     42  C   UNL A   1      43.597  25.772  29.550  1.00  0.00     0.074 A 
ATOM     43  C   UNL A   1      44.687  29.481  34.586  1.00  0.00     0.029 A 
ATOM     44  N   UNL A   1      43.814  28.519  32.779  1.00  0.00    -0.354 N 
ATOM     45  N   UNL A   1      43.732  26.574  30.579  1.00  0.00    -0.248 NA
ATOM     46  C   UNL A   1      44.742  24.874  29.335  1.00  0.00     0.031 C 
ATOM     47  C   UNL A   1      45.580  28.506  34.127  1.00  0.00     0.029 A 
ATOM     48  C   UNL A   1      45.029  27.896  33.012  1.00  0.00     0.049 A 
ATOM     49  H   UNL A   1      43.198  28.298  32.044  1.00  0.00     0.167 HD
ATOM     50  C   UNL A   1      44.963  26.269  31.141  1.00  0.00     0.074 A 
ATOM     51  C   UNL A   1      45.532  25.197  30.349  1.00  0.00     0.031 C 
ATOM     52  C   UNL A   1      45.573  26.828  32.214  1.00  0.00     0.037 A 
BRANCH  39  53
ATOM     53  C   UNL A   1      42.340  31.362  34.881  1.00  0.00     0.057 A 
ATOM     54  C   UNL A   1      42.742  32.690  34.690  1.00  0.00     0.134 A 
ATOM     55  C   UNL A   1      41.812  31.019  36.132  1.00  0.00     0.134 A 
ATOM     56  F   UNL A   1      43.270  33.077  33.519  1.00  0.00    -0.206 F 
ATOM     57  C   UNL A   1      42.632  33.638  35.708  1.00  0.00     0.040 A 
ATOM     58  C   UNL A   1      41.680  31.962  37.153  1.00  0.00     0.040 A 
ATOM     59  F   UNL A   1      41.407  29.763  36.379  1.00  0.00    -0.206 F 
ATOM     60  C   UNL A   1      42.094  33.275  36.942  1.00  0.00     0.006 A 
ENDBRANCH  39  53
BRANCH  40  61
ATOM     61  C   UNL A   1      42.495  24.672  27.473  1.00  0.00     0.057 A 
ATOM     62  C   UNL A   1      42.022  23.368  27.645  1.00  0.00     0.134 A 
ATOM     63  C   UNL A   1      43.021  25.011  26.220  1.00  0.00     0.134 A 
ATOM     64  F   UNL A   1      41.530  22.978  28.830  1.00  0.00    -0.206 F 
ATOM     65  C   UNL A   1      42.079  22.430  26.612  1.00  0.00     0.040 A 
ATOM     66  C   UNL A   1      43.063  24.091  25.173  1.00  0.00     0.040 A 
ATOM     67  F   UNL A   1      43.492  26.247  25.994  1.00  0.00    -0.206 F 
ATOM     68  C   UNL A   1      42.596  22.792  25.370  1.00  0.00     0.006 A 
ENDBRANCH  40  61
BRANCH  52  69
ATOM     69  C   UNL A   1      46.907  26.270  32.606  1.00  0.00     0.057 A 
ATOM     70  C   UNL A   1      48.101  26.813  32.117  1.00  0.00     0.134 A 
ATOM     71  C   UNL A   1      46.997  25.202  33.506  1.00  0.00     0.134 A 
ATOM     72  F   UNL A   1      48.079  27.829  31.242  1.00  0.00    -0.206 F 
ATOM     73  C   UNL A   1      49.342  26.299  32.497  1.00  0.00     0.040 A 
ATOM     74  C   UNL A   1      48.232  24.691  33.908  1.00  0.00     0.040 A 
ATOM     75  F   UNL A   1      45.888  24.643  34.013  1.00  0.00    -0.206 F 
ATOM     76  C   UNL A   1      49.408  25.238  33.399  1.00  0.00     0.006 A 
ENDBRANCH  52  69
ENDBRANCH  26  27
ENDBRANCH  19  21
ENDBRANCH  18  19
ENDBRANCH  17  18
ENDBRANCH   1  17
TORSDOF 13
ENDMDL
MODEL 3
REMARK VINA RESULT:     -10.0      4.232      6.879
REMARK SMILES CC(C)=CC[N@H+]1CC[C@@H](C(=O)OCCOC(=O)c2ccc(-c3c4nc(c(-c5c(F)cccc5F)c5ccc([nH]5)c(-c5c(F)cccc5F)c5nc(c(-c6c(F)cccc6F)c6ccc3[nH]6)C=C5)C=C4)cc2)[C@H]1C
REMARK SMILES IDX 13 1 12 2 10 3 11 4 9 5 6 6 7 7 72 8 8 10 73 11 5 12 4 13
REMARK SMILES IDX 1 14 2 15 3 16 14 17 15 18 16 19 17 20 18 21 19 22 71 23
REMARK SMILES IDX 20 24 70 25 21 26 22 27 23 28 64 29 24 30 69 31 63 32 65 33
REMARK SMILES IDX 25 34 68 35 62 36 61 37 26 39 52 40 35 41 51 42 36 43 39 44
REMARK SMILES IDX 50 45 66 46 37 47 38 48 49 50 67 51 40 52 27 53 28 54 33 55
REMARK SMILES IDX 29 56 30 57 32 58 34 59 31 60 53 61 54 62 59 63 55 64 56 65
REMARK SMILES IDX 58 66 60 67 57 68 41 69 42 70 47 71 43 72 44 73 46 74 48 75
REMARK SMILES IDX 45 76
REMARK H PARENT 6 9 65 38 39 49
REMARK Flexibility Score: inf
ROOT
ATOM      1  C   UNL A   1      31.391  31.934  26.852  1.00  0.00     0.274 C 
ENDROOT
BRANCH   1   2
ATOM      2  O   UNL A   1      32.047  30.682  26.573  1.00  0.00    -0.462 OA
BRANCH   2   3
ATOM      3  C   UNL A   1      31.734  30.077  25.409  1.00  0.00     0.315 C 
ATOM      4  O   UNL A   1      30.724  30.324  24.756  1.00  0.00    -0.252 OA
BRANCH   3   5
ATOM      5  C   UNL A   1      32.739  29.051  24.937  1.00  0.00     0.162 C 
ATOM      6  N   UNL A   1      33.708  26.913  24.641  1.00  0.00    -0.329 N 
ATOM      7  C   UNL A   1      33.610  27.588  23.343  1.00  0.00     0.263 C 
ATOM      8  C   UNL A   1      33.083  27.755  25.695  1.00  0.00     0.195 C 
ATOM      9  H   UNL A   1      34.677  26.854  24.955  1.00  0.00     0.348 HD
ATOM     10  C   UNL A   1      32.486  28.590  23.518  1.00  0.00     0.083 C 
ATOM     11  C   UNL A   1      31.962  27.114  26.513  1.00  0.00     0.076 C 
BRANCH   6  12
ATOM     12  C   UNL A   1      33.482  25.474  24.594  1.00  0.00     0.291 C 
BRANCH  12  13
ATOM     13  C   UNL A   1      34.726  24.657  24.357  1.00  0.00     0.032 C 
ATOM     14  C   UNL A   1      33.767  23.125  22.613  1.00  0.00     0.039 C 
ATOM     15  C   UNL A   1      34.864  23.608  23.521  1.00  0.00    -0.075 C 
ATOM     16  C   UNL A   1      36.147  22.826  23.508  1.00  0.00     0.039 C 
ENDBRANCH  12  13
ENDBRANCH   6  12
ENDBRANCH   3   5
ENDBRANCH   2   3
ENDBRANCH   1   2
BRANCH   1  17
ATOM     17  C   UNL A   1      32.408  33.078  26.910  1.00  0.00     0.275 C 
BRANCH  17  18
ATOM     18  O   UNL A   1      32.183  33.941  28.043  1.00  0.00    -0.458 OA
BRANCH  18  19
ATOM     19  C   UNL A   1      33.219  34.746  28.373  1.00  0.00     0.338 C 
ATOM     20  O   UNL A   1      33.227  35.964  28.415  1.00  0.00    -0.246 OA
BRANCH  19  21
ATOM     21  C   UNL A   1      34.359  33.937  28.828  1.00  0.00     0.060 A 
ATOM     22  C   UNL A   1      34.086  32.792  29.579  1.00  0.00     0.016 A 
ATOM     23  C   UNL A   1      35.678  34.339  28.610  1.00  0.00     0.016 A 
ATOM     24  C   UNL A   1      35.121  32.035  30.114  1.00  0.00     0.010 A 
ATOM     25  C   UNL A   1      36.722  33.580  29.150  1.00  0.00     0.010 A 
ATOM     26  C   UNL A   1      36.447  32.428  29.910  1.00  0.00    -0.014 A 
BRANCH  26  27
ATOM     27  C   UNL A   1      37.536  31.647  30.539  1.00  0.00     0.031 A 
ATOM     28  C   UNL A   1      37.866  31.855  31.986  1.00  0.00     0.074 A 
ATOM     29  C   UNL A   1      38.194  30.721  29.817  1.00  0.00     0.049 A 
ATOM     30  N   UNL A   1      38.833  31.336  32.697  1.00  0.00    -0.248 NA
ATOM     31  C   UNL A   1      36.987  32.768  32.737  1.00  0.00     0.031 C 
ATOM     32  C   UNL A   1      37.918  30.385  28.420  1.00  0.00     0.029 A 
ATOM     33  N   UNL A   1      39.230  29.891  30.164  1.00  0.00    -0.354 N 
ATOM     34  C   UNL A   1      38.696  31.873  33.970  1.00  0.00     0.074 A 
ATOM     35  C   UNL A   1      37.557  32.764  33.934  1.00  0.00     0.031 C 
ATOM     36  C   UNL A   1      38.763  29.418  28.029  1.00  0.00     0.029 A 
ATOM     37  C   UNL A   1      39.668  29.102  29.129  1.00  0.00     0.049 A 
ATOM     38  H   UNL A   1      39.621  29.864  31.067  1.00  0.00     0.167 HD
ATOM     39  C   UNL A   1      39.454  31.639  35.067  1.00  0.00     0.037 A 
ATOM     40  C   UNL A   1      40.704  28.245  29.070  1.00  0.00     0.037 A 
ATOM     41  C   UNL A   1      40.576  30.738  35.101  1.00  0.00     0.049 A 
ATOM     42  C   UNL A   1      41.564  28.048  30.286  1.00  0.00     0.074 A 
ATOM     43  C   UNL A   1      41.414  30.442  36.163  1.00  0.00     0.029 A 
ATOM     44  N   UNL A   1      41.010  29.980  34.025  1.00  0.00    -0.354 N 
ATOM     45  N   UNL A   1      41.450  28.587  31.476  1.00  0.00    -0.248 NA
ATOM     46  C   UNL A   1      42.706  27.132  30.149  1.00  0.00     0.031 C 
ATOM     47  C   UNL A   1      42.373  29.525  35.719  1.00  0.00     0.029 A 
ATOM     48  C   UNL A   1      42.112  29.225  34.392  1.00  0.00     0.049 A 
ATOM     49  H   UNL A   1      40.597  29.979  33.131  1.00  0.00     0.167 HD
ATOM     50  C   UNL A   1      42.489  28.066  32.232  1.00  0.00     0.074 A 
ATOM     51  C   UNL A   1      43.218  27.156  31.372  1.00  0.00     0.031 C 
ATOM     52  C   UNL A   1      42.817  28.322  33.521  1.00  0.00     0.037 A 
BRANCH  39  53
ATOM     53  C   UNL A   1      39.111  32.393  36.315  1.00  0.00     0.057 A 
ATOM     54  C   UNL A   1      38.215  31.887  37.264  1.00  0.00     0.134 A 
ATOM     55  C   UNL A   1      39.714  33.628  36.588  1.00  0.00     0.134 A 
ATOM     56  F   UNL A   1      37.593  30.716  37.053  1.00  0.00    -0.206 F 
ATOM     57  C   UNL A   1      37.920  32.587  38.434  1.00  0.00     0.040 A 
ATOM     58  C   UNL A   1      39.442  34.330  37.763  1.00  0.00     0.040 A 
ATOM     59  F   UNL A   1      40.584  34.167  35.719  1.00  0.00    -0.206 F 
ATOM     60  C   UNL A   1      38.540  33.810  38.689  1.00  0.00     0.006 A 
ENDBRANCH  39  53
BRANCH  40  61
ATOM     61  C   UNL A   1      41.004  27.531  27.805  1.00  0.00     0.057 A 
ATOM     62  C   UNL A   1      41.798  28.116  26.813  1.00  0.00     0.134 A 
ATOM     63  C   UNL A   1      40.493  26.252  27.554  1.00  0.00     0.134 A 
ATOM     64  F   UNL A   1      42.295  29.350  26.987  1.00  0.00    -0.206 F 
ATOM     65  C   UNL A   1      42.065  27.459  25.611  1.00  0.00     0.040 A 
ATOM     66  C   UNL A   1      40.771  25.574  26.367  1.00  0.00     0.040 A 
ATOM     67  F   UNL A   1      39.724  25.639  28.466  1.00  0.00    -0.206 F 
ATOM     68  C   UNL A   1      41.555  26.182  25.387  1.00  0.00     0.006 A 
ENDBRANCH  40  61
BRANCH  52  69
ATOM     69  C   UNL A   1      43.995  27.585  34.083  1.00  0.00     0.057 A 
ATOM     70  C   UNL A   1      45.283  28.132  34.056  1.00  0.00     0.134 A 
ATOM     71  C   UNL A   1      43.832  26.331  34.684  1.00  0.00     0.134 A 
ATOM     72  F   UNL A   1      45.504  29.324  33.482  1.00  0.00    -0.206 F 
ATOM     73  C   UNL A   1      46.374  27.448  34.594  1.00  0.00     0.040 A 
ATOM     74  C   UNL A   1      44.911  25.646  35.242  1.00  0.00     0.040 A 
ATOM     75  F   UNL A   1      42.620  25.757  34.745  1.00  0.00    -0.206 F 
ATOM     76  C   UNL A   1      46.188  26.203  35.193  1.00  0.00     0.006 A 
ENDBRANCH  52  69
ENDBRANCH  26  27
ENDBRANCH  19  21
ENDBRANCH  18  19
ENDBRANCH  17  18
ENDBRANCH   1  17
TORSDOF 13
ENDMDL
