MODEL 1
REMARK VINA RESULT:     -12.4      0.000      0.000
REMARK SMILES O=C(OCCOC(=O)c1ccc(-c2c3nc(c(-c4c(F)cccc4F)c4ccc([nH]4)c(-c4c(F)cccc4F)c4nc(c(-c5c(F)cccc5F)c5ccc2[nH]5)C=C4)C=C3)cc1)C1=Cc2cc(S(F)(F)(F)(F)F)cc(Br)c2O[C@@H]1C(F)(F)F
REMARK SMILES IDX 5 1 4 2 3 3 2 4 1 5 63 6 64 7 79 8 65 9 78 10 66 11 77 12
REMARK SMILES IDX 67 13 75 14 74 15 76 16 80 17 81 18 82 19 83 20 68 21 69 22
REMARK SMILES IDX 70 23 71 24 72 25 73 26 6 27 7 28 8 29 9 30 10 31 62 32
REMARK SMILES IDX 11 33 61 34 12 35 13 36 14 37 55 38 15 39 60 40 54 41 56 42
REMARK SMILES IDX 16 43 59 44 53 45 52 46 17 48 43 49 26 50 42 51 27 52 30 53
REMARK SMILES IDX 41 54 57 55 28 56 29 57 40 59 58 60 31 61 18 62 19 63 24 64
REMARK SMILES IDX 20 65 21 66 23 67 25 68 22 69 44 70 45 71 50 72 46 73 47 74
REMARK SMILES IDX 49 75 51 76 48 77 32 78 33 79 38 80 34 81 35 82 37 83 39 84
REMARK SMILES IDX 36 85
REMARK H PARENT 56 47 30 58
REMARK Flexibility Score: inf
ROOT
ATOM      1  C   UNL A   1      34.149  30.225  27.560  1.00  0.00     0.275 C 
ENDROOT
BRANCH   1   2
ATOM      2  C   UNL A   1      34.366  28.886  26.875  1.00  0.00     0.275 C 
BRANCH   2   3
ATOM      3  O   UNL A   1      33.359  27.974  27.287  1.00  0.00    -0.459 OA
BRANCH   3   4
ATOM      4  C   UNL A   1      32.116  27.931  26.601  1.00  0.00     0.338 C 
ATOM      5  O   UNL A   1      31.052  27.639  27.232  1.00  0.00    -0.246 OA
BRANCH   4   6
ATOM      6  C   UNL A   1      32.058  28.233  25.113  1.00  0.00     0.087 C 
ATOM      7  C   UNL A   1      32.541  27.332  24.216  1.00  0.00     0.027 C 
ATOM      8  C   UNL A   1      31.461  29.543  24.627  1.00  0.00     0.316 C 
ATOM      9  C   UNL A   1      33.139  26.022  24.702  1.00  0.00     0.020 A 
ATOM     10  O   UNL A   1      31.341  25.944  26.256  1.00  0.00    -0.474 OA
ATOM     11  C   UNL A   1      34.338  25.549  24.194  1.00  0.00     0.036 A 
ATOM     12  C   UNL A   1      32.479  25.355  25.643  1.00  0.00     0.142 A 
ATOM     13  C   UNL A   1      34.616  24.205  24.539  1.00  0.00     0.109 A 
ATOM     14  C   UNL A   1      32.887  24.101  26.028  1.00  0.00     0.062 A 
ATOM     15  C   UNL A   1      34.030  23.547  25.522  1.00  0.00     0.044 A 
ATOM     16  Br  UNL A   1      31.816  23.091  27.322  1.00  0.00    -0.047 Br
BRANCH   8  17
ATOM     17  C   UNL A   1      30.275  29.255  23.722  1.00  0.00     0.430 C 
ATOM     18  F   UNL A   1      29.727  28.092  24.066  1.00  0.00    -0.167 F 
ATOM     19  F   UNL A   1      29.373  30.224  23.848  1.00  0.00    -0.167 F 
ATOM     20  F   UNL A   1      30.687  29.193  22.458  1.00  0.00    -0.167 F 
ENDBRANCH   8  17
BRANCH  13  21
ATOM     21  S   UNL A   1      35.862  23.326  23.563  1.00  0.00     0.310 S 
ATOM     22  F   UNL A   1      35.581  21.960  24.316  1.00  0.00    -0.094 F 
ATOM     23  F   UNL A   1      36.924  23.646  24.681  1.00  0.00    -0.094 F 
ATOM     24  F   UNL A   1      36.933  22.572  22.723  1.00  0.00    -0.094 F 
ATOM     25  F   UNL A   1      34.754  22.895  22.521  1.00  0.00    -0.094 F 
ATOM     26  F   UNL A   1      34.741  23.991  24.458  1.00  0.00    -0.094 F 
ENDBRANCH  13  21
ENDBRANCH   4   6
ENDBRANCH   3   4
ENDBRANCH   2   3
ENDBRANCH   1   2
BRANCH   1  27
ATOM     27  O   UNL A   1      35.406  30.787  27.908  1.00  0.00    -0.458 OA
BRANCH  27  28
ATOM     28  C   UNL A   1      36.103  30.317  29.052  1.00  0.00     0.338 C 
ATOM     29  O   UNL A   1      35.539  30.334  30.191  1.00  0.00    -0.246 OA
BRANCH  28  30
ATOM     30  C   UNL A   1      37.524  29.794  28.917  1.00  0.00     0.060 A 
ATOM     31  C   UNL A   1      38.273  29.464  30.033  1.00  0.00     0.016 A 
ATOM     32  C   UNL A   1      38.038  29.719  27.694  1.00  0.00     0.016 A 
ATOM     33  C   UNL A   1      39.660  29.340  29.777  1.00  0.00     0.010 A 
ATOM     34  C   UNL A   1      39.375  29.460  27.514  1.00  0.00     0.010 A 
ATOM     35  C   UNL A   1      40.188  29.183  28.578  1.00  0.00    -0.014 A 
BRANCH  35  36
ATOM     36  C   UNL A   1      41.624  28.720  28.389  1.00  0.00     0.031 A 
ATOM     37  C   UNL A   1      41.768  27.360  28.113  1.00  0.00     0.074 A 
ATOM     38  C   UNL A   1      42.674  29.621  28.416  1.00  0.00     0.049 A 
ATOM     39  N   UNL A   1      42.890  26.707  27.803  1.00  0.00    -0.248 NA
ATOM     40  C   UNL A   1      40.659  26.395  28.118  1.00  0.00     0.031 C 
ATOM     41  C   UNL A   1      42.536  30.997  28.685  1.00  0.00     0.029 A 
ATOM     42  N   UNL A   1      44.011  29.369  28.195  1.00  0.00    -0.354 N 
ATOM     43  C   UNL A   1      42.628  25.417  27.587  1.00  0.00     0.074 A 
ATOM     44  C   UNL A   1      41.190  25.196  27.793  1.00  0.00     0.031 C 
ATOM     45  C   UNL A   1      43.771  31.563  28.639  1.00  0.00     0.029 A 
ATOM     46  C   UNL A   1      44.702  30.550  28.340  1.00  0.00     0.049 A 
ATOM     47  H   UNL A   1      44.404  28.493  27.972  1.00  0.00     0.167 HD
ATOM     48  C   UNL A   1      43.531  24.416  27.226  1.00  0.00     0.037 A 
ATOM     49  C   UNL A   1      46.068  30.754  28.223  1.00  0.00     0.037 A 
ATOM     50  C   UNL A   1      44.891  24.630  27.066  1.00  0.00     0.049 A 
ATOM     51  C   UNL A   1      46.980  29.742  27.918  1.00  0.00     0.074 A 
ATOM     52  C   UNL A   1      45.815  23.633  26.694  1.00  0.00     0.029 A 
ATOM     53  N   UNL A   1      45.586  25.807  27.235  1.00  0.00    -0.354 N 
ATOM     54  N   UNL A   1      46.712  28.460  27.664  1.00  0.00    -0.248 NA
ATOM     55  C   UNL A   1      48.432  29.940  27.824  1.00  0.00     0.031 C 
ATOM     56  C   UNL A   1      47.050  24.199  26.648  1.00  0.00     0.029 A 
ATOM     57  C   UNL A   1      46.919  25.558  26.992  1.00  0.00     0.049 A 
ATOM     58  H   UNL A   1      45.197  26.675  27.486  1.00  0.00     0.167 HD
ATOM     59  C   UNL A   1      47.840  27.799  27.395  1.00  0.00     0.074 A 
ATOM     60  C   UNL A   1      48.964  28.740  27.501  1.00  0.00     0.031 C 
ATOM     61  C   UNL A   1      47.977  26.451  27.062  1.00  0.00     0.037 A 
BRANCH  48  62
ATOM     62  C   UNL A   1      42.993  23.013  26.994  1.00  0.00     0.057 A 
ATOM     63  C   UNL A   1      42.631  22.606  25.720  1.00  0.00     0.134 A 
ATOM     64  C   UNL A   1      42.779  22.240  28.051  1.00  0.00     0.134 A 
ATOM     65  F   UNL A   1      43.047  23.222  24.616  1.00  0.00    -0.206 F 
ATOM     66  C   UNL A   1      41.779  21.476  25.701  1.00  0.00     0.040 A 
ATOM     67  C   UNL A   1      42.053  21.080  27.934  1.00  0.00     0.040 A 
ATOM     68  F   UNL A   1      43.272  22.591  29.236  1.00  0.00    -0.206 F 
ATOM     69  C   UNL A   1      41.613  20.646  26.714  1.00  0.00     0.006 A 
ENDBRANCH  48  62
BRANCH  49  70
ATOM     70  C   UNL A   1      46.604  32.160  28.438  1.00  0.00     0.057 A 
ATOM     71  C   UNL A   1      47.007  32.492  29.721  1.00  0.00     0.134 A 
ATOM     72  C   UNL A   1      46.768  33.003  27.425  1.00  0.00     0.134 A 
ATOM     73  F   UNL A   1      47.098  31.604  30.705  1.00  0.00    -0.206 F 
ATOM     74  C   UNL A   1      47.315  33.864  29.888  1.00  0.00     0.040 A 
ATOM     75  C   UNL A   1      47.201  34.288  27.646  1.00  0.00     0.040 A 
ATOM     76  F   UNL A   1      46.510  32.599  26.184  1.00  0.00    -0.206 F 
ATOM     77  C   UNL A   1      47.560  34.702  28.898  1.00  0.00     0.006 A 
ENDBRANCH  49  70
BRANCH  61  78
ATOM     78  C   UNL A   1      49.371  25.929  26.756  1.00  0.00     0.057 A 
ATOM     79  C   UNL A   1      50.164  25.352  27.735  1.00  0.00     0.134 A 
ATOM     80  C   UNL A   1      49.830  26.123  25.525  1.00  0.00     0.134 A 
ATOM     81  F   UNL A   1      49.681  24.909  28.892  1.00  0.00    -0.206 F 
ATOM     82  C   UNL A   1      51.535  25.277  27.392  1.00  0.00     0.040 A 
ATOM     83  C   UNL A   1      51.152  25.900  25.227  1.00  0.00     0.040 A 
ATOM     84  F   UNL A   1      49.001  26.539  24.572  1.00  0.00    -0.206 F 
ATOM     85  C   UNL A   1      52.007  25.386  26.163  1.00  0.00     0.006 A 
ENDBRANCH  61  78
ENDBRANCH  35  36
ENDBRANCH  28  30
ENDBRANCH  27  28
ENDBRANCH   1  27
TORSDOF 13
ENDMDL
MODEL 2
REMARK VINA RESULT:     -12.0      4.850      9.870
REMARK SMILES O=C(OCCOC(=O)c1ccc(-c2c3nc(c(-c4c(F)cccc4F)c4ccc([nH]4)c(-c4c(F)cccc4F)c4nc(c(-c5c(F)cccc5F)c5ccc2[nH]5)C=C4)C=C3)cc1)C1=Cc2cc(S(F)(F)(F)(F)F)cc(Br)c2O[C@@H]1C(F)(F)F
REMARK SMILES IDX 5 1 4 2 3 3 2 4 1 5 63 6 64 7 79 8 65 9 78 10 66 11 77 12
REMARK SMILES IDX 67 13 75 14 74 15 76 16 80 17 81 18 82 19 83 20 68 21 69 22
REMARK SMILES IDX 70 23 71 24 72 25 73 26 6 27 7 28 8 29 9 30 10 31 62 32
REMARK SMILES IDX 11 33 61 34 12 35 13 36 14 37 55 38 15 39 60 40 54 41 56 42
REMARK SMILES IDX 16 43 59 44 53 45 52 46 17 48 43 49 26 50 42 51 27 52 30 53
REMARK SMILES IDX 41 54 57 55 28 56 29 57 40 59 58 60 31 61 18 62 19 63 24 64
REMARK SMILES IDX 20 65 21 66 23 67 25 68 22 69 44 70 45 71 50 72 46 73 47 74
REMARK SMILES IDX 49 75 51 76 48 77 32 78 33 79 38 80 34 81 35 82 37 83 39 84
REMARK SMILES IDX 36 85
REMARK H PARENT 56 47 30 58
REMARK Flexibility Score: inf
ROOT
ATOM      1  C   UNL A   1      33.563  26.180  23.278  1.00  0.00     0.275 C 
ENDROOT
BRANCH   1   2
ATOM      2  C   UNL A   1      33.738  25.307  24.510  1.00  0.00     0.275 C 
BRANCH   2   3
ATOM      3  O   UNL A   1      34.100  23.993  24.112  1.00  0.00    -0.459 OA
BRANCH   3   4
ATOM      4  C   UNL A   1      33.097  23.076  23.697  1.00  0.00     0.338 C 
ATOM      5  O   UNL A   1      33.161  22.544  22.544  1.00  0.00    -0.246 OA
BRANCH   4   6
ATOM      6  C   UNL A   1      31.949  22.731  24.630  1.00  0.00     0.087 C 
ATOM      7  C   UNL A   1      31.884  21.499  25.203  1.00  0.00     0.027 C 
ATOM      8  C   UNL A   1      30.873  23.763  24.925  1.00  0.00     0.316 C 
ATOM      9  C   UNL A   1      32.960  20.467  24.908  1.00  0.00     0.020 A 
ATOM     10  O   UNL A   1      34.520  22.250  25.095  1.00  0.00    -0.474 OA
ATOM     11  C   UNL A   1      32.631  19.155  24.603  1.00  0.00     0.036 A 
ATOM     12  C   UNL A   1      34.226  20.869  24.939  1.00  0.00     0.142 A 
ATOM     13  C   UNL A   1      33.732  18.268  24.626  1.00  0.00     0.109 A 
ATOM     14  C   UNL A   1      35.251  19.963  24.819  1.00  0.00     0.062 A 
ATOM     15  C   UNL A   1      34.998  18.642  24.576  1.00  0.00     0.044 A 
ATOM     16  Br  UNL A   1      37.105  20.573  25.001  1.00  0.00    -0.047 Br
BRANCH   8  17
ATOM     17  C   UNL A   1      30.843  24.052  26.416  1.00  0.00     0.430 C 
ATOM     18  F   UNL A   1      30.112  23.126  27.033  1.00  0.00    -0.167 F 
ATOM     19  F   UNL A   1      32.082  24.031  26.898  1.00  0.00    -0.167 F 
ATOM     20  F   UNL A   1      30.305  25.251  26.625  1.00  0.00    -0.167 F 
ENDBRANCH   8  17
BRANCH  13  21
ATOM     21  S   UNL A   1      33.382  16.495  24.735  1.00  0.00     0.310 S 
ATOM     22  F   UNL A   1      34.889  16.154  25.093  1.00  0.00    -0.094 F 
ATOM     23  F   UNL A   1      33.781  16.352  23.218  1.00  0.00    -0.094 F 
ATOM     24  F   UNL A   1      33.080  14.972  24.828  1.00  0.00    -0.094 F 
ATOM     25  F   UNL A   1      33.121  16.633  26.287  1.00  0.00    -0.094 F 
ATOM     26  F   UNL A   1      33.794  18.020  24.683  1.00  0.00    -0.094 F 
ENDBRANCH  13  21
ENDBRANCH   4   6
ENDBRANCH   3   4
ENDBRANCH   2   3
ENDBRANCH   1   2
BRANCH   1  27
ATOM     27  O   UNL A   1      32.252  26.725  23.267  1.00  0.00    -0.458 OA
BRANCH  27  28
ATOM     28  C   UNL A   1      31.770  27.442  24.394  1.00  0.00     0.338 C 
ATOM     29  O   UNL A   1      30.529  27.436  24.667  1.00  0.00    -0.246 OA
BRANCH  28  30
ATOM     30  C   UNL A   1      32.737  28.218  25.272  1.00  0.00     0.060 A 
ATOM     31  C   UNL A   1      33.453  29.292  24.772  1.00  0.00     0.016 A 
ATOM     32  C   UNL A   1      32.912  27.794  26.519  1.00  0.00     0.016 A 
ATOM     33  C   UNL A   1      34.550  29.678  25.579  1.00  0.00     0.010 A 
ATOM     34  C   UNL A   1      33.918  28.311  27.298  1.00  0.00     0.010 A 
ATOM     35  C   UNL A   1      34.703  29.335  26.845  1.00  0.00    -0.014 A 
BRANCH  35  36
ATOM     36  C   UNL A   1      35.701  30.040  27.750  1.00  0.00     0.031 A 
ATOM     37  C   UNL A   1      35.185  31.132  28.450  1.00  0.00     0.074 A 
ATOM     38  C   UNL A   1      36.989  29.560  27.905  1.00  0.00     0.049 A 
ATOM     39  N   UNL A   1      35.797  31.863  29.383  1.00  0.00    -0.248 NA
ATOM     40  C   UNL A   1      33.828  31.665  28.263  1.00  0.00     0.031 C 
ATOM     41  C   UNL A   1      37.515  28.454  27.208  1.00  0.00     0.029 A 
ATOM     42  N   UNL A   1      37.978  30.043  28.733  1.00  0.00    -0.354 N 
ATOM     43  C   UNL A   1      34.976  32.811  29.839  1.00  0.00     0.074 A 
ATOM     44  C   UNL A   1      33.699  32.701  29.120  1.00  0.00     0.031 C 
ATOM     45  C   UNL A   1      38.804  28.280  27.602  1.00  0.00     0.029 A 
ATOM     46  C   UNL A   1      39.106  29.275  28.551  1.00  0.00     0.049 A 
ATOM     47  H   UNL A   1      37.894  30.807  29.349  1.00  0.00     0.167 HD
ATOM     48  C   UNL A   1      35.241  33.762  30.826  1.00  0.00     0.037 A 
ATOM     49  C   UNL A   1      40.340  29.418  29.168  1.00  0.00     0.037 A 
ATOM     50  C   UNL A   1      36.461  33.876  31.474  1.00  0.00     0.049 A 
ATOM     51  C   UNL A   1      40.623  30.405  30.114  1.00  0.00     0.074 A 
ATOM     52  C   UNL A   1      36.742  34.824  32.478  1.00  0.00     0.029 A 
ATOM     53  N   UNL A   1      37.597  33.123  31.274  1.00  0.00    -0.354 N 
ATOM     54  N   UNL A   1      39.789  31.327  30.598  1.00  0.00    -0.248 NA
ATOM     55  C   UNL A   1      41.935  30.586  30.750  1.00  0.00     0.031 C 
ATOM     56  C   UNL A   1      38.032  34.650  32.872  1.00  0.00     0.029 A 
ATOM     57  C   UNL A   1      38.578  33.593  32.120  1.00  0.00     0.049 A 
ATOM     58  H   UNL A   1      37.690  32.378  30.639  1.00  0.00     0.167 HD
ATOM     59  C   UNL A   1      40.415  32.085  31.500  1.00  0.00     0.074 A 
ATOM     60  C   UNL A   1      41.807  31.624  31.606  1.00  0.00     0.031 C 
ATOM     61  C   UNL A   1      39.882  33.140  32.243  1.00  0.00     0.037 A 
BRANCH  48  62
ATOM     62  C   UNL A   1      34.130  34.724  31.212  1.00  0.00     0.057 A 
ATOM     63  C   UNL A   1      33.823  35.800  30.395  1.00  0.00     0.134 A 
ATOM     64  C   UNL A   1      33.545  34.567  32.393  1.00  0.00     0.134 A 
ATOM     65  F   UNL A   1      34.184  35.866  29.116  1.00  0.00    -0.206 F 
ATOM     66  C   UNL A   1      33.091  36.822  31.045  1.00  0.00     0.040 A 
ATOM     67  C   UNL A   1      32.733  35.548  32.907  1.00  0.00     0.040 A 
ATOM     68  F   UNL A   1      33.746  33.449  33.085  1.00  0.00    -0.206 F 
ATOM     69  C   UNL A   1      32.434  36.666  32.180  1.00  0.00     0.006 A 
ENDBRANCH  48  62
BRANCH  49  70
ATOM     70  C   UNL A   1      41.445  28.444  28.795  1.00  0.00     0.057 A 
ATOM     71  C   UNL A   1      41.416  27.197  29.395  1.00  0.00     0.134 A 
ATOM     72  C   UNL A   1      42.345  28.739  27.863  1.00  0.00     0.134 A 
ATOM     73  F   UNL A   1      40.397  26.771  30.135  1.00  0.00    -0.206 F 
ATOM     74  C   UNL A   1      42.571  26.415  29.150  1.00  0.00     0.040 A 
ATOM     75  C   UNL A   1      43.370  27.869  27.579  1.00  0.00     0.040 A 
ATOM     76  F   UNL A   1      42.254  29.889  27.200  1.00  0.00    -0.206 F 
ATOM     77  C   UNL A   1      43.436  26.643  28.179  1.00  0.00     0.006 A 
ENDBRANCH  49  70
BRANCH  61  78
ATOM     78  C   UNL A   1      40.786  33.834  33.248  1.00  0.00     0.057 A 
ATOM     79  C   UNL A   1      40.764  33.508  34.595  1.00  0.00     0.134 A 
ATOM     80  C   UNL A   1      41.542  34.826  32.792  1.00  0.00     0.134 A 
ATOM     81  F   UNL A   1      40.231  32.383  35.060  1.00  0.00    -0.206 F 
ATOM     82  C   UNL A   1      41.360  34.483  35.430  1.00  0.00     0.040 A 
ATOM     83  C   UNL A   1      42.207  35.657  33.662  1.00  0.00     0.040 A 
ATOM     84  F   UNL A   1      41.657  35.017  31.481  1.00  0.00    -0.206 F 
ATOM     85  C   UNL A   1      42.180  35.429  35.010  1.00  0.00     0.006 A 
ENDBRANCH  61  78
ENDBRANCH  35  36
ENDBRANCH  28  30
ENDBRANCH  27  28
ENDBRANCH   1  27
TORSDOF 13
ENDMDL
MODEL 3
REMARK VINA RESULT:     -12.0      5.795     10.285
REMARK SMILES O=C(OCCOC(=O)c1ccc(-c2c3nc(c(-c4c(F)cccc4F)c4ccc([nH]4)c(-c4c(F)cccc4F)c4nc(c(-c5c(F)cccc5F)c5ccc2[nH]5)C=C4)C=C3)cc1)C1=Cc2cc(S(F)(F)(F)(F)F)cc(Br)c2O[C@@H]1C(F)(F)F
REMARK SMILES IDX 5 1 4 2 3 3 2 4 1 5 63 6 64 7 79 8 65 9 78 10 66 11 77 12
REMARK SMILES IDX 67 13 75 14 74 15 76 16 80 17 81 18 82 19 83 20 68 21 69 22
REMARK SMILES IDX 70 23 71 24 72 25 73 26 6 27 7 28 8 29 9 30 10 31 62 32
REMARK SMILES IDX 11 33 61 34 12 35 13 36 14 37 55 38 15 39 60 40 54 41 56 42
REMARK SMILES IDX 16 43 59 44 53 45 52 46 17 48 43 49 26 50 42 51 27 52 30 53
REMARK SMILES IDX 41 54 57 55 28 56 29 57 40 59 58 60 31 61 18 62 19 63 24 64
REMARK SMILES IDX 20 65 21 66 23 67 25 68 22 69 44 70 45 71 50 72 46 73 47 74
REMARK SMILES IDX 49 75 51 76 48 77 32 78 33 79 38 80 34 81 35 82 37 83 39 84
REMARK SMILES IDX 36 85
REMARK H PARENT 56 47 30 58
REMARK Flexibility Score: inf
ROOT
ATOM      1  C   UNL A   1      38.233  22.911  25.852  1.00  0.00     0.275 C 
ENDROOT
BRANCH   1   2
ATOM      2  C   UNL A   1      36.972  23.730  26.073  1.00  0.00     0.275 C 
BRANCH   2   3
ATOM      3  O   UNL A   1      36.427  24.109  24.818  1.00  0.00    -0.459 OA
BRANCH   3   4
ATOM      4  C   UNL A   1      35.594  23.206  24.104  1.00  0.00     0.338 C 
ATOM      5  O   UNL A   1      35.778  23.021  22.860  1.00  0.00    -0.246 OA
BRANCH   4   6
ATOM      6  C   UNL A   1      34.485  22.461  24.828  1.00  0.00     0.087 C 
ATOM      7  C   UNL A   1      33.433  23.147  25.349  1.00  0.00     0.027 C 
ATOM      8  C   UNL A   1      34.550  20.949  24.968  1.00  0.00     0.316 C 
ATOM      9  C   UNL A   1      33.367  24.659  25.209  1.00  0.00     0.020 A 
ATOM     10  O   UNL A   1      34.140  24.343  22.984  1.00  0.00    -0.474 OA
ATOM     11  C   UNL A   1      33.038  25.465  26.287  1.00  0.00     0.036 A 
ATOM     12  C   UNL A   1      33.651  25.181  24.021  1.00  0.00     0.142 A 
ATOM     13  C   UNL A   1      32.752  26.805  25.935  1.00  0.00     0.109 A 
ATOM     14  C   UNL A   1      33.478  26.523  23.787  1.00  0.00     0.062 A 
ATOM     15  C   UNL A   1      33.096  27.369  24.791  1.00  0.00     0.044 A 
ATOM     16  Br  UNL A   1      33.780  27.237  21.987  1.00  0.00    -0.047 Br
BRANCH   8  17
ATOM     17  C   UNL A   1      33.337  20.325  24.300  1.00  0.00     0.430 C 
ATOM     18  F   UNL A   1      32.321  20.299  25.159  1.00  0.00    -0.167 F 
ATOM     19  F   UNL A   1      32.997  21.044  23.234  1.00  0.00    -0.167 F 
ATOM     20  F   UNL A   1      33.628  19.083  23.922  1.00  0.00    -0.167 F 
ENDBRANCH   8  17
BRANCH  13  21
ATOM     21  S   UNL A   1      31.851  27.817  27.135  1.00  0.00     0.310 S 
ATOM     22  F   UNL A   1      31.451  28.883  26.031  1.00  0.00    -0.094 F 
ATOM     23  F   UNL A   1      33.163  28.656  27.372  1.00  0.00    -0.094 F 
ATOM     24  F   UNL A   1      31.076  28.686  28.166  1.00  0.00    -0.094 F 
ATOM     25  F   UNL A   1      30.511  27.058  26.781  1.00  0.00    -0.094 F 
ATOM     26  F   UNL A   1      32.594  27.002  26.003  1.00  0.00    -0.094 F 
ENDBRANCH  13  21
ENDBRANCH   4   6
ENDBRANCH   3   4
ENDBRANCH   2   3
ENDBRANCH   1   2
BRANCH   1  27
ATOM     27  O   UNL A   1      39.224  23.306  26.789  1.00  0.00    -0.458 OA
BRANCH  27  28
ATOM     28  C   UNL A   1      39.941  24.517  26.598  1.00  0.00     0.338 C 
ATOM     29  O   UNL A   1      40.546  24.731  25.501  1.00  0.00    -0.246 OA
BRANCH  28  30
ATOM     30  C   UNL A   1      39.986  25.557  27.706  1.00  0.00     0.060 A 
ATOM     31  C   UNL A   1      39.221  25.416  28.851  1.00  0.00     0.016 A 
ATOM     32  C   UNL A   1      40.743  26.632  27.511  1.00  0.00     0.016 A 
ATOM     33  C   UNL A   1      39.095  26.605  29.608  1.00  0.00     0.010 A 
ATOM     34  C   UNL A   1      40.668  27.703  28.367  1.00  0.00     0.010 A 
ATOM     35  C   UNL A   1      39.886  27.655  29.487  1.00  0.00    -0.014 A 
BRANCH  35  36
ATOM     36  C   UNL A   1      39.925  28.753  30.538  1.00  0.00     0.031 A 
ATOM     37  C   UNL A   1      38.982  29.766  30.361  1.00  0.00     0.074 A 
ATOM     38  C   UNL A   1      40.789  28.678  31.618  1.00  0.00     0.049 A 
ATOM     39  N   UNL A   1      38.724  30.789  31.178  1.00  0.00    -0.248 NA
ATOM     40  C   UNL A   1      38.088  29.867  29.199  1.00  0.00     0.031 C 
ATOM     41  C   UNL A   1      41.737  27.654  31.808  1.00  0.00     0.029 A 
ATOM     42  N   UNL A   1      40.893  29.551  32.679  1.00  0.00    -0.354 N 
ATOM     43  C   UNL A   1      37.740  31.540  30.681  1.00  0.00     0.074 A 
ATOM     44  C   UNL A   1      37.321  30.961  29.396  1.00  0.00     0.031 C 
ATOM     45  C   UNL A   1      42.411  27.912  32.960  1.00  0.00     0.029 A 
ATOM     46  C   UNL A   1      41.895  29.101  33.509  1.00  0.00     0.049 A 
ATOM     47  H   UNL A   1      40.346  30.358  32.819  1.00  0.00     0.167 HD
ATOM     48  C   UNL A   1      37.174  32.684  31.246  1.00  0.00     0.037 A 
ATOM     49  C   UNL A   1      42.349  29.682  34.683  1.00  0.00     0.037 A 
ATOM     50  C   UNL A   1      37.600  33.240  32.443  1.00  0.00     0.049 A 
ATOM     51  C   UNL A   1      41.823  30.858  35.221  1.00  0.00     0.074 A 
ATOM     52  C   UNL A   1      37.035  34.388  33.031  1.00  0.00     0.029 A 
ATOM     53  N   UNL A   1      38.619  32.803  33.261  1.00  0.00    -0.354 N 
ATOM     54  N   UNL A   1      40.813  31.587  34.741  1.00  0.00    -0.248 NA
ATOM     55  C   UNL A   1      42.318  31.499  36.446  1.00  0.00     0.031 C 
ATOM     56  C   UNL A   1      37.710  34.646  34.184  1.00  0.00     0.029 A 
ATOM     57  C   UNL A   1      38.707  33.663  34.333  1.00  0.00     0.049 A 
ATOM     58  H   UNL A   1      39.184  32.013  33.106  1.00  0.00     0.167 HD
ATOM     59  C   UNL A   1      40.583  32.632  35.538  1.00  0.00     0.074 A 
ATOM     60  C   UNL A   1      41.552  32.596  36.642  1.00  0.00     0.031 C 
ATOM     61  C   UNL A   1      39.601  33.613  35.391  1.00  0.00     0.037 A 
BRANCH  48  62
ATOM     62  C   UNL A   1      36.028  33.358  30.509  1.00  0.00     0.057 A 
ATOM     63  C   UNL A   1      36.280  34.143  29.396  1.00  0.00     0.134 A 
ATOM     64  C   UNL A   1      34.809  33.261  31.023  1.00  0.00     0.134 A 
ATOM     65  F   UNL A   1      37.412  34.076  28.701  1.00  0.00    -0.206 F 
ATOM     66  C   UNL A   1      35.222  35.025  29.067  1.00  0.00     0.040 A 
ATOM     67  C   UNL A   1      33.789  34.057  30.560  1.00  0.00     0.040 A 
ATOM     68  F   UNL A   1      34.569  32.384  31.994  1.00  0.00    -0.206 F 
ATOM     69  C   UNL A   1      33.981  34.901  29.502  1.00  0.00     0.006 A 
ENDBRANCH  48  62
BRANCH  49  70
ATOM     70  C   UNL A   1      43.484  28.998  35.428  1.00  0.00     0.057 A 
ATOM     71  C   UNL A   1      43.134  28.070  36.395  1.00  0.00     0.134 A 
ATOM     72  C   UNL A   1      44.754  29.209  35.104  1.00  0.00     0.134 A 
ATOM     73  F   UNL A   1      41.888  27.643  36.574  1.00  0.00    -0.206 F 
ATOM     74  C   UNL A   1      44.225  27.615  37.175  1.00  0.00     0.040 A 
ATOM     75  C   UNL A   1      45.767  28.625  35.826  1.00  0.00     0.040 A 
ATOM     76  F   UNL A   1      45.049  29.994  34.072  1.00  0.00    -0.206 F 
ATOM     77  C   UNL A   1      45.494  27.743  36.833  1.00  0.00     0.006 A 
ENDBRANCH  49  70
BRANCH  61  78
ATOM     78  C   UNL A   1      39.505  34.693  36.457  1.00  0.00     0.057 A 
ATOM     79  C   UNL A   1      40.158  35.908  36.324  1.00  0.00     0.134 A 
ATOM     80  C   UNL A   1      38.832  34.391  37.561  1.00  0.00     0.134 A 
ATOM     81  F   UNL A   1      40.625  36.357  35.163  1.00  0.00    -0.206 F 
ATOM     82  C   UNL A   1      40.285  36.626  37.536  1.00  0.00     0.040 A 
ATOM     83  C   UNL A   1      38.892  35.208  38.663  1.00  0.00     0.040 A 
ATOM     84  F   UNL A   1      38.094  33.285  37.600  1.00  0.00    -0.206 F 
ATOM     85  C   UNL A   1      39.569  36.396  38.622  1.00  0.00     0.006 A 
ENDBRANCH  61  78
ENDBRANCH  35  36
ENDBRANCH  28  30
ENDBRANCH  27  28
ENDBRANCH   1  27
TORSDOF 13
ENDMDL
