MODEL 1
REMARK VINA RESULT:     -12.1      0.000      0.000
REMARK SMILES C[C@@H]1CCC[C@H](C)[N@H+]1Cc1cc2c(cc1Cl)C=C(C(=O)OCCOC(=O)c1ccc(-c3c4nc(c(-c5c(F)cccc5F)c5ccc([nH]5)c(-c5c(F)cccc5F)c5nc(c(-c6c(F)cccc6F)c6ccc3[nH]6)C=C5)C=C4)cc1)[C@@H](C(F)(F)F)O2
REMARK SMILES IDX 22 1 21 2 19 3 20 4 18 5 10 6 11 7 15 8 12 9 14 10 16 11
REMARK SMILES IDX 13 12 86 13 17 14 81 15 9 16 8 17 7 18 6 19 5 20 4 21 2 22
REMARK SMILES IDX 3 24 1 25 82 26 83 27 84 28 85 29 23 30 24 31 25 32 26 33
REMARK SMILES IDX 27 34 28 35 80 36 29 37 79 38 30 39 31 40 32 41 73 42 33 43
REMARK SMILES IDX 78 44 72 45 74 46 34 47 77 48 71 49 70 50 35 52 61 53 44 54
REMARK SMILES IDX 60 55 45 56 48 57 59 58 75 59 46 60 47 61 58 63 76 64 49 65
REMARK SMILES IDX 36 66 37 67 42 68 38 69 39 70 41 71 43 72 40 73 62 74 63 75
REMARK SMILES IDX 68 76 64 77 65 78 67 79 69 80 66 81 50 82 51 83 56 84 52 85
REMARK SMILES IDX 53 86 55 87 57 88 54 89
REMARK H PARENT 8 23 74 51 48 62
REMARK Flexibility Score: inf
ROOT
ATOM      1  C   UNL A   1      38.552  19.430  25.006  1.00  0.00     0.275 C 
ENDROOT
BRANCH   1   2
ATOM      2  O   UNL A   1      37.631  20.462  24.587  1.00  0.00    -0.459 OA
BRANCH   2   3
ATOM      3  C   UNL A   1      36.328  20.218  24.875  1.00  0.00     0.338 C 
ATOM      4  O   UNL A   1      35.805  19.123  24.952  1.00  0.00    -0.246 OA
BRANCH   3   5
ATOM      5  C   UNL A   1      35.600  21.474  25.164  1.00  0.00     0.087 C 
ATOM      6  C   UNL A   1      32.073  25.069  25.326  1.00  0.00     0.029 A 
ATOM      7  C   UNL A   1      33.172  24.728  26.147  1.00  0.00     0.058 A 
ATOM      8  C   UNL A   1      31.975  24.444  24.072  1.00  0.00     0.050 A 
ATOM      9  C   UNL A   1      34.045  23.693  25.794  1.00  0.00     0.128 A 
ATOM     10  C   UNL A   1      32.818  23.382  23.741  1.00  0.00     0.033 A 
ATOM     11  Cl  UNL A   1      30.831  24.916  22.867  1.00  0.00    -0.084 Cl
ATOM     12  C   UNL A   1      33.825  22.982  24.618  1.00  0.00     0.019 A 
ATOM     13  O   UNL A   1      35.040  23.374  26.680  1.00  0.00    -0.475 OA
ATOM     14  C   UNL A   1      34.587  21.780  24.345  1.00  0.00     0.027 C 
ATOM     15  C   UNL A   1      36.055  22.419  26.242  1.00  0.00     0.316 C 
BRANCH   6  16
ATOM     16  C   UNL A   1      31.020  26.029  25.849  1.00  0.00     0.301 C 
BRANCH  16  17
ATOM     17  N   UNL A   1      31.324  27.477  25.766  1.00  0.00    -0.327 N 
ATOM     18  C   UNL A   1      30.793  29.377  24.271  1.00  0.00     0.075 C 
ATOM     19  C   UNL A   1      31.482  28.008  24.405  1.00  0.00     0.181 C 
ATOM     20  C   UNL A   1      32.940  28.091  23.924  1.00  0.00     0.065 C 
ATOM     21  C   UNL A   1      33.877  28.721  24.947  1.00  0.00     0.012 C 
ATOM     22  C   UNL A   1      32.260  27.984  26.782  1.00  0.00     0.181 C 
ATOM     23  H   UNL A   1      30.450  27.915  26.058  1.00  0.00     0.348 HD
ATOM     24  C   UNL A   1      33.722  28.057  26.309  1.00  0.00     0.065 C 
ATOM     25  C   UNL A   1      31.804  29.337  27.349  1.00  0.00     0.075 C 
ENDBRANCH  16  17
ENDBRANCH   6  16
BRANCH  15  26
ATOM     26  C   UNL A   1      37.320  23.158  25.767  1.00  0.00     0.430 C 
ATOM     27  F   UNL A   1      37.397  23.209  24.417  1.00  0.00    -0.167 F 
ATOM     28  F   UNL A   1      37.330  24.440  26.210  1.00  0.00    -0.167 F 
ATOM     29  F   UNL A   1      38.454  22.572  26.217  1.00  0.00    -0.167 F 
ENDBRANCH  15  26
ENDBRANCH   3   5
ENDBRANCH   2   3
ENDBRANCH   1   2
BRANCH   1  30
ATOM     30  C   UNL A   1      39.651  19.967  25.926  1.00  0.00     0.275 C 
BRANCH  30  31
ATOM     31  O   UNL A   1      40.767  19.059  25.991  1.00  0.00    -0.458 OA
BRANCH  31  32
ATOM     32  C   UNL A   1      41.980  19.602  25.745  1.00  0.00     0.338 C 
ATOM     33  O   UNL A   1      42.864  19.160  25.023  1.00  0.00    -0.246 OA
BRANCH  32  34
ATOM     34  C   UNL A   1      42.075  20.909  26.405  1.00  0.00     0.060 A 
ATOM     35  C   UNL A   1      42.010  21.037  27.789  1.00  0.00     0.016 A 
ATOM     36  C   UNL A   1      42.363  22.017  25.611  1.00  0.00     0.016 A 
ATOM     37  C   UNL A   1      42.203  22.300  28.369  1.00  0.00     0.010 A 
ATOM     38  C   UNL A   1      42.614  23.259  26.190  1.00  0.00     0.010 A 
ATOM     39  C   UNL A   1      42.519  23.424  27.577  1.00  0.00    -0.014 A 
BRANCH  39  40
ATOM     40  C   UNL A   1      42.780  24.756  28.193  1.00  0.00     0.031 A 
ATOM     41  C   UNL A   1      44.171  25.162  28.615  1.00  0.00     0.074 A 
ATOM     42  C   UNL A   1      41.751  25.597  28.424  1.00  0.00     0.049 A 
ATOM     43  N   UNL A   1      44.582  26.296  29.130  1.00  0.00    -0.248 NA
ATOM     44  C   UNL A   1      45.232  24.153  28.477  1.00  0.00     0.031 C 
ATOM     45  C   UNL A   1      40.340  25.296  28.171  1.00  0.00     0.029 A 
ATOM     46  N   UNL A   1      41.733  26.879  28.913  1.00  0.00    -0.354 N 
ATOM     47  C   UNL A   1      45.937  26.127  29.393  1.00  0.00     0.074 A 
ATOM     48  C   UNL A   1      46.264  24.762  29.043  1.00  0.00     0.031 C 
ATOM     49  C   UNL A   1      39.603  26.385  28.443  1.00  0.00     0.029 A 
ATOM     50  C   UNL A   1      40.482  27.451  28.911  1.00  0.00     0.049 A 
ATOM     51  H   UNL A   1      42.538  27.345  29.235  1.00  0.00     0.167 HD
ATOM     52  C   UNL A   1      46.839  27.032  29.849  1.00  0.00     0.037 A 
ATOM     53  C   UNL A   1      40.092  28.700  29.225  1.00  0.00     0.037 A 
ATOM     54  C   UNL A   1      46.528  28.404  30.153  1.00  0.00     0.049 A 
ATOM     55  C   UNL A   1      41.118  29.707  29.662  1.00  0.00     0.074 A 
ATOM     56  C   UNL A   1      47.386  29.422  30.538  1.00  0.00     0.029 A 
ATOM     57  N   UNL A   1      45.257  28.954  30.104  1.00  0.00    -0.354 N 
ATOM     58  N   UNL A   1      42.413  29.561  29.806  1.00  0.00    -0.248 NA
ATOM     59  C   UNL A   1      40.628  31.059  29.970  1.00  0.00     0.031 C 
ATOM     60  C   UNL A   1      46.628  30.581  30.742  1.00  0.00     0.029 A 
ATOM     61  C   UNL A   1      45.304  30.293  30.455  1.00  0.00     0.049 A 
ATOM     62  H   UNL A   1      44.439  28.464  29.854  1.00  0.00     0.167 HD
ATOM     63  C   UNL A   1      42.893  30.803  30.200  1.00  0.00     0.074 A 
ATOM     64  C   UNL A   1      41.755  31.697  30.250  1.00  0.00     0.031 C 
ATOM     65  C   UNL A   1      44.164  31.170  30.496  1.00  0.00     0.037 A 
BRANCH  52  66
ATOM     66  C   UNL A   1      48.259  26.568  30.016  1.00  0.00     0.057 A 
ATOM     67  C   UNL A   1      49.194  26.718  28.985  1.00  0.00     0.134 A 
ATOM     68  C   UNL A   1      48.696  25.954  31.198  1.00  0.00     0.134 A 
ATOM     69  F   UNL A   1      48.841  27.285  27.820  1.00  0.00    -0.206 F 
ATOM     70  C   UNL A   1      50.513  26.283  29.126  1.00  0.00     0.040 A 
ATOM     71  C   UNL A   1      50.019  25.541  31.362  1.00  0.00     0.040 A 
ATOM     72  F   UNL A   1      47.854  25.786  32.229  1.00  0.00    -0.206 F 
ATOM     73  C   UNL A   1      50.932  25.702  30.322  1.00  0.00     0.006 A 
ENDBRANCH  52  66
BRANCH  53  74
ATOM     74  C   UNL A   1      38.671  29.098  29.067  1.00  0.00     0.057 A 
ATOM     75  C   UNL A   1      38.163  29.548  27.844  1.00  0.00     0.134 A 
ATOM     76  C   UNL A   1      37.783  29.021  30.147  1.00  0.00     0.134 A 
ATOM     77  F   UNL A   1      38.965  29.651  26.774  1.00  0.00    -0.206 F 
ATOM     78  C   UNL A   1      36.822  29.909  27.700  1.00  0.00     0.040 A 
ATOM     79  C   UNL A   1      36.436  29.356  30.012  1.00  0.00     0.040 A 
ATOM     80  F   UNL A   1      38.209  28.580  31.340  1.00  0.00    -0.206 F 
ATOM     81  C   UNL A   1      35.953  29.806  28.785  1.00  0.00     0.006 A 
ENDBRANCH  53  74
BRANCH  65  82
ATOM     82  C   UNL A   1      44.388  32.604  30.875  1.00  0.00     0.057 A 
ATOM     83  C   UNL A   1      44.273  33.016  32.208  1.00  0.00     0.134 A 
ATOM     84  C   UNL A   1      44.699  33.579  29.919  1.00  0.00     0.134 A 
ATOM     85  F   UNL A   1      43.970  32.132  33.171  1.00  0.00    -0.206 F 
ATOM     86  C   UNL A   1      44.462  34.348  32.578  1.00  0.00     0.040 A 
ATOM     87  C   UNL A   1      44.914  34.909  30.279  1.00  0.00     0.040 A 
ATOM     88  F   UNL A   1      44.838  33.245  28.627  1.00  0.00    -0.206 F 
ATOM     89  C   UNL A   1      44.791  35.298  31.612  1.00  0.00     0.006 A 
ENDBRANCH  65  82
ENDBRANCH  39  40
ENDBRANCH  32  34
ENDBRANCH  31  32
ENDBRANCH  30  31
ENDBRANCH   1  30
TORSDOF 14
ENDMDL
MODEL 2
REMARK VINA RESULT:     -12.0      4.133      8.936
REMARK SMILES C[C@@H]1CCC[C@H](C)[N@H+]1Cc1cc2c(cc1Cl)C=C(C(=O)OCCOC(=O)c1ccc(-c3c4nc(c(-c5c(F)cccc5F)c5ccc([nH]5)c(-c5c(F)cccc5F)c5nc(c(-c6c(F)cccc6F)c6ccc3[nH]6)C=C5)C=C4)cc1)[C@@H](C(F)(F)F)O2
REMARK SMILES IDX 22 1 21 2 19 3 20 4 18 5 10 6 11 7 15 8 12 9 14 10 16 11
REMARK SMILES IDX 13 12 86 13 17 14 81 15 9 16 8 17 7 18 6 19 5 20 4 21 2 22
REMARK SMILES IDX 3 24 1 25 82 26 83 27 84 28 85 29 23 30 24 31 25 32 26 33
REMARK SMILES IDX 27 34 28 35 80 36 29 37 79 38 30 39 31 40 32 41 73 42 33 43
REMARK SMILES IDX 78 44 72 45 74 46 34 47 77 48 71 49 70 50 35 52 61 53 44 54
REMARK SMILES IDX 60 55 45 56 48 57 59 58 75 59 46 60 47 61 58 63 76 64 49 65
REMARK SMILES IDX 36 66 37 67 42 68 38 69 39 70 41 71 43 72 40 73 62 74 63 75
REMARK SMILES IDX 68 76 64 77 65 78 67 79 69 80 66 81 50 82 51 83 56 84 52 85
REMARK SMILES IDX 53 86 55 87 57 88 54 89
REMARK H PARENT 8 23 74 51 48 62
REMARK Flexibility Score: inf
ROOT
ATOM      1  C   UNL A   1      31.486  28.707  24.542  1.00  0.00     0.275 C 
ENDROOT
BRANCH   1   2
ATOM      2  O   UNL A   1      32.098  27.456  24.928  1.00  0.00    -0.459 OA
BRANCH   2   3
ATOM      3  C   UNL A   1      33.305  27.210  24.358  1.00  0.00     0.338 C 
ATOM      4  O   UNL A   1      34.139  28.044  24.062  1.00  0.00    -0.246 OA
BRANCH   3   5
ATOM      5  C   UNL A   1      33.532  25.757  24.192  1.00  0.00     0.087 C 
ATOM      6  C   UNL A   1      35.310  21.070  24.699  1.00  0.00     0.029 A 
ATOM      7  C   UNL A   1      34.100  21.619  24.217  1.00  0.00     0.058 A 
ATOM      8  C   UNL A   1      36.379  21.950  24.933  1.00  0.00     0.050 A 
ATOM      9  C   UNL A   1      33.919  23.003  24.125  1.00  0.00     0.128 A 
ATOM     10  C   UNL A   1      36.185  23.332  24.884  1.00  0.00     0.033 A 
ATOM     11  Cl  UNL A   1      37.981  21.416  25.299  1.00  0.00    -0.084 Cl
ATOM     12  C   UNL A   1      34.946  23.856  24.519  1.00  0.00     0.019 A 
ATOM     13  O   UNL A   1      32.691  23.456  23.722  1.00  0.00    -0.475 OA
ATOM     14  C   UNL A   1      34.702  25.280  24.630  1.00  0.00     0.027 C 
ATOM     15  C   UNL A   1      32.551  24.886  23.455  1.00  0.00     0.316 C 
BRANCH   6  16
ATOM     16  C   UNL A   1      35.387  19.585  25.006  1.00  0.00     0.301 C 
BRANCH  16  17
ATOM     17  N   UNL A   1      34.389  18.707  24.353  1.00  0.00    -0.327 N 
ATOM     18  C   UNL A   1      32.044  18.861  23.576  1.00  0.00     0.075 C 
ATOM     19  C   UNL A   1      32.998  18.909  24.782  1.00  0.00     0.181 C 
ATOM     20  C   UNL A   1      32.528  17.939  25.878  1.00  0.00     0.065 C 
ATOM     21  C   UNL A   1      32.882  16.486  25.590  1.00  0.00     0.012 C 
ATOM     22  C   UNL A   1      34.816  17.314  24.141  1.00  0.00     0.181 C 
ATOM     23  H   UNL A   1      34.362  19.059  23.395  1.00  0.00     0.348 HD
ATOM     24  C   UNL A   1      34.358  16.343  25.243  1.00  0.00     0.065 C 
ATOM     25  C   UNL A   1      34.403  16.798  22.755  1.00  0.00     0.075 C 
ENDBRANCH  16  17
ENDBRANCH   6  16
BRANCH  15  26
ATOM     26  C   UNL A   1      32.661  25.166  21.945  1.00  0.00     0.430 C 
ATOM     27  F   UNL A   1      32.896  24.036  21.238  1.00  0.00    -0.167 F 
ATOM     28  F   UNL A   1      31.511  25.699  21.463  1.00  0.00    -0.167 F 
ATOM     29  F   UNL A   1      33.655  26.039  21.658  1.00  0.00    -0.167 F 
ENDBRANCH  15  26
ENDBRANCH   3   5
ENDBRANCH   2   3
ENDBRANCH   1   2
BRANCH   1  30
ATOM     30  C   UNL A   1      31.527  29.748  25.664  1.00  0.00     0.275 C 
BRANCH  30  31
ATOM     31  O   UNL A   1      32.819  30.380  25.740  1.00  0.00    -0.458 OA
BRANCH  31  32
ATOM     32  C   UNL A   1      33.001  31.215  26.787  1.00  0.00     0.338 C 
ATOM     33  O   UNL A   1      32.203  32.019  27.251  1.00  0.00    -0.246 OA
BRANCH  32  34
ATOM     34  C   UNL A   1      34.310  30.956  27.399  1.00  0.00     0.060 A 
ATOM     35  C   UNL A   1      35.143  31.992  27.812  1.00  0.00     0.016 A 
ATOM     36  C   UNL A   1      34.646  29.633  27.675  1.00  0.00     0.016 A 
ATOM     37  C   UNL A   1      36.338  31.683  28.478  1.00  0.00     0.010 A 
ATOM     38  C   UNL A   1      35.803  29.329  28.388  1.00  0.00     0.010 A 
ATOM     39  C   UNL A   1      36.677  30.349  28.784  1.00  0.00    -0.014 A 
BRANCH  39  40
ATOM     40  C   UNL A   1      37.920  30.020  29.540  1.00  0.00     0.031 A 
ATOM     41  C   UNL A   1      38.127  30.510  30.953  1.00  0.00     0.074 A 
ATOM     42  C   UNL A   1      38.899  29.313  28.938  1.00  0.00     0.049 A 
ATOM     43  N   UNL A   1      39.129  30.285  31.768  1.00  0.00    -0.248 NA
ATOM     44  C   UNL A   1      37.097  31.399  31.509  1.00  0.00     0.031 C 
ATOM     45  C   UNL A   1      38.885  28.869  27.543  1.00  0.00     0.029 A 
ATOM     46  N   UNL A   1      40.090  28.836  29.426  1.00  0.00    -0.354 N 
ATOM     47  C   UNL A   1      38.857  31.017  32.919  1.00  0.00     0.074 A 
ATOM     48  C   UNL A   1      37.632  31.745  32.671  1.00  0.00     0.031 C 
ATOM     49  C   UNL A   1      39.981  28.128  27.307  1.00  0.00     0.029 A 
ATOM     50  C   UNL A   1      40.784  28.065  28.524  1.00  0.00     0.049 A 
ATOM     51  H   UNL A   1      40.417  29.028  30.335  1.00  0.00     0.167 HD
ATOM     52  C   UNL A   1      39.541  31.056  34.089  1.00  0.00     0.037 A 
ATOM     53  C   UNL A   1      41.924  27.366  28.668  1.00  0.00     0.037 A 
ATOM     54  C   UNL A   1      40.735  30.297  34.357  1.00  0.00     0.049 A 
ATOM     55  C   UNL A   1      42.630  27.366  29.995  1.00  0.00     0.074 A 
ATOM     56  C   UNL A   1      41.452  30.199  35.537  1.00  0.00     0.029 A 
ATOM     57  N   UNL A   1      41.386  29.500  33.429  1.00  0.00    -0.354 N 
ATOM     58  N   UNL A   1      42.303  27.981  31.106  1.00  0.00    -0.248 NA
ATOM     59  C   UNL A   1      43.859  26.565  30.090  1.00  0.00     0.031 C 
ATOM     60  C   UNL A   1      42.551  29.361  35.316  1.00  0.00     0.029 A 
ATOM     61  C   UNL A   1      42.499  28.912  34.006  1.00  0.00     0.049 A 
ATOM     62  H   UNL A   1      41.098  29.370  32.495  1.00  0.00     0.167 HD
ATOM     63  C   UNL A   1      43.272  27.625  32.035  1.00  0.00     0.074 A 
ATOM     64  C   UNL A   1      44.185  26.723  31.365  1.00  0.00     0.031 C 
ATOM     65  C   UNL A   1      43.395  28.013  33.328  1.00  0.00     0.037 A 
BRANCH  52  66
ATOM     66  C   UNL A   1      38.991  31.929  35.182  1.00  0.00     0.057 A 
ATOM     67  C   UNL A   1      39.211  33.312  35.182  1.00  0.00     0.134 A 
ATOM     68  C   UNL A   1      38.254  31.394  36.248  1.00  0.00     0.134 A 
ATOM     69  F   UNL A   1      39.919  33.890  34.199  1.00  0.00    -0.206 F 
ATOM     70  C   UNL A   1      38.712  34.131  36.197  1.00  0.00     0.040 A 
ATOM     71  C   UNL A   1      37.726  32.206  37.253  1.00  0.00     0.040 A 
ATOM     72  F   UNL A   1      38.001  30.078  36.307  1.00  0.00    -0.206 F 
ATOM     73  C   UNL A   1      37.958  33.579  37.231  1.00  0.00     0.006 A 
ENDBRANCH  52  66
BRANCH  53  74
ATOM     74  C   UNL A   1      42.438  26.541  27.546  1.00  0.00     0.057 A 
ATOM     75  C   UNL A   1      42.083  25.196  27.398  1.00  0.00     0.134 A 
ATOM     76  C   UNL A   1      43.294  27.093  26.585  1.00  0.00     0.134 A 
ATOM     77  F   UNL A   1      41.274  24.607  28.289  1.00  0.00    -0.206 F 
ATOM     78  C   UNL A   1      42.561  24.430  26.333  1.00  0.00     0.040 A 
ATOM     79  C   UNL A   1      43.760  26.346  25.504  1.00  0.00     0.040 A 
ATOM     80  F   UNL A   1      43.655  28.383  26.667  1.00  0.00    -0.206 F 
ATOM     81  C   UNL A   1      43.396  25.007  25.378  1.00  0.00     0.006 A 
ENDBRANCH  53  74
BRANCH  65  82
ATOM     82  C   UNL A   1      44.545  27.441  34.103  1.00  0.00     0.057 A 
ATOM     83  C   UNL A   1      44.408  26.231  34.795  1.00  0.00     0.134 A 
ATOM     84  C   UNL A   1      45.780  28.095  34.179  1.00  0.00     0.134 A 
ATOM     85  F   UNL A   1      43.248  25.557  34.767  1.00  0.00    -0.206 F 
ATOM     86  C   UNL A   1      45.462  25.691  35.533  1.00  0.00     0.040 A 
ATOM     87  C   UNL A   1      46.849  27.554  34.895  1.00  0.00     0.040 A 
ATOM     88  F   UNL A   1      45.979  29.251  33.527  1.00  0.00    -0.206 F 
ATOM     89  C   UNL A   1      46.689  26.350  35.579  1.00  0.00     0.006 A 
ENDBRANCH  65  82
ENDBRANCH  39  40
ENDBRANCH  32  34
ENDBRANCH  31  32
ENDBRANCH  30  31
ENDBRANCH   1  30
TORSDOF 14
ENDMDL
MODEL 3
REMARK VINA RESULT:     -11.9      2.824      4.153
REMARK SMILES C[C@@H]1CCC[C@H](C)[N@H+]1Cc1cc2c(cc1Cl)C=C(C(=O)OCCOC(=O)c1ccc(-c3c4nc(c(-c5c(F)cccc5F)c5ccc([nH]5)c(-c5c(F)cccc5F)c5nc(c(-c6c(F)cccc6F)c6ccc3[nH]6)C=C5)C=C4)cc1)[C@@H](C(F)(F)F)O2
REMARK SMILES IDX 22 1 21 2 19 3 20 4 18 5 10 6 11 7 15 8 12 9 14 10 16 11
REMARK SMILES IDX 13 12 86 13 17 14 81 15 9 16 8 17 7 18 6 19 5 20 4 21 2 22
REMARK SMILES IDX 3 24 1 25 82 26 83 27 84 28 85 29 23 30 24 31 25 32 26 33
REMARK SMILES IDX 27 34 28 35 80 36 29 37 79 38 30 39 31 40 32 41 73 42 33 43
REMARK SMILES IDX 78 44 72 45 74 46 34 47 77 48 71 49 70 50 35 52 61 53 44 54
REMARK SMILES IDX 60 55 45 56 48 57 59 58 75 59 46 60 47 61 58 63 76 64 49 65
REMARK SMILES IDX 36 66 37 67 42 68 38 69 39 70 41 71 43 72 40 73 62 74 63 75
REMARK SMILES IDX 68 76 64 77 65 78 67 79 69 80 66 81 50 82 51 83 56 84 52 85
REMARK SMILES IDX 53 86 55 87 57 88 54 89
REMARK H PARENT 8 23 74 51 48 62
REMARK Flexibility Score: inf
ROOT
ATOM      1  C   UNL A   1      34.735  21.305  24.709  1.00  0.00     0.275 C 
ENDROOT
BRANCH   1   2
ATOM      2  O   UNL A   1      34.714  22.740  24.872  1.00  0.00    -0.459 OA
BRANCH   2   3
ATOM      3  C   UNL A   1      34.753  23.448  23.714  1.00  0.00     0.338 C 
ATOM      4  O   UNL A   1      35.460  23.211  22.754  1.00  0.00    -0.246 OA
BRANCH   3   5
ATOM      5  C   UNL A   1      33.755  24.541  23.722  1.00  0.00     0.087 C 
ATOM      6  C   UNL A   1      31.446  28.950  24.506  1.00  0.00     0.029 A 
ATOM      7  C   UNL A   1      31.300  27.916  23.553  1.00  0.00     0.058 A 
ATOM      8  C   UNL A   1      32.256  28.698  25.625  1.00  0.00     0.050 A 
ATOM      9  C   UNL A   1      32.055  26.742  23.638  1.00  0.00     0.128 A 
ATOM     10  C   UNL A   1      33.043  27.547  25.687  1.00  0.00     0.033 A 
ATOM     11  Cl  UNL A   1      32.352  29.763  26.982  1.00  0.00    -0.084 Cl
ATOM     12  C   UNL A   1      32.972  26.591  24.675  1.00  0.00     0.019 A 
ATOM     13  O   UNL A   1      31.912  25.822  22.634  1.00  0.00    -0.475 OA
ATOM     14  C   UNL A   1      33.906  25.483  24.659  1.00  0.00     0.027 C 
ATOM     15  C   UNL A   1      32.561  24.524  22.806  1.00  0.00     0.316 C 
BRANCH   6  16
ATOM     16  C   UNL A   1      30.790  30.296  24.254  1.00  0.00     0.301 C 
BRANCH  16  17
ATOM     17  N   UNL A   1      29.393  30.285  23.760  1.00  0.00    -0.327 N 
ATOM     18  C   UNL A   1      27.800  28.647  22.809  1.00  0.00     0.075 C 
ATOM     19  C   UNL A   1      29.135  29.388  22.625  1.00  0.00     0.181 C 
ATOM     20  C   UNL A   1      29.184  30.076  21.251  1.00  0.00     0.065 C 
ATOM     21  C   UNL A   1      28.395  31.379  21.202  1.00  0.00     0.012 C 
ATOM     22  C   UNL A   1      28.725  31.597  23.725  1.00  0.00     0.181 C 
ATOM     23  H   UNL A   1      28.885  29.818  24.511  1.00  0.00     0.348 HD
ATOM     24  C   UNL A   1      28.782  32.294  22.355  1.00  0.00     0.065 C 
ATOM     25  C   UNL A   1      27.278  31.511  24.232  1.00  0.00     0.075 C 
ENDBRANCH  16  17
ENDBRANCH   6  16
BRANCH  15  26
ATOM     26  C   UNL A   1      31.551  23.479  23.311  1.00  0.00     0.430 C 
ATOM     27  F   UNL A   1      30.278  23.817  23.003  1.00  0.00    -0.167 F 
ATOM     28  F   UNL A   1      31.782  22.266  22.749  1.00  0.00    -0.167 F 
ATOM     29  F   UNL A   1      31.613  23.313  24.653  1.00  0.00    -0.167 F 
ENDBRANCH  15  26
ENDBRANCH   3   5
ENDBRANCH   2   3
ENDBRANCH   1   2
BRANCH   1  30
ATOM     30  C   UNL A   1      36.113  20.704  25.003  1.00  0.00     0.275 C 
BRANCH  30  31
ATOM     31  O   UNL A   1      36.890  21.573  25.848  1.00  0.00    -0.458 OA
BRANCH  31  32
ATOM     32  C   UNL A   1      38.224  21.355  25.842  1.00  0.00     0.338 C 
ATOM     33  O   UNL A   1      38.824  20.396  25.375  1.00  0.00    -0.246 OA
BRANCH  32  34
ATOM     34  C   UNL A   1      38.913  22.522  26.407  1.00  0.00     0.060 A 
ATOM     35  C   UNL A   1      40.078  22.391  27.159  1.00  0.00     0.016 A 
ATOM     36  C   UNL A   1      38.440  23.786  26.060  1.00  0.00     0.016 A 
ATOM     37  C   UNL A   1      40.745  23.547  27.590  1.00  0.00     0.010 A 
ATOM     38  C   UNL A   1      39.135  24.931  26.438  1.00  0.00     0.010 A 
ATOM     39  C   UNL A   1      40.288  24.831  27.226  1.00  0.00    -0.014 A 
BRANCH  39  40
ATOM     40  C   UNL A   1      41.026  26.060  27.636  1.00  0.00     0.031 A 
ATOM     41  C   UNL A   1      42.440  26.313  27.173  1.00  0.00     0.074 A 
ATOM     42  C   UNL A   1      40.440  26.939  28.475  1.00  0.00     0.049 A 
ATOM     43  N   UNL A   1      43.213  27.347  27.402  1.00  0.00    -0.248 NA
ATOM     44  C   UNL A   1      43.083  25.254  26.382  1.00  0.00     0.031 C 
ATOM     45  C   UNL A   1      39.123  26.772  29.091  1.00  0.00     0.029 A 
ATOM     46  N   UNL A   1      40.874  28.154  28.945  1.00  0.00    -0.354 N 
ATOM     47  C   UNL A   1      44.433  27.052  26.803  1.00  0.00     0.074 A 
ATOM     48  C   UNL A   1      44.319  25.717  26.258  1.00  0.00     0.031 C 
ATOM     49  C   UNL A   1      38.827  27.872  29.802  1.00  0.00     0.029 A 
ATOM     50  C   UNL A   1      39.941  28.811  29.713  1.00  0.00     0.049 A 
ATOM     51  H   UNL A   1      41.767  28.520  28.752  1.00  0.00     0.167 HD
ATOM     52  C   UNL A   1      45.538  27.830  26.683  1.00  0.00     0.037 A 
ATOM     53  C   UNL A   1      39.969  30.039  30.261  1.00  0.00     0.037 A 
ATOM     54  C   UNL A   1      45.639  29.177  27.183  1.00  0.00     0.049 A 
ATOM     55  C   UNL A   1      41.175  30.912  30.058  1.00  0.00     0.074 A 
ATOM     56  C   UNL A   1      46.680  30.078  27.037  1.00  0.00     0.029 A 
ATOM     57  N   UNL A   1      44.659  29.818  27.924  1.00  0.00    -0.354 N 
ATOM     58  N   UNL A   1      42.280  30.658  29.400  1.00  0.00    -0.248 NA
ATOM     59  C   UNL A   1      41.133  32.250  30.666  1.00  0.00     0.031 C 
ATOM     60  C   UNL A   1      46.339  31.256  27.710  1.00  0.00     0.029 A 
ATOM     61  C   UNL A   1      45.072  31.099  28.248  1.00  0.00     0.049 A 
ATOM     62  H   UNL A   1      43.796  29.420  28.182  1.00  0.00     0.167 HD
ATOM     63  C   UNL A   1      43.052  31.808  29.496  1.00  0.00     0.074 A 
ATOM     64  C   UNL A   1      42.281  32.769  30.257  1.00  0.00     0.031 C 
ATOM     65  C   UNL A   1      44.292  32.046  29.001  1.00  0.00     0.037 A 
BRANCH  52  66
ATOM     66  C   UNL A   1      46.716  27.249  25.953  1.00  0.00     0.057 A 
ATOM     67  C   UNL A   1      47.673  26.479  26.624  1.00  0.00     0.134 A 
ATOM     68  C   UNL A   1      46.911  27.469  24.582  1.00  0.00     0.134 A 
ATOM     69  F   UNL A   1      47.557  26.238  27.939  1.00  0.00    -0.206 F 
ATOM     70  C   UNL A   1      48.776  25.942  25.957  1.00  0.00     0.040 A 
ATOM     71  C   UNL A   1      47.994  26.915  23.898  1.00  0.00     0.040 A 
ATOM     72  F   UNL A   1      46.028  28.193  23.877  1.00  0.00    -0.206 F 
ATOM     73  C   UNL A   1      48.933  26.151  24.587  1.00  0.00     0.006 A 
ENDBRANCH  52  66
BRANCH  53  74
ATOM     74  C   UNL A   1      38.787  30.553  30.997  1.00  0.00     0.057 A 
ATOM     75  C   UNL A   1      37.783  31.287  30.356  1.00  0.00     0.134 A 
ATOM     76  C   UNL A   1      38.633  30.306  32.366  1.00  0.00     0.134 A 
ATOM     77  F   UNL A   1      37.875  31.563  29.048  1.00  0.00    -0.206 F 
ATOM     78  C   UNL A   1      36.667  31.756  31.052  1.00  0.00     0.040 A 
ATOM     79  C   UNL A   1      37.513  30.750  33.069  1.00  0.00     0.040 A 
ATOM     80  F   UNL A   1      39.556  29.594  33.030  1.00  0.00    -0.206 F 
ATOM     81  C   UNL A   1      36.527  31.482  32.411  1.00  0.00     0.006 A 
ENDBRANCH  53  74
BRANCH  65  82
ATOM     82  C   UNL A   1      44.874  33.406  29.248  1.00  0.00     0.057 A 
ATOM     83  C   UNL A   1      44.654  34.452  28.343  1.00  0.00     0.134 A 
ATOM     84  C   UNL A   1      45.665  33.676  30.371  1.00  0.00     0.134 A 
ATOM     85  F   UNL A   1      43.909  34.256  27.244  1.00  0.00    -0.206 F 
ATOM     86  C   UNL A   1      45.199  35.720  28.549  1.00  0.00     0.040 A 
ATOM     87  C   UNL A   1      46.196  34.945  30.600  1.00  0.00     0.040 A 
ATOM     88  F   UNL A   1      45.900  32.720  31.283  1.00  0.00    -0.206 F 
ATOM     89  C   UNL A   1      45.968  35.971  29.684  1.00  0.00     0.006 A 
ENDBRANCH  65  82
ENDBRANCH  39  40
ENDBRANCH  32  34
ENDBRANCH  31  32
ENDBRANCH  30  31
ENDBRANCH   1  30
TORSDOF 14
ENDMDL
