MODEL 1
REMARK VINA RESULT:     -12.0      0.000      0.000
REMARK SMILES CC(C)(C)c1ccc(OCC(=O)N/N=C/c2ccc(C(=O)OCCOC(=O)c3ccc(-c4c5nc(c(-c6c(F)cccc6F)c6ccc([nH]6)c(-c6c(F)cccc6F)c6nc(c(-c7c(F)cccc7F)c7ccc4[nH]7)C=C6)C=C5)cc3)cc2)cc1
REMARK SMILES IDX 20 1 21 2 19 3 16 4 17 5 83 6 18 7 82 8 15 9 14 10 13 11
REMARK SMILES IDX 11 12 12 13 10 15 9 16 8 17 5 18 6 19 85 20 7 21 84 22 2 23
REMARK SMILES IDX 1 24 3 25 4 26 22 27 23 28 24 29 25 30 26 31 27 32 28 33
REMARK SMILES IDX 29 34 81 35 30 36 80 37 31 38 32 39 33 40 74 41 34 42 79 43
REMARK SMILES IDX 73 44 75 45 35 46 78 47 72 48 71 49 36 51 62 52 45 53 61 54
REMARK SMILES IDX 46 55 49 56 60 57 76 58 47 59 48 60 59 62 77 63 50 64 37 65
REMARK SMILES IDX 38 66 43 67 39 68 40 69 42 70 44 71 41 72 63 73 64 74 69 75
REMARK SMILES IDX 65 76 66 77 68 78 70 79 67 80 51 81 52 82 57 83 53 84 54 85
REMARK SMILES IDX 56 86 58 87 55 88
REMARK H PARENT 13 14 75 50 49 61
REMARK Flexibility Score: inf
ROOT
ATOM      1  C   UNL A   1      40.517  21.229  26.749  1.00  0.00     0.338 C 
ATOM      2  O   UNL A   1      40.725  20.984  27.926  1.00  0.00    -0.246 OA
ENDROOT
BRANCH   1   3
ATOM      3  C   UNL A   1      39.353  22.024  26.293  1.00  0.00     0.060 A 
ATOM      4  C   UNL A   1      37.105  23.403  25.409  1.00  0.00    -0.005 A 
ATOM      5  C   UNL A   1      37.298  22.085  25.006  1.00  0.00     0.010 A 
ATOM      6  C   UNL A   1      38.033  24.054  26.227  1.00  0.00     0.010 A 
ATOM      7  C   UNL A   1      38.445  21.413  25.415  1.00  0.00     0.016 A 
ATOM      8  C   UNL A   1      39.151  23.352  26.692  1.00  0.00     0.016 A 
BRANCH   4   9
ATOM      9  C   UNL A   1      35.878  24.063  24.953  1.00  0.00     0.141 C 
ATOM     10  N   UNL A   1      35.147  24.739  25.768  1.00  0.00    -0.181 NA
BRANCH  10  11
ATOM     11  N   UNL A   1      34.065  25.445  25.333  1.00  0.00    -0.244 N 
ATOM     12  C   UNL A   1      32.812  25.100  24.896  1.00  0.00     0.277 C 
ATOM     13  O   UNL A   1      32.057  26.015  24.538  1.00  0.00    -0.269 OA
ATOM     14  H   UNL A   1      34.217  26.418  25.334  1.00  0.00     0.193 HD
BRANCH  12  15
ATOM     15  C   UNL A   1      32.304  23.657  24.858  1.00  0.00     0.331 C 
BRANCH  15  16
ATOM     16  O   UNL A   1      32.534  22.915  23.672  1.00  0.00    -0.484 OA
BRANCH  16  17
ATOM     17  C   UNL A   1      32.790  21.578  23.804  1.00  0.00     0.120 A 
ATOM     18  C   UNL A   1      33.558  18.870  24.223  1.00  0.00    -0.042 A 
ATOM     19  C   UNL A   1      34.176  19.924  24.919  1.00  0.00     0.008 A 
ATOM     20  C   UNL A   1      32.525  19.212  23.336  1.00  0.00     0.008 A 
ATOM     21  C   UNL A   1      33.796  21.256  24.713  1.00  0.00     0.047 A 
ATOM     22  C   UNL A   1      32.145  20.545  23.129  1.00  0.00     0.047 A 
BRANCH  18  23
ATOM     23  C   UNL A   1      34.024  17.420  24.429  1.00  0.00    -0.013 C 
ATOM     24  C   UNL A   1      34.034  16.577  23.133  1.00  0.00     0.016 C 
ATOM     25  C   UNL A   1      33.093  16.707  25.433  1.00  0.00     0.016 C 
ATOM     26  C   UNL A   1      35.466  17.416  24.982  1.00  0.00     0.016 C 
ENDBRANCH  18  23
ENDBRANCH  16  17
ENDBRANCH  15  16
ENDBRANCH  12  15
ENDBRANCH  10  11
ENDBRANCH   4   9
ENDBRANCH   1   3
BRANCH   1  27
ATOM     27  O   UNL A   1      41.329  20.939  25.702  1.00  0.00    -0.458 OA
BRANCH  27  28
ATOM     28  C   UNL A   1      42.619  20.391  26.044  1.00  0.00     0.275 C 
BRANCH  28  29
ATOM     29  C   UNL A   1      43.749  21.252  25.481  1.00  0.00     0.275 C 
BRANCH  29  30
ATOM     30  O   UNL A   1      43.890  22.449  26.269  1.00  0.00    -0.458 OA
BRANCH  30  31
ATOM     31  C   UNL A   1      43.728  23.616  25.606  1.00  0.00     0.338 C 
ATOM     32  O   UNL A   1      44.021  23.864  24.449  1.00  0.00    -0.246 OA
BRANCH  31  33
ATOM     33  C   UNL A   1      43.106  24.610  26.499  1.00  0.00     0.060 A 
ATOM     34  C   UNL A   1      43.441  25.955  26.370  1.00  0.00     0.016 A 
ATOM     35  C   UNL A   1      42.293  24.194  27.551  1.00  0.00     0.016 A 
ATOM     36  C   UNL A   1      43.052  26.875  27.344  1.00  0.00     0.010 A 
ATOM     37  C   UNL A   1      41.815  25.136  28.470  1.00  0.00     0.010 A 
ATOM     38  C   UNL A   1      42.224  26.482  28.405  1.00  0.00    -0.014 A 
BRANCH  38  39
ATOM     39  C   UNL A   1      41.826  27.455  29.466  1.00  0.00     0.031 A 
ATOM     40  C   UNL A   1      42.596  27.526  30.762  1.00  0.00     0.074 A 
ATOM     41  C   UNL A   1      40.779  28.285  29.288  1.00  0.00     0.049 A 
ATOM     42  N   UNL A   1      42.298  28.155  31.871  1.00  0.00    -0.248 NA
ATOM     43  C   UNL A   1      43.858  26.773  30.823  1.00  0.00     0.031 C 
ATOM     44  C   UNL A   1      39.951  28.361  28.083  1.00  0.00     0.029 A 
ATOM     45  N   UNL A   1      40.232  29.228  30.124  1.00  0.00    -0.354 N 
ATOM     46  C   UNL A   1      43.291  27.813  32.781  1.00  0.00     0.074 A 
ATOM     47  C   UNL A   1      44.206  26.928  32.093  1.00  0.00     0.031 C 
ATOM     48  C   UNL A   1      39.031  29.324  28.241  1.00  0.00     0.029 A 
ATOM     49  C   UNL A   1      39.146  29.875  29.588  1.00  0.00     0.049 A 
ATOM     50  H   UNL A   1      40.586  29.422  31.022  1.00  0.00     0.167 HD
ATOM     51  C   UNL A   1      43.426  28.195  34.075  1.00  0.00     0.037 A 
ATOM     52  C   UNL A   1      38.303  30.777  30.126  1.00  0.00     0.037 A 
ATOM     53  C   UNL A   1      42.567  29.138  34.742  1.00  0.00     0.049 A 
ATOM     54  C   UNL A   1      38.479  31.204  31.553  1.00  0.00     0.074 A 
ATOM     55  C   UNL A   1      42.657  29.621  36.037  1.00  0.00     0.029 A 
ATOM     56  N   UNL A   1      41.473  29.759  34.160  1.00  0.00    -0.354 N 
ATOM     57  N   UNL A   1      39.387  30.826  32.418  1.00  0.00    -0.248 NA
ATOM     58  C   UNL A   1      37.499  32.162  32.085  1.00  0.00     0.031 C 
ATOM     59  C   UNL A   1      41.599  30.514  36.247  1.00  0.00     0.029 A 
ATOM     60  C   UNL A   1      40.872  30.611  35.072  1.00  0.00     0.049 A 
ATOM     61  H   UNL A   1      41.169  29.616  33.235  1.00  0.00     0.167 HD
ATOM     62  C   UNL A   1      39.087  31.494  33.598  1.00  0.00     0.074 A 
ATOM     63  C   UNL A   1      37.928  32.320  33.330  1.00  0.00     0.031 C 
ATOM     64  C   UNL A   1      39.713  31.419  34.798  1.00  0.00     0.037 A 
BRANCH  51  65
ATOM     65  C   UNL A   1      44.528  27.558  34.871  1.00  0.00     0.057 A 
ATOM     66  C   UNL A   1      45.802  28.129  34.979  1.00  0.00     0.134 A 
ATOM     67  C   UNL A   1      44.296  26.359  35.558  1.00  0.00     0.134 A 
ATOM     68  F   UNL A   1      46.093  29.268  34.333  1.00  0.00    -0.206 F 
ATOM     69  C   UNL A   1      46.814  27.516  35.721  1.00  0.00     0.040 A 
ATOM     70  C   UNL A   1      45.291  25.749  36.322  1.00  0.00     0.040 A 
ATOM     71  F   UNL A   1      43.095  25.763  35.502  1.00  0.00    -0.206 F 
ATOM     72  C   UNL A   1      46.558  26.325  36.399  1.00  0.00     0.006 A 
ENDBRANCH  51  65
BRANCH  52  73
ATOM     73  C   UNL A   1      37.182  31.303  29.307  1.00  0.00     0.057 A 
ATOM     74  C   UNL A   1      36.012  30.562  29.121  1.00  0.00     0.134 A 
ATOM     75  C   UNL A   1      37.243  32.577  28.726  1.00  0.00     0.134 A 
ATOM     76  F   UNL A   1      35.906  29.327  29.633  1.00  0.00    -0.206 F 
ATOM     77  C   UNL A   1      34.936  31.070  28.391  1.00  0.00     0.040 A 
ATOM     78  C   UNL A   1      36.168  33.106  28.015  1.00  0.00     0.040 A 
ATOM     79  F   UNL A   1      38.340  33.335  28.872  1.00  0.00    -0.206 F 
ATOM     80  C   UNL A   1      35.009  32.351  27.844  1.00  0.00     0.006 A 
ENDBRANCH  52  73
BRANCH  64  81
ATOM     81  C   UNL A   1      39.155  32.257  35.909  1.00  0.00     0.057 A 
ATOM     82  C   UNL A   1      38.228  31.738  36.821  1.00  0.00     0.134 A 
ATOM     83  C   UNL A   1      39.570  33.582  36.085  1.00  0.00     0.134 A 
ATOM     84  F   UNL A   1      37.781  30.479  36.696  1.00  0.00    -0.206 F 
ATOM     85  C   UNL A   1      37.717  32.517  37.861  1.00  0.00     0.040 A 
ATOM     86  C   UNL A   1      39.080  34.364  37.131  1.00  0.00     0.040 A 
ATOM     87  F   UNL A   1      40.460  34.134  35.247  1.00  0.00    -0.206 F 
ATOM     88  C   UNL A   1      38.148  33.833  38.022  1.00  0.00     0.006 A 
ENDBRANCH  64  81
ENDBRANCH  38  39
ENDBRANCH  31  33
ENDBRANCH  30  31
ENDBRANCH  29  30
ENDBRANCH  28  29
ENDBRANCH  27  28
ENDBRANCH   1  27
TORSDOF 17
ENDMDL
MODEL 2
REMARK VINA RESULT:     -11.8      4.478      9.603
REMARK SMILES CC(C)(C)c1ccc(OCC(=O)N/N=C/c2ccc(C(=O)OCCOC(=O)c3ccc(-c4c5nc(c(-c6c(F)cccc6F)c6ccc([nH]6)c(-c6c(F)cccc6F)c6nc(c(-c7c(F)cccc7F)c7ccc4[nH]7)C=C6)C=C5)cc3)cc2)cc1
REMARK SMILES IDX 20 1 21 2 19 3 16 4 17 5 83 6 18 7 82 8 15 9 14 10 13 11
REMARK SMILES IDX 11 12 12 13 10 15 9 16 8 17 5 18 6 19 85 20 7 21 84 22 2 23
REMARK SMILES IDX 1 24 3 25 4 26 22 27 23 28 24 29 25 30 26 31 27 32 28 33
REMARK SMILES IDX 29 34 81 35 30 36 80 37 31 38 32 39 33 40 74 41 34 42 79 43
REMARK SMILES IDX 73 44 75 45 35 46 78 47 72 48 71 49 36 51 62 52 45 53 61 54
REMARK SMILES IDX 46 55 49 56 60 57 76 58 47 59 48 60 59 62 77 63 50 64 37 65
REMARK SMILES IDX 38 66 43 67 39 68 40 69 42 70 44 71 41 72 63 73 64 74 69 75
REMARK SMILES IDX 65 76 66 77 68 78 70 79 67 80 51 81 52 82 57 83 53 84 54 85
REMARK SMILES IDX 56 86 58 87 55 88
REMARK H PARENT 13 14 75 50 49 61
REMARK Flexibility Score: inf
ROOT
ATOM      1  C   UNL A   1      34.350  32.656  28.009  1.00  0.00     0.338 C 
ATOM      2  O   UNL A   1      35.393  33.111  27.568  1.00  0.00    -0.246 OA
ENDROOT
BRANCH   1   3
ATOM      3  C   UNL A   1      33.791  31.360  27.560  1.00  0.00     0.060 A 
ATOM      4  C   UNL A   1      32.837  28.864  26.787  1.00  0.00    -0.005 A 
ATOM      5  C   UNL A   1      34.148  28.982  27.239  1.00  0.00     0.010 A 
ATOM      6  C   UNL A   1      32.000  29.980  26.690  1.00  0.00     0.010 A 
ATOM      7  C   UNL A   1      34.634  30.239  27.583  1.00  0.00     0.016 A 
ATOM      8  C   UNL A   1      32.473  31.231  27.104  1.00  0.00     0.016 A 
BRANCH   4   9
ATOM      9  C   UNL A   1      32.374  27.517  26.440  1.00  0.00     0.141 C 
ATOM     10  N   UNL A   1      31.297  27.035  26.952  1.00  0.00    -0.181 NA
BRANCH  10  11
ATOM     11  N   UNL A   1      30.800  25.829  26.556  1.00  0.00    -0.244 N 
ATOM     12  C   UNL A   1      31.355  24.696  26.020  1.00  0.00     0.277 C 
ATOM     13  O   UNL A   1      30.593  23.760  25.740  1.00  0.00    -0.269 OA
ATOM     14  H   UNL A   1      29.826  25.756  26.683  1.00  0.00     0.193 HD
BRANCH  12  15
ATOM     15  C   UNL A   1      32.858  24.530  25.780  1.00  0.00     0.331 C 
BRANCH  15  16
ATOM     16  O   UNL A   1      33.263  23.952  24.551  1.00  0.00    -0.484 OA
BRANCH  16  17
ATOM     17  C   UNL A   1      33.437  22.596  24.519  1.00  0.00     0.120 A 
ATOM     18  C   UNL A   1      33.537  19.758  24.343  1.00  0.00    -0.042 A 
ATOM     19  C   UNL A   1      32.532  20.498  23.696  1.00  0.00     0.008 A 
ATOM     20  C   UNL A   1      34.504  20.483  25.054  1.00  0.00     0.008 A 
ATOM     21  C   UNL A   1      32.485  21.895  23.782  1.00  0.00     0.047 A 
ATOM     22  C   UNL A   1      34.457  21.882  25.142  1.00  0.00     0.047 A 
BRANCH  18  23
ATOM     23  C   UNL A   1      33.541  18.221  24.275  1.00  0.00    -0.013 C 
ATOM     24  C   UNL A   1      33.155  17.658  22.887  1.00  0.00     0.016 C 
ATOM     25  C   UNL A   1      32.536  17.648  25.297  1.00  0.00     0.016 C 
ATOM     26  C   UNL A   1      34.955  17.694  24.600  1.00  0.00     0.016 C 
ENDBRANCH  18  23
ENDBRANCH  16  17
ENDBRANCH  15  16
ENDBRANCH  12  15
ENDBRANCH  10  11
ENDBRANCH   4   9
ENDBRANCH   1   3
BRANCH   1  27
ATOM     27  O   UNL A   1      33.608  33.164  29.025  1.00  0.00    -0.458 OA
BRANCH  27  28
ATOM     28  C   UNL A   1      34.197  34.271  29.738  1.00  0.00     0.275 C 
BRANCH  28  29
ATOM     29  C   UNL A   1      34.417  33.922  31.209  1.00  0.00     0.275 C 
BRANCH  29  30
ATOM     30  O   UNL A   1      34.646  32.508  31.346  1.00  0.00    -0.458 OA
BRANCH  30  31
ATOM     31  C   UNL A   1      35.569  32.144  32.266  1.00  0.00     0.338 C 
ATOM     32  O   UNL A   1      35.547  32.354  33.466  1.00  0.00    -0.246 OA
BRANCH  31  33
ATOM     33  C   UNL A   1      36.663  31.409  31.606  1.00  0.00     0.060 A 
ATOM     34  C   UNL A   1      37.532  30.638  32.371  1.00  0.00     0.016 A 
ATOM     35  C   UNL A   1      36.907  31.591  30.246  1.00  0.00     0.016 A 
ATOM     36  C   UNL A   1      38.703  30.129  31.810  1.00  0.00     0.010 A 
ATOM     37  C   UNL A   1      38.028  30.990  29.660  1.00  0.00     0.010 A 
ATOM     38  C   UNL A   1      38.964  30.288  30.441  1.00  0.00    -0.014 A 
BRANCH  38  39
ATOM     39  C   UNL A   1      40.229  29.769  29.838  1.00  0.00     0.031 A 
ATOM     40  C   UNL A   1      41.430  30.671  29.694  1.00  0.00     0.074 A 
ATOM     41  C   UNL A   1      40.322  28.492  29.415  1.00  0.00     0.049 A 
ATOM     42  N   UNL A   1      42.541  30.473  29.030  1.00  0.00    -0.248 NA
ATOM     43  C   UNL A   1      41.363  31.975  30.371  1.00  0.00     0.031 C 
ATOM     44  C   UNL A   1      39.263  27.487  29.510  1.00  0.00     0.029 A 
ATOM     45  N   UNL A   1      41.362  27.820  28.820  1.00  0.00    -0.354 N 
ATOM     46  C   UNL A   1      43.268  31.652  29.144  1.00  0.00     0.074 A 
ATOM     47  C   UNL A   1      42.477  32.558  29.950  1.00  0.00     0.031 C 
ATOM     48  C   UNL A   1      39.718  26.320  29.031  1.00  0.00     0.029 A 
ATOM     49  C   UNL A   1      41.070  26.514  28.515  1.00  0.00     0.049 A 
ATOM     50  H   UNL A   1      42.234  28.236  28.630  1.00  0.00     0.167 HD
ATOM     51  C   UNL A   1      44.481  31.957  28.622  1.00  0.00     0.037 A 
ATOM     52  C   UNL A   1      41.784  25.581  27.856  1.00  0.00     0.037 A 
ATOM     53  C   UNL A   1      45.310  31.035  27.889  1.00  0.00     0.049 A 
ATOM     54  C   UNL A   1      43.133  25.930  27.302  1.00  0.00     0.074 A 
ATOM     55  C   UNL A   1      46.575  31.242  27.363  1.00  0.00     0.029 A 
ATOM     56  N   UNL A   1      44.966  29.725  27.597  1.00  0.00    -0.354 N 
ATOM     57  N   UNL A   1      43.781  27.066  27.368  1.00  0.00    -0.248 NA
ATOM     58  C   UNL A   1      43.839  24.874  26.560  1.00  0.00     0.031 C 
ATOM     59  C   UNL A   1      46.984  30.063  26.728  1.00  0.00     0.029 A 
ATOM     60  C   UNL A   1      45.988  29.114  26.889  1.00  0.00     0.049 A 
ATOM     61  H   UNL A   1      44.121  29.291  27.856  1.00  0.00     0.167 HD
ATOM     62  C   UNL A   1      44.967  26.867  26.674  1.00  0.00     0.074 A 
ATOM     63  C   UNL A   1      44.960  25.493  26.216  1.00  0.00     0.031 C 
ATOM     64  C   UNL A   1      45.966  27.750  26.429  1.00  0.00     0.037 A 
BRANCH  51  65
ATOM     65  C   UNL A   1      44.972  33.365  28.791  1.00  0.00     0.057 A 
ATOM     66  C   UNL A   1      44.645  34.387  27.893  1.00  0.00     0.134 A 
ATOM     67  C   UNL A   1      45.772  33.703  29.892  1.00  0.00     0.134 A 
ATOM     68  F   UNL A   1      43.895  34.127  26.811  1.00  0.00    -0.206 F 
ATOM     69  C   UNL A   1      45.117  35.690  28.068  1.00  0.00     0.040 A 
ATOM     70  C   UNL A   1      46.231  35.006  30.090  1.00  0.00     0.040 A 
ATOM     71  F   UNL A   1      46.117  32.772  30.794  1.00  0.00    -0.206 F 
ATOM     72  C   UNL A   1      45.908  36.003  29.172  1.00  0.00     0.006 A 
ENDBRANCH  51  65
BRANCH  52  73
ATOM     73  C   UNL A   1      41.202  24.231  27.651  1.00  0.00     0.057 A 
ATOM     74  C   UNL A   1      40.208  24.010  26.694  1.00  0.00     0.134 A 
ATOM     75  C   UNL A   1      41.657  23.125  28.381  1.00  0.00     0.134 A 
ATOM     76  F   UNL A   1      39.716  25.034  25.981  1.00  0.00    -0.206 F 
ATOM     77  C   UNL A   1      39.689  22.735  26.463  1.00  0.00     0.040 A 
ATOM     78  C   UNL A   1      41.165  21.843  28.145  1.00  0.00     0.040 A 
ATOM     79  F   UNL A   1      42.611  23.276  29.312  1.00  0.00    -0.206 F 
ATOM     80  C   UNL A   1      40.177  21.645  27.183  1.00  0.00     0.006 A 
ENDBRANCH  52  73
BRANCH  64  81
ATOM     81  C   UNL A   1      47.134  27.252  25.634  1.00  0.00     0.057 A 
ATOM     82  C   UNL A   1      47.247  27.507  24.262  1.00  0.00     0.134 A 
ATOM     83  C   UNL A   1      48.168  26.537  26.251  1.00  0.00     0.134 A 
ATOM     84  F   UNL A   1      46.282  28.174  23.612  1.00  0.00    -0.206 F 
ATOM     85  C   UNL A   1      48.342  27.051  23.525  1.00  0.00     0.040 A 
ATOM     86  C   UNL A   1      49.276  26.091  25.528  1.00  0.00     0.040 A 
ATOM     87  F   UNL A   1      48.120  26.266  27.563  1.00  0.00    -0.206 F 
ATOM     88  C   UNL A   1      49.363  26.345  24.160  1.00  0.00     0.006 A 
ENDBRANCH  64  81
ENDBRANCH  38  39
ENDBRANCH  31  33
ENDBRANCH  30  31
ENDBRANCH  29  30
ENDBRANCH  28  29
ENDBRANCH  27  28
ENDBRANCH   1  27
TORSDOF 17
ENDMDL
MODEL 3
REMARK VINA RESULT:     -11.7      5.134     10.314
REMARK SMILES CC(C)(C)c1ccc(OCC(=O)N/N=C/c2ccc(C(=O)OCCOC(=O)c3ccc(-c4c5nc(c(-c6c(F)cccc6F)c6ccc([nH]6)c(-c6c(F)cccc6F)c6nc(c(-c7c(F)cccc7F)c7ccc4[nH]7)C=C6)C=C5)cc3)cc2)cc1
REMARK SMILES IDX 20 1 21 2 19 3 16 4 17 5 83 6 18 7 82 8 15 9 14 10 13 11
REMARK SMILES IDX 11 12 12 13 10 15 9 16 8 17 5 18 6 19 85 20 7 21 84 22 2 23
REMARK SMILES IDX 1 24 3 25 4 26 22 27 23 28 24 29 25 30 26 31 27 32 28 33
REMARK SMILES IDX 29 34 81 35 30 36 80 37 31 38 32 39 33 40 74 41 34 42 79 43
REMARK SMILES IDX 73 44 75 45 35 46 78 47 72 48 71 49 36 51 62 52 45 53 61 54
REMARK SMILES IDX 46 55 49 56 60 57 76 58 47 59 48 60 59 62 77 63 50 64 37 65
REMARK SMILES IDX 38 66 43 67 39 68 40 69 42 70 44 71 41 72 63 73 64 74 69 75
REMARK SMILES IDX 65 76 66 77 68 78 70 79 67 80 51 81 52 82 57 83 53 84 54 85
REMARK SMILES IDX 56 86 58 87 55 88
REMARK H PARENT 13 14 75 50 49 61
REMARK Flexibility Score: inf
ROOT
ATOM      1  C   UNL A   1      34.334  32.644  28.012  1.00  0.00     0.338 C 
ATOM      2  O   UNL A   1      35.344  33.153  27.553  1.00  0.00    -0.246 OA
ENDROOT
BRANCH   1   3
ATOM      3  C   UNL A   1      33.835  31.320  27.570  1.00  0.00     0.060 A 
ATOM      4  C   UNL A   1      32.995  28.780  26.812  1.00  0.00    -0.005 A 
ATOM      5  C   UNL A   1      34.295  28.957  27.278  1.00  0.00     0.010 A 
ATOM      6  C   UNL A   1      32.114  29.858  26.693  1.00  0.00     0.010 A 
ATOM      7  C   UNL A   1      34.724  30.237  27.615  1.00  0.00     0.016 A 
ATOM      8  C   UNL A   1      32.529  31.132  27.099  1.00  0.00     0.016 A 
BRANCH   4   9
ATOM      9  C   UNL A   1      32.593  27.411  26.474  1.00  0.00     0.141 C 
ATOM     10  N   UNL A   1      31.778  26.757  27.222  1.00  0.00    -0.181 NA
BRANCH  10  11
ATOM     11  N   UNL A   1      31.314  25.526  26.862  1.00  0.00    -0.244 N 
ATOM     12  C   UNL A   1      31.502  24.716  25.773  1.00  0.00     0.277 C 
ATOM     13  O   UNL A   1      30.890  23.638  25.747  1.00  0.00    -0.269 OA
ATOM     14  H   UNL A   1      30.709  25.133  27.533  1.00  0.00     0.193 HD
BRANCH  12  15
ATOM     15  C   UNL A   1      32.442  25.067  24.617  1.00  0.00     0.331 C 
BRANCH  15  16
ATOM     16  O   UNL A   1      31.855  25.315  23.350  1.00  0.00    -0.484 OA
BRANCH  16  17
ATOM     17  C   UNL A   1      31.046  26.412  23.235  1.00  0.00     0.120 A 
ATOM     18  C   UNL A   1      29.599  28.845  22.948  1.00  0.00    -0.042 A 
ATOM     19  C   UNL A   1      30.952  28.748  22.577  1.00  0.00     0.008 A 
ATOM     20  C   UNL A   1      28.988  27.681  23.437  1.00  0.00     0.008 A 
ATOM     21  C   UNL A   1      31.662  27.549  22.718  1.00  0.00     0.047 A 
ATOM     22  C   UNL A   1      29.699  26.481  23.578  1.00  0.00     0.047 A 
BRANCH  18  23
ATOM     23  C   UNL A   1      28.852  30.184  22.830  1.00  0.00    -0.013 C 
ATOM     24  C   UNL A   1      29.053  30.892  21.470  1.00  0.00     0.016 C 
ATOM     25  C   UNL A   1      29.338  31.154  23.928  1.00  0.00     0.016 C 
ATOM     26  C   UNL A   1      27.336  29.945  22.997  1.00  0.00     0.016 C 
ENDBRANCH  18  23
ENDBRANCH  16  17
ENDBRANCH  15  16
ENDBRANCH  12  15
ENDBRANCH  10  11
ENDBRANCH   4   9
ENDBRANCH   1   3
BRANCH   1  27
ATOM     27  O   UNL A   1      33.585  33.110  29.042  1.00  0.00    -0.458 OA
BRANCH  27  28
ATOM     28  C   UNL A   1      34.130  34.244  29.749  1.00  0.00     0.275 C 
BRANCH  28  29
ATOM     29  C   UNL A   1      34.382  33.907  31.218  1.00  0.00     0.275 C 
BRANCH  29  30
ATOM     30  O   UNL A   1      34.621  32.494  31.360  1.00  0.00    -0.458 OA
BRANCH  30  31
ATOM     31  C   UNL A   1      35.542  32.140  32.285  1.00  0.00     0.338 C 
ATOM     32  O   UNL A   1      35.513  32.352  33.485  1.00  0.00    -0.246 OA
BRANCH  31  33
ATOM     33  C   UNL A   1      36.645  31.413  31.631  1.00  0.00     0.060 A 
ATOM     34  C   UNL A   1      37.520  30.654  32.403  1.00  0.00     0.016 A 
ATOM     35  C   UNL A   1      36.891  31.591  30.271  1.00  0.00     0.016 A 
ATOM     36  C   UNL A   1      38.697  30.154  31.847  1.00  0.00     0.010 A 
ATOM     37  C   UNL A   1      38.020  30.998  29.691  1.00  0.00     0.010 A 
ATOM     38  C   UNL A   1      38.961  30.309  30.479  1.00  0.00    -0.014 A 
BRANCH  38  39
ATOM     39  C   UNL A   1      40.233  29.800  29.882  1.00  0.00     0.031 A 
ATOM     40  C   UNL A   1      41.430  30.709  29.752  1.00  0.00     0.074 A 
ATOM     41  C   UNL A   1      40.335  28.527  29.451  1.00  0.00     0.049 A 
ATOM     42  N   UNL A   1      42.548  30.521  29.095  1.00  0.00    -0.248 NA
ATOM     43  C   UNL A   1      41.352  32.008  30.437  1.00  0.00     0.031 C 
ATOM     44  C   UNL A   1      39.280  27.516  29.532  1.00  0.00     0.029 A 
ATOM     45  N   UNL A   1      41.383  27.863  28.860  1.00  0.00    -0.354 N 
ATOM     46  C   UNL A   1      43.268  31.702  29.222  1.00  0.00     0.074 A 
ATOM     47  C   UNL A   1      42.466  32.599  30.028  1.00  0.00     0.031 C 
ATOM     48  C   UNL A   1      39.745  26.354  29.049  1.00  0.00     0.029 A 
ATOM     49  C   UNL A   1      41.099  26.557  28.545  1.00  0.00     0.049 A 
ATOM     50  H   UNL A   1      42.254  28.285  28.679  1.00  0.00     0.167 HD
ATOM     51  C   UNL A   1      44.483  32.016  28.711  1.00  0.00     0.037 A 
ATOM     52  C   UNL A   1      41.822  25.632  27.886  1.00  0.00     0.037 A 
ATOM     53  C   UNL A   1      45.322  31.102  27.978  1.00  0.00     0.049 A 
ATOM     54  C   UNL A   1      43.174  25.991  27.343  1.00  0.00     0.074 A 
ATOM     55  C   UNL A   1      46.589  31.319  27.463  1.00  0.00     0.029 A 
ATOM     56  N   UNL A   1      44.987  29.793  27.676  1.00  0.00    -0.354 N 
ATOM     57  N   UNL A   1      43.816  27.130  27.421  1.00  0.00    -0.248 NA
ATOM     58  C   UNL A   1      43.890  24.943  26.600  1.00  0.00     0.031 C 
ATOM     59  C   UNL A   1      47.009  30.146  26.824  1.00  0.00     0.029 A 
ATOM     60  C   UNL A   1      46.017  29.191  26.971  1.00  0.00     0.049 A 
ATOM     61  H   UNL A   1      44.142  29.353  27.925  1.00  0.00     0.167 HD
ATOM     62  C   UNL A   1      45.008  26.941  26.734  1.00  0.00     0.074 A 
ATOM     63  C   UNL A   1      45.011  25.569  26.268  1.00  0.00     0.031 C 
ATOM     64  C   UNL A   1      46.004  27.830  26.503  1.00  0.00     0.037 A 
BRANCH  51  65
ATOM     65  C   UNL A   1      44.966  33.426  28.892  1.00  0.00     0.057 A 
ATOM     66  C   UNL A   1      44.648  34.449  27.993  1.00  0.00     0.134 A 
ATOM     67  C   UNL A   1      45.749  33.762  30.006  1.00  0.00     0.134 A 
ATOM     68  F   UNL A   1      43.915  34.190  26.900  1.00  0.00    -0.206 F 
ATOM     69  C   UNL A   1      45.112  35.753  28.180  1.00  0.00     0.040 A 
ATOM     70  C   UNL A   1      46.199  35.066  30.216  1.00  0.00     0.040 A 
ATOM     71  F   UNL A   1      46.084  32.829  30.909  1.00  0.00    -0.206 F 
ATOM     72  C   UNL A   1      45.886  36.065  29.296  1.00  0.00     0.006 A 
ENDBRANCH  51  65
BRANCH  52  73
ATOM     73  C   UNL A   1      41.248  24.281  27.668  1.00  0.00     0.057 A 
ATOM     74  C   UNL A   1      40.265  24.060  26.700  1.00  0.00     0.134 A 
ATOM     75  C   UNL A   1      41.702  23.173  28.396  1.00  0.00     0.134 A 
ATOM     76  F   UNL A   1      39.775  25.086  25.988  1.00  0.00    -0.206 F 
ATOM     77  C   UNL A   1      39.754  22.784  26.457  1.00  0.00     0.040 A 
ATOM     78  C   UNL A   1      41.218  21.890  28.148  1.00  0.00     0.040 A 
ATOM     79  F   UNL A   1      42.646  23.323  29.337  1.00  0.00    -0.206 F 
ATOM     80  C   UNL A   1      40.239  21.692  27.176  1.00  0.00     0.006 A 
ENDBRANCH  52  73
BRANCH  64  81
ATOM     81  C   UNL A   1      47.181  27.342  25.714  1.00  0.00     0.057 A 
ATOM     82  C   UNL A   1      47.251  27.511  24.326  1.00  0.00     0.134 A 
ATOM     83  C   UNL A   1      48.265  26.725  26.350  1.00  0.00     0.134 A 
ATOM     84  F   UNL A   1      46.238  28.083  23.658  1.00  0.00    -0.206 F 
ATOM     85  C   UNL A   1      48.354  27.066  23.593  1.00  0.00     0.040 A 
ATOM     86  C   UNL A   1      49.379  26.291  25.631  1.00  0.00     0.040 A 
ATOM     87  F   UNL A   1      48.259  26.539  27.678  1.00  0.00    -0.206 F 
ATOM     88  C   UNL A   1      49.424  26.458  24.247  1.00  0.00     0.006 A 
ENDBRANCH  64  81
ENDBRANCH  38  39
ENDBRANCH  31  33
ENDBRANCH  30  31
ENDBRANCH  29  30
ENDBRANCH  28  29
ENDBRANCH  27  28
ENDBRANCH   1  27
TORSDOF 17
ENDMDL
