MODEL 1
REMARK VINA RESULT:     -11.2      0.000      0.000
REMARK SMILES CC(C)(C)[C@@H]1CC(C(=O)OCCOC(=O)c2ccc(-c3c4nc(c(-c5c(F)cccc5F)c5ccc([nH]5)c(-c5c(F)cccc5F)c5nc(c(-c6c(F)cccc6F)c6ccc3[nH]6)C=C5)C=C4)cc2)C[C@@H](C(C)(C)C)C1
REMARK SMILES IDX 12 1 11 2 10 3 8 4 9 5 7 6 5 7 6 8 76 9 71 10 70 11 2 12
REMARK SMILES IDX 1 13 3 14 4 15 72 16 73 17 74 18 75 19 13 20 14 21 15 22
REMARK SMILES IDX 16 23 17 24 69 25 18 26 68 27 19 28 20 29 21 30 62 31 22 32
REMARK SMILES IDX 67 33 61 34 63 35 23 36 66 37 60 38 59 39 24 41 50 42 33 43
REMARK SMILES IDX 49 44 34 45 37 46 48 47 64 48 35 49 36 50 47 52 65 53 38 54
REMARK SMILES IDX 25 55 26 56 31 57 27 58 28 59 30 60 32 61 29 62 51 63 52 64
REMARK SMILES IDX 57 65 53 66 54 67 56 68 58 69 55 70 39 71 40 72 45 73 41 74
REMARK SMILES IDX 42 75 44 76 46 77 43 78
REMARK H PARENT 63 40 37 51
REMARK Flexibility Score: inf
ROOT
ATOM      1  C   UNL A   1      31.477  30.180  25.384  1.00  0.00     0.275 C 
ENDROOT
BRANCH   1   2
ATOM      2  C   UNL A   1      31.463  28.792  24.740  1.00  0.00     0.274 C 
BRANCH   2   3
ATOM      3  O   UNL A   1      32.398  27.919  25.399  1.00  0.00    -0.462 OA
BRANCH   3   4
ATOM      4  C   UNL A   1      33.278  27.265  24.599  1.00  0.00     0.309 C 
ATOM      5  O   UNL A   1      33.996  27.806  23.764  1.00  0.00    -0.252 OA
BRANCH   4   6
ATOM      6  C   UNL A   1      33.370  25.777  24.905  1.00  0.00     0.100 C 
ATOM      7  C   UNL A   1      34.714  23.641  25.090  1.00  0.00    -0.005 C 
ATOM      8  C   UNL A   1      34.778  25.178  24.920  1.00  0.00     0.019 C 
ATOM      9  C   UNL A   1      33.970  23.333  26.404  1.00  0.00     0.008 C 
ATOM     10  C   UNL A   1      32.542  23.925  26.494  1.00  0.00    -0.005 C 
ATOM     11  C   UNL A   1      32.591  25.437  26.181  1.00  0.00     0.019 C 
BRANCH   7  12
ATOM     12  C   UNL A   1      36.117  22.934  24.968  1.00  0.00    -0.035 C 
ATOM     13  C   UNL A   1      37.170  23.702  25.798  1.00  0.00     0.011 C 
ATOM     14  C   UNL A   1      36.606  22.945  23.502  1.00  0.00     0.011 C 
ATOM     15  C   UNL A   1      36.088  21.474  25.455  1.00  0.00     0.011 C 
ENDBRANCH   7  12
BRANCH  10  16
ATOM     16  C   UNL A   1      31.373  23.121  25.780  1.00  0.00    -0.035 C 
ATOM     17  C   UNL A   1      30.208  22.968  26.790  1.00  0.00     0.011 C 
ATOM     18  C   UNL A   1      30.782  23.788  24.525  1.00  0.00     0.011 C 
ATOM     19  C   UNL A   1      31.810  21.698  25.376  1.00  0.00     0.011 C 
ENDBRANCH  10  16
ENDBRANCH   4   6
ENDBRANCH   3   4
ENDBRANCH   2   3
ENDBRANCH   1   2
BRANCH   1  20
ATOM     20  O   UNL A   1      32.156  30.167  26.655  1.00  0.00    -0.458 OA
BRANCH  20  21
ATOM     21  C   UNL A   1      32.722  31.342  27.018  1.00  0.00     0.338 C 
ATOM     22  O   UNL A   1      32.233  32.456  26.958  1.00  0.00    -0.246 OA
BRANCH  21  23
ATOM     23  C   UNL A   1      34.051  31.094  27.596  1.00  0.00     0.060 A 
ATOM     24  C   UNL A   1      34.422  29.776  27.855  1.00  0.00     0.016 A 
ATOM     25  C   UNL A   1      34.868  32.150  28.000  1.00  0.00     0.016 A 
ATOM     26  C   UNL A   1      35.595  29.497  28.549  1.00  0.00     0.010 A 
ATOM     27  C   UNL A   1      36.064  31.870  28.672  1.00  0.00     0.010 A 
ATOM     28  C   UNL A   1      36.426  30.543  28.968  1.00  0.00    -0.014 A 
BRANCH  28  29
ATOM     29  C   UNL A   1      37.649  30.239  29.751  1.00  0.00     0.031 A 
ATOM     30  C   UNL A   1      38.740  29.400  29.150  1.00  0.00     0.074 A 
ATOM     31  C   UNL A   1      37.796  30.741  30.991  1.00  0.00     0.049 A 
ATOM     32  N   UNL A   1      39.827  28.934  29.709  1.00  0.00    -0.248 NA
ATOM     33  C   UNL A   1      38.588  29.038  27.732  1.00  0.00     0.031 C 
ATOM     34  C   UNL A   1      36.836  31.612  31.672  1.00  0.00     0.029 A 
ATOM     35  N   UNL A   1      38.814  30.592  31.899  1.00  0.00    -0.354 N 
ATOM     36  C   UNL A   1      40.471  28.193  28.726  1.00  0.00     0.074 A 
ATOM     37  C   UNL A   1      39.655  28.275  27.533  1.00  0.00     0.031 C 
ATOM     38  C   UNL A   1      37.316  31.928  32.885  1.00  0.00     0.029 A 
ATOM     39  C   UNL A   1      38.589  31.241  33.087  1.00  0.00     0.049 A 
ATOM     40  H   UNL A   1      39.627  30.068  31.716  1.00  0.00     0.167 HD
ATOM     41  C   UNL A   1      41.635  27.507  28.813  1.00  0.00     0.037 A 
ATOM     42  C   UNL A   1      39.312  31.258  34.222  1.00  0.00     0.037 A 
ATOM     43  C   UNL A   1      42.466  27.455  29.985  1.00  0.00     0.049 A 
ATOM     44  C   UNL A   1      40.584  30.466  34.302  1.00  0.00     0.074 A 
ATOM     45  C   UNL A   1      43.665  26.787  30.164  1.00  0.00     0.029 A 
ATOM     46  N   UNL A   1      42.191  28.109  31.176  1.00  0.00    -0.354 N 
ATOM     47  N   UNL A   1      41.159  29.732  33.380  1.00  0.00    -0.248 NA
ATOM     48  C   UNL A   1      41.301  30.491  35.585  1.00  0.00     0.031 C 
ATOM     49  C   UNL A   1      44.107  27.021  31.472  1.00  0.00     0.029 A 
ATOM     50  C   UNL A   1      43.194  27.854  32.097  1.00  0.00     0.049 A 
ATOM     51  H   UNL A   1      41.400  28.671  31.342  1.00  0.00     0.167 HD
ATOM     52  C   UNL A   1      42.304  29.212  33.968  1.00  0.00     0.074 A 
ATOM     53  C   UNL A   1      42.355  29.729  35.320  1.00  0.00     0.031 C 
ATOM     54  C   UNL A   1      43.228  28.377  33.436  1.00  0.00     0.037 A 
BRANCH  41  55
ATOM     55  C   UNL A   1      42.066  26.730  27.608  1.00  0.00     0.057 A 
ATOM     56  C   UNL A   1      41.702  25.392  27.424  1.00  0.00     0.134 A 
ATOM     57  C   UNL A   1      42.819  27.345  26.600  1.00  0.00     0.134 A 
ATOM     58  F   UNL A   1      40.992  24.745  28.361  1.00  0.00    -0.206 F 
ATOM     59  C   UNL A   1      42.082  24.687  26.281  1.00  0.00     0.040 A 
ATOM     60  C   UNL A   1      43.192  26.656  25.446  1.00  0.00     0.040 A 
ATOM     61  F   UNL A   1      43.196  28.627  26.719  1.00  0.00    -0.206 F 
ATOM     62  C   UNL A   1      42.824  25.321  25.285  1.00  0.00     0.006 A 
ENDBRANCH  41  55
BRANCH  42  63
ATOM     63  C   UNL A   1      38.830  32.029  35.392  1.00  0.00     0.057 A 
ATOM     64  C   UNL A   1      38.156  31.399  36.444  1.00  0.00     0.134 A 
ATOM     65  C   UNL A   1      39.026  33.411  35.483  1.00  0.00     0.134 A 
ATOM     66  F   UNL A   1      37.918  30.080  36.399  1.00  0.00    -0.206 F 
ATOM     67  C   UNL A   1      37.687  32.119  37.543  1.00  0.00     0.040 A 
ATOM     68  C   UNL A   1      38.580  34.141  36.584  1.00  0.00     0.040 A 
ATOM     69  F   UNL A   1      39.665  34.070  34.504  1.00  0.00    -0.206 F 
ATOM     70  C   UNL A   1      37.904  33.495  37.617  1.00  0.00     0.006 A 
ENDBRANCH  42  63
BRANCH  54  71
ATOM     71  C   UNL A   1      44.374  27.985  34.315  1.00  0.00     0.057 A 
ATOM     72  C   UNL A   1      44.326  26.831  35.106  1.00  0.00     0.134 A 
ATOM     73  C   UNL A   1      45.545  28.751  34.347  1.00  0.00     0.134 A 
ATOM     74  F   UNL A   1      43.225  26.066  35.126  1.00  0.00    -0.206 F 
ATOM     75  C   UNL A   1      45.403  26.459  35.912  1.00  0.00     0.040 A 
ATOM     76  C   UNL A   1      46.633  28.381  35.138  1.00  0.00     0.040 A 
ATOM     77  F   UNL A   1      45.651  29.865  33.608  1.00  0.00    -0.206 F 
ATOM     78  C   UNL A   1      46.563  27.233  35.926  1.00  0.00     0.006 A 
ENDBRANCH  54  71
ENDBRANCH  28  29
ENDBRANCH  21  23
ENDBRANCH  20  21
ENDBRANCH   1  20
TORSDOF 13
ENDMDL
MODEL 2
REMARK VINA RESULT:     -11.1      4.281      8.653
REMARK SMILES CC(C)(C)[C@@H]1CC(C(=O)OCCOC(=O)c2ccc(-c3c4nc(c(-c5c(F)cccc5F)c5ccc([nH]5)c(-c5c(F)cccc5F)c5nc(c(-c6c(F)cccc6F)c6ccc3[nH]6)C=C5)C=C4)cc2)C[C@@H](C(C)(C)C)C1
REMARK SMILES IDX 12 1 11 2 10 3 8 4 9 5 7 6 5 7 6 8 76 9 71 10 70 11 2 12
REMARK SMILES IDX 1 13 3 14 4 15 72 16 73 17 74 18 75 19 13 20 14 21 15 22
REMARK SMILES IDX 16 23 17 24 69 25 18 26 68 27 19 28 20 29 21 30 62 31 22 32
REMARK SMILES IDX 67 33 61 34 63 35 23 36 66 37 60 38 59 39 24 41 50 42 33 43
REMARK SMILES IDX 49 44 34 45 37 46 48 47 64 48 35 49 36 50 47 52 65 53 38 54
REMARK SMILES IDX 25 55 26 56 31 57 27 58 28 59 30 60 32 61 29 62 51 63 52 64
REMARK SMILES IDX 57 65 53 66 54 67 56 68 58 69 55 70 39 71 40 72 45 73 41 74
REMARK SMILES IDX 42 75 44 76 46 77 43 78
REMARK H PARENT 63 40 37 51
REMARK Flexibility Score: inf
ROOT
ATOM      1  C   UNL A   1      39.365  19.985  25.423  1.00  0.00     0.275 C 
ENDROOT
BRANCH   1   2
ATOM      2  C   UNL A   1      38.634  21.298  25.710  1.00  0.00     0.274 C 
BRANCH   2   3
ATOM      3  O   UNL A   1      37.632  21.549  24.707  1.00  0.00    -0.462 OA
BRANCH   3   4
ATOM      4  C   UNL A   1      36.566  22.294  25.094  1.00  0.00     0.309 C 
ATOM      5  O   UNL A   1      36.643  23.371  25.677  1.00  0.00    -0.252 OA
BRANCH   4   6
ATOM      6  C   UNL A   1      35.236  21.709  24.643  1.00  0.00     0.100 C 
ATOM      7  C   UNL A   1      33.709  19.726  24.273  1.00  0.00    -0.005 C 
ATOM      8  C   UNL A   1      35.028  20.218  24.916  1.00  0.00     0.019 C 
ATOM      9  C   UNL A   1      32.550  20.559  24.853  1.00  0.00     0.008 C 
ATOM     10  C   UNL A   1      32.687  22.088  24.652  1.00  0.00    -0.005 C 
ATOM     11  C   UNL A   1      34.067  22.554  25.165  1.00  0.00     0.019 C 
BRANCH   7  12
ATOM     12  C   UNL A   1      33.496  18.168  24.384  1.00  0.00    -0.035 C 
ATOM     13  C   UNL A   1      34.864  17.451  24.453  1.00  0.00     0.011 C 
ATOM     14  C   UNL A   1      32.769  17.628  23.131  1.00  0.00     0.011 C 
ATOM     15  C   UNL A   1      32.678  17.769  25.625  1.00  0.00     0.011 C 
ENDBRANCH   7  12
BRANCH  10  16
ATOM     16  C   UNL A   1      32.251  22.679  23.242  1.00  0.00    -0.035 C 
ATOM     17  C   UNL A   1      30.920  23.450  23.436  1.00  0.00     0.011 C 
ATOM     18  C   UNL A   1      33.244  23.667  22.604  1.00  0.00     0.011 C 
ATOM     19  C   UNL A   1      31.983  21.569  22.205  1.00  0.00     0.011 C 
ENDBRANCH  10  16
ENDBRANCH   4   6
ENDBRANCH   3   4
ENDBRANCH   2   3
ENDBRANCH   1   2
BRANCH   1  20
ATOM     20  O   UNL A   1      40.376  19.714  26.413  1.00  0.00    -0.458 OA
BRANCH  20  21
ATOM     21  C   UNL A   1      41.652  19.885  25.995  1.00  0.00     0.338 C 
ATOM     22  O   UNL A   1      42.295  19.172  25.245  1.00  0.00    -0.246 OA
BRANCH  21  23
ATOM     23  C   UNL A   1      42.181  21.150  26.527  1.00  0.00     0.060 A 
ATOM     24  C   UNL A   1      42.211  21.323  27.910  1.00  0.00     0.016 A 
ATOM     25  C   UNL A   1      42.523  22.202  25.677  1.00  0.00     0.016 A 
ATOM     26  C   UNL A   1      42.546  22.557  28.459  1.00  0.00     0.010 A 
ATOM     27  C   UNL A   1      42.891  23.435  26.228  1.00  0.00     0.010 A 
ATOM     28  C   UNL A   1      42.886  23.626  27.622  1.00  0.00    -0.014 A 
BRANCH  28  29
ATOM     29  C   UNL A   1      43.195  24.951  28.214  1.00  0.00     0.031 A 
ATOM     30  C   UNL A   1      42.091  25.933  28.482  1.00  0.00     0.074 A 
ATOM     31  C   UNL A   1      44.463  25.262  28.541  1.00  0.00     0.049 A 
ATOM     32  N   UNL A   1      42.169  27.176  28.887  1.00  0.00    -0.248 NA
ATOM     33  C   UNL A   1      40.716  25.456  28.267  1.00  0.00     0.031 C 
ATOM     34  C   UNL A   1      45.620  24.381  28.381  1.00  0.00     0.029 A 
ATOM     35  N   UNL A   1      44.989  26.410  29.079  1.00  0.00    -0.354 N 
ATOM     36  C   UNL A   1      40.862  27.640  28.939  1.00  0.00     0.074 A 
ATOM     37  C   UNL A   1      40.008  26.546  28.528  1.00  0.00     0.031 C 
ATOM     38  C   UNL A   1      46.718  25.016  28.822  1.00  0.00     0.029 A 
ATOM     39  C   UNL A   1      46.350  26.364  29.244  1.00  0.00     0.049 A 
ATOM     40  H   UNL A   1      44.442  27.192  29.321  1.00  0.00     0.167 HD
ATOM     41  C   UNL A   1      40.417  28.868  29.295  1.00  0.00     0.037 A 
ATOM     42  C   UNL A   1      47.211  27.311  29.662  1.00  0.00     0.037 A 
ATOM     43  C   UNL A   1      41.260  29.945  29.739  1.00  0.00     0.049 A 
ATOM     44  C   UNL A   1      46.695  28.673  30.024  1.00  0.00     0.074 A 
ATOM     45  C   UNL A   1      40.896  31.225  30.123  1.00  0.00     0.029 A 
ATOM     46  N   UNL A   1      42.637  29.865  29.871  1.00  0.00    -0.354 N 
ATOM     47  N   UNL A   1      45.460  29.115  30.025  1.00  0.00    -0.248 NA
ATOM     48  C   UNL A   1      47.693  29.675  30.427  1.00  0.00     0.031 C 
ATOM     49  C   UNL A   1      42.057  31.925  30.470  1.00  0.00     0.029 A 
ATOM     50  C   UNL A   1      43.139  31.074  30.324  1.00  0.00     0.049 A 
ATOM     51  H   UNL A   1      43.178  29.067  29.673  1.00  0.00     0.167 HD
ATOM     52  C   UNL A   1      45.532  30.440  30.431  1.00  0.00     0.074 A 
ATOM     53  C   UNL A   1      46.928  30.727  30.687  1.00  0.00     0.031 C 
ATOM     54  C   UNL A   1      44.530  31.340  30.574  1.00  0.00     0.037 A 
BRANCH  41  55
ATOM     55  C   UNL A   1      38.945  29.122  29.191  1.00  0.00     0.057 A 
ATOM     56  C   UNL A   1      38.101  29.034  30.304  1.00  0.00     0.134 A 
ATOM     57  C   UNL A   1      38.375  29.501  27.969  1.00  0.00     0.134 A 
ATOM     58  F   UNL A   1      38.586  28.663  31.498  1.00  0.00    -0.206 F 
ATOM     59  C   UNL A   1      36.735  29.305  30.202  1.00  0.00     0.040 A 
ATOM     60  C   UNL A   1      37.015  29.789  27.858  1.00  0.00     0.040 A 
ATOM     61  F   UNL A   1      39.134  29.605  26.868  1.00  0.00    -0.206 F 
ATOM     62  C   UNL A   1      36.190  29.689  28.977  1.00  0.00     0.006 A 
ENDBRANCH  41  55
BRANCH  42  63
ATOM     63  C   UNL A   1      48.661  27.013  29.727  1.00  0.00     0.057 A 
ATOM     64  C   UNL A   1      49.506  27.294  28.649  1.00  0.00     0.134 A 
ATOM     65  C   UNL A   1      49.233  26.436  30.867  1.00  0.00     0.134 A 
ATOM     66  F   UNL A   1      49.008  27.825  27.523  1.00  0.00    -0.206 F 
ATOM     67  C   UNL A   1      50.870  27.004  28.697  1.00  0.00     0.040 A 
ATOM     68  C   UNL A   1      50.598  26.158  30.937  1.00  0.00     0.040 A 
ATOM     69  F   UNL A   1      48.472  26.143  31.932  1.00  0.00    -0.206 F 
ATOM     70  C   UNL A   1      51.420  26.439  29.847  1.00  0.00     0.006 A 
ENDBRANCH  42  63
BRANCH  54  71
ATOM     71  C   UNL A   1      44.911  32.711  31.040  1.00  0.00     0.057 A 
ATOM     72  C   UNL A   1      45.204  33.735  30.133  1.00  0.00     0.134 A 
ATOM     73  C   UNL A   1      44.954  33.015  32.405  1.00  0.00     0.134 A 
ATOM     74  F   UNL A   1      45.192  33.498  28.813  1.00  0.00    -0.206 F 
ATOM     75  C   UNL A   1      45.542  35.016  30.570  1.00  0.00     0.040 A 
ATOM     76  C   UNL A   1      45.277  34.297  32.854  1.00  0.00     0.040 A 
ATOM     77  F   UNL A   1      44.679  32.076  33.323  1.00  0.00    -0.206 F 
ATOM     78  C   UNL A   1      45.575  35.301  31.934  1.00  0.00     0.006 A 
ENDBRANCH  54  71
ENDBRANCH  28  29
ENDBRANCH  21  23
ENDBRANCH  20  21
ENDBRANCH   1  20
TORSDOF 13
ENDMDL
MODEL 3
REMARK VINA RESULT:     -11.1      4.442      7.780
REMARK SMILES CC(C)(C)[C@@H]1CC(C(=O)OCCOC(=O)c2ccc(-c3c4nc(c(-c5c(F)cccc5F)c5ccc([nH]5)c(-c5c(F)cccc5F)c5nc(c(-c6c(F)cccc6F)c6ccc3[nH]6)C=C5)C=C4)cc2)C[C@@H](C(C)(C)C)C1
REMARK SMILES IDX 12 1 11 2 10 3 8 4 9 5 7 6 5 7 6 8 76 9 71 10 70 11 2 12
REMARK SMILES IDX 1 13 3 14 4 15 72 16 73 17 74 18 75 19 13 20 14 21 15 22
REMARK SMILES IDX 16 23 17 24 69 25 18 26 68 27 19 28 20 29 21 30 62 31 22 32
REMARK SMILES IDX 67 33 61 34 63 35 23 36 66 37 60 38 59 39 24 41 50 42 33 43
REMARK SMILES IDX 49 44 34 45 37 46 48 47 64 48 35 49 36 50 47 52 65 53 38 54
REMARK SMILES IDX 25 55 26 56 31 57 27 58 28 59 30 60 32 61 29 62 51 63 52 64
REMARK SMILES IDX 57 65 53 66 54 67 56 68 58 69 55 70 39 71 40 72 45 73 41 74
REMARK SMILES IDX 42 75 44 76 46 77 43 78
REMARK H PARENT 63 40 37 51
REMARK Flexibility Score: inf
ROOT
ATOM      1  C   UNL A   1      39.385  19.770  25.496  1.00  0.00     0.275 C 
ENDROOT
BRANCH   1   2
ATOM      2  C   UNL A   1      38.743  21.135  25.750  1.00  0.00     0.274 C 
BRANCH   2   3
ATOM      3  O   UNL A   1      37.682  21.379  24.808  1.00  0.00    -0.462 OA
BRANCH   3   4
ATOM      4  C   UNL A   1      36.601  22.051  25.279  1.00  0.00     0.309 C 
ATOM      5  O   UNL A   1      36.657  23.059  25.975  1.00  0.00    -0.252 OA
BRANCH   4   6
ATOM      6  C   UNL A   1      35.282  21.487  24.773  1.00  0.00     0.100 C 
ATOM      7  C   UNL A   1      33.756  19.523  24.306  1.00  0.00    -0.005 C 
ATOM      8  C   UNL A   1      35.057  19.990  25.001  1.00  0.00     0.019 C 
ATOM      9  C   UNL A   1      32.584  20.350  24.871  1.00  0.00     0.008 C 
ATOM     10  C   UNL A   1      32.736  21.882  24.712  1.00  0.00    -0.005 C 
ATOM     11  C   UNL A   1      34.103  22.326  25.279  1.00  0.00     0.019 C 
BRANCH   7  12
ATOM     12  C   UNL A   1      33.530  17.965  24.371  1.00  0.00    -0.035 C 
ATOM     13  C   UNL A   1      32.915  17.465  23.044  1.00  0.00     0.011 C 
ATOM     14  C   UNL A   1      32.528  17.607  25.492  1.00  0.00     0.011 C 
ATOM     15  C   UNL A   1      34.834  17.187  24.623  1.00  0.00     0.011 C 
ENDBRANCH   7  12
BRANCH  10  16
ATOM     16  C   UNL A   1      32.348  22.511  23.305  1.00  0.00    -0.035 C 
ATOM     17  C   UNL A   1      31.080  23.381  23.501  1.00  0.00     0.011 C 
ATOM     18  C   UNL A   1      33.414  23.423  22.672  1.00  0.00     0.011 C 
ATOM     19  C   UNL A   1      31.997  21.429  22.262  1.00  0.00     0.011 C 
ENDBRANCH  10  16
ENDBRANCH   4   6
ENDBRANCH   3   4
ENDBRANCH   2   3
ENDBRANCH   1   2
BRANCH   1  20
ATOM     20  O   UNL A   1      40.399  19.471  26.475  1.00  0.00    -0.458 OA
BRANCH  20  21
ATOM     21  C   UNL A   1      41.674  19.619  26.047  1.00  0.00     0.338 C 
ATOM     22  O   UNL A   1      42.335  18.841  25.383  1.00  0.00    -0.246 OA
BRANCH  21  23
ATOM     23  C   UNL A   1      42.177  20.944  26.440  1.00  0.00     0.060 A 
ATOM     24  C   UNL A   1      42.198  21.267  27.796  1.00  0.00     0.016 A 
ATOM     25  C   UNL A   1      42.501  21.904  25.481  1.00  0.00     0.016 A 
ATOM     26  C   UNL A   1      42.507  22.559  28.208  1.00  0.00     0.010 A 
ATOM     27  C   UNL A   1      42.843  23.197  25.896  1.00  0.00     0.010 A 
ATOM     28  C   UNL A   1      42.829  23.538  27.261  1.00  0.00    -0.014 A 
BRANCH  28  29
ATOM     29  C   UNL A   1      43.110  24.925  27.706  1.00  0.00     0.031 A 
ATOM     30  C   UNL A   1      44.528  25.397  27.855  1.00  0.00     0.074 A 
ATOM     31  C   UNL A   1      42.093  25.772  27.948  1.00  0.00     0.049 A 
ATOM     32  N   UNL A   1      44.977  26.528  28.336  1.00  0.00    -0.248 NA
ATOM     33  C   UNL A   1      45.581  24.474  27.402  1.00  0.00     0.031 C 
ATOM     34  C   UNL A   1      40.672  25.458  27.792  1.00  0.00     0.029 A 
ATOM     35  N   UNL A   1      42.101  27.077  28.375  1.00  0.00    -0.354 N 
ATOM     36  C   UNL A   1      46.362  26.440  28.280  1.00  0.00     0.074 A 
ATOM     37  C   UNL A   1      46.681  25.146  27.714  1.00  0.00     0.031 C 
ATOM     38  C   UNL A   1      39.947  26.542  28.109  1.00  0.00     0.029 A 
ATOM     39  C   UNL A   1      40.847  27.608  28.538  1.00  0.00     0.049 A 
ATOM     40  H   UNL A   1      42.928  27.582  28.548  1.00  0.00     0.167 HD
ATOM     41  C   UNL A   1      47.281  27.355  28.667  1.00  0.00     0.037 A 
ATOM     42  C   UNL A   1      40.463  28.809  29.010  1.00  0.00     0.037 A 
ATOM     43  C   UNL A   1      46.967  28.655  29.195  1.00  0.00     0.049 A 
ATOM     44  C   UNL A   1      41.502  29.795  29.459  1.00  0.00     0.074 A 
ATOM     45  C   UNL A   1      47.835  29.651  29.612  1.00  0.00     0.029 A 
ATOM     46  N   UNL A   1      45.683  29.147  29.366  1.00  0.00    -0.354 N 
ATOM     47  N   UNL A   1      42.808  29.683  29.444  1.00  0.00    -0.248 NA
ATOM     48  C   UNL A   1      41.013  31.069  30.006  1.00  0.00     0.031 C 
ATOM     49  C   UNL A   1      47.073  30.740  30.054  1.00  0.00     0.029 A 
ATOM     50  C   UNL A   1      45.734  30.429  29.889  1.00  0.00     0.049 A 
ATOM     51  H   UNL A   1      44.857  28.658  29.148  1.00  0.00     0.167 HD
ATOM     52  C   UNL A   1      43.297  30.868  29.974  1.00  0.00     0.074 A 
ATOM     53  C   UNL A   1      42.149  31.696  30.284  1.00  0.00     0.031 C 
ATOM     54  C   UNL A   1      44.582  31.237  30.189  1.00  0.00     0.037 A 
BRANCH  41  55
ATOM     55  C   UNL A   1      48.724  26.968  28.560  1.00  0.00     0.057 A 
ATOM     56  C   UNL A   1      49.492  27.291  27.436  1.00  0.00     0.134 A 
ATOM     57  C   UNL A   1      49.359  26.301  29.614  1.00  0.00     0.134 A 
ATOM     58  F   UNL A   1      48.936  27.918  26.388  1.00  0.00    -0.206 F 
ATOM     59  C   UNL A   1      50.845  26.953  27.361  1.00  0.00     0.040 A 
ATOM     60  C   UNL A   1      50.713  25.973  29.557  1.00  0.00     0.040 A 
ATOM     61  F   UNL A   1      48.674  25.967  30.719  1.00  0.00    -0.206 F 
ATOM     62  C   UNL A   1      51.460  26.297  28.426  1.00  0.00     0.006 A 
ENDBRANCH  41  55
BRANCH  42  63
ATOM     63  C   UNL A   1      39.021  29.134  29.114  1.00  0.00     0.057 A 
ATOM     64  C   UNL A   1      38.294  29.562  27.998  1.00  0.00     0.134 A 
ATOM     65  C   UNL A   1      38.339  29.029  30.331  1.00  0.00     0.134 A 
ATOM     66  F   UNL A   1      38.902  29.703  26.811  1.00  0.00    -0.206 F 
ATOM     67  C   UNL A   1      36.939  29.882  28.090  1.00  0.00     0.040 A 
ATOM     68  C   UNL A   1      36.981  29.328  30.435  1.00  0.00     0.040 A 
ATOM     69  F   UNL A   1      38.984  28.625  31.436  1.00  0.00    -0.206 F 
ATOM     70  C   UNL A   1      36.278  29.759  29.312  1.00  0.00     0.006 A 
ENDBRANCH  42  63
BRANCH  54  71
ATOM     71  C   UNL A   1      44.810  32.596  30.774  1.00  0.00     0.057 A 
ATOM     72  C   UNL A   1      44.906  32.789  32.157  1.00  0.00     0.134 A 
ATOM     73  C   UNL A   1      44.965  33.713  29.946  1.00  0.00     0.134 A 
ATOM     74  F   UNL A   1      44.753  31.757  33.000  1.00  0.00    -0.206 F 
ATOM     75  C   UNL A   1      45.135  34.054  32.698  1.00  0.00     0.040 A 
ATOM     76  C   UNL A   1      45.208  34.981  30.476  1.00  0.00     0.040 A 
ATOM     77  F   UNL A   1      44.886  33.590  28.613  1.00  0.00    -0.206 F 
ATOM     78  C   UNL A   1      45.291  35.155  31.856  1.00  0.00     0.006 A 
ENDBRANCH  54  71
ENDBRANCH  28  29
ENDBRANCH  21  23
ENDBRANCH  20  21
ENDBRANCH   1  20
TORSDOF 13
ENDMDL
