MODEL 1
REMARK VINA RESULT:     -12.2      0.000      0.000
REMARK SMILES Cc1cc2c(c(C)c1Br)C=C(C(=O)OCCOC(=O)c1ccc(-c3c4nc(c(-c5c(F)cccc5F)c5ccc([nH]5)c(-c5c(F)cccc5F)c5nc(c(-c6c(F)cccc6F)c6ccc3[nH]6)C=C5)C=C4)cc1)[C@@H](C(F)(F)F)O2
REMARK SMILES IDX 16 1 15 2 14 3 12 4 13 5 11 6 1 7 2 8 3 9 8 10 4 11 6 12
REMARK SMILES IDX 9 13 5 14 79 15 7 16 10 17 74 18 75 19 76 20 77 21 78 22
REMARK SMILES IDX 17 23 18 24 19 25 20 26 21 27 73 28 22 29 72 30 23 31 24 32
REMARK SMILES IDX 25 33 66 34 26 35 71 36 65 37 67 38 27 39 70 40 64 41 63 42
REMARK SMILES IDX 28 44 54 45 37 46 53 47 38 48 41 49 52 50 68 51 39 52 40 53
REMARK SMILES IDX 51 55 69 56 42 57 29 58 30 59 35 60 31 61 32 62 34 63 36 64
REMARK SMILES IDX 33 65 55 66 56 67 61 68 57 69 58 70 60 71 62 72 59 73 43 74
REMARK SMILES IDX 44 75 49 76 45 77 46 78 48 79 50 80 47 81
REMARK H PARENT 67 43 41 54
REMARK Flexibility Score: inf
ROOT
ATOM      1  C   UNL A   1      35.970  20.783  25.173  1.00  0.00     0.275 C 
ENDROOT
BRANCH   1   2
ATOM      2  C   UNL A   1      34.732  21.519  24.659  1.00  0.00     0.275 C 
BRANCH   2   3
ATOM      3  O   UNL A   1      34.843  22.945  24.864  1.00  0.00    -0.459 OA
BRANCH   3   4
ATOM      4  C   UNL A   1      33.950  23.476  25.730  1.00  0.00     0.338 C 
ATOM      5  O   UNL A   1      33.705  23.081  26.860  1.00  0.00    -0.246 OA
BRANCH   4   6
ATOM      6  C   UNL A   1      33.287  24.655  25.138  1.00  0.00     0.087 C 
ATOM      7  C   UNL A   1      30.041  30.117  23.876  1.00  0.00     0.046 C 
ATOM      8  C   UNL A   1      30.992  29.087  24.425  1.00  0.00    -0.033 A 
ATOM      9  C   UNL A   1      31.048  27.863  23.739  1.00  0.00     0.051 A 
ATOM     10  C   UNL A   1      31.803  29.266  25.565  1.00  0.00     0.024 A 
ATOM     11  C   UNL A   1      31.852  26.817  24.185  1.00  0.00     0.128 A 
ATOM     12  C   UNL A   1      32.626  28.213  26.037  1.00  0.00    -0.026 A 
ATOM     13  Br  UNL A   1      31.779  30.951  26.472  1.00  0.00    -0.050 Br
ATOM     14  C   UNL A   1      32.626  26.975  25.336  1.00  0.00     0.021 A 
ATOM     15  O   UNL A   1      31.826  25.688  23.415  1.00  0.00    -0.475 OA
ATOM     16  C   UNL A   1      33.518  28.372  27.249  1.00  0.00     0.046 C 
ATOM     17  C   UNL A   1      33.390  25.817  25.792  1.00  0.00     0.027 C 
ATOM     18  C   UNL A   1      32.424  24.468  23.928  1.00  0.00     0.316 C 
BRANCH  18  19
ATOM     19  C   UNL A   1      31.313  23.437  24.181  1.00  0.00     0.430 C 
ATOM     20  F   UNL A   1      30.791  23.568  25.425  1.00  0.00    -0.167 F 
ATOM     21  F   UNL A   1      30.282  23.591  23.314  1.00  0.00    -0.167 F 
ATOM     22  F   UNL A   1      31.757  22.167  24.059  1.00  0.00    -0.167 F 
ENDBRANCH  18  19
ENDBRANCH   4   6
ENDBRANCH   3   4
ENDBRANCH   2   3
ENDBRANCH   1   2
BRANCH   1  23
ATOM     23  O   UNL A   1      37.163  21.502  24.814  1.00  0.00    -0.458 OA
BRANCH  23  24
ATOM     24  C   UNL A   1      38.294  21.095  25.432  1.00  0.00     0.338 C 
ATOM     25  O   UNL A   1      38.816  19.994  25.380  1.00  0.00    -0.246 OA
BRANCH  24  26
ATOM     26  C   UNL A   1      38.901  22.216  26.170  1.00  0.00     0.060 A 
ATOM     27  C   UNL A   1      38.360  23.485  26.020  1.00  0.00     0.016 A 
ATOM     28  C   UNL A   1      40.107  22.048  26.845  1.00  0.00     0.016 A 
ATOM     29  C   UNL A   1      39.094  24.603  26.407  1.00  0.00     0.010 A 
ATOM     30  C   UNL A   1      40.775  23.170  27.357  1.00  0.00     0.010 A 
ATOM     31  C   UNL A   1      40.308  24.470  27.095  1.00  0.00    -0.014 A 
BRANCH  31  32
ATOM     32  C   UNL A   1      41.096  25.678  27.491  1.00  0.00     0.031 A 
ATOM     33  C   UNL A   1      40.487  26.728  28.392  1.00  0.00     0.074 A 
ATOM     34  C   UNL A   1      42.376  25.836  27.089  1.00  0.00     0.049 A 
ATOM     35  N   UNL A   1      40.913  27.937  28.660  1.00  0.00    -0.248 NA
ATOM     36  C   UNL A   1      39.231  26.375  29.073  1.00  0.00     0.031 C 
ATOM     37  C   UNL A   1      43.139  24.883  26.282  1.00  0.00     0.029 A 
ATOM     38  N   UNL A   1      43.272  26.851  27.323  1.00  0.00    -0.354 N 
ATOM     39  C   UNL A   1      39.945  28.511  29.479  1.00  0.00     0.074 A 
ATOM     40  C   UNL A   1      38.912  27.517  29.669  1.00  0.00     0.031 C 
ATOM     41  C   UNL A   1      44.399  25.317  26.154  1.00  0.00     0.029 A 
ATOM     42  C   UNL A   1      44.504  26.642  26.750  1.00  0.00     0.049 A 
ATOM     43  H   UNL A   1      43.053  27.653  27.852  1.00  0.00     0.167 HD
ATOM     44  C   UNL A   1      39.921  29.756  30.015  1.00  0.00     0.037 A 
ATOM     45  C   UNL A   1      45.584  27.441  26.654  1.00  0.00     0.037 A 
ATOM     46  C   UNL A   1      40.983  30.720  29.880  1.00  0.00     0.049 A 
ATOM     47  C   UNL A   1      45.518  28.832  27.212  1.00  0.00     0.074 A 
ATOM     48  C   UNL A   1      41.041  32.016  30.364  1.00  0.00     0.029 A 
ATOM     49  N   UNL A   1      42.190  30.480  29.238  1.00  0.00    -0.354 N 
ATOM     50  N   UNL A   1      44.542  29.411  27.866  1.00  0.00    -0.248 NA
ATOM     51  C   UNL A   1      46.688  29.692  26.988  1.00  0.00     0.031 C 
ATOM     52  C   UNL A   1      42.269  32.571  29.991  1.00  0.00     0.029 A 
ATOM     53  C   UNL A   1      42.996  31.605  29.315  1.00  0.00     0.049 A 
ATOM     54  H   UNL A   1      42.436  29.637  28.794  1.00  0.00     0.167 HD
ATOM     55  C   UNL A   1      44.982  30.698  28.142  1.00  0.00     0.074 A 
ATOM     56  C   UNL A   1      46.321  30.808  27.601  1.00  0.00     0.031 C 
ATOM     57  C   UNL A   1      44.330  31.700  28.780  1.00  0.00     0.037 A 
BRANCH  44  58
ATOM     58  C   UNL A   1      38.693  30.172  30.777  1.00  0.00     0.057 A 
ATOM     59  C   UNL A   1      37.591  30.767  30.151  1.00  0.00     0.134 A 
ATOM     60  C   UNL A   1      38.590  29.908  32.149  1.00  0.00     0.134 A 
ATOM     61  F   UNL A   1      37.628  31.059  28.843  1.00  0.00    -0.206 F 
ATOM     62  C   UNL A   1      36.435  31.091  30.865  1.00  0.00     0.040 A 
ATOM     63  C   UNL A   1      37.431  30.204  32.869  1.00  0.00     0.040 A 
ATOM     64  F   UNL A   1      39.607  29.334  32.810  1.00  0.00    -0.206 F 
ATOM     65  C   UNL A   1      36.349  30.801  32.225  1.00  0.00     0.006 A 
ENDBRANCH  44  58
BRANCH  45  66
ATOM     66  C   UNL A   1      46.801  26.952  25.955  1.00  0.00     0.057 A 
ATOM     67  C   UNL A   1      46.996  27.199  24.591  1.00  0.00     0.134 A 
ATOM     68  C   UNL A   1      47.812  26.262  26.637  1.00  0.00     0.134 A 
ATOM     69  F   UNL A   1      46.053  27.830  23.877  1.00  0.00    -0.206 F 
ATOM     70  C   UNL A   1      48.156  26.785  23.933  1.00  0.00     0.040 A 
ATOM     71  C   UNL A   1      48.989  25.871  25.998  1.00  0.00     0.040 A 
ATOM     72  F   UNL A   1      47.685  25.994  27.944  1.00  0.00    -0.206 F 
ATOM     73  C   UNL A   1      49.163  26.130  24.641  1.00  0.00     0.006 A 
ENDBRANCH  45  66
BRANCH  57  74
ATOM     74  C   UNL A   1      45.070  32.990  28.968  1.00  0.00     0.057 A 
ATOM     75  C   UNL A   1      45.900  33.211  30.074  1.00  0.00     0.134 A 
ATOM     76  C   UNL A   1      44.981  34.006  28.008  1.00  0.00     0.134 A 
ATOM     77  F   UNL A   1      46.017  32.281  31.034  1.00  0.00    -0.206 F 
ATOM     78  C   UNL A   1      46.602  34.408  30.228  1.00  0.00     0.040 A 
ATOM     79  C   UNL A   1      45.696  35.197  28.140  1.00  0.00     0.040 A 
ATOM     80  F   UNL A   1      44.210  33.851  26.922  1.00  0.00    -0.206 F 
ATOM     81  C   UNL A   1      46.506  35.402  29.255  1.00  0.00     0.006 A 
ENDBRANCH  57  74
ENDBRANCH  31  32
ENDBRANCH  24  26
ENDBRANCH  23  24
ENDBRANCH   1  23
TORSDOF 12
ENDMDL
MODEL 2
REMARK VINA RESULT:     -12.1      0.107      1.319
REMARK SMILES Cc1cc2c(c(C)c1Br)C=C(C(=O)OCCOC(=O)c1ccc(-c3c4nc(c(-c5c(F)cccc5F)c5ccc([nH]5)c(-c5c(F)cccc5F)c5nc(c(-c6c(F)cccc6F)c6ccc3[nH]6)C=C5)C=C4)cc1)[C@@H](C(F)(F)F)O2
REMARK SMILES IDX 16 1 15 2 14 3 12 4 13 5 11 6 1 7 2 8 3 9 8 10 4 11 6 12
REMARK SMILES IDX 9 13 5 14 79 15 7 16 10 17 74 18 75 19 76 20 77 21 78 22
REMARK SMILES IDX 17 23 18 24 19 25 20 26 21 27 73 28 22 29 72 30 23 31 24 32
REMARK SMILES IDX 25 33 66 34 26 35 71 36 65 37 67 38 27 39 70 40 64 41 63 42
REMARK SMILES IDX 28 44 54 45 37 46 53 47 38 48 41 49 52 50 68 51 39 52 40 53
REMARK SMILES IDX 51 55 69 56 42 57 29 58 30 59 35 60 31 61 32 62 34 63 36 64
REMARK SMILES IDX 33 65 55 66 56 67 61 68 57 69 58 70 60 71 62 72 59 73 43 74
REMARK SMILES IDX 44 75 49 76 45 77 46 78 48 79 50 80 47 81
REMARK H PARENT 67 43 41 54
REMARK Flexibility Score: inf
ROOT
ATOM      1  C   UNL A   1      35.969  20.703  25.112  1.00  0.00     0.275 C 
ENDROOT
BRANCH   1   2
ATOM      2  C   UNL A   1      34.693  21.389  24.624  1.00  0.00     0.275 C 
BRANCH   2   3
ATOM      3  O   UNL A   1      34.802  22.827  24.705  1.00  0.00    -0.459 OA
BRANCH   3   4
ATOM      4  C   UNL A   1      34.003  23.418  25.621  1.00  0.00     0.338 C 
ATOM      5  O   UNL A   1      33.835  23.065  26.779  1.00  0.00    -0.246 OA
BRANCH   4   6
ATOM      6  C   UNL A   1      33.340  24.605  25.047  1.00  0.00     0.087 C 
ATOM      7  C   UNL A   1      30.075  30.074  23.865  1.00  0.00     0.046 C 
ATOM      8  C   UNL A   1      31.026  29.038  24.403  1.00  0.00    -0.033 A 
ATOM      9  C   UNL A   1      31.097  27.829  23.691  1.00  0.00     0.051 A 
ATOM     10  C   UNL A   1      31.821  29.197  25.556  1.00  0.00     0.024 A 
ATOM     11  C   UNL A   1      31.902  26.780  24.124  1.00  0.00     0.128 A 
ATOM     12  C   UNL A   1      32.646  28.139  26.015  1.00  0.00    -0.026 A 
ATOM     13  Br  UNL A   1      31.776  30.862  26.500  1.00  0.00    -0.050 Br
ATOM     14  C   UNL A   1      32.661  26.916  25.288  1.00  0.00     0.021 A 
ATOM     15  O   UNL A   1      31.893  25.667  23.330  1.00  0.00    -0.475 OA
ATOM     16  C   UNL A   1      33.523  28.277  27.241  1.00  0.00     0.046 C 
ATOM     17  C   UNL A   1      33.427  25.754  25.728  1.00  0.00     0.027 C 
ATOM     18  C   UNL A   1      32.493  24.440  23.823  1.00  0.00     0.316 C 
BRANCH  18  19
ATOM     19  C   UNL A   1      31.384  23.397  24.041  1.00  0.00     0.430 C 
ATOM     20  F   UNL A   1      30.951  23.396  25.324  1.00  0.00    -0.167 F 
ATOM     21  F   UNL A   1      30.300  23.653  23.269  1.00  0.00    -0.167 F 
ATOM     22  F   UNL A   1      31.799  22.143  23.751  1.00  0.00    -0.167 F 
ENDBRANCH  18  19
ENDBRANCH   4   6
ENDBRANCH   3   4
ENDBRANCH   2   3
ENDBRANCH   1   2
BRANCH   1  23
ATOM     23  O   UNL A   1      37.110  21.548  24.881  1.00  0.00    -0.458 OA
BRANCH  23  24
ATOM     24  C   UNL A   1      38.261  21.141  25.461  1.00  0.00     0.338 C 
ATOM     25  O   UNL A   1      38.788  20.045  25.377  1.00  0.00    -0.246 OA
BRANCH  24  26
ATOM     26  C   UNL A   1      38.881  22.255  26.198  1.00  0.00     0.060 A 
ATOM     27  C   UNL A   1      38.333  23.525  26.075  1.00  0.00     0.016 A 
ATOM     28  C   UNL A   1      40.102  22.083  26.844  1.00  0.00     0.016 A 
ATOM     29  C   UNL A   1      39.072  24.640  26.458  1.00  0.00     0.010 A 
ATOM     30  C   UNL A   1      40.778  23.202  27.353  1.00  0.00     0.010 A 
ATOM     31  C   UNL A   1      40.301  24.504  27.117  1.00  0.00    -0.014 A 
BRANCH  31  32
ATOM     32  C   UNL A   1      41.095  25.709  27.510  1.00  0.00     0.031 A 
ATOM     33  C   UNL A   1      40.492  26.762  28.411  1.00  0.00     0.074 A 
ATOM     34  C   UNL A   1      42.374  25.862  27.103  1.00  0.00     0.049 A 
ATOM     35  N   UNL A   1      40.922  27.970  28.677  1.00  0.00    -0.248 NA
ATOM     36  C   UNL A   1      39.237  26.414  29.096  1.00  0.00     0.031 C 
ATOM     37  C   UNL A   1      43.131  24.906  26.294  1.00  0.00     0.029 A 
ATOM     38  N   UNL A   1      43.274  26.875  27.333  1.00  0.00    -0.354 N 
ATOM     39  C   UNL A   1      39.959  28.548  29.498  1.00  0.00     0.074 A 
ATOM     40  C   UNL A   1      38.924  27.557  29.692  1.00  0.00     0.031 C 
ATOM     41  C   UNL A   1      44.392  25.336  26.161  1.00  0.00     0.029 A 
ATOM     42  C   UNL A   1      44.503  26.662  26.756  1.00  0.00     0.049 A 
ATOM     43  H   UNL A   1      43.059  27.679  27.861  1.00  0.00     0.167 HD
ATOM     44  C   UNL A   1      39.941  29.793  30.033  1.00  0.00     0.037 A 
ATOM     45  C   UNL A   1      45.586  27.457  26.656  1.00  0.00     0.037 A 
ATOM     46  C   UNL A   1      41.006  30.753  29.893  1.00  0.00     0.049 A 
ATOM     47  C   UNL A   1      45.526  28.849  27.212  1.00  0.00     0.074 A 
ATOM     48  C   UNL A   1      41.069  32.050  30.375  1.00  0.00     0.029 A 
ATOM     49  N   UNL A   1      42.209  30.510  29.248  1.00  0.00    -0.354 N 
ATOM     50  N   UNL A   1      44.554  29.432  27.869  1.00  0.00    -0.248 NA
ATOM     51  C   UNL A   1      46.698  29.704  26.983  1.00  0.00     0.031 C 
ATOM     52  C   UNL A   1      42.298  32.601  29.997  1.00  0.00     0.029 A 
ATOM     53  C   UNL A   1      43.020  31.632  29.321  1.00  0.00     0.049 A 
ATOM     54  H   UNL A   1      42.452  29.665  28.803  1.00  0.00     0.167 HD
ATOM     55  C   UNL A   1      44.999  30.718  28.142  1.00  0.00     0.074 A 
ATOM     56  C   UNL A   1      46.337  30.823  27.596  1.00  0.00     0.031 C 
ATOM     57  C   UNL A   1      44.352  31.722  28.781  1.00  0.00     0.037 A 
BRANCH  44  58
ATOM     58  C   UNL A   1      38.717  30.214  30.798  1.00  0.00     0.057 A 
ATOM     59  C   UNL A   1      38.600  30.029  32.181  1.00  0.00     0.134 A 
ATOM     60  C   UNL A   1      37.670  30.879  30.145  1.00  0.00     0.134 A 
ATOM     61  F   UNL A   1      39.559  29.389  32.865  1.00  0.00    -0.206 F 
ATOM     62  C   UNL A   1      37.481  30.483  32.884  1.00  0.00     0.040 A 
ATOM     63  C   UNL A   1      36.559  31.360  30.841  1.00  0.00     0.040 A 
ATOM     64  F   UNL A   1      37.721  31.096  28.822  1.00  0.00    -0.206 F 
ATOM     65  C   UNL A   1      36.462  31.159  32.217  1.00  0.00     0.006 A 
ENDBRANCH  44  58
BRANCH  45  66
ATOM     66  C   UNL A   1      46.799  26.964  25.953  1.00  0.00     0.057 A 
ATOM     67  C   UNL A   1      46.987  27.202  24.587  1.00  0.00     0.134 A 
ATOM     68  C   UNL A   1      47.812  26.276  26.633  1.00  0.00     0.134 A 
ATOM     69  F   UNL A   1      46.041  27.830  23.874  1.00  0.00    -0.206 F 
ATOM     70  C   UNL A   1      48.143  26.784  23.925  1.00  0.00     0.040 A 
ATOM     71  C   UNL A   1      48.987  25.881  25.991  1.00  0.00     0.040 A 
ATOM     72  F   UNL A   1      47.692  26.015  27.943  1.00  0.00    -0.206 F 
ATOM     73  C   UNL A   1      49.153  26.133  24.632  1.00  0.00     0.006 A 
ENDBRANCH  45  66
BRANCH  57  74
ATOM     74  C   UNL A   1      45.097  33.010  28.965  1.00  0.00     0.057 A 
ATOM     75  C   UNL A   1      44.992  34.060  28.044  1.00  0.00     0.134 A 
ATOM     76  C   UNL A   1      45.894  33.215  30.097  1.00  0.00     0.134 A 
ATOM     77  F   UNL A   1      44.254  33.921  26.933  1.00  0.00    -0.206 F 
ATOM     78  C   UNL A   1      45.672  35.265  28.235  1.00  0.00     0.040 A 
ATOM     79  C   UNL A   1      46.559  34.423  30.311  1.00  0.00     0.040 A 
ATOM     80  F   UNL A   1      46.028  32.251  31.020  1.00  0.00    -0.206 F 
ATOM     81  C   UNL A   1      46.452  35.450  29.375  1.00  0.00     0.006 A 
ENDBRANCH  57  74
ENDBRANCH  31  32
ENDBRANCH  24  26
ENDBRANCH  23  24
ENDBRANCH   1  23
TORSDOF 12
ENDMDL
MODEL 3
REMARK VINA RESULT:     -12.1      3.918      8.731
REMARK SMILES Cc1cc2c(c(C)c1Br)C=C(C(=O)OCCOC(=O)c1ccc(-c3c4nc(c(-c5c(F)cccc5F)c5ccc([nH]5)c(-c5c(F)cccc5F)c5nc(c(-c6c(F)cccc6F)c6ccc3[nH]6)C=C5)C=C4)cc1)[C@@H](C(F)(F)F)O2
REMARK SMILES IDX 16 1 15 2 14 3 12 4 13 5 11 6 1 7 2 8 3 9 8 10 4 11 6 12
REMARK SMILES IDX 9 13 5 14 79 15 7 16 10 17 74 18 75 19 76 20 77 21 78 22
REMARK SMILES IDX 17 23 18 24 19 25 20 26 21 27 73 28 22 29 72 30 23 31 24 32
REMARK SMILES IDX 25 33 66 34 26 35 71 36 65 37 67 38 27 39 70 40 64 41 63 42
REMARK SMILES IDX 28 44 54 45 37 46 53 47 38 48 41 49 52 50 68 51 39 52 40 53
REMARK SMILES IDX 51 55 69 56 42 57 29 58 30 59 35 60 31 61 32 62 34 63 36 64
REMARK SMILES IDX 33 65 55 66 56 67 61 68 57 69 58 70 60 71 62 72 59 73 43 74
REMARK SMILES IDX 44 75 49 76 45 77 46 78 48 79 50 80 47 81
REMARK H PARENT 67 43 41 54
REMARK Flexibility Score: inf
ROOT
ATOM      1  C   UNL A   1      31.750  30.075  25.429  1.00  0.00     0.275 C 
ENDROOT
BRANCH   1   2
ATOM      2  C   UNL A   1      31.369  28.656  25.008  1.00  0.00     0.275 C 
BRANCH   2   3
ATOM      3  O   UNL A   1      32.346  27.692  25.458  1.00  0.00    -0.459 OA
BRANCH   3   4
ATOM      4  C   UNL A   1      33.057  27.086  24.479  1.00  0.00     0.338 C 
ATOM      5  O   UNL A   1      33.635  27.634  23.553  1.00  0.00    -0.246 OA
BRANCH   4   6
ATOM      6  C   UNL A   1      33.073  25.624  24.675  1.00  0.00     0.087 C 
ATOM      7  C   UNL A   1      34.236  19.251  24.639  1.00  0.00     0.046 C 
ATOM      8  C   UNL A   1      34.357  20.748  24.739  1.00  0.00    -0.033 A 
ATOM      9  C   UNL A   1      33.152  21.470  24.756  1.00  0.00     0.051 A 
ATOM     10  C   UNL A   1      35.575  21.456  24.802  1.00  0.00     0.024 A 
ATOM     11  C   UNL A   1      33.142  22.862  24.792  1.00  0.00     0.128 A 
ATOM     12  C   UNL A   1      35.586  22.873  24.837  1.00  0.00    -0.026 A 
ATOM     13  Br  UNL A   1      37.221  20.478  24.840  1.00  0.00    -0.050 Br
ATOM     14  C   UNL A   1      34.345  23.569  24.813  1.00  0.00     0.021 A 
ATOM     15  O   UNL A   1      31.902  23.438  24.822  1.00  0.00    -0.475 OA
ATOM     16  C   UNL A   1      36.873  23.665  24.918  1.00  0.00     0.046 C 
ATOM     17  C   UNL A   1      34.266  25.026  24.778  1.00  0.00     0.027 C 
ATOM     18  C   UNL A   1      31.782  24.869  24.607  1.00  0.00     0.316 C 
BRANCH  18  19
ATOM     19  C   UNL A   1      31.056  25.112  23.273  1.00  0.00     0.430 C 
ATOM     20  F   UNL A   1      31.928  25.162  22.238  1.00  0.00    -0.167 F 
ATOM     21  F   UNL A   1      30.182  24.114  22.992  1.00  0.00    -0.167 F 
ATOM     22  F   UNL A   1      30.360  26.270  23.274  1.00  0.00    -0.167 F 
ENDBRANCH  18  19
ENDBRANCH   4   6
ENDBRANCH   3   4
ENDBRANCH   2   3
ENDBRANCH   1   2
BRANCH   1  23
ATOM     23  O   UNL A   1      32.366  30.062  26.729  1.00  0.00    -0.458 OA
BRANCH  23  24
ATOM     24  C   UNL A   1      32.937  31.226  27.113  1.00  0.00     0.338 C 
ATOM     25  O   UNL A   1      32.415  32.326  27.170  1.00  0.00    -0.246 OA
BRANCH  24  26
ATOM     26  C   UNL A   1      34.326  30.993  27.543  1.00  0.00     0.060 A 
ATOM     27  C   UNL A   1      34.750  29.688  27.757  1.00  0.00     0.016 A 
ATOM     28  C   UNL A   1      35.139  32.059  27.919  1.00  0.00     0.016 A 
ATOM     29  C   UNL A   1      35.912  29.445  28.483  1.00  0.00     0.010 A 
ATOM     30  C   UNL A   1      36.376  31.804  28.527  1.00  0.00     0.010 A 
ATOM     31  C   UNL A   1      36.757  30.495  28.871  1.00  0.00    -0.014 A 
BRANCH  31  32
ATOM     32  C   UNL A   1      37.994  30.223  29.666  1.00  0.00     0.031 A 
ATOM     33  C   UNL A   1      39.123  29.413  29.072  1.00  0.00     0.074 A 
ATOM     34  C   UNL A   1      38.147  30.730  30.908  1.00  0.00     0.049 A 
ATOM     35  N   UNL A   1      40.162  28.881  29.665  1.00  0.00    -0.248 NA
ATOM     36  C   UNL A   1      39.071  29.158  27.623  1.00  0.00     0.031 C 
ATOM     37  C   UNL A   1      37.190  31.595  31.600  1.00  0.00     0.029 A 
ATOM     38  N   UNL A   1      39.179  30.606  31.808  1.00  0.00    -0.354 N 
ATOM     39  C   UNL A   1      40.845  28.173  28.681  1.00  0.00     0.074 A 
ATOM     40  C   UNL A   1      40.106  28.347  27.450  1.00  0.00     0.031 C 
ATOM     41  C   UNL A   1      37.708  31.984  32.772  1.00  0.00     0.029 A 
ATOM     42  C   UNL A   1      38.972  31.291  32.982  1.00  0.00     0.049 A 
ATOM     43  H   UNL A   1      39.991  30.077  31.628  1.00  0.00     0.167 HD
ATOM     44  C   UNL A   1      41.980  27.442  28.799  1.00  0.00     0.037 A 
ATOM     45  C   UNL A   1      39.680  31.320  34.128  1.00  0.00     0.037 A 
ATOM     46  C   UNL A   1      42.750  27.326  30.011  1.00  0.00     0.049 A 
ATOM     47  C   UNL A   1      40.906  30.465  34.253  1.00  0.00     0.074 A 
ATOM     48  C   UNL A   1      43.899  26.588  30.238  1.00  0.00     0.029 A 
ATOM     49  N   UNL A   1      42.467  27.994  31.193  1.00  0.00    -0.354 N 
ATOM     50  N   UNL A   1      41.465  29.691  33.356  1.00  0.00    -0.248 NA
ATOM     51  C   UNL A   1      41.577  30.458  35.559  1.00  0.00     0.031 C 
ATOM     52  C   UNL A   1      44.295  26.785  31.565  1.00  0.00     0.029 A 
ATOM     53  C   UNL A   1      43.419  27.683  32.151  1.00  0.00     0.049 A 
ATOM     54  H   UNL A   1      41.702  28.598  31.332  1.00  0.00     0.167 HD
ATOM     55  C   UNL A   1      42.561  29.114  33.983  1.00  0.00     0.074 A 
ATOM     56  C   UNL A   1      42.597  29.642  35.332  1.00  0.00     0.031 C 
ATOM     57  C   UNL A   1      43.450  28.222  33.487  1.00  0.00     0.037 A 
BRANCH  44  58
ATOM     58  C   UNL A   1      42.453  26.675  27.596  1.00  0.00     0.057 A 
ATOM     59  C   UNL A   1      42.046  25.359  27.340  1.00  0.00     0.134 A 
ATOM     60  C   UNL A   1      43.275  27.292  26.643  1.00  0.00     0.134 A 
ATOM     61  F   UNL A   1      41.271  24.705  28.217  1.00  0.00    -0.206 F 
ATOM     62  C   UNL A   1      42.448  24.684  26.185  1.00  0.00     0.040 A 
ATOM     63  C   UNL A   1      43.662  26.636  25.472  1.00  0.00     0.040 A 
ATOM     64  F   UNL A   1      43.696  28.553  26.822  1.00  0.00    -0.206 F 
ATOM     65  C   UNL A   1      43.250  25.325  25.243  1.00  0.00     0.006 A 
ENDBRANCH  44  58
BRANCH  45  66
ATOM     66  C   UNL A   1      39.207  32.155  35.263  1.00  0.00     0.057 A 
ATOM     67  C   UNL A   1      39.545  33.509  35.350  1.00  0.00     0.134 A 
ATOM     68  C   UNL A   1      38.380  31.630  36.265  1.00  0.00     0.134 A 
ATOM     69  F   UNL A   1      40.356  34.064  34.438  1.00  0.00    -0.206 F 
ATOM     70  C   UNL A   1      39.070  34.315  36.387  1.00  0.00     0.040 A 
ATOM     71  C   UNL A   1      37.873  32.431  37.288  1.00  0.00     0.040 A 
ATOM     72  F   UNL A   1      38.021  30.338  36.239  1.00  0.00    -0.206 F 
ATOM     73  C   UNL A   1      38.220  33.778  37.353  1.00  0.00     0.006 A 
ENDBRANCH  45  66
BRANCH  57  74
ATOM     74  C   UNL A   1      44.566  27.789  34.390  1.00  0.00     0.057 A 
ATOM     75  C   UNL A   1      44.463  26.648  35.195  1.00  0.00     0.134 A 
ATOM     76  C   UNL A   1      45.771  28.501  34.423  1.00  0.00     0.134 A 
ATOM     77  F   UNL A   1      43.330  25.930  35.217  1.00  0.00    -0.206 F 
ATOM     78  C   UNL A   1      45.516  26.241  36.017  1.00  0.00     0.040 A 
ATOM     79  C   UNL A   1      46.838  28.091  35.222  1.00  0.00     0.040 A 
ATOM     80  F   UNL A   1      45.934  29.599  33.669  1.00  0.00    -0.206 F 
ATOM     81  C   UNL A   1      46.710  26.960  36.026  1.00  0.00     0.006 A 
ENDBRANCH  57  74
ENDBRANCH  31  32
ENDBRANCH  24  26
ENDBRANCH  23  24
ENDBRANCH   1  23
TORSDOF 12
ENDMDL
