MODEL 1
REMARK VINA RESULT:     -10.3      0.000      0.000
REMARK SMILES CCC[NH2+][C@@](C)(C[N@H+]1CCC(C)(C)C1)C(=O)OCCOC(=O)c1ccc(-c2c3nc(c(-c4c(F)cccc4F)c4ccc([nH]4)c(-c4c(F)cccc4F)c4nc(c(-c5c(F)cccc5F)c5ccc2[nH]5)C=C4)C=C3)cc1
REMARK SMILES IDX 18 1 17 2 15 3 16 4 5 5 6 6 4 7 3 10 2 11 1 12 7 13 8 14
REMARK SMILES IDX 9 15 14 16 10 18 11 19 12 20 13 21 19 22 20 23 21 24 22 25
REMARK SMILES IDX 23 26 24 27 76 28 25 29 75 30 26 31 27 32 28 33 69 34 29 35
REMARK SMILES IDX 74 36 68 37 70 38 30 39 73 40 67 41 66 42 31 44 57 45 40 46
REMARK SMILES IDX 56 47 41 48 44 49 55 50 71 51 42 52 43 53 54 55 72 56 45 57
REMARK SMILES IDX 32 58 33 59 38 60 34 61 35 62 37 63 39 64 36 65 58 66 59 67
REMARK SMILES IDX 64 68 60 69 61 70 63 71 65 72 62 73 46 74 47 75 52 76 48 77
REMARK SMILES IDX 49 78 51 79 53 80 50 81
REMARK H PARENT 4 8 4 9 8 17 70 43 44 54
REMARK Flexibility Score: inf
ROOT
ATOM      1  C   UNL A   1      37.741  20.149  24.968  1.00  0.00     0.274 C 
ENDROOT
BRANCH   1   2
ATOM      2  O   UNL A   1      37.236  21.411  24.430  1.00  0.00    -0.457 OA
BRANCH   2   3
ATOM      3  C   UNL A   1      36.736  22.292  25.358  1.00  0.00     0.373 C 
ATOM      4  O   UNL A   1      37.477  22.942  26.098  1.00  0.00    -0.244 OA
BRANCH   3   5
ATOM      5  C   UNL A   1      35.161  22.380  25.438  1.00  0.00     0.240 C 
ATOM      6  C   UNL A   1      34.821  21.719  26.807  1.00  0.00     0.099 C 
BRANCH   5   7
ATOM      7  N   UNL A   1      34.662  23.811  25.452  1.00  0.00    -0.328 N 
ATOM      8  H   UNL A   1      33.751  23.815  25.909  1.00  0.00     0.347 HD
ATOM      9  H   UNL A   1      35.384  24.342  25.937  1.00  0.00     0.347 HD
BRANCH   7  10
ATOM     10  C   UNL A   1      34.509  24.467  24.148  1.00  0.00     0.261 C 
BRANCH  10  11
ATOM     11  C   UNL A   1      33.846  25.854  24.216  1.00  0.00     0.058 C 
ATOM     12  C   UNL A   1      33.785  26.461  25.607  1.00  0.00     0.010 C 
ENDBRANCH  10  11
ENDBRANCH   7  10
ENDBRANCH   5   7
BRANCH   5  13
ATOM     13  C   UNL A   1      34.379  21.494  24.368  1.00  0.00     0.343 C 
BRANCH  13  14
ATOM     14  N   UNL A   1      33.624  20.250  24.548  1.00  0.00    -0.329 N 
ATOM     15  C   UNL A   1      32.276  20.020  24.086  1.00  0.00     0.263 C 
ATOM     16  C   UNL A   1      34.394  19.011  24.545  1.00  0.00     0.269 C 
ATOM     17  H   UNL A   1      33.395  20.586  25.484  1.00  0.00     0.348 HD
ATOM     18  C   UNL A   1      32.316  18.640  23.424  1.00  0.00     0.073 C 
ATOM     19  C   UNL A   1      33.411  17.885  24.178  1.00  0.00     0.019 C 
ATOM     20  C   UNL A   1      32.800  17.194  25.405  1.00  0.00     0.017 C 
ATOM     21  C   UNL A   1      34.097  16.833  23.297  1.00  0.00     0.017 C 
ENDBRANCH  13  14
ENDBRANCH   5  13
ENDBRANCH   3   5
ENDBRANCH   2   3
ENDBRANCH   1   2
BRANCH   1  22
ATOM     22  C   UNL A   1      39.146  20.283  25.631  1.00  0.00     0.275 C 
BRANCH  22  23
ATOM     23  O   UNL A   1      40.004  19.096  25.644  1.00  0.00    -0.458 OA
BRANCH  23  24
ATOM     24  C   UNL A   1      41.268  19.379  25.990  1.00  0.00     0.338 C 
ATOM     25  O   UNL A   1      42.170  18.559  25.934  1.00  0.00    -0.246 OA
BRANCH  24  26
ATOM     26  C   UNL A   1      41.653  20.682  26.532  1.00  0.00     0.060 A 
ATOM     27  C   UNL A   1      41.985  21.616  25.537  1.00  0.00     0.016 A 
ATOM     28  C   UNL A   1      41.929  20.962  27.866  1.00  0.00     0.016 A 
ATOM     29  C   UNL A   1      42.620  22.800  25.837  1.00  0.00     0.010 A 
ATOM     30  C   UNL A   1      42.515  22.200  28.185  1.00  0.00     0.010 A 
ATOM     31  C   UNL A   1      42.850  23.119  27.171  1.00  0.00    -0.014 A 
BRANCH  31  32
ATOM     32  C   UNL A   1      43.290  24.498  27.451  1.00  0.00     0.031 A 
ATOM     33  C   UNL A   1      44.712  24.917  27.283  1.00  0.00     0.074 A 
ATOM     34  C   UNL A   1      42.329  25.402  27.717  1.00  0.00     0.049 A 
ATOM     35  N   UNL A   1      45.268  26.056  27.600  1.00  0.00    -0.248 NA
ATOM     36  C   UNL A   1      45.623  23.950  26.653  1.00  0.00     0.031 C 
ATOM     37  C   UNL A   1      40.889  25.121  27.717  1.00  0.00     0.029 A 
ATOM     38  N   UNL A   1      42.407  26.736  28.009  1.00  0.00    -0.354 N 
ATOM     39  C   UNL A   1      46.600  25.943  27.227  1.00  0.00     0.074 A 
ATOM     40  C   UNL A   1      46.766  24.627  26.643  1.00  0.00     0.031 C 
ATOM     41  C   UNL A   1      40.222  26.249  27.993  1.00  0.00     0.029 A 
ATOM     42  C   UNL A   1      41.186  27.301  28.281  1.00  0.00     0.049 A 
ATOM     43  H   UNL A   1      43.253  27.240  28.023  1.00  0.00     0.167 HD
ATOM     44  C   UNL A   1      47.583  26.859  27.383  1.00  0.00     0.037 A 
ATOM     45  C   UNL A   1      40.885  28.512  28.779  1.00  0.00     0.037 A 
ATOM     46  C   UNL A   1      47.383  28.155  27.981  1.00  0.00     0.049 A 
ATOM     47  C   UNL A   1      42.011  29.445  29.098  1.00  0.00     0.074 A 
ATOM     48  C   UNL A   1      48.322  29.122  28.294  1.00  0.00     0.029 A 
ATOM     49  N   UNL A   1      46.145  28.664  28.351  1.00  0.00    -0.354 N 
ATOM     50  N   UNL A   1      43.296  29.286  28.882  1.00  0.00    -0.248 NA
ATOM     51  C   UNL A   1      41.659  30.705  29.758  1.00  0.00     0.031 C 
ATOM     52  C   UNL A   1      47.654  30.204  28.881  1.00  0.00     0.029 A 
ATOM     53  C   UNL A   1      46.296  29.926  28.900  1.00  0.00     0.049 A 
ATOM     54  H   UNL A   1      45.287  28.196  28.239  1.00  0.00     0.167 HD
ATOM     55  C   UNL A   1      43.905  30.431  29.367  1.00  0.00     0.074 A 
ATOM     56  C   UNL A   1      42.847  31.281  29.880  1.00  0.00     0.031 C 
ATOM     57  C   UNL A   1      45.222  30.750  29.390  1.00  0.00     0.037 A 
BRANCH  44  58
ATOM     58  C   UNL A   1      48.968  26.468  26.967  1.00  0.00     0.057 A 
ATOM     59  C   UNL A   1      49.832  25.772  27.821  1.00  0.00     0.134 A 
ATOM     60  C   UNL A   1      49.429  26.760  25.677  1.00  0.00     0.134 A 
ATOM     61  F   UNL A   1      49.455  25.476  29.074  1.00  0.00    -0.206 F 
ATOM     62  C   UNL A   1      51.110  25.389  27.409  1.00  0.00     0.040 A 
ATOM     63  C   UNL A   1      50.699  26.368  25.249  1.00  0.00     0.040 A 
ATOM     64  F   UNL A   1      48.650  27.422  24.810  1.00  0.00    -0.206 F 
ATOM     65  C   UNL A   1      51.544  25.683  26.117  1.00  0.00     0.006 A 
ENDBRANCH  44  58
BRANCH  45  66
ATOM     66  C   UNL A   1      39.475  28.852  29.086  1.00  0.00     0.057 A 
ATOM     67  C   UNL A   1      38.619  29.362  28.108  1.00  0.00     0.134 A 
ATOM     68  C   UNL A   1      38.946  28.652  30.370  1.00  0.00     0.134 A 
ATOM     69  F   UNL A   1      39.073  29.592  26.867  1.00  0.00    -0.206 F 
ATOM     70  C   UNL A   1      37.286  29.664  28.392  1.00  0.00     0.040 A 
ATOM     71  C   UNL A   1      37.610  28.923  30.661  1.00  0.00     0.040 A 
ATOM     72  F   UNL A   1      39.716  28.163  31.353  1.00  0.00    -0.206 F 
ATOM     73  C   UNL A   1      36.777  29.437  29.670  1.00  0.00     0.006 A 
ENDBRANCH  45  66
BRANCH  57  74
ATOM     74  C   UNL A   1      45.573  32.091  29.952  1.00  0.00     0.057 A 
ATOM     75  C   UNL A   1      45.889  32.259  31.305  1.00  0.00     0.134 A 
ATOM     76  C   UNL A   1      45.620  33.216  29.122  1.00  0.00     0.134 A 
ATOM     77  F   UNL A   1      45.842  31.218  32.149  1.00  0.00    -0.206 F 
ATOM     78  C   UNL A   1      46.228  33.511  31.818  1.00  0.00     0.040 A 
ATOM     79  C   UNL A   1      45.974  34.470  29.620  1.00  0.00     0.040 A 
ATOM     80  F   UNL A   1      45.328  33.114  27.817  1.00  0.00    -0.206 F 
ATOM     81  C   UNL A   1      46.277  34.619  30.973  1.00  0.00     0.006 A 
ENDBRANCH  57  74
ENDBRANCH  31  32
ENDBRANCH  24  26
ENDBRANCH  23  24
ENDBRANCH  22  23
ENDBRANCH   1  22
TORSDOF 16
ENDMDL
MODEL 2
REMARK VINA RESULT:     -10.1      0.681      3.054
REMARK SMILES CCC[NH2+][C@@](C)(C[N@H+]1CCC(C)(C)C1)C(=O)OCCOC(=O)c1ccc(-c2c3nc(c(-c4c(F)cccc4F)c4ccc([nH]4)c(-c4c(F)cccc4F)c4nc(c(-c5c(F)cccc5F)c5ccc2[nH]5)C=C4)C=C3)cc1
REMARK SMILES IDX 18 1 17 2 15 3 16 4 5 5 6 6 4 7 3 10 2 11 1 12 7 13 8 14
REMARK SMILES IDX 9 15 14 16 10 18 11 19 12 20 13 21 19 22 20 23 21 24 22 25
REMARK SMILES IDX 23 26 24 27 76 28 25 29 75 30 26 31 27 32 28 33 69 34 29 35
REMARK SMILES IDX 74 36 68 37 70 38 30 39 73 40 67 41 66 42 31 44 57 45 40 46
REMARK SMILES IDX 56 47 41 48 44 49 55 50 71 51 42 52 43 53 54 55 72 56 45 57
REMARK SMILES IDX 32 58 33 59 38 60 34 61 35 62 37 63 39 64 36 65 58 66 59 67
REMARK SMILES IDX 64 68 60 69 61 70 63 71 65 72 62 73 46 74 47 75 52 76 48 77
REMARK SMILES IDX 49 78 51 79 53 80 50 81
REMARK H PARENT 4 8 4 9 8 17 70 43 44 54
REMARK Flexibility Score: inf
ROOT
ATOM      1  C   UNL A   1      37.681  19.925  24.943  1.00  0.00     0.274 C 
ENDROOT
BRANCH   1   2
ATOM      2  O   UNL A   1      36.712  20.750  25.662  1.00  0.00    -0.457 OA
BRANCH   2   3
ATOM      3  C   UNL A   1      35.859  21.482  24.873  1.00  0.00     0.373 C 
ATOM      4  O   UNL A   1      36.262  22.111  23.892  1.00  0.00    -0.244 OA
BRANCH   3   5
ATOM      5  C   UNL A   1      34.347  21.497  25.331  1.00  0.00     0.240 C 
ATOM      6  C   UNL A   1      33.571  21.890  24.038  1.00  0.00     0.099 C 
BRANCH   5   7
ATOM      7  N   UNL A   1      33.868  20.134  25.789  1.00  0.00    -0.328 N 
ATOM      8  H   UNL A   1      34.541  19.784  26.471  1.00  0.00     0.347 HD
ATOM      9  H   UNL A   1      32.930  20.289  26.155  1.00  0.00     0.347 HD
BRANCH   7  10
ATOM     10  C   UNL A   1      33.714  19.108  24.750  1.00  0.00     0.261 C 
BRANCH  10  11
ATOM     11  C   UNL A   1      32.548  18.135  24.997  1.00  0.00     0.058 C 
ATOM     12  C   UNL A   1      32.966  16.733  25.404  1.00  0.00     0.010 C 
ENDBRANCH  10  11
ENDBRANCH   7  10
ENDBRANCH   5   7
BRANCH   5  13
ATOM     13  C   UNL A   1      33.969  22.637  26.379  1.00  0.00     0.343 C 
BRANCH  13  14
ATOM     14  N   UNL A   1      33.888  24.090  26.200  1.00  0.00    -0.329 N 
ATOM     15  C   UNL A   1      34.798  24.884  25.409  1.00  0.00     0.263 C 
ATOM     16  C   UNL A   1      32.551  24.675  26.199  1.00  0.00     0.269 C 
ATOM     17  H   UNL A   1      34.370  24.175  27.095  1.00  0.00     0.348 HD
ATOM     18  C   UNL A   1      33.899  25.810  24.585  1.00  0.00     0.073 C 
ATOM     19  C   UNL A   1      32.661  26.019  25.457  1.00  0.00     0.019 C 
ATOM     20  C   UNL A   1      32.896  27.209  26.396  1.00  0.00     0.017 C 
ATOM     21  C   UNL A   1      31.404  26.279  24.618  1.00  0.00     0.017 C 
ENDBRANCH  13  14
ENDBRANCH   5  13
ENDBRANCH   3   5
ENDBRANCH   2   3
ENDBRANCH   1   2
BRANCH   1  22
ATOM     22  C   UNL A   1      39.151  20.152  25.414  1.00  0.00     0.275 C 
BRANCH  22  23
ATOM     23  O   UNL A   1      39.966  18.967  25.683  1.00  0.00    -0.458 OA
BRANCH  23  24
ATOM     24  C   UNL A   1      41.230  19.275  26.009  1.00  0.00     0.338 C 
ATOM     25  O   UNL A   1      42.143  18.467  25.961  1.00  0.00    -0.246 OA
BRANCH  24  26
ATOM     26  C   UNL A   1      41.602  20.594  26.521  1.00  0.00     0.060 A 
ATOM     27  C   UNL A   1      42.034  21.473  25.514  1.00  0.00     0.016 A 
ATOM     28  C   UNL A   1      41.777  20.932  27.858  1.00  0.00     0.016 A 
ATOM     29  C   UNL A   1      42.670  22.657  25.809  1.00  0.00     0.010 A 
ATOM     30  C   UNL A   1      42.365  22.171  28.166  1.00  0.00     0.010 A 
ATOM     31  C   UNL A   1      42.802  23.035  27.141  1.00  0.00    -0.014 A 
BRANCH  31  32
ATOM     32  C   UNL A   1      43.250  24.416  27.393  1.00  0.00     0.031 A 
ATOM     33  C   UNL A   1      44.670  24.828  27.190  1.00  0.00     0.074 A 
ATOM     34  C   UNL A   1      42.298  25.326  27.664  1.00  0.00     0.049 A 
ATOM     35  N   UNL A   1      45.235  25.971  27.479  1.00  0.00    -0.248 NA
ATOM     36  C   UNL A   1      45.565  23.850  26.556  1.00  0.00     0.031 C 
ATOM     37  C   UNL A   1      40.857  25.049  27.697  1.00  0.00     0.029 A 
ATOM     38  N   UNL A   1      42.384  26.664  27.936  1.00  0.00    -0.354 N 
ATOM     39  C   UNL A   1      46.559  25.849  27.081  1.00  0.00     0.074 A 
ATOM     40  C   UNL A   1      46.710  24.524  26.513  1.00  0.00     0.031 C 
ATOM     41  C   UNL A   1      40.198  26.183  27.970  1.00  0.00     0.029 A 
ATOM     42  C   UNL A   1      41.170  27.236  28.224  1.00  0.00     0.049 A 
ATOM     43  H   UNL A   1      43.232  27.166  27.925  1.00  0.00     0.167 HD
ATOM     44  C   UNL A   1      47.547  26.764  27.204  1.00  0.00     0.037 A 
ATOM     45  C   UNL A   1      40.882  28.455  28.710  1.00  0.00     0.037 A 
ATOM     46  C   UNL A   1      47.362  28.069  27.787  1.00  0.00     0.049 A 
ATOM     47  C   UNL A   1      42.017  29.390  28.993  1.00  0.00     0.074 A 
ATOM     48  C   UNL A   1      48.309  29.038  28.068  1.00  0.00     0.029 A 
ATOM     49  N   UNL A   1      46.133  28.587  28.175  1.00  0.00    -0.354 N 
ATOM     50  N   UNL A   1      43.297  29.224  28.754  1.00  0.00    -0.248 NA
ATOM     51  C   UNL A   1      41.681  30.661  29.642  1.00  0.00     0.031 C 
ATOM     52  C   UNL A   1      47.656  30.130  28.652  1.00  0.00     0.029 A 
ATOM     53  C   UNL A   1      46.298  29.856  28.702  1.00  0.00     0.049 A 
ATOM     54  H   UNL A   1      45.272  28.120  28.086  1.00  0.00     0.167 HD
ATOM     55  C   UNL A   1      43.919  30.374  29.209  1.00  0.00     0.074 A 
ATOM     56  C   UNL A   1      42.873  31.235  29.732  1.00  0.00     0.031 C 
ATOM     57  C   UNL A   1      45.236  30.690  29.202  1.00  0.00     0.037 A 
BRANCH  44  58
ATOM     58  C   UNL A   1      48.923  26.363  26.766  1.00  0.00     0.057 A 
ATOM     59  C   UNL A   1      49.418  26.675  25.494  1.00  0.00     0.134 A 
ATOM     60  C   UNL A   1      49.776  25.686  27.645  1.00  0.00     0.134 A 
ATOM     61  F   UNL A   1      48.645  27.309  24.601  1.00  0.00    -0.206 F 
ATOM     62  C   UNL A   1      50.713  26.318  25.110  1.00  0.00     0.040 A 
ATOM     63  C   UNL A   1      51.077  25.338  27.279  1.00  0.00     0.040 A 
ATOM     64  F   UNL A   1      49.362  25.359  28.878  1.00  0.00    -0.206 F 
ATOM     65  C   UNL A   1      51.548  25.652  26.006  1.00  0.00     0.006 A 
ENDBRANCH  44  58
BRANCH  45  66
ATOM     66  C   UNL A   1      39.480  28.804  29.041  1.00  0.00     0.057 A 
ATOM     67  C   UNL A   1      38.627  29.370  28.090  1.00  0.00     0.134 A 
ATOM     68  C   UNL A   1      38.955  28.556  30.317  1.00  0.00     0.134 A 
ATOM     69  F   UNL A   1      39.077  29.647  26.859  1.00  0.00    -0.206 F 
ATOM     70  C   UNL A   1      37.300  29.680  28.396  1.00  0.00     0.040 A 
ATOM     71  C   UNL A   1      37.625  28.835  30.628  1.00  0.00     0.040 A 
ATOM     72  F   UNL A   1      39.722  28.012  31.273  1.00  0.00    -0.206 F 
ATOM     73  C   UNL A   1      36.794  29.405  29.666  1.00  0.00     0.006 A 
ENDBRANCH  45  66
BRANCH  57  74
ATOM     74  C   UNL A   1      45.602  32.038  29.737  1.00  0.00     0.057 A 
ATOM     75  C   UNL A   1      45.966  32.221  31.075  1.00  0.00     0.134 A 
ATOM     76  C   UNL A   1      45.614  33.155  28.894  1.00  0.00     0.134 A 
ATOM     77  F   UNL A   1      45.955  31.189  31.931  1.00  0.00    -0.206 F 
ATOM     78  C   UNL A   1      46.319  33.480  31.563  1.00  0.00     0.040 A 
ATOM     79  C   UNL A   1      45.980  34.415  29.367  1.00  0.00     0.040 A 
ATOM     80  F   UNL A   1      45.275  33.039  27.602  1.00  0.00    -0.206 F 
ATOM     81  C   UNL A   1      46.332  34.580  30.706  1.00  0.00     0.006 A 
ENDBRANCH  57  74
ENDBRANCH  31  32
ENDBRANCH  24  26
ENDBRANCH  23  24
ENDBRANCH  22  23
ENDBRANCH   1  22
TORSDOF 16
ENDMDL
MODEL 3
REMARK VINA RESULT:     -10.0      3.501      8.416
REMARK SMILES CCC[NH2+][C@@](C)(C[N@H+]1CCC(C)(C)C1)C(=O)OCCOC(=O)c1ccc(-c2c3nc(c(-c4c(F)cccc4F)c4ccc([nH]4)c(-c4c(F)cccc4F)c4nc(c(-c5c(F)cccc5F)c5ccc2[nH]5)C=C4)C=C3)cc1
REMARK SMILES IDX 18 1 17 2 15 3 16 4 5 5 6 6 4 7 3 10 2 11 1 12 7 13 8 14
REMARK SMILES IDX 9 15 14 16 10 18 11 19 12 20 13 21 19 22 20 23 21 24 22 25
REMARK SMILES IDX 23 26 24 27 76 28 25 29 75 30 26 31 27 32 28 33 69 34 29 35
REMARK SMILES IDX 74 36 68 37 70 38 30 39 73 40 67 41 66 42 31 44 57 45 40 46
REMARK SMILES IDX 56 47 41 48 44 49 55 50 71 51 42 52 43 53 54 55 72 56 45 57
REMARK SMILES IDX 32 58 33 59 38 60 34 61 35 62 37 63 39 64 36 65 58 66 59 67
REMARK SMILES IDX 64 68 60 69 61 70 63 71 65 72 62 73 46 74 47 75 52 76 48 77
REMARK SMILES IDX 49 78 51 79 53 80 50 81
REMARK H PARENT 4 8 4 9 8 17 70 43 44 54
REMARK Flexibility Score: inf
ROOT
ATOM      1  C   UNL A   1      32.310  30.019  26.778  1.00  0.00     0.274 C 
ENDROOT
BRANCH   1   2
ATOM      2  O   UNL A   1      32.496  29.825  25.340  1.00  0.00    -0.457 OA
BRANCH   2   3
ATOM      3  C   UNL A   1      33.075  28.635  24.975  1.00  0.00     0.373 C 
ATOM      4  O   UNL A   1      34.286  28.439  25.098  1.00  0.00    -0.244 OA
BRANCH   3   5
ATOM      5  C   UNL A   1      32.098  27.562  24.352  1.00  0.00     0.240 C 
ATOM      6  C   UNL A   1      32.391  27.634  22.823  1.00  0.00     0.099 C 
BRANCH   5   7
ATOM      7  N   UNL A   1      32.397  26.158  24.837  1.00  0.00    -0.328 N 
ATOM      8  H   UNL A   1      32.701  25.611  24.031  1.00  0.00     0.347 HD
ATOM      9  H   UNL A   1      33.100  26.269  25.566  1.00  0.00     0.347 HD
BRANCH   7  10
ATOM     10  C   UNL A   1      31.291  25.433  25.474  1.00  0.00     0.261 C 
BRANCH  10  11
ATOM     11  C   UNL A   1      30.930  24.105  24.785  1.00  0.00     0.058 C 
ATOM     12  C   UNL A   1      30.594  24.226  23.309  1.00  0.00     0.010 C 
ENDBRANCH  10  11
ENDBRANCH   7  10
ENDBRANCH   5   7
BRANCH   5  13
ATOM     13  C   UNL A   1      30.546  27.909  24.472  1.00  0.00     0.343 C 
BRANCH  13  14
ATOM     14  N   UNL A   1      29.637  28.503  23.488  1.00  0.00    -0.329 N 
ATOM     15  C   UNL A   1      28.382  27.930  23.062  1.00  0.00     0.263 C 
ATOM     16  C   UNL A   1      29.587  29.960  23.439  1.00  0.00     0.269 C 
ATOM     17  H   UNL A   1      30.230  28.090  22.768  1.00  0.00     0.348 HD
ATOM     18  C   UNL A   1      27.387  29.094  23.093  1.00  0.00     0.073 C 
ATOM     19  C   UNL A   1      28.236  30.332  22.803  1.00  0.00     0.019 C 
ATOM     20  C   UNL A   1      28.322  30.546  21.286  1.00  0.00     0.017 C 
ATOM     21  C   UNL A   1      27.657  31.593  23.458  1.00  0.00     0.017 C 
ENDBRANCH  13  14
ENDBRANCH   5  13
ENDBRANCH   3   5
ENDBRANCH   2   3
ENDBRANCH   1   2
BRANCH   1  22
ATOM     22  C   UNL A   1      33.414  30.911  27.425  1.00  0.00     0.275 C 
BRANCH  22  23
ATOM     23  O   UNL A   1      34.786  30.401  27.416  1.00  0.00    -0.458 OA
BRANCH  23  24
ATOM     24  C   UNL A   1      35.439  30.663  28.558  1.00  0.00     0.338 C 
ATOM     25  O   UNL A   1      34.946  31.306  29.471  1.00  0.00    -0.246 OA
BRANCH  24  26
ATOM     26  C   UNL A   1      36.828  30.257  28.771  1.00  0.00     0.060 A 
ATOM     27  C   UNL A   1      37.564  30.169  27.578  1.00  0.00     0.016 A 
ATOM     28  C   UNL A   1      37.359  29.753  29.953  1.00  0.00     0.016 A 
ATOM     29  C   UNL A   1      38.796  29.557  27.530  1.00  0.00     0.010 A 
ATOM     30  C   UNL A   1      38.647  29.188  29.924  1.00  0.00     0.010 A 
ATOM     31  C   UNL A   1      39.365  29.100  28.714  1.00  0.00    -0.014 A 
BRANCH  31  32
ATOM     32  C   UNL A   1      40.781  28.693  28.650  1.00  0.00     0.031 A 
ATOM     33  C   UNL A   1      41.884  29.640  28.984  1.00  0.00     0.074 A 
ATOM     34  C   UNL A   1      41.031  27.390  28.428  1.00  0.00     0.049 A 
ATOM     35  N   UNL A   1      43.174  29.463  28.864  1.00  0.00    -0.248 NA
ATOM     36  C   UNL A   1      41.499  30.939  29.556  1.00  0.00     0.031 C 
ATOM     37  C   UNL A   1      40.005  26.352  28.276  1.00  0.00     0.029 A 
ATOM     38  N   UNL A   1      42.212  26.708  28.318  1.00  0.00    -0.354 N 
ATOM     39  C   UNL A   1      43.760  30.633  29.324  1.00  0.00     0.074 A 
ATOM     40  C   UNL A   1      42.685  31.510  29.744  1.00  0.00     0.031 C 
ATOM     41  C   UNL A   1      40.602  25.167  28.096  1.00  0.00     0.029 A 
ATOM     42  C   UNL A   1      42.041  25.378  28.025  1.00  0.00     0.049 A 
ATOM     43  H   UNL A   1      43.094  27.128  28.437  1.00  0.00     0.167 HD
ATOM     44  C   UNL A   1      45.078  30.937  29.368  1.00  0.00     0.037 A 
ATOM     45  C   UNL A   1      42.943  24.449  27.665  1.00  0.00     0.037 A 
ATOM     46  C   UNL A   1      46.120  30.043  28.928  1.00  0.00     0.049 A 
ATOM     47  C   UNL A   1      44.378  24.861  27.560  1.00  0.00     0.074 A 
ATOM     48  C   UNL A   1      47.478  30.281  28.818  1.00  0.00     0.029 A 
ATOM     49  N   UNL A   1      45.909  28.730  28.529  1.00  0.00    -0.354 N 
ATOM     50  N   UNL A   1      44.925  26.016  27.856  1.00  0.00    -0.248 NA
ATOM     51  C   UNL A   1      45.317  23.860  27.042  1.00  0.00     0.031 C 
ATOM     52  C   UNL A   1      48.085  29.119  28.325  1.00  0.00     0.029 A 
ATOM     53  C   UNL A   1      47.110  28.148  28.161  1.00  0.00     0.049 A 
ATOM     54  H   UNL A   1      45.034  28.280  28.510  1.00  0.00     0.167 HD
ATOM     55  C   UNL A   1      46.274  25.880  27.574  1.00  0.00     0.074 A 
ATOM     56  C   UNL A   1      46.464  24.524  27.091  1.00  0.00     0.031 C 
ATOM     57  C   UNL A   1      47.266  26.794  27.697  1.00  0.00     0.037 A 
BRANCH  44  58
ATOM     58  C   UNL A   1      45.459  32.307  29.839  1.00  0.00     0.057 A 
ATOM     59  C   UNL A   1      45.489  33.408  28.975  1.00  0.00     0.134 A 
ATOM     60  C   UNL A   1      45.764  32.532  31.187  1.00  0.00     0.134 A 
ATOM     61  F   UNL A   1      45.222  33.255  27.670  1.00  0.00    -0.206 F 
ATOM     62  C   UNL A   1      45.820  34.684  29.435  1.00  0.00     0.040 A 
ATOM     63  C   UNL A   1      46.080  33.806  31.662  1.00  0.00     0.040 A 
ATOM     64  F   UNL A   1      45.751  31.519  32.065  1.00  0.00    -0.206 F 
ATOM     65  C   UNL A   1      46.110  34.887  30.784  1.00  0.00     0.006 A 
ENDBRANCH  44  58
BRANCH  45  66
ATOM     66  C   UNL A   1      42.489  23.087  27.292  1.00  0.00     0.057 A 
ATOM     67  C   UNL A   1      42.348  22.708  25.956  1.00  0.00     0.134 A 
ATOM     68  C   UNL A   1      42.208  22.125  28.273  1.00  0.00     0.134 A 
ATOM     69  F   UNL A   1      42.585  23.590  24.975  1.00  0.00    -0.206 F 
ATOM     70  C   UNL A   1      41.940  21.419  25.604  1.00  0.00     0.040 A 
ATOM     71  C   UNL A   1      41.827  20.827  27.935  1.00  0.00     0.040 A 
ATOM     72  F   UNL A   1      42.327  22.426  29.574  1.00  0.00    -0.206 F 
ATOM     73  C   UNL A   1      41.687  20.473  26.596  1.00  0.00     0.006 A 
ENDBRANCH  45  66
BRANCH  57  74
ATOM     74  C   UNL A   1      48.645  26.333  27.344  1.00  0.00     0.057 A 
ATOM     75  C   UNL A   1      49.171  26.514  26.060  1.00  0.00     0.134 A 
ATOM     76  C   UNL A   1      49.458  25.727  28.308  1.00  0.00     0.134 A 
ATOM     77  F   UNL A   1      48.429  27.072  25.093  1.00  0.00    -0.206 F 
ATOM     78  C   UNL A   1      50.463  26.093  25.742  1.00  0.00     0.040 A 
ATOM     79  C   UNL A   1      50.757  25.318  28.006  1.00  0.00     0.040 A 
ATOM     80  F   UNL A   1      49.007  25.530  29.555  1.00  0.00    -0.206 F 
ATOM     81  C   UNL A   1      51.261  25.498  26.719  1.00  0.00     0.006 A 
ENDBRANCH  57  74
ENDBRANCH  31  32
ENDBRANCH  24  26
ENDBRANCH  23  24
ENDBRANCH  22  23
ENDBRANCH   1  22
TORSDOF 16
ENDMDL
