MODEL 1
REMARK VINA RESULT:     -10.5      0.000      0.000
REMARK SMILES C=CCN(CC(=O)OCCOC(=O)c1ccc(-c2c3nc(c(-c4c(F)cccc4F)c4ccc([nH]4)c(-c4c(F)cccc4F)c4nc(c(-c5c(F)cccc5F)c5ccc2[nH]5)C=C4)C=C3)cc1)C(=O)NC[C@@H]1CCC(=O)N1
REMARK SMILES IDX 9 1 8 2 6 3 7 4 5 5 4 6 3 7 2 8 1 9 68 10 69 11 70 12 71 14
REMARK SMILES IDX 72 15 73 16 77 17 74 18 75 19 76 21 10 22 11 23 12 24 13 25
REMARK SMILES IDX 14 26 15 27 67 28 16 29 66 30 17 31 18 32 19 33 60 34 20 35
REMARK SMILES IDX 65 36 59 37 61 38 21 39 64 40 58 41 57 42 22 44 48 45 31 46
REMARK SMILES IDX 47 47 32 48 35 49 46 50 62 51 33 52 34 53 45 55 63 56 36 57
REMARK SMILES IDX 23 58 24 59 29 60 25 61 26 62 28 63 30 64 27 65 49 66 50 67
REMARK SMILES IDX 55 68 51 69 52 70 54 71 56 72 53 73 37 74 38 75 43 76 39 77
REMARK SMILES IDX 40 78 42 79 44 80 41 81
REMARK H PARENT 70 13 77 20 61 43 35 54
REMARK Flexibility Score: inf
ROOT
ATOM      1  C   UNL A   1      37.554  19.787  24.608  1.00  0.00     0.274 C 
ENDROOT
BRANCH   1   2
ATOM      2  O   UNL A   1      36.381  20.399  25.172  1.00  0.00    -0.461 OA
BRANCH   2   3
ATOM      3  C   UNL A   1      36.246  21.716  24.876  1.00  0.00     0.325 C 
ATOM      4  O   UNL A   1      36.488  22.205  23.775  1.00  0.00    -0.250 OA
BRANCH   3   5
ATOM      5  C   UNL A   1      35.683  22.529  26.032  1.00  0.00     0.244 C 
BRANCH   5   6
ATOM      6  N   UNL A   1      34.224  22.581  26.301  1.00  0.00    -0.310 N 
BRANCH   6   7
ATOM      7  C   UNL A   1      33.707  23.938  26.446  1.00  0.00     0.149 C 
BRANCH   7   8
ATOM      8  C   UNL A   1      34.330  24.900  25.463  1.00  0.00    -0.013 C 
ATOM      9  C   UNL A   1      34.019  26.200  25.387  1.00  0.00     0.006 C 
ENDBRANCH   7   8
ENDBRANCH   6   7
BRANCH   6  10
ATOM     10  C   UNL A   1      33.371  21.640  25.710  1.00  0.00     0.318 C 
ATOM     11  O   UNL A   1      32.699  21.895  24.714  1.00  0.00    -0.249 OA
ATOM     12  N   UNL A   1      33.285  20.412  26.356  1.00  0.00    -0.336 N 
ATOM     13  H   UNL A   1      33.535  20.331  27.305  1.00  0.00     0.165 HD
BRANCH  12  14
ATOM     14  C   UNL A   1      32.818  19.234  25.609  1.00  0.00     0.142 C 
BRANCH  14  15
ATOM     15  C   UNL A   1      33.811  18.238  24.924  1.00  0.00     0.101 C 
ATOM     16  C   UNL A   1      33.508  17.729  23.516  1.00  0.00     0.036 C 
ATOM     17  N   UNL A   1      33.864  16.985  25.662  1.00  0.00    -0.352 N 
ATOM     18  C   UNL A   1      33.992  16.280  23.445  1.00  0.00     0.102 C 
ATOM     19  C   UNL A   1      33.975  15.860  24.881  1.00  0.00     0.220 C 
ATOM     20  H   UNL A   1      33.824  16.948  26.645  1.00  0.00     0.163 HD
ATOM     21  O   UNL A   1      34.063  14.715  25.297  1.00  0.00    -0.275 OA
ENDBRANCH  14  15
ENDBRANCH  12  14
ENDBRANCH   6  10
ENDBRANCH   5   6
ENDBRANCH   3   5
ENDBRANCH   2   3
ENDBRANCH   1   2
BRANCH   1  22
ATOM     22  C   UNL A   1      38.759  20.085  25.505  1.00  0.00     0.275 C 
BRANCH  22  23
ATOM     23  O   UNL A   1      39.814  19.084  25.603  1.00  0.00    -0.458 OA
BRANCH  23  24
ATOM     24  C   UNL A   1      41.010  19.565  25.995  1.00  0.00     0.338 C 
ATOM     25  O   UNL A   1      42.020  18.888  26.134  1.00  0.00    -0.246 OA
BRANCH  24  26
ATOM     26  C   UNL A   1      41.145  20.926  26.496  1.00  0.00     0.060 A 
ATOM     27  C   UNL A   1      41.753  21.877  25.669  1.00  0.00     0.016 A 
ATOM     28  C   UNL A   1      41.178  21.081  27.886  1.00  0.00     0.016 A 
ATOM     29  C   UNL A   1      42.354  23.004  26.239  1.00  0.00     0.010 A 
ATOM     30  C   UNL A   1      41.794  22.186  28.456  1.00  0.00     0.010 A 
ATOM     31  C   UNL A   1      42.362  23.168  27.637  1.00  0.00    -0.014 A 
BRANCH  31  32
ATOM     32  C   UNL A   1      42.651  24.470  28.274  1.00  0.00     0.031 A 
ATOM     33  C   UNL A   1      41.615  25.536  28.458  1.00  0.00     0.074 A 
ATOM     34  C   UNL A   1      43.961  24.742  28.411  1.00  0.00     0.049 A 
ATOM     35  N   UNL A   1      41.779  26.775  28.849  1.00  0.00    -0.248 NA
ATOM     36  C   UNL A   1      40.225  25.189  28.129  1.00  0.00     0.031 C 
ATOM     37  C   UNL A   1      45.044  23.802  28.092  1.00  0.00     0.029 A 
ATOM     38  N   UNL A   1      44.611  25.890  28.762  1.00  0.00    -0.354 N 
ATOM     39  C   UNL A   1      40.521  27.363  28.804  1.00  0.00     0.074 A 
ATOM     40  C   UNL A   1      39.605  26.349  28.320  1.00  0.00     0.031 C 
ATOM     41  C   UNL A   1      46.220  24.424  28.222  1.00  0.00     0.029 A 
ATOM     42  C   UNL A   1      45.974  25.798  28.634  1.00  0.00     0.049 A 
ATOM     43  H   UNL A   1      44.149  26.701  29.077  1.00  0.00     0.167 HD
ATOM     44  C   UNL A   1      40.179  28.632  29.144  1.00  0.00     0.037 A 
ATOM     45  C   UNL A   1      46.931  26.719  28.823  1.00  0.00     0.037 A 
ATOM     46  C   UNL A   1      41.126  29.614  29.618  1.00  0.00     0.049 A 
ATOM     47  C   UNL A   1      46.527  28.073  29.299  1.00  0.00     0.074 A 
ATOM     48  C   UNL A   1      40.883  30.882  30.119  1.00  0.00     0.029 A 
ATOM     49  N   UNL A   1      42.505  29.442  29.628  1.00  0.00    -0.354 N 
ATOM     50  N   UNL A   1      45.321  28.572  29.421  1.00  0.00    -0.248 NA
ATOM     51  C   UNL A   1      47.605  28.977  29.709  1.00  0.00     0.031 C 
ATOM     52  C   UNL A   1      42.113  31.489  30.396  1.00  0.00     0.029 A 
ATOM     53  C   UNL A   1      43.123  30.583  30.114  1.00  0.00     0.049 A 
ATOM     54  H   UNL A   1      42.973  28.629  29.333  1.00  0.00     0.167 HD
ATOM     55  C   UNL A   1      45.489  29.836  29.958  1.00  0.00     0.074 A 
ATOM     56  C   UNL A   1      46.916  30.026  30.136  1.00  0.00     0.031 C 
ATOM     57  C   UNL A   1      44.544  30.750  30.285  1.00  0.00     0.037 A 
BRANCH  44  58
ATOM     58  C   UNL A   1      38.733  29.038  29.048  1.00  0.00     0.057 A 
ATOM     59  C   UNL A   1      37.873  28.972  30.153  1.00  0.00     0.134 A 
ATOM     60  C   UNL A   1      38.215  29.597  27.871  1.00  0.00     0.134 A 
ATOM     61  F   UNL A   1      38.301  28.458  31.317  1.00  0.00    -0.206 F 
ATOM     62  C   UNL A   1      36.553  29.427  30.087  1.00  0.00     0.040 A 
ATOM     63  C   UNL A   1      36.904  30.078  27.799  1.00  0.00     0.040 A 
ATOM     64  F   UNL A   1      38.981  29.712  26.775  1.00  0.00    -0.206 F 
ATOM     65  C   UNL A   1      36.068  29.991  28.909  1.00  0.00     0.006 A 
ENDBRANCH  44  58
BRANCH  45  66
ATOM     66  C   UNL A   1      48.345  26.312  28.670  1.00  0.00     0.057 A 
ATOM     67  C   UNL A   1      49.033  26.598  27.487  1.00  0.00     0.134 A 
ATOM     68  C   UNL A   1      49.071  25.761  29.732  1.00  0.00     0.134 A 
ATOM     69  F   UNL A   1      48.387  27.142  26.447  1.00  0.00    -0.206 F 
ATOM     70  C   UNL A   1      50.397  26.341  27.359  1.00  0.00     0.040 A 
ATOM     71  C   UNL A   1      50.440  25.514  29.622  1.00  0.00     0.040 A 
ATOM     72  F   UNL A   1      48.472  25.506  30.904  1.00  0.00    -0.206 F 
ATOM     73  C   UNL A   1      51.105  25.804  28.432  1.00  0.00     0.006 A 
ENDBRANCH  45  66
BRANCH  57  74
ATOM     74  C   UNL A   1      45.028  32.021  30.909  1.00  0.00     0.057 A 
ATOM     75  C   UNL A   1      45.342  33.148  30.142  1.00  0.00     0.134 A 
ATOM     76  C   UNL A   1      45.155  32.122  32.300  1.00  0.00     0.134 A 
ATOM     77  F   UNL A   1      45.258  33.105  28.804  1.00  0.00    -0.206 F 
ATOM     78  C   UNL A   1      45.784  34.330  30.737  1.00  0.00     0.040 A 
ATOM     79  C   UNL A   1      45.575  33.304  32.907  1.00  0.00     0.040 A 
ATOM     80  F   UNL A   1      44.868  31.075  33.089  1.00  0.00    -0.206 F 
ATOM     81  C   UNL A   1      45.896  34.412  32.124  1.00  0.00     0.006 A 
ENDBRANCH  57  74
ENDBRANCH  31  32
ENDBRANCH  24  26
ENDBRANCH  23  24
ENDBRANCH  22  23
ENDBRANCH   1  22
TORSDOF 17
ENDMDL
MODEL 2
REMARK VINA RESULT:     -10.3      5.709     10.554
REMARK SMILES C=CCN(CC(=O)OCCOC(=O)c1ccc(-c2c3nc(c(-c4c(F)cccc4F)c4ccc([nH]4)c(-c4c(F)cccc4F)c4nc(c(-c5c(F)cccc5F)c5ccc2[nH]5)C=C4)C=C3)cc1)C(=O)NC[C@@H]1CCC(=O)N1
REMARK SMILES IDX 9 1 8 2 6 3 7 4 5 5 4 6 3 7 2 8 1 9 68 10 69 11 70 12 71 14
REMARK SMILES IDX 72 15 73 16 77 17 74 18 75 19 76 21 10 22 11 23 12 24 13 25
REMARK SMILES IDX 14 26 15 27 67 28 16 29 66 30 17 31 18 32 19 33 60 34 20 35
REMARK SMILES IDX 65 36 59 37 61 38 21 39 64 40 58 41 57 42 22 44 48 45 31 46
REMARK SMILES IDX 47 47 32 48 35 49 46 50 62 51 33 52 34 53 45 55 63 56 36 57
REMARK SMILES IDX 23 58 24 59 29 60 25 61 26 62 28 63 30 64 27 65 49 66 50 67
REMARK SMILES IDX 55 68 51 69 52 70 54 71 56 72 53 73 37 74 38 75 43 76 39 77
REMARK SMILES IDX 40 78 42 79 44 80 41 81
REMARK H PARENT 70 13 77 20 61 43 35 54
REMARK Flexibility Score: inf
ROOT
ATOM      1  C   UNL A   1      31.386  31.627  25.965  1.00  0.00     0.274 C 
ENDROOT
BRANCH   1   2
ATOM      2  O   UNL A   1      31.471  30.205  26.170  1.00  0.00    -0.461 OA
BRANCH   2   3
ATOM      3  C   UNL A   1      32.693  29.680  25.902  1.00  0.00     0.325 C 
ATOM      4  O   UNL A   1      33.538  29.423  26.756  1.00  0.00    -0.250 OA
BRANCH   3   5
ATOM      5  C   UNL A   1      32.889  29.359  24.427  1.00  0.00     0.244 C 
BRANCH   5   6
ATOM      6  N   UNL A   1      32.178  28.227  23.781  1.00  0.00    -0.310 N 
BRANCH   6   7
ATOM      7  C   UNL A   1      32.213  26.996  24.562  1.00  0.00     0.149 C 
BRANCH   7   8
ATOM      8  C   UNL A   1      33.604  26.417  24.664  1.00  0.00    -0.013 C 
ATOM      9  C   UNL A   1      33.991  25.561  25.618  1.00  0.00     0.006 C 
ENDBRANCH   7   8
ENDBRANCH   6   7
BRANCH   6  10
ATOM     10  C   UNL A   1      31.017  28.468  23.033  1.00  0.00     0.318 C 
ATOM     11  O   UNL A   1      30.896  28.096  21.868  1.00  0.00    -0.249 OA
ATOM     12  N   UNL A   1      30.030  29.210  23.670  1.00  0.00    -0.336 N 
ATOM     13  H   UNL A   1      30.258  29.785  24.437  1.00  0.00     0.165 HD
BRANCH  12  14
ATOM     14  C   UNL A   1      28.642  29.127  23.191  1.00  0.00     0.142 C 
BRANCH  14  15
ATOM     15  C   UNL A   1      27.883  30.373  22.623  1.00  0.00     0.101 C 
ATOM     16  C   UNL A   1      28.114  30.791  21.172  1.00  0.00     0.036 C 
ATOM     17  N   UNL A   1      28.291  31.580  23.325  1.00  0.00    -0.352 N 
ATOM     18  C   UNL A   1      28.053  32.319  21.128  1.00  0.00     0.102 C 
ATOM     19  C   UNL A   1      28.392  32.700  22.535  1.00  0.00     0.220 C 
ATOM     20  H   UNL A   1      28.480  31.593  24.291  1.00  0.00     0.163 HD
ATOM     21  O   UNL A   1      28.690  33.818  22.925  1.00  0.00    -0.275 OA
ENDBRANCH  14  15
ENDBRANCH  12  14
ENDBRANCH   6  10
ENDBRANCH   5   6
ENDBRANCH   3   5
ENDBRANCH   2   3
ENDBRANCH   1   2
BRANCH   1  22
ATOM     22  C   UNL A   1      31.794  32.346  27.254  1.00  0.00     0.275 C 
BRANCH  22  23
ATOM     23  O   UNL A   1      32.138  33.761  27.178  1.00  0.00    -0.458 OA
BRANCH  23  24
ATOM     24  C   UNL A   1      32.942  34.198  28.168  1.00  0.00     0.338 C 
ATOM     25  O   UNL A   1      32.854  35.295  28.702  1.00  0.00    -0.246 OA
BRANCH  24  26
ATOM     26  C   UNL A   1      34.138  33.459  28.544  1.00  0.00     0.060 A 
ATOM     27  C   UNL A   1      34.014  32.439  29.494  1.00  0.00     0.016 A 
ATOM     28  C   UNL A   1      35.360  34.121  28.382  1.00  0.00     0.016 A 
ATOM     29  C   UNL A   1      35.128  32.057  30.249  1.00  0.00     0.010 A 
ATOM     30  C   UNL A   1      36.462  33.761  29.145  1.00  0.00     0.010 A 
ATOM     31  C   UNL A   1      36.361  32.709  30.063  1.00  0.00    -0.014 A 
BRANCH  31  32
ATOM     32  C   UNL A   1      37.634  32.137  30.550  1.00  0.00     0.031 A 
ATOM     33  C   UNL A   1      38.356  31.033  29.842  1.00  0.00     0.074 A 
ATOM     34  C   UNL A   1      37.945  32.472  31.816  1.00  0.00     0.049 A 
ATOM     35  N   UNL A   1      39.387  30.336  30.252  1.00  0.00    -0.248 NA
ATOM     36  C   UNL A   1      37.843  30.628  28.525  1.00  0.00     0.031 C 
ATOM     37  C   UNL A   1      37.184  33.425  32.635  1.00  0.00     0.029 A 
ATOM     38  N   UNL A   1      38.907  32.000  32.662  1.00  0.00    -0.354 N 
ATOM     39  C   UNL A   1      39.642  29.403  29.254  1.00  0.00     0.074 A 
ATOM     40  C   UNL A   1      38.638  29.605  28.229  1.00  0.00     0.031 C 
ATOM     41  C   UNL A   1      37.683  33.436  33.875  1.00  0.00     0.029 A 
ATOM     42  C   UNL A   1      38.793  32.498  33.936  1.00  0.00     0.049 A 
ATOM     43  H   UNL A   1      39.611  31.370  32.387  1.00  0.00     0.167 HD
ATOM     44  C   UNL A   1      40.631  28.474  29.213  1.00  0.00     0.037 A 
ATOM     45  C   UNL A   1      39.503  32.229  35.042  1.00  0.00     0.037 A 
ATOM     46  C   UNL A   1      41.610  28.302  30.262  1.00  0.00     0.049 A 
ATOM     47  C   UNL A   1      40.650  31.282  34.935  1.00  0.00     0.074 A 
ATOM     48  C   UNL A   1      42.734  27.493  30.274  1.00  0.00     0.029 A 
ATOM     49  N   UNL A   1      41.565  28.939  31.495  1.00  0.00    -0.354 N 
ATOM     50  N   UNL A   1      40.994  30.524  33.924  1.00  0.00    -0.248 NA
ATOM     51  C   UNL A   1      41.536  31.185  36.099  1.00  0.00     0.031 C 
ATOM     52  C   UNL A   1      43.346  27.612  31.527  1.00  0.00     0.029 A 
ATOM     53  C   UNL A   1      42.633  28.532  32.279  1.00  0.00     0.049 A 
ATOM     54  H   UNL A   1      40.876  29.584  31.772  1.00  0.00     0.167 HD
ATOM     55  C   UNL A   1      42.159  29.885  34.311  1.00  0.00     0.074 A 
ATOM     56  C   UNL A   1      42.461  30.346  35.652  1.00  0.00     0.031 C 
ATOM     57  C   UNL A   1      42.916  29.006  33.610  1.00  0.00     0.037 A 
BRANCH  44  58
ATOM     58  C   UNL A   1      40.735  27.587  28.001  1.00  0.00     0.057 A 
ATOM     59  C   UNL A   1      41.496  27.952  26.883  1.00  0.00     0.134 A 
ATOM     60  C   UNL A   1      40.155  26.310  27.988  1.00  0.00     0.134 A 
ATOM     61  F   UNL A   1      42.089  29.155  26.828  1.00  0.00    -0.206 F 
ATOM     62  C   UNL A   1      41.661  27.094  25.792  1.00  0.00     0.040 A 
ATOM     63  C   UNL A   1      40.333  25.432  26.915  1.00  0.00     0.040 A 
ATOM     64  F   UNL A   1      39.428  25.880  29.030  1.00  0.00    -0.206 F 
ATOM     65  C   UNL A   1      41.085  25.825  25.810  1.00  0.00     0.006 A 
ENDBRANCH  44  58
BRANCH  45  66
ATOM     66  C   UNL A   1      39.193  32.975  36.281  1.00  0.00     0.057 A 
ATOM     67  C   UNL A   1      38.399  32.391  37.272  1.00  0.00     0.134 A 
ATOM     68  C   UNL A   1      39.783  34.214  36.561  1.00  0.00     0.134 A 
ATOM     69  F   UNL A   1      37.826  31.198  37.060  1.00  0.00    -0.206 F 
ATOM     70  C   UNL A   1      38.193  33.016  38.501  1.00  0.00     0.040 A 
ATOM     71  C   UNL A   1      39.597  34.842  37.793  1.00  0.00     0.040 A 
ATOM     72  F   UNL A   1      40.588  34.801  35.664  1.00  0.00    -0.206 F 
ATOM     73  C   UNL A   1      38.799  34.242  38.766  1.00  0.00     0.006 A 
ENDBRANCH  45  66
BRANCH  57  74
ATOM     74  C   UNL A   1      44.166  28.522  34.274  1.00  0.00     0.057 A 
ATOM     75  C   UNL A   1      45.378  29.213  34.163  1.00  0.00     0.134 A 
ATOM     76  C   UNL A   1      44.147  27.361  35.058  1.00  0.00     0.134 A 
ATOM     77  F   UNL A   1      45.463  30.321  33.411  1.00  0.00    -0.206 F 
ATOM     78  C   UNL A   1      46.535  28.756  34.795  1.00  0.00     0.040 A 
ATOM     79  C   UNL A   1      45.291  26.907  35.712  1.00  0.00     0.040 A 
ATOM     80  F   UNL A   1      43.015  26.655  35.203  1.00  0.00    -0.206 F 
ATOM     81  C   UNL A   1      46.491  27.603  35.577  1.00  0.00     0.006 A 
ENDBRANCH  57  74
ENDBRANCH  31  32
ENDBRANCH  24  26
ENDBRANCH  23  24
ENDBRANCH  22  23
ENDBRANCH   1  22
TORSDOF 17
ENDMDL
MODEL 3
REMARK VINA RESULT:     -10.2      1.671      2.403
REMARK SMILES C=CCN(CC(=O)OCCOC(=O)c1ccc(-c2c3nc(c(-c4c(F)cccc4F)c4ccc([nH]4)c(-c4c(F)cccc4F)c4nc(c(-c5c(F)cccc5F)c5ccc2[nH]5)C=C4)C=C3)cc1)C(=O)NC[C@@H]1CCC(=O)N1
REMARK SMILES IDX 9 1 8 2 6 3 7 4 5 5 4 6 3 7 2 8 1 9 68 10 69 11 70 12 71 14
REMARK SMILES IDX 72 15 73 16 77 17 74 18 75 19 76 21 10 22 11 23 12 24 13 25
REMARK SMILES IDX 14 26 15 27 67 28 16 29 66 30 17 31 18 32 19 33 60 34 20 35
REMARK SMILES IDX 65 36 59 37 61 38 21 39 64 40 58 41 57 42 22 44 48 45 31 46
REMARK SMILES IDX 47 47 32 48 35 49 46 50 62 51 33 52 34 53 45 55 63 56 36 57
REMARK SMILES IDX 23 58 24 59 29 60 25 61 26 62 28 63 30 64 27 65 49 66 50 67
REMARK SMILES IDX 55 68 51 69 52 70 54 71 56 72 53 73 37 74 38 75 43 76 39 77
REMARK SMILES IDX 40 78 42 79 44 80 41 81
REMARK H PARENT 70 13 77 20 61 43 35 54
REMARK Flexibility Score: inf
ROOT
ATOM      1  C   UNL A   1      39.010  21.114  25.891  1.00  0.00     0.274 C 
ENDROOT
BRANCH   1   2
ATOM      2  O   UNL A   1      37.989  21.545  24.974  1.00  0.00    -0.461 OA
BRANCH   2   3
ATOM      3  C   UNL A   1      37.312  22.649  25.378  1.00  0.00     0.325 C 
ATOM      4  O   UNL A   1      37.832  23.619  25.924  1.00  0.00    -0.250 OA
BRANCH   3   5
ATOM      5  C   UNL A   1      35.835  22.604  25.013  1.00  0.00     0.244 C 
BRANCH   5   6
ATOM      6  N   UNL A   1      34.779  22.637  26.056  1.00  0.00    -0.310 N 
BRANCH   6   7
ATOM      7  C   UNL A   1      33.981  23.858  26.037  1.00  0.00     0.149 C 
BRANCH   7   8
ATOM      8  C   UNL A   1      34.390  24.797  24.928  1.00  0.00    -0.013 C 
ATOM      9  C   UNL A   1      33.525  25.474  24.162  1.00  0.00     0.006 C 
ENDBRANCH   7   8
ENDBRANCH   6   7
BRANCH   6  10
ATOM     10  C   UNL A   1      34.119  21.455  26.418  1.00  0.00     0.318 C 
ATOM     11  O   UNL A   1      33.622  21.294  27.530  1.00  0.00    -0.249 OA
ATOM     12  N   UNL A   1      34.114  20.448  25.460  1.00  0.00    -0.336 N 
ATOM     13  H   UNL A   1      34.785  20.444  24.740  1.00  0.00     0.165 HD
BRANCH  12  14
ATOM     14  C   UNL A   1      33.094  19.390  25.531  1.00  0.00     0.142 C 
BRANCH  14  15
ATOM     15  C   UNL A   1      33.269  18.018  24.799  1.00  0.00     0.101 C 
ATOM     16  C   UNL A   1      32.399  16.833  25.215  1.00  0.00     0.036 C 
ATOM     17  N   UNL A   1      34.599  17.480  25.038  1.00  0.00    -0.352 N 
ATOM     18  C   UNL A   1      33.258  15.574  25.083  1.00  0.00     0.102 C 
ATOM     19  C   UNL A   1      34.649  16.115  25.195  1.00  0.00     0.220 C 
ATOM     20  H   UNL A   1      35.400  18.050  25.085  1.00  0.00     0.163 HD
ATOM     21  O   UNL A   1      35.663  15.460  25.376  1.00  0.00    -0.275 OA
ENDBRANCH  14  15
ENDBRANCH  12  14
ENDBRANCH   6  10
ENDBRANCH   5   6
ENDBRANCH   3   5
ENDBRANCH   2   3
ENDBRANCH   1   2
BRANCH   1  22
ATOM     22  C   UNL A   1      39.600  19.789  25.400  1.00  0.00     0.275 C 
BRANCH  22  23
ATOM     23  O   UNL A   1      40.728  19.221  26.130  1.00  0.00    -0.458 OA
BRANCH  23  24
ATOM     24  C   UNL A   1      41.934  19.690  25.753  1.00  0.00     0.338 C 
ATOM     25  O   UNL A   1      42.760  19.051  25.115  1.00  0.00    -0.246 OA
BRANCH  24  26
ATOM     26  C   UNL A   1      42.443  20.952  26.269  1.00  0.00     0.060 A 
ATOM     27  C   UNL A   1      42.366  21.183  27.647  1.00  0.00     0.016 A 
ATOM     28  C   UNL A   1      42.463  22.031  25.377  1.00  0.00     0.016 A 
ATOM     29  C   UNL A   1      42.353  22.496  28.129  1.00  0.00     0.010 A 
ATOM     30  C   UNL A   1      42.426  23.335  25.850  1.00  0.00     0.010 A 
ATOM     31  C   UNL A   1      42.398  23.577  27.228  1.00  0.00    -0.014 A 
BRANCH  31  32
ATOM     32  C   UNL A   1      42.741  24.947  27.662  1.00  0.00     0.031 A 
ATOM     33  C   UNL A   1      41.731  25.907  28.211  1.00  0.00     0.074 A 
ATOM     34  C   UNL A   1      43.954  25.369  27.259  1.00  0.00     0.049 A 
ATOM     35  N   UNL A   1      41.872  27.183  28.470  1.00  0.00    -0.248 NA
ATOM     36  C   UNL A   1      40.381  25.387  28.471  1.00  0.00     0.031 C 
ATOM     37  C   UNL A   1      44.938  24.530  26.563  1.00  0.00     0.029 A 
ATOM     38  N   UNL A   1      44.534  26.605  27.291  1.00  0.00    -0.354 N 
ATOM     39  C   UNL A   1      40.632  27.626  28.912  1.00  0.00     0.074 A 
ATOM     40  C   UNL A   1      39.740  26.485  28.860  1.00  0.00     0.031 C 
ATOM     41  C   UNL A   1      45.980  25.284  26.197  1.00  0.00     0.029 A 
ATOM     42  C   UNL A   1      45.738  26.650  26.634  1.00  0.00     0.049 A 
ATOM     43  H   UNL A   1      44.131  27.383  27.740  1.00  0.00     0.167 HD
ATOM     44  C   UNL A   1      40.288  28.873  29.324  1.00  0.00     0.037 A 
ATOM     45  C   UNL A   1      46.565  27.681  26.401  1.00  0.00     0.037 A 
ATOM     46  C   UNL A   1      41.209  29.986  29.354  1.00  0.00     0.049 A 
ATOM     47  C   UNL A   1      46.206  29.017  26.960  1.00  0.00     0.074 A 
ATOM     48  C   UNL A   1      41.019  31.255  29.875  1.00  0.00     0.029 A 
ATOM     49  N   UNL A   1      42.492  29.964  28.821  1.00  0.00    -0.354 N 
ATOM     50  N   UNL A   1      45.091  29.390  27.536  1.00  0.00    -0.248 NA
ATOM     51  C   UNL A   1      47.232  30.061  26.882  1.00  0.00     0.031 C 
ATOM     52  C   UNL A   1      42.169  32.010  29.623  1.00  0.00     0.029 A 
ATOM     53  C   UNL A   1      43.097  31.200  28.989  1.00  0.00     0.049 A 
ATOM     54  H   UNL A   1      42.909  29.186  28.387  1.00  0.00     0.167 HD
ATOM     55  C   UNL A   1      45.290  30.703  27.927  1.00  0.00     0.074 A 
ATOM     56  C   UNL A   1      46.635  31.059  27.518  1.00  0.00     0.031 C 
ATOM     57  C   UNL A   1      44.437  31.532  28.577  1.00  0.00     0.037 A 
BRANCH  44  58
ATOM     58  C   UNL A   1      38.880  29.112  29.799  1.00  0.00     0.057 A 
ATOM     59  C   UNL A   1      38.530  29.004  31.151  1.00  0.00     0.134 A 
ATOM     60  C   UNL A   1      37.884  29.555  28.916  1.00  0.00     0.134 A 
ATOM     61  F   UNL A   1      39.433  28.596  32.057  1.00  0.00    -0.206 F 
ATOM     62  C   UNL A   1      37.242  29.306  31.605  1.00  0.00     0.040 A 
ATOM     63  C   UNL A   1      36.600  29.884  29.360  1.00  0.00     0.040 A 
ATOM     64  F   UNL A   1      38.148  29.702  27.609  1.00  0.00    -0.206 F 
ATOM     65  C   UNL A   1      36.275  29.757  30.709  1.00  0.00     0.006 A 
ENDBRANCH  44  58
BRANCH  45  66
ATOM     66  C   UNL A   1      47.846  27.419  25.711  1.00  0.00     0.057 A 
ATOM     67  C   UNL A   1      48.961  26.994  26.438  1.00  0.00     0.134 A 
ATOM     68  C   UNL A   1      47.951  27.455  24.315  1.00  0.00     0.134 A 
ATOM     69  F   UNL A   1      48.907  26.926  27.776  1.00  0.00    -0.206 F 
ATOM     70  C   UNL A   1      50.144  26.620  25.803  1.00  0.00     0.040 A 
ATOM     71  C   UNL A   1      49.124  27.068  23.667  1.00  0.00     0.040 A 
ATOM     72  F   UNL A   1      46.899  27.815  23.565  1.00  0.00    -0.206 F 
ATOM     73  C   UNL A   1      50.225  26.649  24.412  1.00  0.00     0.006 A 
ENDBRANCH  45  66
BRANCH  57  74
ATOM     74  C   UNL A   1      44.958  32.892  28.920  1.00  0.00     0.057 A 
ATOM     75  C   UNL A   1      45.646  33.140  30.113  1.00  0.00     0.134 A 
ATOM     76  C   UNL A   1      44.789  33.959  28.030  1.00  0.00     0.134 A 
ATOM     77  F   UNL A   1      45.823  32.162  31.014  1.00  0.00    -0.206 F 
ATOM     78  C   UNL A   1      46.135  34.411  30.417  1.00  0.00     0.040 A 
ATOM     79  C   UNL A   1      45.292  35.228  28.313  1.00  0.00     0.040 A 
ATOM     80  F   UNL A   1      44.138  33.783  26.870  1.00  0.00    -0.206 F 
ATOM     81  C   UNL A   1      45.963  35.458  29.512  1.00  0.00     0.006 A 
ENDBRANCH  57  74
ENDBRANCH  31  32
ENDBRANCH  24  26
ENDBRANCH  23  24
ENDBRANCH  22  23
ENDBRANCH   1  22
TORSDOF 17
ENDMDL
