MODEL 1
REMARK VINA RESULT:      -9.6      0.000      0.000
REMARK SMILES O=C(CCc1cc(Cl)cs1)OCCOC(=O)c1ccc(-c2c3nc(c(-c4c(F)cccc4F)c4ccc([nH]4)c(-c4c(F)cccc4F)c4nc(c(-c5c(F)cccc5F)c5ccc2[nH]5)C=C4)C=C3)cc1
REMARK SMILES IDX 12 1 11 2 2 3 1 4 3 5 4 6 5 7 6 8 10 9 7 10 9 11 8 12 13 13
REMARK SMILES IDX 14 14 15 15 16 16 17 17 18 18 70 19 19 20 69 21 20 22 21 23
REMARK SMILES IDX 22 24 63 25 23 26 68 27 62 28 64 29 24 30 67 31 61 32 60 33
REMARK SMILES IDX 25 35 51 36 34 37 50 38 35 39 38 40 49 41 65 42 36 43 37 44
REMARK SMILES IDX 48 46 66 47 39 48 26 49 27 50 32 51 28 52 29 53 31 54 33 55
REMARK SMILES IDX 30 56 52 57 53 58 58 59 54 60 55 61 57 62 59 63 56 64 40 65
REMARK SMILES IDX 41 66 46 67 42 68 43 69 45 70 47 71 44 72
REMARK H PARENT 64 34 38 45
REMARK Flexibility Score: inf
ROOT
ATOM      1  C   UNL A   1      33.241  36.943  31.025  1.00  0.00     0.274 C 
ENDROOT
BRANCH   1   2
ATOM      2  O   UNL A   1      33.690  35.976  31.994  1.00  0.00    -0.462 OA
BRANCH   2   3
ATOM      3  C   UNL A   1      34.118  36.333  33.230  1.00  0.00     0.306 C 
ATOM      4  O   UNL A   1      33.961  37.481  33.639  1.00  0.00    -0.252 OA
BRANCH   3   5
ATOM      5  C   UNL A   1      34.908  35.326  34.034  1.00  0.00     0.128 C 
BRANCH   5   6
ATOM      6  C   UNL A   1      34.736  33.901  33.516  1.00  0.00     0.058 C 
BRANCH   6   7
ATOM      7  C   UNL A   1      35.919  33.035  33.841  1.00  0.00     0.007 A 
ATOM      8  C   UNL A   1      36.302  31.856  33.233  1.00  0.00     0.036 A 
ATOM      9  S   UNL A   1      37.008  33.477  35.094  1.00  0.00    -0.147 S 
ATOM     10  C   UNL A   1      37.541  31.370  33.733  1.00  0.00     0.052 A 
ATOM     11  C   UNL A   1      38.055  32.177  34.721  1.00  0.00     0.085 A 
ATOM     12  Cl  UNL A   1      38.290  29.957  33.138  1.00  0.00    -0.083 Cl
ENDBRANCH   6   7
ENDBRANCH   5   6
ENDBRANCH   3   5
ENDBRANCH   2   3
ENDBRANCH   1   2
BRANCH   1  13
ATOM     13  C   UNL A   1      33.086  36.354  29.622  1.00  0.00     0.275 C 
BRANCH  13  14
ATOM     14  O   UNL A   1      32.649  34.988  29.693  1.00  0.00    -0.458 OA
BRANCH  14  15
ATOM     15  C   UNL A   1      32.976  34.241  28.610  1.00  0.00     0.338 C 
ATOM     16  O   UNL A   1      32.383  34.196  27.546  1.00  0.00    -0.246 OA
BRANCH  15  17
ATOM     17  C   UNL A   1      34.284  33.592  28.832  1.00  0.00     0.060 A 
ATOM     18  C   UNL A   1      34.388  32.703  29.908  1.00  0.00     0.016 A 
ATOM     19  C   UNL A   1      35.394  33.850  28.021  1.00  0.00     0.016 A 
ATOM     20  C   UNL A   1      35.611  32.104  30.205  1.00  0.00     0.010 A 
ATOM     21  C   UNL A   1      36.621  33.250  28.319  1.00  0.00     0.010 A 
ATOM     22  C   UNL A   1      36.743  32.401  29.433  1.00  0.00    -0.014 A 
BRANCH  22  23
ATOM     23  C   UNL A   1      38.076  31.939  29.886  1.00  0.00     0.031 A 
ATOM     24  C   UNL A   1      38.587  30.610  29.403  1.00  0.00     0.074 A 
ATOM     25  C   UNL A   1      38.840  32.704  30.687  1.00  0.00     0.049 A 
ATOM     26  N   UNL A   1      39.731  30.023  29.647  1.00  0.00    -0.248 NA
ATOM     27  C   UNL A   1      37.686  29.839  28.531  1.00  0.00     0.031 C 
ATOM     28  C   UNL A   1      38.471  34.020  31.204  1.00  0.00     0.029 A 
ATOM     29  N   UNL A   1      40.089  32.475  31.203  1.00  0.00    -0.354 N 
ATOM     30  C   UNL A   1      39.693  28.824  28.949  1.00  0.00     0.074 A 
ATOM     31  C   UNL A   1      38.398  28.745  28.308  1.00  0.00     0.031 C 
ATOM     32  C   UNL A   1      39.475  34.482  31.970  1.00  0.00     0.029 A 
ATOM     33  C   UNL A   1      40.546  33.487  32.009  1.00  0.00     0.049 A 
ATOM     34  H   UNL A   1      40.610  31.661  31.014  1.00  0.00     0.167 HD
ATOM     35  C   UNL A   1      40.656  27.879  28.836  1.00  0.00     0.037 A 
ATOM     36  C   UNL A   1      41.697  33.595  32.702  1.00  0.00     0.037 A 
ATOM     37  C   UNL A   1      41.943  27.947  29.474  1.00  0.00     0.049 A 
ATOM     38  C   UNL A   1      42.722  32.495  32.620  1.00  0.00     0.074 A 
ATOM     39  C   UNL A   1      42.990  27.045  29.402  1.00  0.00     0.029 A 
ATOM     40  N   UNL A   1      42.353  28.972  30.312  1.00  0.00    -0.354 N 
ATOM     41  N   UNL A   1      42.695  31.387  31.919  1.00  0.00    -0.248 NA
ATOM     42  C   UNL A   1      43.942  32.665  33.424  1.00  0.00     0.031 C 
ATOM     43  C   UNL A   1      44.019  27.504  30.231  1.00  0.00     0.029 A 
ATOM     44  C   UNL A   1      43.628  28.712  30.785  1.00  0.00     0.049 A 
ATOM     45  H   UNL A   1      41.816  29.766  30.538  1.00  0.00     0.167 HD
ATOM     46  C   UNL A   1      43.903  30.747  32.171  1.00  0.00     0.074 A 
ATOM     47  C   UNL A   1      44.643  31.592  33.083  1.00  0.00     0.031 C 
ATOM     48  C   UNL A   1      44.358  29.566  31.686  1.00  0.00     0.037 A 
BRANCH  35  49
ATOM     49  C   UNL A   1      40.344  26.679  27.992  1.00  0.00     0.057 A 
ATOM     50  C   UNL A   1      40.872  26.530  26.702  1.00  0.00     0.134 A 
ATOM     51  C   UNL A   1      39.529  25.653  28.483  1.00  0.00     0.134 A 
ATOM     52  F   UNL A   1      41.647  27.487  26.171  1.00  0.00    -0.206 F 
ATOM     53  C   UNL A   1      40.583  25.409  25.924  1.00  0.00     0.040 A 
ATOM     54  C   UNL A   1      39.251  24.517  27.721  1.00  0.00     0.040 A 
ATOM     55  F   UNL A   1      38.994  25.736  29.710  1.00  0.00    -0.206 F 
ATOM     56  C   UNL A   1      39.775  24.396  26.435  1.00  0.00     0.006 A 
ENDBRANCH  35  49
BRANCH  36  57
ATOM     57  C   UNL A   1      41.952  34.792  33.540  1.00  0.00     0.057 A 
ATOM     58  C   UNL A   1      41.419  34.900  34.830  1.00  0.00     0.134 A 
ATOM     59  C   UNL A   1      42.701  35.871  33.058  1.00  0.00     0.134 A 
ATOM     60  F   UNL A   1      40.670  33.909  35.335  1.00  0.00    -0.206 F 
ATOM     61  C   UNL A   1      41.606  36.047  35.603  1.00  0.00     0.040 A 
ATOM     62  C   UNL A   1      42.915  37.015  33.829  1.00  0.00     0.040 A 
ATOM     63  F   UNL A   1      43.237  35.828  31.829  1.00  0.00    -0.206 F 
ATOM     64  C   UNL A   1      42.360  37.107  35.103  1.00  0.00     0.006 A 
ENDBRANCH  36  57
BRANCH  48  65
ATOM     65  C   UNL A   1      45.733  29.132  32.101  1.00  0.00     0.057 A 
ATOM     66  C   UNL A   1      45.945  28.322  33.224  1.00  0.00     0.134 A 
ATOM     67  C   UNL A   1      46.854  29.489  31.340  1.00  0.00     0.134 A 
ATOM     68  F   UNL A   1      44.914  27.955  34.001  1.00  0.00    -0.206 F 
ATOM     69  C   UNL A   1      47.225  27.897  33.586  1.00  0.00     0.040 A 
ATOM     70  C   UNL A   1      48.135  29.052  31.679  1.00  0.00     0.040 A 
ATOM     71  F   UNL A   1      46.719  30.256  30.248  1.00  0.00    -0.206 F 
ATOM     72  C   UNL A   1      48.323  28.257  32.807  1.00  0.00     0.006 A 
ENDBRANCH  48  65
ENDBRANCH  22  23
ENDBRANCH  15  17
ENDBRANCH  14  15
ENDBRANCH  13  14
ENDBRANCH   1  13
TORSDOF 13
ENDMDL
MODEL 2
REMARK VINA RESULT:      -9.3      5.516     10.830
REMARK SMILES O=C(CCc1cc(Cl)cs1)OCCOC(=O)c1ccc(-c2c3nc(c(-c4c(F)cccc4F)c4ccc([nH]4)c(-c4c(F)cccc4F)c4nc(c(-c5c(F)cccc5F)c5ccc2[nH]5)C=C4)C=C3)cc1
REMARK SMILES IDX 12 1 11 2 2 3 1 4 3 5 4 6 5 7 6 8 10 9 7 10 9 11 8 12 13 13
REMARK SMILES IDX 14 14 15 15 16 16 17 17 18 18 70 19 19 20 69 21 20 22 21 23
REMARK SMILES IDX 22 24 63 25 23 26 68 27 62 28 64 29 24 30 67 31 61 32 60 33
REMARK SMILES IDX 25 35 51 36 34 37 50 38 35 39 38 40 49 41 65 42 36 43 37 44
REMARK SMILES IDX 48 46 66 47 39 48 26 49 27 50 32 51 28 52 29 53 31 54 33 55
REMARK SMILES IDX 30 56 52 57 53 58 58 59 54 60 55 61 57 62 59 63 56 64 40 65
REMARK SMILES IDX 41 66 46 67 42 68 43 69 45 70 47 71 44 72
REMARK H PARENT 64 34 38 45
REMARK Flexibility Score: inf
ROOT
ATOM      1  C   UNL A   1      45.077  20.812  25.096  1.00  0.00     0.274 C 
ENDROOT
BRANCH   1   2
ATOM      2  O   UNL A   1      43.669  20.611  24.859  1.00  0.00    -0.462 OA
BRANCH   2   3
ATOM      3  C   UNL A   1      42.916  19.787  25.627  1.00  0.00     0.306 C 
ATOM      4  O   UNL A   1      42.960  18.569  25.468  1.00  0.00    -0.252 OA
BRANCH   3   5
ATOM      5  C   UNL A   1      41.925  20.406  26.586  1.00  0.00     0.128 C 
BRANCH   5   6
ATOM      6  C   UNL A   1      40.478  20.135  26.185  1.00  0.00     0.058 C 
BRANCH   6   7
ATOM      7  C   UNL A   1      39.638  21.380  26.222  1.00  0.00     0.007 A 
ATOM      8  C   UNL A   1      39.909  22.569  26.870  1.00  0.00     0.036 A 
ATOM      9  S   UNL A   1      38.145  21.452  25.376  1.00  0.00    -0.147 S 
ATOM     10  C   UNL A   1      38.936  23.568  26.590  1.00  0.00     0.052 A 
ATOM     11  C   UNL A   1      37.943  23.107  25.758  1.00  0.00     0.085 A 
ATOM     12  Cl  UNL A   1      39.032  25.154  27.211  1.00  0.00    -0.083 Cl
ENDBRANCH   6   7
ENDBRANCH   5   6
ENDBRANCH   3   5
ENDBRANCH   2   3
ENDBRANCH   1   2
BRANCH   1  13
ATOM     13  C   UNL A   1      45.390  22.180  25.703  1.00  0.00     0.275 C 
BRANCH  13  14
ATOM     14  O   UNL A   1      44.335  23.113  25.420  1.00  0.00    -0.458 OA
BRANCH  14  15
ATOM     15  C   UNL A   1      44.729  24.409  25.396  1.00  0.00     0.338 C 
ATOM     16  O   UNL A   1      45.527  24.918  24.626  1.00  0.00    -0.246 OA
BRANCH  15  17
ATOM     17  C   UNL A   1      43.915  25.193  26.346  1.00  0.00     0.060 A 
ATOM     18  C   UNL A   1      44.153  26.571  26.414  1.00  0.00     0.016 A 
ATOM     19  C   UNL A   1      42.947  24.603  27.165  1.00  0.00     0.016 A 
ATOM     20  C   UNL A   1      43.458  27.356  27.334  1.00  0.00     0.010 A 
ATOM     21  C   UNL A   1      42.251  25.391  28.087  1.00  0.00     0.010 A 
ATOM     22  C   UNL A   1      42.528  26.764  28.199  1.00  0.00    -0.014 A 
BRANCH  22  23
ATOM     23  C   UNL A   1      41.962  27.559  29.315  1.00  0.00     0.031 A 
ATOM     24  C   UNL A   1      42.627  27.495  30.662  1.00  0.00     0.074 A 
ATOM     25  C   UNL A   1      40.893  28.353  29.128  1.00  0.00     0.049 A 
ATOM     26  N   UNL A   1      42.322  28.126  31.767  1.00  0.00    -0.248 NA
ATOM     27  C   UNL A   1      43.789  26.601  30.777  1.00  0.00     0.031 C 
ATOM     28  C   UNL A   1      40.173  28.521  27.867  1.00  0.00     0.029 A 
ATOM     29  N   UNL A   1      40.229  29.169  30.008  1.00  0.00    -0.354 N 
ATOM     30  C   UNL A   1      43.261  27.716  32.704  1.00  0.00     0.074 A 
ATOM     31  C   UNL A   1      44.118  26.750  32.051  1.00  0.00     0.031 C 
ATOM     32  C   UNL A   1      39.162  29.387  28.057  1.00  0.00     0.029 A 
ATOM     33  C   UNL A   1      39.155  29.819  29.454  1.00  0.00     0.049 A 
ATOM     34  H   UNL A   1      40.498  29.279  30.949  1.00  0.00     0.167 HD
ATOM     35  C   UNL A   1      43.408  28.118  33.988  1.00  0.00     0.037 A 
ATOM     36  C   UNL A   1      38.266  30.662  30.015  1.00  0.00     0.037 A 
ATOM     37  C   UNL A   1      42.556  29.072  34.645  1.00  0.00     0.049 A 
ATOM     38  C   UNL A   1      38.406  31.036  31.466  1.00  0.00     0.074 A 
ATOM     39  C   UNL A   1      42.641  29.556  35.939  1.00  0.00     0.029 A 
ATOM     40  N   UNL A   1      41.456  29.680  34.060  1.00  0.00    -0.354 N 
ATOM     41  N   UNL A   1      39.326  30.679  32.329  1.00  0.00    -0.248 NA
ATOM     42  C   UNL A   1      37.385  31.939  32.020  1.00  0.00     0.031 C 
ATOM     43  C   UNL A   1      41.565  30.425  36.151  1.00  0.00     0.029 A 
ATOM     44  C   UNL A   1      40.837  30.514  34.975  1.00  0.00     0.049 A 
ATOM     45  H   UNL A   1      41.160  29.538  33.133  1.00  0.00     0.167 HD
ATOM     46  C   UNL A   1      39.014  31.337  33.514  1.00  0.00     0.074 A 
ATOM     47  C   UNL A   1      37.824  32.120  33.257  1.00  0.00     0.031 C 
ATOM     48  C   UNL A   1      39.659  31.297  34.705  1.00  0.00     0.037 A 
BRANCH  35  49
ATOM     49  C   UNL A   1      44.535  27.513  34.771  1.00  0.00     0.057 A 
ATOM     50  C   UNL A   1      45.800  28.114  34.821  1.00  0.00     0.134 A 
ATOM     51  C   UNL A   1      44.346  26.334  35.501  1.00  0.00     0.134 A 
ATOM     52  F   UNL A   1      46.047  29.236  34.130  1.00  0.00    -0.206 F 
ATOM     53  C   UNL A   1      46.844  27.550  35.556  1.00  0.00     0.040 A 
ATOM     54  C   UNL A   1      45.376  25.774  36.257  1.00  0.00     0.040 A 
ATOM     55  F   UNL A   1      43.158  25.712  35.494  1.00  0.00    -0.206 F 
ATOM     56  C   UNL A   1      46.631  26.380  36.281  1.00  0.00     0.006 A 
ENDBRANCH  35  49
BRANCH  36  57
ATOM     57  C   UNL A   1      37.155  31.218  29.204  1.00  0.00     0.057 A 
ATOM     58  C   UNL A   1      37.202  32.530  28.717  1.00  0.00     0.134 A 
ATOM     59  C   UNL A   1      36.007  30.467  28.928  1.00  0.00     0.134 A 
ATOM     60  F   UNL A   1      38.264  33.307  28.971  1.00  0.00    -0.206 F 
ATOM     61  C   UNL A   1      36.137  33.081  28.001  1.00  0.00     0.040 A 
ATOM     62  C   UNL A   1      34.945  30.998  28.195  1.00  0.00     0.040 A 
ATOM     63  F   UNL A   1      35.903  29.204  29.369  1.00  0.00    -0.206 F 
ATOM     64  C   UNL A   1      35.006  32.311  27.736  1.00  0.00     0.006 A 
ENDBRANCH  36  57
BRANCH  48  65
ATOM     65  C   UNL A   1      39.115  32.148  35.814  1.00  0.00     0.057 A 
ATOM     66  C   UNL A   1      38.222  31.642  36.766  1.00  0.00     0.134 A 
ATOM     67  C   UNL A   1      39.529  33.479  35.959  1.00  0.00     0.134 A 
ATOM     68  F   UNL A   1      37.778  30.378  36.676  1.00  0.00    -0.206 F 
ATOM     69  C   UNL A   1      37.745  32.433  37.813  1.00  0.00     0.040 A 
ATOM     70  C   UNL A   1      39.077  34.273  37.015  1.00  0.00     0.040 A 
ATOM     71  F   UNL A   1      40.390  34.023  35.087  1.00  0.00    -0.206 F 
ATOM     72  C   UNL A   1      38.179  33.751  37.943  1.00  0.00     0.006 A 
ENDBRANCH  48  65
ENDBRANCH  22  23
ENDBRANCH  15  17
ENDBRANCH  14  15
ENDBRANCH  13  14
ENDBRANCH   1  13
TORSDOF 13
ENDMDL
MODEL 3
REMARK VINA RESULT:      -9.0      3.816      8.146
REMARK SMILES O=C(CCc1cc(Cl)cs1)OCCOC(=O)c1ccc(-c2c3nc(c(-c4c(F)cccc4F)c4ccc([nH]4)c(-c4c(F)cccc4F)c4nc(c(-c5c(F)cccc5F)c5ccc2[nH]5)C=C4)C=C3)cc1
REMARK SMILES IDX 12 1 11 2 2 3 1 4 3 5 4 6 5 7 6 8 10 9 7 10 9 11 8 12 13 13
REMARK SMILES IDX 14 14 15 15 16 16 17 17 18 18 70 19 19 20 69 21 20 22 21 23
REMARK SMILES IDX 22 24 63 25 23 26 68 27 62 28 64 29 24 30 67 31 61 32 60 33
REMARK SMILES IDX 25 35 51 36 34 37 50 38 35 39 38 40 49 41 65 42 36 43 37 44
REMARK SMILES IDX 48 46 66 47 39 48 26 49 27 50 32 51 28 52 29 53 31 54 33 55
REMARK SMILES IDX 30 56 52 57 53 58 58 59 54 60 55 61 57 62 59 63 56 64 40 65
REMARK SMILES IDX 41 66 46 67 42 68 43 69 45 70 47 71 44 72
REMARK H PARENT 64 34 38 45
REMARK Flexibility Score: inf
ROOT
ATOM      1  C   UNL A   1      33.716  34.981  32.265  1.00  0.00     0.274 C 
ENDROOT
BRANCH   1   2
ATOM      2  O   UNL A   1      32.916  34.890  31.070  1.00  0.00    -0.462 OA
BRANCH   2   3
ATOM      3  C   UNL A   1      33.369  35.303  29.861  1.00  0.00     0.306 C 
ATOM      4  O   UNL A   1      33.031  36.393  29.405  1.00  0.00    -0.252 OA
BRANCH   3   5
ATOM      5  C   UNL A   1      34.187  34.338  29.033  1.00  0.00     0.128 C 
BRANCH   5   6
ATOM      6  C   UNL A   1      33.318  33.435  28.162  1.00  0.00     0.058 C 
BRANCH   6   7
ATOM      7  C   UNL A   1      34.011  32.149  27.813  1.00  0.00     0.007 A 
ATOM      8  C   UNL A   1      35.359  31.862  27.890  1.00  0.00     0.036 A 
ATOM      9  S   UNL A   1      33.112  30.796  27.255  1.00  0.00    -0.147 S 
ATOM     10  C   UNL A   1      35.638  30.502  27.583  1.00  0.00     0.052 A 
ATOM     11  C   UNL A   1      34.502  29.799  27.259  1.00  0.00     0.085 A 
ATOM     12  Cl  UNL A   1      37.211  29.843  27.642  1.00  0.00    -0.083 Cl
ENDBRANCH   6   7
ENDBRANCH   5   6
ENDBRANCH   3   5
ENDBRANCH   2   3
ENDBRANCH   1   2
BRANCH   1  13
ATOM     13  C   UNL A   1      34.378  33.656  32.643  1.00  0.00     0.275 C 
BRANCH  13  14
ATOM     14  O   UNL A   1      35.791  33.704  32.386  1.00  0.00    -0.458 OA
BRANCH  14  15
ATOM     15  C   UNL A   1      36.524  32.849  33.140  1.00  0.00     0.338 C 
ATOM     16  O   UNL A   1      36.363  32.593  34.322  1.00  0.00    -0.246 OA
BRANCH  15  17
ATOM     17  C   UNL A   1      37.471  32.114  32.278  1.00  0.00     0.060 A 
ATOM     18  C   UNL A   1      38.443  31.330  32.910  1.00  0.00     0.016 A 
ATOM     19  C   UNL A   1      37.427  32.193  30.882  1.00  0.00     0.016 A 
ATOM     20  C   UNL A   1      39.402  30.660  32.153  1.00  0.00     0.010 A 
ATOM     21  C   UNL A   1      38.390  31.522  30.123  1.00  0.00     0.010 A 
ATOM     22  C   UNL A   1      39.402  30.780  30.756  1.00  0.00    -0.014 A 
BRANCH  22  23
ATOM     23  C   UNL A   1      40.548  30.251  29.979  1.00  0.00     0.031 A 
ATOM     24  C   UNL A   1      41.713  31.158  29.696  1.00  0.00     0.074 A 
ATOM     25  C   UNL A   1      40.571  28.974  29.560  1.00  0.00     0.049 A 
ATOM     26  N   UNL A   1      42.830  30.900  29.063  1.00  0.00    -0.248 NA
ATOM     27  C   UNL A   1      41.604  32.539  30.191  1.00  0.00     0.031 C 
ATOM     28  C   UNL A   1      39.517  27.988  29.789  1.00  0.00     0.029 A 
ATOM     29  N   UNL A   1      41.525  28.290  28.849  1.00  0.00    -0.354 N 
ATOM     30  C   UNL A   1      43.560  32.081  29.096  1.00  0.00     0.074 A 
ATOM     31  C   UNL A   1      42.744  33.067  29.771  1.00  0.00     0.031 C 
ATOM     32  C   UNL A   1      39.882  26.823  29.225  1.00  0.00     0.029 A 
ATOM     33  C   UNL A   1      41.185  26.988  28.582  1.00  0.00     0.049 A 
ATOM     34  H   UNL A   1      42.373  28.696  28.559  1.00  0.00     0.167 HD
ATOM     35  C   UNL A   1      44.806  32.320  28.622  1.00  0.00     0.037 A 
ATOM     36  C   UNL A   1      41.849  26.040  27.893  1.00  0.00     0.037 A 
ATOM     37  C   UNL A   1      45.619  31.347  27.944  1.00  0.00     0.049 A 
ATOM     38  C   UNL A   1      43.202  26.353  27.310  1.00  0.00     0.074 A 
ATOM     39  C   UNL A   1      46.902  31.493  27.446  1.00  0.00     0.029 A 
ATOM     40  N   UNL A   1      45.223  30.049  27.661  1.00  0.00    -0.354 N 
ATOM     41  N   UNL A   1      43.903  27.458  27.388  1.00  0.00    -0.248 NA
ATOM     42  C   UNL A   1      43.859  25.280  26.546  1.00  0.00     0.031 C 
ATOM     43  C   UNL A   1      47.267  30.295  26.822  1.00  0.00     0.029 A 
ATOM     44  C   UNL A   1      46.227  29.391  26.971  1.00  0.00     0.049 A 
ATOM     45  H   UNL A   1      44.357  29.655  27.913  1.00  0.00     0.167 HD
ATOM     46  C   UNL A   1      45.092  27.204  26.715  1.00  0.00     0.074 A 
ATOM     47  C   UNL A   1      45.022  25.839  26.240  1.00  0.00     0.031 C 
ATOM     48  C   UNL A   1      46.149  28.028  26.512  1.00  0.00     0.037 A 
BRANCH  35  49
ATOM     49  C   UNL A   1      45.359  33.700  28.814  1.00  0.00     0.057 A 
ATOM     50  C   UNL A   1      46.118  34.036  29.944  1.00  0.00     0.134 A 
ATOM     51  C   UNL A   1      45.153  34.694  27.851  1.00  0.00     0.134 A 
ATOM     52  F   UNL A   1      46.336  33.131  30.909  1.00  0.00    -0.206 F 
ATOM     53  C   UNL A   1      46.636  35.320  30.115  1.00  0.00     0.040 A 
ATOM     54  C   UNL A   1      45.684  35.975  28.001  1.00  0.00     0.040 A 
ATOM     55  F   UNL A   1      44.436  34.434  26.747  1.00  0.00    -0.206 F 
ATOM     56  C   UNL A   1      46.424  36.292  29.140  1.00  0.00     0.006 A 
ENDBRANCH  35  49
BRANCH  36  57
ATOM     57  C   UNL A   1      41.251  24.695  27.712  1.00  0.00     0.057 A 
ATOM     58  C   UNL A   1      41.707  23.595  28.447  1.00  0.00     0.134 A 
ATOM     59  C   UNL A   1      40.237  24.470  26.774  1.00  0.00     0.134 A 
ATOM     60  F   UNL A   1      42.695  23.744  29.341  1.00  0.00    -0.206 F 
ATOM     61  C   UNL A   1      41.189  22.315  28.243  1.00  0.00     0.040 A 
ATOM     62  C   UNL A   1      39.694  23.199  26.575  1.00  0.00     0.040 A 
ATOM     63  F   UNL A   1      39.758  25.484  26.038  1.00  0.00    -0.206 F 
ATOM     64  C   UNL A   1      40.176  22.116  27.306  1.00  0.00     0.006 A 
ENDBRANCH  36  57
BRANCH  48  65
ATOM     65  C   UNL A   1      47.330  27.469  25.775  1.00  0.00     0.057 A 
ATOM     66  C   UNL A   1      47.456  27.582  24.385  1.00  0.00     0.134 A 
ATOM     67  C   UNL A   1      48.378  26.853  26.472  1.00  0.00     0.134 A 
ATOM     68  F   UNL A   1      46.482  28.151  23.659  1.00  0.00    -0.206 F 
ATOM     69  C   UNL A   1      48.574  27.086  23.711  1.00  0.00     0.040 A 
ATOM     70  C   UNL A   1      49.511  26.374  25.811  1.00  0.00     0.040 A 
ATOM     71  F   UNL A   1      48.325  26.720  27.805  1.00  0.00    -0.206 F 
ATOM     72  C   UNL A   1      49.609  26.486  24.427  1.00  0.00     0.006 A 
ENDBRANCH  48  65
ENDBRANCH  22  23
ENDBRANCH  15  17
ENDBRANCH  14  15
ENDBRANCH  13  14
ENDBRANCH   1  13
TORSDOF 13
ENDMDL
