MODEL 1
REMARK VINA RESULT:     -12.2      0.000      0.000
REMARK SMILES O=C(OCCOC(=O)[C@H]1CCC(=O)N(C2CCCCC2)[C@H]1c1ccccc1)c1ccc(-c2c3nc(c(-c4c(F)cccc4F)c4ccc([nH]4)c(-c4c(F)cccc4F)c4nc(c(-c5c(F)cccc5F)c5ccc2[nH]5)C=C4)C=C3)cc1
REMARK SMILES IDX 4 1 3 2 2 3 1 4 28 5 29 6 81 7 30 8 80 9 31 10 32 11 33 12
REMARK SMILES IDX 74 13 34 14 79 15 73 16 75 17 35 18 78 19 72 20 71 21 36 23
REMARK SMILES IDX 62 24 45 25 61 26 46 27 49 28 60 29 76 30 47 31 48 32 59 34
REMARK SMILES IDX 77 35 50 36 37 37 38 38 43 39 39 40 40 41 42 42 44 43 41 44
REMARK SMILES IDX 63 45 64 46 69 47 65 48 66 49 68 50 70 51 67 52 51 53 52 54
REMARK SMILES IDX 57 55 53 56 54 57 56 58 58 59 55 60 5 61 6 62 7 63 8 64 9 65
REMARK SMILES IDX 10 66 21 67 11 68 14 69 12 70 13 71 22 72 23 73 27 74 24 75
REMARK SMILES IDX 26 76 25 77 15 78 16 79 20 80 17 81 19 82 18 83
REMARK H PARENT 75 22 49 33
REMARK Flexibility Score: inf
ROOT
ATOM      1  C   UNL A   1      45.395  23.852  40.059  1.00  0.00     0.275 C 
ENDROOT
BRANCH   1   2
ATOM      2  O   UNL A   1      45.137  24.528  38.829  1.00  0.00    -0.458 OA
BRANCH   2   3
ATOM      3  C   UNL A   1      44.975  25.865  38.753  1.00  0.00     0.338 C 
ATOM      4  O   UNL A   1      45.203  26.595  39.711  1.00  0.00    -0.246 OA
BRANCH   3   5
ATOM      5  C   UNL A   1      44.448  26.479  37.517  1.00  0.00     0.060 A 
ATOM      6  C   UNL A   1      42.748  26.584  37.033  1.00  0.00     0.016 A 
ATOM      7  C   UNL A   1      45.615  27.405  36.532  1.00  0.00     0.016 A 
ATOM      8  C   UNL A   1      42.106  27.545  35.749  1.00  0.00     0.010 A 
ATOM      9  C   UNL A   1      44.881  28.544  35.027  1.00  0.00     0.010 A 
ATOM     10  C   UNL A   1      43.072  28.565  34.774  1.00  0.00    -0.014 A 
BRANCH  10  11
ATOM     11  C   UNL A   1      42.280  29.372  33.803  1.00  0.00     0.031 A 
ATOM     12  C   UNL A   1      41.622  30.553  34.400  1.00  0.00     0.074 A 
ATOM     13  C   UNL A   1      42.114  29.018  32.491  1.00  0.00     0.049 A 
ATOM     14  N   UNL A   1      40.548  31.172  34.023  1.00  0.00    -0.248 NA
ATOM     15  C   UNL A   1      42.226  31.072  35.639  1.00  0.00     0.031 C 
ATOM     16  C   UNL A   1      42.784  27.927  31.750  1.00  0.00     0.029 A 
ATOM     17  N   UNL A   1      41.208  29.461  31.543  1.00  0.00    -0.354 N 
ATOM     18  C   UNL A   1      40.334  32.119  35.009  1.00  0.00     0.074 A 
ATOM     19  C   UNL A   1      41.284  31.893  36.067  1.00  0.00     0.031 C 
ATOM     20  C   UNL A   1      42.181  27.689  30.577  1.00  0.00     0.029 A 
ATOM     21  C   UNL A   1      41.072  28.596  30.454  1.00  0.00     0.049 A 
ATOM     22  H   UNL A   1      40.708  30.305  31.627  1.00  0.00     0.167 HD
ATOM     23  C   UNL A   1      39.471  33.150  34.968  1.00  0.00     0.037 A 
ATOM     24  C   UNL A   1      40.097  28.476  29.526  1.00  0.00     0.037 A 
ATOM     25  C   UNL A   1      38.633  33.378  33.832  1.00  0.00     0.049 A 
ATOM     26  C   UNL A   1      39.020  29.525  29.601  1.00  0.00     0.074 A 
ATOM     27  C   UNL A   1      37.787  34.436  33.586  1.00  0.00     0.029 A 
ATOM     28  N   UNL A   1      38.553  32.517  32.744  1.00  0.00    -0.354 N 
ATOM     29  N   UNL A   1      38.859  30.469  30.501  1.00  0.00    -0.248 NA
ATOM     30  C   UNL A   1      38.023  29.536  28.529  1.00  0.00     0.031 C 
ATOM     31  C   UNL A   1      37.134  34.175  32.381  1.00  0.00     0.029 A 
ATOM     32  C   UNL A   1      37.631  32.996  31.839  1.00  0.00     0.049 A 
ATOM     33  H   UNL A   1      39.076  31.690  32.636  1.00  0.00     0.167 HD
ATOM     34  C   UNL A   1      37.795  31.238  30.059  1.00  0.00     0.074 A 
ATOM     35  C   UNL A   1      37.339  30.631  28.823  1.00  0.00     0.031 C 
ATOM     36  C   UNL A   1      37.257  32.357  30.602  1.00  0.00     0.037 A 
BRANCH  23  37
ATOM     37  C   UNL A   1      39.442  34.076  36.137  1.00  0.00     0.057 A 
ATOM     38  C   UNL A   1      40.147  35.290  36.154  1.00  0.00     0.134 A 
ATOM     39  C   UNL A   1      38.705  33.740  37.277  1.00  0.00     0.134 A 
ATOM     40  F   UNL A   1      40.902  35.655  35.106  1.00  0.00    -0.206 F 
ATOM     41  C   UNL A   1      40.140  36.122  37.272  1.00  0.00     0.040 A 
ATOM     42  C   UNL A   1      38.660  34.581  38.387  1.00  0.00     0.040 A 
ATOM     43  F   UNL A   1      38.025  32.585  37.333  1.00  0.00    -0.206 F 
ATOM     44  C   UNL A   1      39.385  35.773  38.389  1.00  0.00     0.006 A 
ENDBRANCH  23  37
BRANCH  24  45
ATOM     45  C   UNL A   1      40.044  27.379  28.492  1.00  0.00     0.057 A 
ATOM     46  C   UNL A   1      39.429  26.156  28.780  1.00  0.00     0.134 A 
ATOM     47  C   UNL A   1      40.672  27.450  27.237  1.00  0.00     0.134 A 
ATOM     48  F   UNL A   1      38.798  25.985  29.949  1.00  0.00    -0.206 F 
ATOM     49  C   UNL A   1      39.501  25.057  27.909  1.00  0.00     0.040 A 
ATOM     50  C   UNL A   1      40.741  26.370  26.349  1.00  0.00     0.040 A 
ATOM     51  F   UNL A   1      41.260  28.564  26.816  1.00  0.00    -0.206 F 
ATOM     52  C   UNL A   1      40.169  25.157  26.693  1.00  0.00     0.006 A 
ENDBRANCH  24  45
BRANCH  36  53
ATOM     53  C   UNL A   1      36.182  33.033  29.816  1.00  0.00     0.057 A 
ATOM     54  C   UNL A   1      36.467  33.786  28.674  1.00  0.00     0.134 A 
ATOM     55  C   UNL A   1      34.838  32.832  30.160  1.00  0.00     0.134 A 
ATOM     56  F   UNL A   1      37.738  34.019  28.312  1.00  0.00    -0.206 F 
ATOM     57  C   UNL A   1      35.446  34.329  27.901  1.00  0.00     0.040 A 
ATOM     58  C   UNL A   1      33.810  33.331  29.368  1.00  0.00     0.040 A 
ATOM     59  F   UNL A   1      34.510  32.102  31.236  1.00  0.00    -0.206 F 
ATOM     60  C   UNL A   1      34.114  34.087  28.238  1.00  0.00     0.006 A 
ENDBRANCH  36  53
ENDBRANCH  10  11
ENDBRANCH   3   5
ENDBRANCH   2   3
ENDBRANCH   1   2
BRANCH   1  61
ATOM     61  C   UNL A   1      45.590  22.314  39.855  1.00  0.00     0.274 C 
BRANCH  61  62
ATOM     62  O   UNL A   1      45.180  21.414  40.977  1.00  0.00    -0.462 OA
BRANCH  62  63
ATOM     63  C   UNL A   1      45.629  20.133  41.026  1.00  0.00     0.311 C 
ATOM     64  O   UNL A   1      45.966  19.580  39.983  1.00  0.00    -0.252 OA
BRANCH  63  65
ATOM     65  C   UNL A   1      45.602  19.382  42.445  1.00  0.00     0.127 C 
ATOM     66  C   UNL A   1      44.465  20.045  43.235  1.00  0.00     0.028 C 
ATOM     67  C   UNL A   1      45.521  17.801  42.815  1.00  0.00     0.130 C 
ATOM     68  C   UNL A   1      44.733  19.986  44.714  1.00  0.00     0.101 C 
ATOM     69  N   UNL A   1      45.395  17.602  44.435  1.00  0.00    -0.332 N 
ATOM     70  C   UNL A   1      44.949  18.616  45.280  1.00  0.00     0.223 C 
ATOM     71  O   UNL A   1      44.767  18.464  46.490  1.00  0.00    -0.275 OA
BRANCH  67  72
ATOM     72  C   UNL A   1      44.415  16.838  42.095  1.00  0.00    -0.025 A 
ATOM     73  C   UNL A   1      45.041  16.617  40.388  1.00  0.00     0.006 A 
ATOM     74  C   UNL A   1      42.632  15.931  42.465  1.00  0.00     0.006 A 
ATOM     75  C   UNL A   1      44.092  15.703  39.223  1.00  0.00     0.000 A 
ATOM     76  C   UNL A   1      41.818  14.997  41.175  1.00  0.00     0.000 A 
ATOM     77  C   UNL A   1      42.564  14.927  39.617  1.00  0.00     0.000 A 
ENDBRANCH  67  72
BRANCH  69  78
ATOM     78  C   UNL A   1      45.656  16.252  45.132  1.00  0.00     0.085 C 
ATOM     79  C   UNL A   1      44.351  15.482  45.425  1.00  0.00     0.025 C 
ATOM     80  C   UNL A   1      46.655  15.254  44.454  1.00  0.00     0.025 C 
ATOM     81  C   UNL A   1      44.562  14.133  46.135  1.00  0.00     0.002 C 
ATOM     82  C   UNL A   1      46.819  13.910  45.190  1.00  0.00     0.002 C 
ATOM     83  C   UNL A   1      45.493  13.206  45.388  1.00  0.00     0.000 C 
ENDBRANCH  69  78
ENDBRANCH  63  65
ENDBRANCH  62  63
ENDBRANCH  61  62
ENDBRANCH   1  61
TORSDOF 13
ENDMDL
MODEL 2
REMARK VINA RESULT:     -12.1     10.792     21.040
REMARK SMILES O=C(OCCOC(=O)[C@H]1CCC(=O)N(C2CCCCC2)[C@H]1c1ccccc1)c1ccc(-c2c3nc(c(-c4c(F)cccc4F)c4ccc([nH]4)c(-c4c(F)cccc4F)c4nc(c(-c5c(F)cccc5F)c5ccc2[nH]5)C=C4)C=C3)cc1
REMARK SMILES IDX 4 1 3 2 2 3 1 4 28 5 29 6 81 7 30 8 80 9 31 10 32 11 33 12
REMARK SMILES IDX 74 13 34 14 79 15 73 16 75 17 35 18 78 19 72 20 71 21 36 23
REMARK SMILES IDX 62 24 45 25 61 26 46 27 49 28 60 29 76 30 47 31 48 32 59 34
REMARK SMILES IDX 77 35 50 36 37 37 38 38 43 39 39 40 40 41 42 42 44 43 41 44
REMARK SMILES IDX 63 45 64 46 69 47 65 48 66 49 68 50 70 51 67 52 51 53 52 54
REMARK SMILES IDX 57 55 53 56 54 57 56 58 58 59 55 60 5 61 6 62 7 63 8 64 9 65
REMARK SMILES IDX 10 66 21 67 11 68 14 69 12 70 13 71 22 72 23 73 27 74 24 75
REMARK SMILES IDX 26 76 25 77 15 78 16 79 20 80 17 81 19 82 18 83
REMARK H PARENT 75 22 49 33
REMARK Flexibility Score: inf
ROOT
ATOM      1  C   UNL A   1      47.399  38.388  25.102  1.00  0.00     0.275 C 
ENDROOT
BRANCH   1   2
ATOM      2  O   UNL A   1      46.864  37.473  26.057  1.00  0.00    -0.458 OA
BRANCH   2   3
ATOM      3  C   UNL A   1      47.555  36.407  26.511  1.00  0.00     0.338 C 
ATOM      4  O   UNL A   1      48.779  36.374  26.478  1.00  0.00    -0.246 OA
BRANCH   3   5
ATOM      5  C   UNL A   1      46.838  35.213  27.004  1.00  0.00     0.060 A 
ATOM      6  C   UNL A   1      46.033  33.984  26.015  1.00  0.00     0.016 A 
ATOM      7  C   UNL A   1      46.996  34.855  28.746  1.00  0.00     0.016 A 
ATOM      8  C   UNL A   1      45.451  32.451  26.560  1.00  0.00     0.010 A 
ATOM      9  C   UNL A   1      46.328  33.060  29.403  1.00  0.00     0.010 A 
ATOM     10  C   UNL A   1      45.614  31.912  28.175  1.00  0.00    -0.014 A 
BRANCH  10  11
ATOM     11  C   UNL A   1      45.131  30.517  28.380  1.00  0.00     0.031 A 
ATOM     12  C   UNL A   1      46.104  29.479  27.981  1.00  0.00     0.074 A 
ATOM     13  C   UNL A   1      43.873  30.216  28.829  1.00  0.00     0.049 A 
ATOM     14  N   UNL A   1      45.892  28.264  27.584  1.00  0.00    -0.248 NA
ATOM     15  C   UNL A   1      47.519  29.893  27.965  1.00  0.00     0.031 C 
ATOM     16  C   UNL A   1      42.844  31.144  29.347  1.00  0.00     0.029 A 
ATOM     17  N   UNL A   1      43.164  29.027  28.804  1.00  0.00    -0.354 N 
ATOM     18  C   UNL A   1      47.146  27.795  27.232  1.00  0.00     0.074 A 
ATOM     19  C   UNL A   1      48.077  28.891  27.310  1.00  0.00     0.031 C 
ATOM     20  C   UNL A   1      41.645  30.550  29.430  1.00  0.00     0.029 A 
ATOM     21  C   UNL A   1      41.788  29.194  28.973  1.00  0.00     0.049 A 
ATOM     22  H   UNL A   1      43.590  28.148  28.679  1.00  0.00     0.167 HD
ATOM     23  C   UNL A   1      47.488  26.523  26.965  1.00  0.00     0.037 A 
ATOM     24  C   UNL A   1      40.747  28.382  28.684  1.00  0.00     0.037 A 
ATOM     25  C   UNL A   1      46.528  25.464  27.015  1.00  0.00     0.049 A 
ATOM     26  C   UNL A   1      41.133  27.011  28.196  1.00  0.00     0.074 A 
ATOM     27  C   UNL A   1      46.734  24.110  26.880  1.00  0.00     0.029 A 
ATOM     28  N   UNL A   1      45.169  25.661  27.228  1.00  0.00    -0.354 N 
ATOM     29  N   UNL A   1      42.333  26.544  27.930  1.00  0.00    -0.248 NA
ATOM     30  C   UNL A   1      40.053  26.040  28.013  1.00  0.00     0.031 C 
ATOM     31  C   UNL A   1      45.485  23.492  26.934  1.00  0.00     0.029 A 
ATOM     32  C   UNL A   1      44.510  24.452  27.181  1.00  0.00     0.049 A 
ATOM     33  H   UNL A   1      44.741  26.534  27.389  1.00  0.00     0.167 HD
ATOM     34  C   UNL A   1      42.162  25.204  27.630  1.00  0.00     0.074 A 
ATOM     35  C   UNL A   1      40.738  24.942  27.726  1.00  0.00     0.031 C 
ATOM     36  C   UNL A   1      43.089  24.263  27.329  1.00  0.00     0.037 A 
BRANCH  23  37
ATOM     37  C   UNL A   1      48.919  26.242  26.648  1.00  0.00     0.057 A 
ATOM     38  C   UNL A   1      49.454  26.423  25.362  1.00  0.00     0.134 A 
ATOM     39  C   UNL A   1      49.776  25.765  27.644  1.00  0.00     0.134 A 
ATOM     40  F   UNL A   1      48.676  26.844  24.353  1.00  0.00    -0.206 F 
ATOM     41  C   UNL A   1      50.783  26.116  25.075  1.00  0.00     0.040 A 
ATOM     42  C   UNL A   1      51.116  25.489  27.378  1.00  0.00     0.040 A 
ATOM     43  F   UNL A   1      49.322  25.551  28.888  1.00  0.00    -0.206 F 
ATOM     44  C   UNL A   1      51.621  25.658  26.090  1.00  0.00     0.006 A 
ENDBRANCH  23  37
BRANCH  24  45
ATOM     45  C   UNL A   1      39.299  28.786  28.803  1.00  0.00     0.057 A 
ATOM     46  C   UNL A   1      38.640  29.403  27.736  1.00  0.00     0.134 A 
ATOM     47  C   UNL A   1      38.546  28.675  29.985  1.00  0.00     0.134 A 
ATOM     48  F   UNL A   1      39.267  29.555  26.561  1.00  0.00    -0.206 F 
ATOM     49  C   UNL A   1      37.348  29.940  27.861  1.00  0.00     0.040 A 
ATOM     50  C   UNL A   1      37.253  29.191  30.125  1.00  0.00     0.040 A 
ATOM     51  F   UNL A   1      39.034  28.074  31.066  1.00  0.00    -0.206 F 
ATOM     52  C   UNL A   1      36.653  29.846  29.063  1.00  0.00     0.006 A 
ENDBRANCH  24  45
BRANCH  36  53
ATOM     53  C   UNL A   1      42.597  22.861  27.172  1.00  0.00     0.057 A 
ATOM     54  C   UNL A   1      42.243  22.077  28.272  1.00  0.00     0.134 A 
ATOM     55  C   UNL A   1      42.380  22.340  25.889  1.00  0.00     0.134 A 
ATOM     56  F   UNL A   1      42.445  22.525  29.521  1.00  0.00    -0.206 F 
ATOM     57  C   UNL A   1      41.697  20.809  28.102  1.00  0.00     0.040 A 
ATOM     58  C   UNL A   1      41.792  21.093  25.707  1.00  0.00     0.040 A 
ATOM     59  F   UNL A   1      42.686  23.060  24.799  1.00  0.00    -0.206 F 
ATOM     60  C   UNL A   1      41.454  20.322  26.817  1.00  0.00     0.006 A 
ENDBRANCH  36  53
ENDBRANCH  10  11
ENDBRANCH   3   5
ENDBRANCH   2   3
ENDBRANCH   1   2
BRANCH   1  61
ATOM     61  C   UNL A   1      46.638  39.754  25.104  1.00  0.00     0.274 C 
BRANCH  61  62
ATOM     62  O   UNL A   1      46.853  40.662  23.936  1.00  0.00    -0.462 OA
BRANCH  62  63
ATOM     63  C   UNL A   1      47.049  41.993  24.132  1.00  0.00     0.311 C 
ATOM     64  O   UNL A   1      46.974  42.444  25.271  1.00  0.00    -0.252 OA
BRANCH  63  65
ATOM     65  C   UNL A   1      47.274  42.916  22.838  1.00  0.00     0.127 C 
ATOM     66  C   UNL A   1      47.652  41.948  21.708  1.00  0.00     0.028 C 
ATOM     67  C   UNL A   1      46.321  44.037  22.147  1.00  0.00     0.130 C 
ATOM     68  C   UNL A   1      48.533  42.624  20.694  1.00  0.00     0.101 C 
ATOM     69  N   UNL A   1      47.000  44.585  20.762  1.00  0.00    -0.332 N 
ATOM     70  C   UNL A   1      47.971  43.864  20.069  1.00  0.00     0.223 C 
ATOM     71  O   UNL A   1      48.435  44.216  18.983  1.00  0.00    -0.275 OA
BRANCH  67  72
ATOM     72  C   UNL A   1      44.746  43.716  21.851  1.00  0.00    -0.025 A 
ATOM     73  C   UNL A   1      43.999  43.516  23.511  1.00  0.00     0.006 A 
ATOM     74  C   UNL A   1      43.461  43.413  20.304  1.00  0.00     0.006 A 
ATOM     75  C   UNL A   1      42.305  43.067  23.656  1.00  0.00     0.000 A 
ATOM     76  C   UNL A   1      41.750  43.006  20.628  1.00  0.00     0.000 A 
ATOM     77  C   UNL A   1      41.243  42.840  22.273  1.00  0.00     0.000 A 
ENDBRANCH  67  72
BRANCH  69  78
ATOM     78  C   UNL A   1      46.543  45.883  20.065  1.00  0.00     0.085 C 
ATOM     79  C   UNL A   1      45.618  45.605  18.862  1.00  0.00     0.025 C 
ATOM     80  C   UNL A   1      45.865  46.989  20.942  1.00  0.00     0.025 C 
ATOM     81  C   UNL A   1      45.148  46.873  18.125  1.00  0.00     0.002 C 
ATOM     82  C   UNL A   1      45.395  48.230  20.158  1.00  0.00     0.002 C 
ATOM     83  C   UNL A   1      44.453  47.864  19.029  1.00  0.00     0.000 C 
ENDBRANCH  69  78
ENDBRANCH  63  65
ENDBRANCH  62  63
ENDBRANCH  61  62
ENDBRANCH   1  61
TORSDOF 13
ENDMDL
MODEL 3
REMARK VINA RESULT:     -12.1     10.706     20.866
REMARK SMILES O=C(OCCOC(=O)[C@H]1CCC(=O)N(C2CCCCC2)[C@H]1c1ccccc1)c1ccc(-c2c3nc(c(-c4c(F)cccc4F)c4ccc([nH]4)c(-c4c(F)cccc4F)c4nc(c(-c5c(F)cccc5F)c5ccc2[nH]5)C=C4)C=C3)cc1
REMARK SMILES IDX 4 1 3 2 2 3 1 4 28 5 29 6 81 7 30 8 80 9 31 10 32 11 33 12
REMARK SMILES IDX 74 13 34 14 79 15 73 16 75 17 35 18 78 19 72 20 71 21 36 23
REMARK SMILES IDX 62 24 45 25 61 26 46 27 49 28 60 29 76 30 47 31 48 32 59 34
REMARK SMILES IDX 77 35 50 36 37 37 38 38 43 39 39 40 40 41 42 42 44 43 41 44
REMARK SMILES IDX 63 45 64 46 69 47 65 48 66 49 68 50 70 51 67 52 51 53 52 54
REMARK SMILES IDX 57 55 53 56 54 57 56 58 58 59 55 60 5 61 6 62 7 63 8 64 9 65
REMARK SMILES IDX 10 66 21 67 11 68 14 69 12 70 13 71 22 72 23 73 27 74 24 75
REMARK SMILES IDX 26 76 25 77 15 78 16 79 20 80 17 81 19 82 18 83
REMARK H PARENT 75 22 49 33
REMARK Flexibility Score: inf
ROOT
ATOM      1  C   UNL A   1      46.125  40.162  26.802  1.00  0.00     0.275 C 
ENDROOT
BRANCH   1   2
ATOM      2  O   UNL A   1      45.490  38.906  26.569  1.00  0.00    -0.458 OA
BRANCH   2   3
ATOM      3  C   UNL A   1      46.176  37.748  26.472  1.00  0.00     0.338 C 
ATOM      4  O   UNL A   1      47.215  37.670  25.827  1.00  0.00    -0.246 OA
BRANCH   3   5
ATOM      5  C   UNL A   1      45.648  36.518  27.096  1.00  0.00     0.060 A 
ATOM      6  C   UNL A   1      44.405  35.448  26.428  1.00  0.00     0.016 A 
ATOM      7  C   UNL A   1      46.506  35.933  28.548  1.00  0.00     0.016 A 
ATOM      8  C   UNL A   1      43.994  33.872  27.003  1.00  0.00     0.010 A 
ATOM      9  C   UNL A   1      46.044  34.084  29.233  1.00  0.00     0.010 A 
ATOM     10  C   UNL A   1      44.788  33.123  28.320  1.00  0.00    -0.014 A 
BRANCH  10  11
ATOM     11  C   UNL A   1      44.331  31.725  28.563  1.00  0.00     0.031 A 
ATOM     12  C   UNL A   1      45.105  30.704  27.827  1.00  0.00     0.074 A 
ATOM     13  C   UNL A   1      43.248  31.413  29.341  1.00  0.00     0.049 A 
ATOM     14  N   UNL A   1      44.739  29.526  27.429  1.00  0.00    -0.248 NA
ATOM     15  C   UNL A   1      46.468  31.092  27.424  1.00  0.00     0.031 C 
ATOM     16  C   UNL A   1      42.451  32.317  30.199  1.00  0.00     0.029 A 
ATOM     17  N   UNL A   1      42.517  30.241  29.445  1.00  0.00    -0.354 N 
ATOM     18  C   UNL A   1      45.817  29.063  26.693  1.00  0.00     0.074 A 
ATOM     19  C   UNL A   1      46.772  30.133  26.569  1.00  0.00     0.031 C 
ATOM     20  C   UNL A   1      41.307  31.739  30.590  1.00  0.00     0.029 A 
ATOM     21  C   UNL A   1      41.257  30.419  30.021  1.00  0.00     0.049 A 
ATOM     22  H   UNL A   1      42.853  29.367  29.141  1.00  0.00     0.167 HD
ATOM     23  C   UNL A   1      46.017  27.809  26.253  1.00  0.00     0.037 A 
ATOM     24  C   UNL A   1      40.147  29.649  29.995  1.00  0.00     0.037 A 
ATOM     25  C   UNL A   1      45.072  26.766  26.511  1.00  0.00     0.049 A 
ATOM     26  C   UNL A   1      40.320  28.313  29.325  1.00  0.00     0.074 A 
ATOM     27  C   UNL A   1      45.177  25.423  26.231  1.00  0.00     0.029 A 
ATOM     28  N   UNL A   1      43.843  26.971  27.126  1.00  0.00    -0.354 N 
ATOM     29  N   UNL A   1      41.371  27.847  28.687  1.00  0.00    -0.248 NA
ATOM     30  C   UNL A   1      39.197  27.378  29.402  1.00  0.00     0.031 C 
ATOM     31  C   UNL A   1      43.974  24.824  26.606  1.00  0.00     0.029 A 
ATOM     32  C   UNL A   1      43.153  25.780  27.193  1.00  0.00     0.049 A 
ATOM     33  H   UNL A   1      43.515  27.836  27.464  1.00  0.00     0.167 HD
ATOM     34  C   UNL A   1      41.068  26.536  28.361  1.00  0.00     0.074 A 
ATOM     35  C   UNL A   1      39.725  26.294  28.853  1.00  0.00     0.031 C 
ATOM     36  C   UNL A   1      41.830  25.605  27.739  1.00  0.00     0.037 A 
BRANCH  23  37
ATOM     37  C   UNL A   1      47.281  27.528  25.511  1.00  0.00     0.057 A 
ATOM     38  C   UNL A   1      47.382  27.668  24.118  1.00  0.00     0.134 A 
ATOM     39  C   UNL A   1      48.416  27.093  26.202  1.00  0.00     0.134 A 
ATOM     40  F   UNL A   1      46.320  28.047  23.391  1.00  0.00    -0.206 F 
ATOM     41  C   UNL A   1      48.560  27.361  23.438  1.00  0.00     0.040 A 
ATOM     42  C   UNL A   1      49.610  26.818  25.538  1.00  0.00     0.040 A 
ATOM     43  F   UNL A   1      48.379  26.920  27.532  1.00  0.00    -0.206 F 
ATOM     44  C   UNL A   1      49.682  26.945  24.152  1.00  0.00     0.006 A 
ENDBRANCH  23  37
BRANCH  24  45
ATOM     45  C   UNL A   1      38.814  30.069  30.561  1.00  0.00     0.057 A 
ATOM     46  C   UNL A   1      38.468  29.759  31.881  1.00  0.00     0.134 A 
ATOM     47  C   UNL A   1      37.801  30.693  29.811  1.00  0.00     0.134 A 
ATOM     48  F   UNL A   1      39.362  29.166  32.683  1.00  0.00    -0.206 F 
ATOM     49  C   UNL A   1      37.180  29.986  32.393  1.00  0.00     0.040 A 
ATOM     50  C   UNL A   1      36.517  30.941  30.308  1.00  0.00     0.040 A 
ATOM     51  F   UNL A   1      38.005  31.079  28.556  1.00  0.00    -0.206 F 
ATOM     52  C   UNL A   1      36.194  30.568  31.602  1.00  0.00     0.006 A 
ENDBRANCH  24  45
BRANCH  36  53
ATOM     53  C   UNL A   1      41.259  24.229  27.638  1.00  0.00     0.057 A 
ATOM     54  C   UNL A   1      40.304  23.896  26.675  1.00  0.00     0.134 A 
ATOM     55  C   UNL A   1      41.760  23.206  28.456  1.00  0.00     0.134 A 
ATOM     56  F   UNL A   1      39.782  24.841  25.878  1.00  0.00    -0.206 F 
ATOM     57  C   UNL A   1      39.854  22.587  26.534  1.00  0.00     0.040 A 
ATOM     58  C   UNL A   1      41.352  21.887  28.293  1.00  0.00     0.040 A 
ATOM     59  F   UNL A   1      42.692  23.470  29.385  1.00  0.00    -0.206 F 
ATOM     60  C   UNL A   1      40.392  21.576  27.333  1.00  0.00     0.006 A 
ENDBRANCH  36  53
ENDBRANCH  10  11
ENDBRANCH   3   5
ENDBRANCH   2   3
ENDBRANCH   1   2
BRANCH   1  61
ATOM     61  C   UNL A   1      45.609  41.273  25.831  1.00  0.00     0.274 C 
BRANCH  61  62
ATOM     62  O   UNL A   1      46.621  41.953  24.965  1.00  0.00    -0.462 OA
BRANCH  62  63
ATOM     63  C   UNL A   1      46.866  41.495  23.709  1.00  0.00     0.311 C 
ATOM     64  O   UNL A   1      46.898  40.283  23.514  1.00  0.00    -0.252 OA
BRANCH  63  65
ATOM     65  C   UNL A   1      47.194  42.574  22.567  1.00  0.00     0.127 C 
ATOM     66  C   UNL A   1      47.604  41.752  21.337  1.00  0.00     0.028 C 
ATOM     67  C   UNL A   1      46.318  43.814  21.986  1.00  0.00     0.130 C 
ATOM     68  C   UNL A   1      48.562  42.523  20.471  1.00  0.00     0.101 C 
ATOM     69  N   UNL A   1      47.091  44.515  20.726  1.00  0.00    -0.332 N 
ATOM     70  C   UNL A   1      48.076  43.857  19.993  1.00  0.00     0.223 C 
ATOM     71  O   UNL A   1      48.613  44.333  18.991  1.00  0.00    -0.275 OA
BRANCH  67  72
ATOM     72  C   UNL A   1      44.753  43.598  21.568  1.00  0.00    -0.025 A 
ATOM     73  C   UNL A   1      43.870  43.432  23.164  1.00  0.00     0.006 A 
ATOM     74  C   UNL A   1      43.572  43.392  19.925  1.00  0.00     0.006 A 
ATOM     75  C   UNL A   1      42.145  43.092  23.174  1.00  0.00     0.000 A 
ATOM     76  C   UNL A   1      41.819  43.093  20.113  1.00  0.00     0.000 A 
ATOM     77  C   UNL A   1      41.179  42.946  21.713  1.00  0.00     0.000 A 
ENDBRANCH  67  72
BRANCH  69  78
ATOM     78  C   UNL A   1      46.717  45.912  20.190  1.00  0.00     0.085 C 
ATOM     79  C   UNL A   1      45.880  45.836  18.895  1.00  0.00     0.025 C 
ATOM     80  C   UNL A   1      45.997  46.905  21.163  1.00  0.00     0.025 C 
ATOM     81  C   UNL A   1      45.495  47.208  18.314  1.00  0.00     0.002 C 
ATOM     82  C   UNL A   1      45.613  48.258  20.532  1.00  0.00     0.002 C 
ATOM     83  C   UNL A   1      44.754  48.084  19.297  1.00  0.00     0.000 C 
ENDBRANCH  69  78
ENDBRANCH  63  65
ENDBRANCH  62  63
ENDBRANCH  61  62
ENDBRANCH   1  61
TORSDOF 13
ENDMDL
