MODEL 1
REMARK VINA RESULT:     -11.1      0.000      0.000
REMARK SMILES C[C@@H](C(=O)OCCOC(=O)c1ccc(-c2c3nc(c(-c4c(F)cccc4F)c4ccc([nH]4)c(-c4c(F)cccc4F)c4nc(c(-c5c(F)cccc5F)c5ccc2[nH]5)C=C4)C=C3)cc1)c1ccc(N[C@H]2CCC[C@@H]2O)cc1F
REMARK SMILES IDX 6 1 5 2 3 3 4 4 2 5 1 6 65 7 66 8 77 9 67 10 76 11 78 12
REMARK SMILES IDX 68 13 69 14 70 16 71 17 74 18 72 19 73 20 75 21 7 23 8 24
REMARK SMILES IDX 9 25 10 26 11 27 12 28 64 29 13 30 63 31 14 32 15 33 16 34
REMARK SMILES IDX 57 35 17 36 62 37 56 38 58 39 18 40 61 41 55 42 54 43 19 45
REMARK SMILES IDX 45 46 28 47 44 48 29 49 32 50 43 51 59 52 30 53 31 54 42 56
REMARK SMILES IDX 60 57 33 58 20 59 21 60 26 61 22 62 23 63 25 64 27 65 24 66
REMARK SMILES IDX 46 67 47 68 52 69 48 70 49 71 51 72 53 73 50 74 34 75 35 76
REMARK SMILES IDX 40 77 36 78 37 79 39 80 41 81 38 82
REMARK H PARENT 69 15 75 22 58 44 32 55
REMARK Flexibility Score: inf
ROOT
ATOM      1  C   UNL A   1      31.138  31.768  26.234  1.00  0.00     0.274 C 
ENDROOT
BRANCH   1   2
ATOM      2  O   UNL A   1      31.829  30.699  26.911  1.00  0.00    -0.462 OA
BRANCH   2   3
ATOM      3  C   UNL A   1      32.552  29.847  26.131  1.00  0.00     0.313 C 
ATOM      4  O   UNL A   1      32.555  29.891  24.907  1.00  0.00    -0.252 OA
BRANCH   3   5
ATOM      5  C   UNL A   1      33.312  28.795  26.958  1.00  0.00     0.129 C 
ATOM      6  C   UNL A   1      34.806  29.107  27.094  1.00  0.00     0.025 C 
BRANCH   5   7
ATOM      7  C   UNL A   1      33.039  27.384  26.447  1.00  0.00     0.002 A 
ATOM      8  C   UNL A   1      33.978  26.627  25.735  1.00  0.00     0.010 A 
ATOM      9  C   UNL A   1      31.771  26.824  26.620  1.00  0.00     0.129 A 
ATOM     10  C   UNL A   1      33.642  25.365  25.217  1.00  0.00     0.026 A 
ATOM     11  C   UNL A   1      31.439  25.575  26.089  1.00  0.00     0.065 A 
ATOM     12  F   UNL A   1      30.831  27.501  27.295  1.00  0.00    -0.207 F 
ATOM     13  C   UNL A   1      32.369  24.812  25.373  1.00  0.00     0.037 A 
BRANCH  13  14
ATOM     14  N   UNL A   1      31.961  23.615  24.832  1.00  0.00    -0.380 N 
ATOM     15  H   UNL A   1      31.491  23.697  23.971  1.00  0.00     0.160 HD
BRANCH  14  16
ATOM     16  C   UNL A   1      32.107  22.241  25.315  1.00  0.00     0.107 C 
ATOM     17  C   UNL A   1      32.702  21.272  24.293  1.00  0.00     0.027 C 
ATOM     18  C   UNL A   1      32.953  22.094  26.591  1.00  0.00     0.136 C 
ATOM     19  C   UNL A   1      33.838  20.543  25.007  1.00  0.00     0.005 C 
ATOM     20  C   UNL A   1      33.508  20.678  26.482  1.00  0.00     0.034 C 
BRANCH  18  21
ATOM     21  O   UNL A   1      32.168  22.238  27.768  1.00  0.00    -0.391 OA
ATOM     22  H   UNL A   1      31.383  21.672  27.703  1.00  0.00     0.211 HD
ENDBRANCH  18  21
ENDBRANCH  14  16
ENDBRANCH  13  14
ENDBRANCH   5   7
ENDBRANCH   3   5
ENDBRANCH   2   3
ENDBRANCH   1   2
BRANCH   1  23
ATOM     23  C   UNL A   1      31.784  33.123  26.528  1.00  0.00     0.275 C 
BRANCH  23  24
ATOM     24  O   UNL A   1      32.038  33.278  27.936  1.00  0.00    -0.458 OA
BRANCH  24  25
ATOM     25  C   UNL A   1      32.963  34.198  28.272  1.00  0.00     0.338 C 
ATOM     26  O   UNL A   1      32.801  35.408  28.408  1.00  0.00    -0.246 OA
BRANCH  25  27
ATOM     27  C   UNL A   1      34.241  33.537  28.554  1.00  0.00     0.060 A 
ATOM     28  C   UNL A   1      34.201  32.282  29.149  1.00  0.00     0.016 A 
ATOM     29  C   UNL A   1      35.463  34.188  28.376  1.00  0.00     0.016 A 
ATOM     30  C   UNL A   1      35.365  31.709  29.643  1.00  0.00     0.010 A 
ATOM     31  C   UNL A   1      36.648  33.574  28.817  1.00  0.00     0.010 A 
ATOM     32  C   UNL A   1      36.608  32.345  29.497  1.00  0.00    -0.014 A 
BRANCH  32  33
ATOM     33  C   UNL A   1      37.809  31.724  30.136  1.00  0.00     0.031 A 
ATOM     34  C   UNL A   1      38.150  32.008  31.580  1.00  0.00     0.074 A 
ATOM     35  C   UNL A   1      38.496  30.763  29.482  1.00  0.00     0.049 A 
ATOM     36  N   UNL A   1      39.082  31.469  32.329  1.00  0.00    -0.248 NA
ATOM     37  C   UNL A   1      37.314  32.988  32.292  1.00  0.00     0.031 C 
ATOM     38  C   UNL A   1      38.231  30.322  28.111  1.00  0.00     0.029 A 
ATOM     39  N   UNL A   1      39.522  29.948  29.898  1.00  0.00    -0.354 N 
ATOM     40  C   UNL A   1      38.921  32.013  33.597  1.00  0.00     0.074 A 
ATOM     41  C   UNL A   1      37.844  32.975  33.507  1.00  0.00     0.031 C 
ATOM     42  C   UNL A   1      39.022  29.277  27.824  1.00  0.00     0.029 A 
ATOM     43  C   UNL A   1      39.902  29.018  28.959  1.00  0.00     0.049 A 
ATOM     44  H   UNL A   1      39.944  30.024  30.784  1.00  0.00     0.167 HD
ATOM     45  C   UNL A   1      39.570  31.709  34.745  1.00  0.00     0.037 A 
ATOM     46  C   UNL A   1      40.862  28.074  28.991  1.00  0.00     0.037 A 
ATOM     47  C   UNL A   1      40.629  30.744  34.868  1.00  0.00     0.049 A 
ATOM     48  C   UNL A   1      41.724  27.933  30.212  1.00  0.00     0.074 A 
ATOM     49  C   UNL A   1      41.337  30.380  36.002  1.00  0.00     0.029 A 
ATOM     50  N   UNL A   1      41.137  29.992  33.823  1.00  0.00    -0.354 N 
ATOM     51  N   UNL A   1      41.585  28.490  31.388  1.00  0.00    -0.248 NA
ATOM     52  C   UNL A   1      42.901  27.057  30.094  1.00  0.00     0.031 C 
ATOM     53  C   UNL A   1      42.300  29.435  35.635  1.00  0.00     0.029 A 
ATOM     54  C   UNL A   1      42.176  29.195  34.277  1.00  0.00     0.049 A 
ATOM     55  H   UNL A   1      40.808  30.019  32.895  1.00  0.00     0.167 HD
ATOM     56  C   UNL A   1      42.649  28.028  32.153  1.00  0.00     0.074 A 
ATOM     57  C   UNL A   1      43.417  27.133  31.313  1.00  0.00     0.031 C 
ATOM     58  C   UNL A   1      42.956  28.327  33.438  1.00  0.00     0.037 A 
BRANCH  45  59
ATOM     59  C   UNL A   1      39.141  32.424  35.989  1.00  0.00     0.057 A 
ATOM     60  C   UNL A   1      39.574  33.726  36.263  1.00  0.00     0.134 A 
ATOM     61  C   UNL A   1      38.241  31.834  36.883  1.00  0.00     0.134 A 
ATOM     62  F   UNL A   1      40.427  34.348  35.436  1.00  0.00    -0.206 F 
ATOM     63  C   UNL A   1      39.139  34.414  37.395  1.00  0.00     0.040 A 
ATOM     64  C   UNL A   1      37.786  32.517  38.012  1.00  0.00     0.040 A 
ATOM     65  F   UNL A   1      37.781  30.593  36.666  1.00  0.00    -0.206 F 
ATOM     66  C   UNL A   1      38.238  33.811  38.271  1.00  0.00     0.006 A 
ENDBRANCH  45  59
BRANCH  46  67
ATOM     67  C   UNL A   1      41.105  27.216  27.804  1.00  0.00     0.057 A 
ATOM     68  C   UNL A   1      41.939  27.636  26.762  1.00  0.00     0.134 A 
ATOM     69  C   UNL A   1      40.487  25.966  27.673  1.00  0.00     0.134 A 
ATOM     70  F   UNL A   1      42.534  28.837  26.814  1.00  0.00    -0.206 F 
ATOM     71  C   UNL A   1      42.148  26.844  25.631  1.00  0.00     0.040 A 
ATOM     72  C   UNL A   1      40.706  25.154  26.560  1.00  0.00     0.040 A 
ATOM     73  F   UNL A   1      39.664  25.515  28.631  1.00  0.00    -0.206 F 
ATOM     74  C   UNL A   1      41.536  25.596  25.533  1.00  0.00     0.006 A 
ENDBRANCH  46  67
BRANCH  58  75
ATOM     75  C   UNL A   1      44.186  27.693  34.013  1.00  0.00     0.057 A 
ATOM     76  C   UNL A   1      45.416  28.362  34.009  1.00  0.00     0.134 A 
ATOM     77  C   UNL A   1      44.139  26.424  34.601  1.00  0.00     0.134 A 
ATOM     78  F   UNL A   1      45.528  29.574  33.446  1.00  0.00    -0.206 F 
ATOM     79  C   UNL A   1      46.562  27.782  34.557  1.00  0.00     0.040 A 
ATOM     80  C   UNL A   1      45.273  25.842  35.170  1.00  0.00     0.040 A 
ATOM     81  F   UNL A   1      42.989  25.733  34.640  1.00  0.00    -0.206 F 
ATOM     82  C   UNL A   1      46.490  26.521  35.145  1.00  0.00     0.006 A 
ENDBRANCH  58  75
ENDBRANCH  32  33
ENDBRANCH  25  27
ENDBRANCH  24  25
ENDBRANCH  23  24
ENDBRANCH   1  23
TORSDOF 15
ENDMDL
MODEL 2
REMARK VINA RESULT:     -10.8      2.672      7.305
REMARK SMILES C[C@@H](C(=O)OCCOC(=O)c1ccc(-c2c3nc(c(-c4c(F)cccc4F)c4ccc([nH]4)c(-c4c(F)cccc4F)c4nc(c(-c5c(F)cccc5F)c5ccc2[nH]5)C=C4)C=C3)cc1)c1ccc(N[C@H]2CCC[C@@H]2O)cc1F
REMARK SMILES IDX 6 1 5 2 3 3 4 4 2 5 1 6 65 7 66 8 77 9 67 10 76 11 78 12
REMARK SMILES IDX 68 13 69 14 70 16 71 17 74 18 72 19 73 20 75 21 7 23 8 24
REMARK SMILES IDX 9 25 10 26 11 27 12 28 64 29 13 30 63 31 14 32 15 33 16 34
REMARK SMILES IDX 57 35 17 36 62 37 56 38 58 39 18 40 61 41 55 42 54 43 19 45
REMARK SMILES IDX 45 46 28 47 44 48 29 49 32 50 43 51 59 52 30 53 31 54 42 56
REMARK SMILES IDX 60 57 33 58 20 59 21 60 26 61 22 62 23 63 25 64 27 65 24 66
REMARK SMILES IDX 46 67 47 68 52 69 48 70 49 71 51 72 53 73 50 74 34 75 35 76
REMARK SMILES IDX 40 77 36 78 37 79 39 80 41 81 38 82
REMARK H PARENT 69 15 75 22 58 44 32 55
REMARK Flexibility Score: inf
ROOT
ATOM      1  C   UNL A   1      33.355  34.765  28.724  1.00  0.00     0.274 C 
ENDROOT
BRANCH   1   2
ATOM      2  O   UNL A   1      34.654  34.240  29.064  1.00  0.00    -0.462 OA
BRANCH   2   3
ATOM      3  C   UNL A   1      34.691  32.970  29.556  1.00  0.00     0.313 C 
ATOM      4  O   UNL A   1      34.088  32.619  30.563  1.00  0.00    -0.252 OA
BRANCH   3   5
ATOM      5  C   UNL A   1      35.618  32.052  28.741  1.00  0.00     0.129 C 
ATOM      6  C   UNL A   1      36.654  32.827  27.918  1.00  0.00     0.025 C 
BRANCH   5   7
ATOM      7  C   UNL A   1      34.820  31.053  27.909  1.00  0.00     0.002 A 
ATOM      8  C   UNL A   1      33.509  31.285  27.474  1.00  0.00     0.010 A 
ATOM      9  C   UNL A   1      35.376  29.806  27.614  1.00  0.00     0.129 A 
ATOM     10  C   UNL A   1      32.794  30.293  26.781  1.00  0.00     0.026 A 
ATOM     11  C   UNL A   1      34.654  28.819  26.937  1.00  0.00     0.065 A 
ATOM     12  F   UNL A   1      36.629  29.527  28.002  1.00  0.00    -0.207 F 
ATOM     13  C   UNL A   1      33.342  29.040  26.503  1.00  0.00     0.037 A 
BRANCH  13  14
ATOM     14  N   UNL A   1      32.670  28.008  25.889  1.00  0.00    -0.380 N 
ATOM     15  H   UNL A   1      33.224  27.215  25.703  1.00  0.00     0.160 HD
BRANCH  14  16
ATOM     16  C   UNL A   1      31.274  27.884  25.467  1.00  0.00     0.107 C 
ATOM     17  C   UNL A   1      30.947  28.590  24.151  1.00  0.00     0.027 C 
ATOM     18  C   UNL A   1      30.774  26.437  25.313  1.00  0.00     0.136 C 
ATOM     19  C   UNL A   1      30.217  27.566  23.286  1.00  0.00     0.005 C 
ATOM     20  C   UNL A   1      29.664  26.558  24.276  1.00  0.00     0.034 C 
BRANCH  18  21
ATOM     21  O   UNL A   1      30.266  25.918  26.536  1.00  0.00    -0.391 OA
ATOM     22  H   UNL A   1      30.345  26.593  27.230  1.00  0.00     0.211 HD
ENDBRANCH  18  21
ENDBRANCH  14  16
ENDBRANCH  13  14
ENDBRANCH   5   7
ENDBRANCH   3   5
ENDBRANCH   2   3
ENDBRANCH   1   2
BRANCH   1  23
ATOM     23  C   UNL A   1      32.919  35.855  29.705  1.00  0.00     0.275 C 
BRANCH  23  24
ATOM     24  O   UNL A   1      32.552  35.286  30.976  1.00  0.00    -0.458 OA
BRANCH  24  25
ATOM     25  C   UNL A   1      32.941  35.975  32.066  1.00  0.00     0.338 C 
ATOM     26  O   UNL A   1      32.461  37.017  32.505  1.00  0.00    -0.246 OA
BRANCH  25  27
ATOM     27  C   UNL A   1      34.014  35.250  32.754  1.00  0.00     0.060 A 
ATOM     28  C   UNL A   1      35.321  35.668  32.532  1.00  0.00     0.016 A 
ATOM     29  C   UNL A   1      33.766  34.090  33.490  1.00  0.00     0.016 A 
ATOM     30  C   UNL A   1      36.383  34.889  32.970  1.00  0.00     0.010 A 
ATOM     31  C   UNL A   1      34.845  33.340  33.989  1.00  0.00     0.010 A 
ATOM     32  C   UNL A   1      36.170  33.707  33.697  1.00  0.00    -0.014 A 
BRANCH  32  33
ATOM     33  C   UNL A   1      37.350  32.863  34.055  1.00  0.00     0.031 A 
ATOM     34  C   UNL A   1      37.850  31.793  33.112  1.00  0.00     0.074 A 
ATOM     35  C   UNL A   1      38.090  33.169  35.142  1.00  0.00     0.049 A 
ATOM     36  N   UNL A   1      38.926  31.049  33.205  1.00  0.00    -0.248 NA
ATOM     37  C   UNL A   1      37.073  31.557  31.884  1.00  0.00     0.031 C 
ATOM     38  C   UNL A   1      37.778  34.230  36.102  1.00  0.00     0.029 A 
ATOM     39  N   UNL A   1      39.282  32.655  35.594  1.00  0.00    -0.354 N 
ATOM     40  C   UNL A   1      38.972  30.290  32.042  1.00  0.00     0.074 A 
ATOM     41  C   UNL A   1      37.783  30.612  31.284  1.00  0.00     0.031 C 
ATOM     42  C   UNL A   1      38.782  34.333  36.986  1.00  0.00     0.029 A 
ATOM     43  C   UNL A   1      39.774  33.300  36.704  1.00  0.00     0.049 A 
ATOM     44  H   UNL A   1      39.739  31.897  35.164  1.00  0.00     0.167 HD
ATOM     45  C   UNL A   1      39.936  29.440  31.615  1.00  0.00     0.037 A 
ATOM     46  C   UNL A   1      40.886  33.080  37.432  1.00  0.00     0.037 A 
ATOM     47  C   UNL A   1      41.136  29.117  32.338  1.00  0.00     0.049 A 
ATOM     48  C   UNL A   1      41.810  31.959  37.054  1.00  0.00     0.074 A 
ATOM     49  C   UNL A   1      42.161  28.262  31.967  1.00  0.00     0.029 A 
ATOM     50  N   UNL A   1      41.472  29.629  33.578  1.00  0.00    -0.354 N 
ATOM     51  N   UNL A   1      41.813  31.221  35.973  1.00  0.00    -0.248 NA
ATOM     52  C   UNL A   1      42.868  31.619  38.019  1.00  0.00     0.031 C 
ATOM     53  C   UNL A   1      43.100  28.228  33.003  1.00  0.00     0.029 A 
ATOM     54  C   UNL A   1      42.669  29.078  34.007  1.00  0.00     0.049 A 
ATOM     55  H   UNL A   1      40.939  30.287  34.082  1.00  0.00     0.167 HD
ATOM     56  C   UNL A   1      42.871  30.335  36.123  1.00  0.00     0.074 A 
ATOM     57  C   UNL A   1      43.500  30.637  37.392  1.00  0.00     0.031 C 
ATOM     58  C   UNL A   1      43.279  29.357  35.279  1.00  0.00     0.037 A 
BRANCH  45  59
ATOM     59  C   UNL A   1      39.742  28.797  30.276  1.00  0.00     0.057 A 
ATOM     60  C   UNL A   1      40.217  29.401  29.107  1.00  0.00     0.134 A 
ATOM     61  C   UNL A   1      39.138  27.541  30.163  1.00  0.00     0.134 A 
ATOM     62  F   UNL A   1      40.818  30.599  29.154  1.00  0.00    -0.206 F 
ATOM     63  C   UNL A   1      40.083  28.783  27.863  1.00  0.00     0.040 A 
ATOM     64  C   UNL A   1      39.010  26.906  28.927  1.00  0.00     0.040 A 
ATOM     65  F   UNL A   1      38.674  26.908  31.251  1.00  0.00    -0.206 F 
ATOM     66  C   UNL A   1      39.482  27.529  27.772  1.00  0.00     0.006 A 
ENDBRANCH  45  59
BRANCH  46  67
ATOM     67  C   UNL A   1      41.166  33.903  38.635  1.00  0.00     0.057 A 
ATOM     68  C   UNL A   1      40.573  33.612  39.869  1.00  0.00     0.134 A 
ATOM     69  C   UNL A   1      42.013  35.017  38.572  1.00  0.00     0.134 A 
ATOM     70  F   UNL A   1      39.728  32.578  39.986  1.00  0.00    -0.206 F 
ATOM     71  C   UNL A   1      40.812  34.401  40.997  1.00  0.00     0.040 A 
ATOM     72  C   UNL A   1      42.279  35.799  39.696  1.00  0.00     0.040 A 
ATOM     73  F   UNL A   1      42.598  35.357  37.415  1.00  0.00    -0.206 F 
ATOM     74  C   UNL A   1      41.674  35.493  40.912  1.00  0.00     0.006 A 
ENDBRANCH  46  67
BRANCH  58  75
ATOM     75  C   UNL A   1      44.452  28.528  35.705  1.00  0.00     0.057 A 
ATOM     76  C   UNL A   1      45.763  28.917  35.402  1.00  0.00     0.134 A 
ATOM     77  C   UNL A   1      44.278  27.354  36.446  1.00  0.00     0.134 A 
ATOM     78  F   UNL A   1      45.994  30.024  34.681  1.00  0.00    -0.206 F 
ATOM     79  C   UNL A   1      46.860  28.155  35.809  1.00  0.00     0.040 A 
ATOM     80  C   UNL A   1      45.368  26.595  36.876  1.00  0.00     0.040 A 
ATOM     81  F   UNL A   1      43.047  26.930  36.772  1.00  0.00    -0.206 F 
ATOM     82  C   UNL A   1      46.664  26.994  36.553  1.00  0.00     0.006 A 
ENDBRANCH  58  75
ENDBRANCH  32  33
ENDBRANCH  25  27
ENDBRANCH  24  25
ENDBRANCH  23  24
ENDBRANCH   1  23
TORSDOF 15
ENDMDL
MODEL 3
REMARK VINA RESULT:     -10.7      1.207      6.334
REMARK SMILES C[C@@H](C(=O)OCCOC(=O)c1ccc(-c2c3nc(c(-c4c(F)cccc4F)c4ccc([nH]4)c(-c4c(F)cccc4F)c4nc(c(-c5c(F)cccc5F)c5ccc2[nH]5)C=C4)C=C3)cc1)c1ccc(N[C@H]2CCC[C@@H]2O)cc1F
REMARK SMILES IDX 6 1 5 2 3 3 4 4 2 5 1 6 65 7 66 8 77 9 67 10 76 11 78 12
REMARK SMILES IDX 68 13 69 14 70 16 71 17 74 18 72 19 73 20 75 21 7 23 8 24
REMARK SMILES IDX 9 25 10 26 11 27 12 28 64 29 13 30 63 31 14 32 15 33 16 34
REMARK SMILES IDX 57 35 17 36 62 37 56 38 58 39 18 40 61 41 55 42 54 43 19 45
REMARK SMILES IDX 45 46 28 47 44 48 29 49 32 50 43 51 59 52 30 53 31 54 42 56
REMARK SMILES IDX 60 57 33 58 20 59 21 60 26 61 22 62 23 63 25 64 27 65 24 66
REMARK SMILES IDX 46 67 47 68 52 69 48 70 49 71 51 72 53 73 50 74 34 75 35 76
REMARK SMILES IDX 40 77 36 78 37 79 39 80 41 81 38 82
REMARK H PARENT 69 15 75 22 58 44 32 55
REMARK Flexibility Score: inf
ROOT
ATOM      1  C   UNL A   1      31.017  30.353  24.834  1.00  0.00     0.274 C 
ENDROOT
BRANCH   1   2
ATOM      2  O   UNL A   1      31.925  29.334  25.299  1.00  0.00    -0.462 OA
BRANCH   2   3
ATOM      3  C   UNL A   1      31.581  28.042  25.036  1.00  0.00     0.313 C 
ATOM      4  O   UNL A   1      31.451  27.595  23.903  1.00  0.00    -0.252 OA
BRANCH   3   5
ATOM      5  C   UNL A   1      31.318  27.233  26.318  1.00  0.00     0.129 C 
ATOM      6  C   UNL A   1      31.754  27.969  27.590  1.00  0.00     0.025 C 
BRANCH   5   7
ATOM      7  C   UNL A   1      31.896  25.825  26.215  1.00  0.00     0.002 A 
ATOM      8  C   UNL A   1      33.256  25.563  26.011  1.00  0.00     0.010 A 
ATOM      9  C   UNL A   1      31.035  24.725  26.248  1.00  0.00     0.129 A 
ATOM     10  C   UNL A   1      33.719  24.247  25.841  1.00  0.00     0.026 A 
ATOM     11  C   UNL A   1      31.499  23.420  26.064  1.00  0.00     0.065 A 
ATOM     12  F   UNL A   1      29.722  24.914  26.443  1.00  0.00    -0.207 F 
ATOM     13  C   UNL A   1      32.857  23.149  25.855  1.00  0.00     0.037 A 
BRANCH  13  14
ATOM     14  N   UNL A   1      33.240  21.847  25.627  1.00  0.00    -0.380 N 
ATOM     15  H   UNL A   1      34.192  21.667  25.801  1.00  0.00     0.160 HD
BRANCH  14  16
ATOM     16  C   UNL A   1      32.476  20.684  25.173  1.00  0.00     0.107 C 
ATOM     17  C   UNL A   1      32.120  20.704  23.687  1.00  0.00     0.027 C 
ATOM     18  C   UNL A   1      33.154  19.327  25.434  1.00  0.00     0.136 C 
ATOM     19  C   UNL A   1      32.539  19.347  23.128  1.00  0.00     0.005 C 
ATOM     20  C   UNL A   1      32.582  18.434  24.339  1.00  0.00     0.034 C 
BRANCH  18  21
ATOM     21  O   UNL A   1      32.834  18.814  26.722  1.00  0.00    -0.391 OA
ATOM     22  H   UNL A   1      33.600  18.915  27.308  1.00  0.00     0.211 HD
ENDBRANCH  18  21
ENDBRANCH  14  16
ENDBRANCH  13  14
ENDBRANCH   5   7
ENDBRANCH   3   5
ENDBRANCH   2   3
ENDBRANCH   1   2
BRANCH   1  23
ATOM     23  C   UNL A   1      31.001  31.558  25.777  1.00  0.00     0.275 C 
BRANCH  23  24
ATOM     24  O   UNL A   1      31.899  31.358  26.883  1.00  0.00    -0.458 OA
BRANCH  24  25
ATOM     25  C   UNL A   1      32.583  32.443  27.293  1.00  0.00     0.338 C 
ATOM     26  O   UNL A   1      32.199  33.611  27.305  1.00  0.00    -0.246 OA
BRANCH  25  27
ATOM     27  C   UNL A   1      33.884  32.036  27.834  1.00  0.00     0.060 A 
ATOM     28  C   UNL A   1      34.214  30.688  27.774  1.00  0.00     0.016 A 
ATOM     29  C   UNL A   1      34.710  32.929  28.519  1.00  0.00     0.016 A 
ATOM     30  C   UNL A   1      35.320  30.212  28.465  1.00  0.00     0.010 A 
ATOM     31  C   UNL A   1      35.866  32.452  29.162  1.00  0.00     0.010 A 
ATOM     32  C   UNL A   1      36.161  31.078  29.180  1.00  0.00    -0.014 A 
BRANCH  32  33
ATOM     33  C   UNL A   1      37.278  30.492  29.983  1.00  0.00     0.031 A 
ATOM     34  C   UNL A   1      38.319  29.612  29.331  1.00  0.00     0.074 A 
ATOM     35  C   UNL A   1      37.469  30.890  31.259  1.00  0.00     0.049 A 
ATOM     36  N   UNL A   1      39.419  29.115  29.845  1.00  0.00    -0.248 NA
ATOM     37  C   UNL A   1      38.130  29.282  27.908  1.00  0.00     0.031 C 
ATOM     38  C   UNL A   1      36.593  31.802  31.997  1.00  0.00     0.029 A 
ATOM     39  N   UNL A   1      38.487  30.623  32.142  1.00  0.00    -0.354 N 
ATOM     40  C   UNL A   1      40.063  28.452  28.809  1.00  0.00     0.074 A 
ATOM     41  C   UNL A   1      39.205  28.550  27.649  1.00  0.00     0.031 C 
ATOM     42  C   UNL A   1      37.144  32.071  33.191  1.00  0.00     0.029 A 
ATOM     43  C   UNL A   1      38.372  31.296  33.336  1.00  0.00     0.049 A 
ATOM     44  H   UNL A   1      39.229  30.008  31.940  1.00  0.00     0.167 HD
ATOM     45  C   UNL A   1      41.280  27.857  28.802  1.00  0.00     0.037 A 
ATOM     46  C   UNL A   1      39.150  31.281  34.435  1.00  0.00     0.037 A 
ATOM     47  C   UNL A   1      42.162  27.762  29.934  1.00  0.00     0.049 A 
ATOM     48  C   UNL A   1      40.373  30.412  34.468  1.00  0.00     0.074 A 
ATOM     49  C   UNL A   1      43.413  27.173  30.003  1.00  0.00     0.029 A 
ATOM     50  N   UNL A   1      41.887  28.264  31.193  1.00  0.00    -0.354 N 
ATOM     51  N   UNL A   1      40.944  29.755  33.490  1.00  0.00    -0.248 NA
ATOM     52  C   UNL A   1      41.040  30.255  35.770  1.00  0.00     0.031 C 
ATOM     53  C   UNL A   1      43.879  27.285  31.317  1.00  0.00     0.029 A 
ATOM     54  C   UNL A   1      42.927  27.963  32.058  1.00  0.00     0.049 A 
ATOM     55  H   UNL A   1      41.072  28.761  31.439  1.00  0.00     0.167 HD
ATOM     56  C   UNL A   1      42.038  29.112  34.056  1.00  0.00     0.074 A 
ATOM     57  C   UNL A   1      42.062  29.471  35.457  1.00  0.00     0.031 C 
ATOM     58  C   UNL A   1      42.938  28.296  33.458  1.00  0.00     0.037 A 
BRANCH  45  59
ATOM     59  C   UNL A   1      41.749  27.265  27.510  1.00  0.00     0.057 A 
ATOM     60  C   UNL A   1      42.391  28.048  26.544  1.00  0.00     0.134 A 
ATOM     61  C   UNL A   1      41.618  25.895  27.258  1.00  0.00     0.134 A 
ATOM     62  F   UNL A   1      42.558  29.365  26.735  1.00  0.00    -0.206 F 
ATOM     63  C   UNL A   1      42.874  27.491  25.359  1.00  0.00     0.040 A 
ATOM     64  C   UNL A   1      42.110  25.323  26.083  1.00  0.00     0.040 A 
ATOM     65  F   UNL A   1      41.023  25.092  28.153  1.00  0.00    -0.206 F 
ATOM     66  C   UNL A   1      42.738  26.123  25.129  1.00  0.00     0.006 A 
ENDBRANCH  45  59
BRANCH  46  67
ATOM     67  C   UNL A   1      38.769  32.076  35.630  1.00  0.00     0.057 A 
ATOM     68  C   UNL A   1      39.097  33.432  35.736  1.00  0.00     0.134 A 
ATOM     69  C   UNL A   1      38.089  31.490  36.706  1.00  0.00     0.134 A 
ATOM     70  F   UNL A   1      39.776  34.042  34.754  1.00  0.00    -0.206 F 
ATOM     71  C   UNL A   1      38.764  34.176  36.870  1.00  0.00     0.040 A 
ATOM     72  C   UNL A   1      37.729  32.228  37.833  1.00  0.00     0.040 A 
ATOM     73  F   UNL A   1      37.760  30.191  36.670  1.00  0.00    -0.206 F 
ATOM     74  C   UNL A   1      38.071  33.575  37.919  1.00  0.00     0.006 A 
ENDBRANCH  46  67
BRANCH  58  75
ATOM     75  C   UNL A   1      44.020  27.719  34.319  1.00  0.00     0.057 A 
ATOM     76  C   UNL A   1      45.201  28.428  34.573  1.00  0.00     0.134 A 
ATOM     77  C   UNL A   1      43.872  26.465  34.923  1.00  0.00     0.134 A 
ATOM     78  F   UNL A   1      45.407  29.628  34.010  1.00  0.00    -0.206 F 
ATOM     79  C   UNL A   1      46.205  27.901  35.387  1.00  0.00     0.040 A 
ATOM     80  C   UNL A   1      44.861  25.936  35.755  1.00  0.00     0.040 A 
ATOM     81  F   UNL A   1      42.762  25.738  34.723  1.00  0.00    -0.206 F 
ATOM     82  C   UNL A   1      46.033  26.655  35.985  1.00  0.00     0.006 A 
ENDBRANCH  58  75
ENDBRANCH  32  33
ENDBRANCH  25  27
ENDBRANCH  24  25
ENDBRANCH  23  24
ENDBRANCH   1  23
TORSDOF 15
ENDMDL
