MODEL 1
REMARK VINA RESULT:     -11.0      0.000      0.000
REMARK SMILES C[NH+](C)[C@H]1CCN(C(=O)C(=O)c2ccccc2)C[C@H]1CCC(=O)OCCOC(=O)c1ccc(-c2c3nc(c(-c4c(F)cccc4F)c4ccc([nH]4)c(-c4c(F)cccc4F)c4nc(c(-c5c(F)cccc5F)c5ccc2[nH]5)C=C4)C=C3)cc1
REMARK SMILES IDX 24 1 22 2 23 3 21 4 20 5 19 6 4 7 5 8 6 9 18 10 7 11 2 12
REMARK SMILES IDX 1 13 3 14 8 16 9 17 10 18 11 19 12 20 13 21 17 22 14 23
REMARK SMILES IDX 16 24 15 25 25 26 26 27 27 28 28 29 29 30 30 31 31 32 83 33
REMARK SMILES IDX 32 34 82 35 33 36 34 37 35 38 76 39 36 40 81 41 75 42 77 43
REMARK SMILES IDX 37 44 80 45 74 46 73 47 38 49 64 50 47 51 63 52 48 53 51 54
REMARK SMILES IDX 62 55 78 56 49 57 50 58 61 60 79 61 52 62 39 63 40 64 45 65
REMARK SMILES IDX 41 66 42 67 44 68 46 69 43 70 65 71 66 72 71 73 67 74 68 75
REMARK SMILES IDX 70 76 72 77 69 78 53 79 54 80 59 81 55 82 56 83 58 84 60 85
REMARK SMILES IDX 57 86
REMARK H PARENT 2 15 77 48 51 59
REMARK Flexibility Score: inf
ROOT
ATOM      1  O   UNL A   1      31.883  29.658  26.983  1.00  0.00    -0.462 OA
ENDROOT
BRANCH   1   2
ATOM      2  C   UNL A   1      31.840  28.332  27.266  1.00  0.00     0.305 C 
ATOM      3  O   UNL A   1      31.006  27.802  27.992  1.00  0.00    -0.252 OA
BRANCH   2   4
ATOM      4  C   UNL A   1      32.860  27.516  26.497  1.00  0.00     0.123 C 
BRANCH   4   5
ATOM      5  C   UNL A   1      32.467  26.117  26.034  1.00  0.00     0.023 C 
BRANCH   5   6
ATOM      6  C   UNL A   1      33.592  25.074  25.845  1.00  0.00     0.067 C 
ATOM      7  C   UNL A   1      33.119  23.596  25.673  1.00  0.00     0.190 C 
ATOM      8  C   UNL A   1      32.553  23.339  24.259  1.00  0.00     0.087 C 
ATOM      9  C   UNL A   1      33.536  23.796  23.190  1.00  0.00     0.126 C 
ATOM     10  C   UNL A   1      34.463  25.528  24.644  1.00  0.00     0.129 C 
ATOM     11  N   UNL A   1      33.825  25.209  23.367  1.00  0.00    -0.335 N 
BRANCH   7  12
ATOM     12  N   UNL A   1      32.234  23.217  26.783  1.00  0.00    -0.337 N 
ATOM     13  C   UNL A   1      30.870  22.813  26.493  1.00  0.00     0.332 C 
ATOM     14  C   UNL A   1      32.870  22.474  27.860  1.00  0.00     0.332 C 
ATOM     15  H   UNL A   1      32.056  24.148  27.160  1.00  0.00     0.347 HD
ENDBRANCH   7  12
BRANCH  11  16
ATOM     16  C   UNL A   1      33.443  26.091  22.348  1.00  0.00     0.294 C 
ATOM     17  O   UNL A   1      33.431  25.750  21.166  1.00  0.00    -0.265 OA
BRANCH  16  18
ATOM     18  C   UNL A   1      33.050  27.546  22.661  1.00  0.00     0.250 C 
ATOM     19  O   UNL A   1      33.877  28.448  22.604  1.00  0.00    -0.283 OA
BRANCH  18  20
ATOM     20  C   UNL A   1      31.612  27.882  22.891  1.00  0.00     0.028 A 
ATOM     21  C   UNL A   1      30.713  26.824  23.085  1.00  0.00     0.012 A 
ATOM     22  C   UNL A   1      31.140  29.199  22.961  1.00  0.00     0.012 A 
ATOM     23  C   UNL A   1      29.374  27.078  23.394  1.00  0.00     0.001 A 
ATOM     24  C   UNL A   1      29.798  29.450  23.269  1.00  0.00     0.001 A 
ATOM     25  C   UNL A   1      28.919  28.391  23.495  1.00  0.00     0.000 A 
ENDBRANCH  18  20
ENDBRANCH  16  18
ENDBRANCH  11  16
ENDBRANCH   5   6
ENDBRANCH   4   5
ENDBRANCH   2   4
ENDBRANCH   1   2
BRANCH   1  26
ATOM     26  C   UNL A   1      33.127  30.167  26.459  1.00  0.00     0.274 C 
BRANCH  26  27
ATOM     27  C   UNL A   1      33.907  30.886  27.556  1.00  0.00     0.275 C 
BRANCH  27  28
ATOM     28  O   UNL A   1      34.905  30.007  28.104  1.00  0.00    -0.458 OA
BRANCH  28  29
ATOM     29  C   UNL A   1      35.739  30.572  28.999  1.00  0.00     0.338 C 
ATOM     30  O   UNL A   1      35.473  31.416  29.851  1.00  0.00    -0.246 OA
BRANCH  29  31
ATOM     31  C   UNL A   1      37.067  29.973  28.874  1.00  0.00     0.060 A 
ATOM     32  C   UNL A   1      37.729  29.567  30.031  1.00  0.00     0.016 A 
ATOM     33  C   UNL A   1      37.708  29.921  27.639  1.00  0.00     0.016 A 
ATOM     34  C   UNL A   1      39.062  29.191  29.981  1.00  0.00     0.010 A 
ATOM     35  C   UNL A   1      39.017  29.438  27.574  1.00  0.00     0.010 A 
ATOM     36  C   UNL A   1      39.713  29.091  28.748  1.00  0.00    -0.014 A 
BRANCH  36  37
ATOM     37  C   UNL A   1      41.117  28.619  28.686  1.00  0.00     0.031 A 
ATOM     38  C   UNL A   1      42.243  29.584  28.914  1.00  0.00     0.074 A 
ATOM     39  C   UNL A   1      41.379  27.325  28.423  1.00  0.00     0.049 A 
ATOM     40  N   UNL A   1      43.520  29.433  28.679  1.00  0.00    -0.248 NA
ATOM     41  C   UNL A   1      41.881  30.898  29.470  1.00  0.00     0.031 C 
ATOM     42  C   UNL A   1      40.373  26.274  28.243  1.00  0.00     0.029 A 
ATOM     43  N   UNL A   1      42.573  26.672  28.256  1.00  0.00    -0.354 N 
ATOM     44  C   UNL A   1      44.108  30.647  29.004  1.00  0.00     0.074 A 
ATOM     45  C   UNL A   1      43.050  31.523  29.461  1.00  0.00     0.031 C 
ATOM     46  C   UNL A   1      40.992  25.108  28.011  1.00  0.00     0.029 A 
ATOM     47  C   UNL A   1      42.428  25.345  27.932  1.00  0.00     0.049 A 
ATOM     48  H   UNL A   1      43.449  27.110  28.358  1.00  0.00     0.167 HD
ATOM     49  C   UNL A   1      45.413  30.996  28.918  1.00  0.00     0.037 A 
ATOM     50  C   UNL A   1      43.341  24.433  27.552  1.00  0.00     0.037 A 
ATOM     51  C   UNL A   1      46.460  30.102  28.498  1.00  0.00     0.049 A 
ATOM     52  C   UNL A   1      44.774  24.853  27.420  1.00  0.00     0.074 A 
ATOM     53  C   UNL A   1      47.815  30.353  28.371  1.00  0.00     0.029 A 
ATOM     54  N   UNL A   1      46.265  28.773  28.149  1.00  0.00    -0.354 N 
ATOM     55  N   UNL A   1      45.313  26.024  27.650  1.00  0.00    -0.248 NA
ATOM     56  C   UNL A   1      45.720  23.833  26.947  1.00  0.00     0.031 C 
ATOM     57  C   UNL A   1      48.436  29.182  27.920  1.00  0.00     0.029 A 
ATOM     58  C   UNL A   1      47.471  28.194  27.796  1.00  0.00     0.049 A 
ATOM     59  H   UNL A   1      45.396  28.311  28.151  1.00  0.00     0.167 HD
ATOM     60  C   UNL A   1      46.658  25.890  27.341  1.00  0.00     0.074 A 
ATOM     61  C   UNL A   1      46.858  24.514  26.934  1.00  0.00     0.031 C 
ATOM     62  C   UNL A   1      47.639  26.825  27.380  1.00  0.00     0.037 A 
BRANCH  49  63
ATOM     63  C   UNL A   1      45.767  32.415  29.243  1.00  0.00     0.057 A 
ATOM     64  C   UNL A   1      46.110  32.819  30.539  1.00  0.00     0.134 A 
ATOM     65  C   UNL A   1      45.769  33.392  28.239  1.00  0.00     0.134 A 
ATOM     66  F   UNL A   1      46.108  31.936  31.549  1.00  0.00    -0.206 F 
ATOM     67  C   UNL A   1      46.422  34.150  30.829  1.00  0.00     0.040 A 
ATOM     68  C   UNL A   1      46.099  34.720  28.512  1.00  0.00     0.040 A 
ATOM     69  F   UNL A   1      45.450  33.071  26.976  1.00  0.00    -0.206 F 
ATOM     70  C   UNL A   1      46.420  35.103  29.813  1.00  0.00     0.006 A 
ENDBRANCH  49  63
BRANCH  50  71
ATOM     71  C   UNL A   1      42.902  23.060  27.205  1.00  0.00     0.057 A 
ATOM     72  C   UNL A   1      42.623  22.117  28.197  1.00  0.00     0.134 A 
ATOM     73  C   UNL A   1      42.714  22.673  25.871  1.00  0.00     0.134 A 
ATOM     74  F   UNL A   1      42.804  22.422  29.491  1.00  0.00    -0.206 F 
ATOM     75  C   UNL A   1      42.168  20.835  27.877  1.00  0.00     0.040 A 
ATOM     76  C   UNL A   1      42.238  21.406  25.537  1.00  0.00     0.040 A 
ATOM     77  F   UNL A   1      42.961  23.537  24.874  1.00  0.00    -0.206 F 
ATOM     78  C   UNL A   1      41.966  20.481  26.544  1.00  0.00     0.006 A 
ENDBRANCH  50  71
BRANCH  62  79
ATOM     79  C   UNL A   1      49.007  26.380  26.970  1.00  0.00     0.057 A 
ATOM     80  C   UNL A   1      49.896  25.813  27.891  1.00  0.00     0.134 A 
ATOM     81  C   UNL A   1      49.429  26.494  25.640  1.00  0.00     0.134 A 
ATOM     82  F   UNL A   1      49.552  25.693  29.183  1.00  0.00    -0.206 F 
ATOM     83  C   UNL A   1      51.168  25.389  27.506  1.00  0.00     0.040 A 
ATOM     84  C   UNL A   1      50.692  26.058  25.240  1.00  0.00     0.040 A 
ATOM     85  F   UNL A   1      48.620  27.026  24.713  1.00  0.00    -0.206 F 
ATOM     86  C   UNL A   1      51.566  25.506  26.176  1.00  0.00     0.006 A 
ENDBRANCH  62  79
ENDBRANCH  36  37
ENDBRANCH  29  31
ENDBRANCH  28  29
ENDBRANCH  27  28
ENDBRANCH  26  27
ENDBRANCH   1  26
TORSDOF 17
ENDMDL
MODEL 2
REMARK VINA RESULT:     -10.9      2.618      6.880
REMARK SMILES C[NH+](C)[C@H]1CCN(C(=O)C(=O)c2ccccc2)C[C@H]1CCC(=O)OCCOC(=O)c1ccc(-c2c3nc(c(-c4c(F)cccc4F)c4ccc([nH]4)c(-c4c(F)cccc4F)c4nc(c(-c5c(F)cccc5F)c5ccc2[nH]5)C=C4)C=C3)cc1
REMARK SMILES IDX 24 1 22 2 23 3 21 4 20 5 19 6 4 7 5 8 6 9 18 10 7 11 2 12
REMARK SMILES IDX 1 13 3 14 8 16 9 17 10 18 11 19 12 20 13 21 17 22 14 23
REMARK SMILES IDX 16 24 15 25 25 26 26 27 27 28 28 29 29 30 30 31 31 32 83 33
REMARK SMILES IDX 32 34 82 35 33 36 34 37 35 38 76 39 36 40 81 41 75 42 77 43
REMARK SMILES IDX 37 44 80 45 74 46 73 47 38 49 64 50 47 51 63 52 48 53 51 54
REMARK SMILES IDX 62 55 78 56 49 57 50 58 61 60 79 61 52 62 39 63 40 64 45 65
REMARK SMILES IDX 41 66 42 67 44 68 46 69 43 70 65 71 66 72 71 73 67 74 68 75
REMARK SMILES IDX 70 76 72 77 69 78 53 79 54 80 59 81 55 82 56 83 58 84 60 85
REMARK SMILES IDX 57 86
REMARK H PARENT 2 15 77 48 51 59
REMARK Flexibility Score: inf
ROOT
ATOM      1  O   UNL A   1      34.783  22.614  24.955  1.00  0.00    -0.462 OA
ENDROOT
BRANCH   1   2
ATOM      2  C   UNL A   1      34.385  23.164  26.130  1.00  0.00     0.305 C 
ATOM      3  O   UNL A   1      34.170  22.530  27.158  1.00  0.00    -0.252 OA
BRANCH   2   4
ATOM      4  C   UNL A   1      34.344  24.679  26.106  1.00  0.00     0.123 C 
BRANCH   4   5
ATOM      5  C   UNL A   1      33.203  25.360  25.358  1.00  0.00     0.023 C 
BRANCH   5   6
ATOM      6  C   UNL A   1      33.413  25.692  23.862  1.00  0.00     0.067 C 
ATOM      7  C   UNL A   1      32.410  25.016  22.875  1.00  0.00     0.190 C 
ATOM      8  C   UNL A   1      31.028  25.704  22.902  1.00  0.00     0.087 C 
ATOM      9  C   UNL A   1      31.168  27.207  22.699  1.00  0.00     0.126 C 
ATOM     10  C   UNL A   1      33.393  27.236  23.711  1.00  0.00     0.129 C 
ATOM     11  N   UNL A   1      32.027  27.760  23.733  1.00  0.00    -0.335 N 
BRANCH   7  12
ATOM     12  N   UNL A   1      32.392  23.561  23.092  1.00  0.00    -0.337 N 
ATOM     13  C   UNL A   1      31.273  22.966  23.800  1.00  0.00     0.332 C 
ATOM     14  C   UNL A   1      32.907  22.762  21.991  1.00  0.00     0.332 C 
ATOM     15  H   UNL A   1      33.100  23.509  23.824  1.00  0.00     0.347 HD
ENDBRANCH   7  12
BRANCH  11  16
ATOM     16  C   UNL A   1      31.467  28.677  24.632  1.00  0.00     0.294 C 
ATOM     17  O   UNL A   1      30.737  29.592  24.254  1.00  0.00    -0.265 OA
BRANCH  16  18
ATOM     18  C   UNL A   1      31.770  28.599  26.139  1.00  0.00     0.250 C 
ATOM     19  O   UNL A   1      31.160  27.825  26.866  1.00  0.00    -0.283 OA
BRANCH  18  20
ATOM     20  C   UNL A   1      32.924  29.370  26.694  1.00  0.00     0.028 A 
ATOM     21  C   UNL A   1      32.716  30.719  27.020  1.00  0.00     0.012 A 
ATOM     22  C   UNL A   1      34.178  28.796  26.937  1.00  0.00     0.012 A 
ATOM     23  C   UNL A   1      33.730  31.466  27.626  1.00  0.00     0.001 A 
ATOM     24  C   UNL A   1      35.191  29.548  27.543  1.00  0.00     0.001 A 
ATOM     25  C   UNL A   1      34.963  30.878  27.896  1.00  0.00     0.000 A 
ENDBRANCH  18  20
ENDBRANCH  16  18
ENDBRANCH  11  16
ENDBRANCH   5   6
ENDBRANCH   4   5
ENDBRANCH   2   4
ENDBRANCH   1   2
BRANCH   1  26
ATOM     26  C   UNL A   1      34.822  21.173  24.898  1.00  0.00     0.274 C 
BRANCH  26  27
ATOM     27  C   UNL A   1      36.263  20.680  25.001  1.00  0.00     0.275 C 
BRANCH  27  28
ATOM     28  O   UNL A   1      37.051  21.622  25.749  1.00  0.00    -0.458 OA
BRANCH  28  29
ATOM     29  C   UNL A   1      38.362  21.327  25.843  1.00  0.00     0.338 C 
ATOM     30  O   UNL A   1      38.936  20.306  25.472  1.00  0.00    -0.246 OA
BRANCH  29  31
ATOM     31  C   UNL A   1      39.078  22.466  26.416  1.00  0.00     0.060 A 
ATOM     32  C   UNL A   1      38.636  23.753  26.115  1.00  0.00     0.016 A 
ATOM     33  C   UNL A   1      40.248  22.275  27.145  1.00  0.00     0.016 A 
ATOM     34  C   UNL A   1      39.401  24.857  26.460  1.00  0.00     0.010 A 
ATOM     35  C   UNL A   1      40.962  23.392  27.588  1.00  0.00     0.010 A 
ATOM     36  C   UNL A   1      40.556  24.691  27.229  1.00  0.00    -0.014 A 
BRANCH  36  37
ATOM     37  C   UNL A   1      41.336  25.876  27.661  1.00  0.00     0.031 A 
ATOM     38  C   UNL A   1      40.701  26.909  28.545  1.00  0.00     0.074 A 
ATOM     39  C   UNL A   1      42.612  26.023  27.257  1.00  0.00     0.049 A 
ATOM     40  N   UNL A   1      41.120  28.111  28.841  1.00  0.00    -0.248 NA
ATOM     41  C   UNL A   1      39.420  26.543  29.170  1.00  0.00     0.031 C 
ATOM     42  C   UNL A   1      43.363  25.060  26.447  1.00  0.00     0.029 A 
ATOM     43  N   UNL A   1      43.503  27.044  27.469  1.00  0.00    -0.354 N 
ATOM     44  C   UNL A   1      40.131  28.668  29.639  1.00  0.00     0.074 A 
ATOM     45  C   UNL A   1      39.094  27.669  29.788  1.00  0.00     0.031 C 
ATOM     46  C   UNL A   1      44.605  25.527  26.248  1.00  0.00     0.029 A 
ATOM     47  C   UNL A   1      44.706  26.858  26.833  1.00  0.00     0.049 A 
ATOM     48  H   UNL A   1      43.301  27.833  28.022  1.00  0.00     0.167 HD
ATOM     49  C   UNL A   1      40.093  29.905  30.186  1.00  0.00     0.037 A 
ATOM     50  C   UNL A   1      45.753  27.688  26.683  1.00  0.00     0.037 A 
ATOM     51  C   UNL A   1      41.150  30.875  30.061  1.00  0.00     0.049 A 
ATOM     52  C   UNL A   1      45.672  29.070  27.259  1.00  0.00     0.074 A 
ATOM     53  C   UNL A   1      41.212  32.159  30.572  1.00  0.00     0.029 A 
ATOM     54  N   UNL A   1      42.339  30.656  29.381  1.00  0.00    -0.354 N 
ATOM     55  N   UNL A   1      44.699  29.620  27.944  1.00  0.00    -0.248 NA
ATOM     56  C   UNL A   1      46.819  29.955  27.017  1.00  0.00     0.031 C 
ATOM     57  C   UNL A   1      42.431  32.726  30.181  1.00  0.00     0.029 A 
ATOM     58  C   UNL A   1      43.139  31.783  29.451  1.00  0.00     0.049 A 
ATOM     59  H   UNL A   1      42.579  29.821  28.918  1.00  0.00     0.167 HD
ATOM     60  C   UNL A   1      45.109  30.919  28.207  1.00  0.00     0.074 A 
ATOM     61  C   UNL A   1      46.431  31.065  27.632  1.00  0.00     0.031 C 
ATOM     62  C   UNL A   1      44.445  31.906  28.857  1.00  0.00     0.037 A 
BRANCH  49  63
ATOM     63  C   UNL A   1      38.850  30.289  30.931  1.00  0.00     0.057 A 
ATOM     64  C   UNL A   1      37.829  31.042  30.338  1.00  0.00     0.134 A 
ATOM     65  C   UNL A   1      38.672  29.892  32.262  1.00  0.00     0.134 A 
ATOM     66  F   UNL A   1      37.948  31.469  29.072  1.00  0.00    -0.206 F 
ATOM     67  C   UNL A   1      36.684  31.406  31.050  1.00  0.00     0.040 A 
ATOM     68  C   UNL A   1      37.522  30.232  32.978  1.00  0.00     0.040 A 
ATOM     69  F   UNL A   1      39.611  29.169  32.889  1.00  0.00    -0.206 F 
ATOM     70  C   UNL A   1      36.527  30.997  32.373  1.00  0.00     0.006 A 
ENDBRANCH  49  63
BRANCH  50  71
ATOM     71  C   UNL A   1      46.928  27.248  25.893  1.00  0.00     0.057 A 
ATOM     72  C   UNL A   1      47.968  26.525  26.485  1.00  0.00     0.134 A 
ATOM     73  C   UNL A   1      47.019  27.507  24.520  1.00  0.00     0.134 A 
ATOM     74  F   UNL A   1      47.947  26.265  27.800  1.00  0.00    -0.206 F 
ATOM     75  C   UNL A   1      49.057  26.071  25.737  1.00  0.00     0.040 A 
ATOM     76  C   UNL A   1      48.087  27.040  23.756  1.00  0.00     0.040 A 
ATOM     77  F   UNL A   1      46.049  28.193  23.894  1.00  0.00    -0.206 F 
ATOM     78  C   UNL A   1      49.113  26.320  24.367  1.00  0.00     0.006 A 
ENDBRANCH  50  71
BRANCH  62  79
ATOM     79  C   UNL A   1      45.147  33.222  28.972  1.00  0.00     0.057 A 
ATOM     80  C   UNL A   1      44.963  34.232  28.019  1.00  0.00     0.134 A 
ATOM     81  C   UNL A   1      45.992  33.492  30.054  1.00  0.00     0.134 A 
ATOM     82  F   UNL A   1      44.177  34.024  26.951  1.00  0.00    -0.206 F 
ATOM     83  C   UNL A   1      45.610  35.463  28.132  1.00  0.00     0.040 A 
ATOM     84  C   UNL A   1      46.630  34.725  30.187  1.00  0.00     0.040 A 
ATOM     85  F   UNL A   1      46.204  32.565  30.999  1.00  0.00    -0.206 F 
ATOM     86  C   UNL A   1      46.442  35.713  29.221  1.00  0.00     0.006 A 
ENDBRANCH  62  79
ENDBRANCH  36  37
ENDBRANCH  29  31
ENDBRANCH  28  29
ENDBRANCH  27  28
ENDBRANCH  26  27
ENDBRANCH   1  26
TORSDOF 17
ENDMDL
MODEL 3
REMARK VINA RESULT:     -10.9      4.423      8.339
REMARK SMILES C[NH+](C)[C@H]1CCN(C(=O)C(=O)c2ccccc2)C[C@H]1CCC(=O)OCCOC(=O)c1ccc(-c2c3nc(c(-c4c(F)cccc4F)c4ccc([nH]4)c(-c4c(F)cccc4F)c4nc(c(-c5c(F)cccc5F)c5ccc2[nH]5)C=C4)C=C3)cc1
REMARK SMILES IDX 24 1 22 2 23 3 21 4 20 5 19 6 4 7 5 8 6 9 18 10 7 11 2 12
REMARK SMILES IDX 1 13 3 14 8 16 9 17 10 18 11 19 12 20 13 21 17 22 14 23
REMARK SMILES IDX 16 24 15 25 25 26 26 27 27 28 28 29 29 30 30 31 31 32 83 33
REMARK SMILES IDX 32 34 82 35 33 36 34 37 35 38 76 39 36 40 81 41 75 42 77 43
REMARK SMILES IDX 37 44 80 45 74 46 73 47 38 49 64 50 47 51 63 52 48 53 51 54
REMARK SMILES IDX 62 55 78 56 49 57 50 58 61 60 79 61 52 62 39 63 40 64 45 65
REMARK SMILES IDX 41 66 42 67 44 68 46 69 43 70 65 71 66 72 71 73 67 74 68 75
REMARK SMILES IDX 70 76 72 77 69 78 53 79 54 80 59 81 55 82 56 83 58 84 60 85
REMARK SMILES IDX 57 86
REMARK H PARENT 2 15 77 48 51 59
REMARK Flexibility Score: inf
ROOT
ATOM      1  O   UNL A   1      31.149  28.195  25.479  1.00  0.00    -0.462 OA
ENDROOT
BRANCH   1   2
ATOM      2  C   UNL A   1      31.131  27.242  26.444  1.00  0.00     0.305 C 
ATOM      3  O   UNL A   1      31.353  27.452  27.632  1.00  0.00    -0.252 OA
BRANCH   2   4
ATOM      4  C   UNL A   1      30.684  25.883  25.945  1.00  0.00     0.123 C 
BRANCH   4   5
ATOM      5  C   UNL A   1      31.630  25.096  25.043  1.00  0.00     0.023 C 
BRANCH   5   6
ATOM      6  C   UNL A   1      31.141  24.734  23.622  1.00  0.00     0.067 C 
ATOM      7  C   UNL A   1      31.897  25.438  22.450  1.00  0.00     0.190 C 
ATOM      8  C   UNL A   1      33.286  24.809  22.206  1.00  0.00     0.087 C 
ATOM      9  C   UNL A   1      33.175  23.300  22.043  1.00  0.00     0.126 C 
ATOM     10  C   UNL A   1      31.200  23.191  23.478  1.00  0.00     0.129 C 
ATOM     11  N   UNL A   1      32.564  22.725  23.230  1.00  0.00    -0.335 N 
BRANCH   7  12
ATOM     12  N   UNL A   1      31.893  26.895  22.651  1.00  0.00    -0.337 N 
ATOM     13  C   UNL A   1      33.086  27.656  22.327  1.00  0.00     0.332 C 
ATOM     14  C   UNL A   1      30.641  27.564  22.332  1.00  0.00     0.332 C 
ATOM     15  H   UNL A   1      31.958  26.907  23.669  1.00  0.00     0.347 HD
ENDBRANCH   7  12
BRANCH  11  16
ATOM     16  C   UNL A   1      33.332  21.846  24.005  1.00  0.00     0.294 C 
ATOM     17  O   UNL A   1      34.524  22.053  24.230  1.00  0.00    -0.265 OA
BRANCH  16  18
ATOM     18  C   UNL A   1      32.723  20.558  24.585  1.00  0.00     0.250 C 
ATOM     19  O   UNL A   1      31.790  20.603  25.378  1.00  0.00    -0.283 OA
BRANCH  18  20
ATOM     20  C   UNL A   1      33.176  19.234  24.061  1.00  0.00     0.028 A 
ATOM     21  C   UNL A   1      34.253  18.606  24.704  1.00  0.00     0.012 A 
ATOM     22  C   UNL A   1      32.549  18.583  22.990  1.00  0.00     0.012 A 
ATOM     23  C   UNL A   1      34.663  17.328  24.318  1.00  0.00     0.001 A 
ATOM     24  C   UNL A   1      32.963  17.303  22.605  1.00  0.00     0.001 A 
ATOM     25  C   UNL A   1      34.012  16.673  23.274  1.00  0.00     0.000 A 
ENDBRANCH  18  20
ENDBRANCH  16  18
ENDBRANCH  11  16
ENDBRANCH   5   6
ENDBRANCH   4   5
ENDBRANCH   2   4
ENDBRANCH   1   2
BRANCH   1  26
ATOM     26  C   UNL A   1      32.271  29.102  25.487  1.00  0.00     0.274 C 
BRANCH  26  27
ATOM     27  C   UNL A   1      31.805  30.515  25.830  1.00  0.00     0.275 C 
BRANCH  27  28
ATOM     28  O   UNL A   1      32.167  30.834  27.185  1.00  0.00    -0.458 OA
BRANCH  28  29
ATOM     29  C   UNL A   1      32.861  31.979  27.339  1.00  0.00     0.338 C 
ATOM     30  O   UNL A   1      32.482  33.128  27.123  1.00  0.00    -0.246 OA
BRANCH  29  31
ATOM     31  C   UNL A   1      34.180  31.678  27.893  1.00  0.00     0.060 A 
ATOM     32  C   UNL A   1      34.478  30.360  28.233  1.00  0.00     0.016 A 
ATOM     33  C   UNL A   1      35.076  32.702  28.189  1.00  0.00     0.016 A 
ATOM     34  C   UNL A   1      35.626  30.062  28.950  1.00  0.00     0.010 A 
ATOM     35  C   UNL A   1      36.285  32.386  28.815  1.00  0.00     0.010 A 
ATOM     36  C   UNL A   1      36.560  31.067  29.221  1.00  0.00    -0.014 A 
BRANCH  36  37
ATOM     37  C   UNL A   1      37.823  30.737  29.923  1.00  0.00     0.031 A 
ATOM     38  C   UNL A   1      38.855  29.884  29.246  1.00  0.00     0.074 A 
ATOM     39  C   UNL A   1      38.040  31.201  31.167  1.00  0.00     0.049 A 
ATOM     40  N   UNL A   1      39.904  29.296  29.758  1.00  0.00    -0.248 NA
ATOM     41  C   UNL A   1      38.678  29.656  27.803  1.00  0.00     0.031 C 
ATOM     42  C   UNL A   1      37.142  32.089  31.912  1.00  0.00     0.029 A 
ATOM     43  N   UNL A   1      39.083  30.986  32.032  1.00  0.00    -0.354 N 
ATOM     44  C   UNL A   1      40.480  28.582  28.718  1.00  0.00     0.074 A 
ATOM     45  C   UNL A   1      39.670  28.817  27.541  1.00  0.00     0.031 C 
ATOM     46  C   UNL A   1      37.682  32.358  33.109  1.00  0.00     0.029 A 
ATOM     47  C   UNL A   1      38.912  31.589  33.253  1.00  0.00     0.049 A 
ATOM     48  H   UNL A   1      39.877  30.452  31.799  1.00  0.00     0.167 HD
ATOM     49  C   UNL A   1      41.581  27.795  28.749  1.00  0.00     0.037 A 
ATOM     50  C   UNL A   1      39.629  31.488  34.387  1.00  0.00     0.037 A 
ATOM     51  C   UNL A   1      42.399  27.600  29.918  1.00  0.00     0.049 A 
ATOM     52  C   UNL A   1      40.819  30.575  34.413  1.00  0.00     0.074 A 
ATOM     53  C   UNL A   1      43.534  26.822  30.061  1.00  0.00     0.029 A 
ATOM     54  N   UNL A   1      42.172  28.207  31.145  1.00  0.00    -0.354 N 
ATOM     55  N   UNL A   1      41.312  29.839  33.448  1.00  0.00    -0.248 NA
ATOM     56  C   UNL A   1      41.532  30.457  35.691  1.00  0.00     0.031 C 
ATOM     57  C   UNL A   1      43.980  26.938  31.383  1.00  0.00     0.029 A 
ATOM     58  C   UNL A   1      43.138  27.813  32.054  1.00  0.00     0.049 A 
ATOM     59  H   UNL A   1      41.432  28.826  31.340  1.00  0.00     0.167 HD
ATOM     60  C   UNL A   1      42.387  29.161  34.002  1.00  0.00     0.074 A 
ATOM     61  C   UNL A   1      42.492  29.596  35.380  1.00  0.00     0.031 C 
ATOM     62  C   UNL A   1      43.209  28.250  33.424  1.00  0.00     0.037 A 
BRANCH  49  63
ATOM     63  C   UNL A   1      41.932  27.055  27.495  1.00  0.00     0.057 A 
ATOM     64  C   UNL A   1      42.698  27.636  26.476  1.00  0.00     0.134 A 
ATOM     65  C   UNL A   1      41.500  25.736  27.306  1.00  0.00     0.134 A 
ATOM     66  F   UNL A   1      43.125  28.903  26.587  1.00  0.00    -0.206 F 
ATOM     67  C   UNL A   1      43.003  26.939  25.305  1.00  0.00     0.040 A 
ATOM     68  C   UNL A   1      41.816  25.021  26.149  1.00  0.00     0.040 A 
ATOM     69  F   UNL A   1      40.764  25.120  28.243  1.00  0.00    -0.206 F 
ATOM     70  C   UNL A   1      42.565  25.626  25.142  1.00  0.00     0.006 A 
ENDBRANCH  49  63
BRANCH  50  71
ATOM     71  C   UNL A   1      39.188  32.218  35.599  1.00  0.00     0.057 A 
ATOM     72  C   UNL A   1      39.571  33.544  35.824  1.00  0.00     0.134 A 
ATOM     73  C   UNL A   1      38.342  31.619  36.541  1.00  0.00     0.134 A 
ATOM     74  F   UNL A   1      40.396  34.164  34.968  1.00  0.00    -0.206 F 
ATOM     75  C   UNL A   1      39.124  34.251  36.942  1.00  0.00     0.040 A 
ATOM     76  C   UNL A   1      37.869  32.320  37.650  1.00  0.00     0.040 A 
ATOM     77  F   UNL A   1      37.938  30.350  36.378  1.00  0.00    -0.206 F 
ATOM     78  C   UNL A   1      38.263  33.641  37.854  1.00  0.00     0.006 A 
ENDBRANCH  50  71
BRANCH  62  79
ATOM     79  C   UNL A   1      44.284  27.672  34.290  1.00  0.00     0.057 A 
ATOM     80  C   UNL A   1      45.523  28.307  34.435  1.00  0.00     0.134 A 
ATOM     81  C   UNL A   1      44.070  26.487  35.003  1.00  0.00     0.134 A 
ATOM     82  F   UNL A   1      45.790  29.438  33.763  1.00  0.00    -0.206 F 
ATOM     83  C   UNL A   1      46.521  27.774  35.251  1.00  0.00     0.040 A 
ATOM     84  C   UNL A   1      45.055  25.953  35.834  1.00  0.00     0.040 A 
ATOM     85  F   UNL A   1      42.902  25.836  34.906  1.00  0.00    -0.206 F 
ATOM     86  C   UNL A   1      46.286  26.596  35.957  1.00  0.00     0.006 A 
ENDBRANCH  62  79
ENDBRANCH  36  37
ENDBRANCH  29  31
ENDBRANCH  28  29
ENDBRANCH  27  28
ENDBRANCH  26  27
ENDBRANCH   1  26
TORSDOF 17
ENDMDL
