MODEL 1
REMARK VINA RESULT:     -10.3      0.000      0.000
REMARK SMILES CC[C@@](O)(C(=O)OCCOC(=O)c1ccc(-c2c3nc(c(-c4c(F)cccc4F)c4ccc([nH]4)c(-c4c(F)cccc4F)c4nc(c(-c5c(F)cccc5F)c5ccc2[nH]5)C=C4)C=C3)cc1)[C@@H](c1ccccc1)C(C)C
REMARK SMILES IDX 8 1 7 2 5 3 6 4 3 5 2 6 1 7 4 8 67 10 68 11 69 12 73 13
REMARK SMILES IDX 70 14 72 15 71 16 74 17 75 18 76 19 9 20 10 21 11 22 12 23
REMARK SMILES IDX 13 24 14 25 66 26 15 27 65 28 16 29 17 30 18 31 59 32 19 33
REMARK SMILES IDX 64 34 58 35 60 36 20 37 63 38 57 39 56 40 21 42 47 43 30 44
REMARK SMILES IDX 46 45 31 46 34 47 45 48 61 49 32 50 33 51 44 53 62 54 35 55
REMARK SMILES IDX 22 56 23 57 28 58 24 59 25 60 27 61 29 62 26 63 48 64 49 65
REMARK SMILES IDX 54 66 50 67 51 68 53 69 55 70 52 71 36 72 37 73 42 74 38 75
REMARK SMILES IDX 39 76 41 77 43 78 40 79
REMARK H PARENT 4 9 60 41 34 52
REMARK Flexibility Score: inf
ROOT
ATOM      1  C   UNL A   1      31.298  30.874  25.750  1.00  0.00     0.274 C 
ENDROOT
BRANCH   1   2
ATOM      2  O   UNL A   1      31.664  29.563  26.230  1.00  0.00    -0.460 OA
BRANCH   2   3
ATOM      3  C   UNL A   1      32.442  28.823  25.390  1.00  0.00     0.338 C 
ATOM      4  O   UNL A   1      33.332  29.302  24.692  1.00  0.00    -0.249 OA
BRANCH   3   5
ATOM      5  C   UNL A   1      31.975  27.342  25.266  1.00  0.00     0.168 C 
BRANCH   5   6
ATOM      6  C   UNL A   1      33.008  26.360  25.857  1.00  0.00     0.044 C 
ATOM      7  C   UNL A   1      32.473  24.972  26.179  1.00  0.00     0.007 C 
ENDBRANCH   5   6
BRANCH   5   8
ATOM      8  O   UNL A   1      30.860  27.314  26.196  1.00  0.00    -0.378 OA
ATOM      9  H   UNL A   1      31.174  27.540  27.086  1.00  0.00     0.212 HD
ENDBRANCH   5   8
BRANCH   5  10
ATOM     10  C   UNL A   1      31.429  27.105  23.786  1.00  0.00     0.065 C 
BRANCH  10  11
ATOM     11  C   UNL A   1      30.252  28.008  23.348  1.00  0.00    -0.041 A 
ATOM     12  C   UNL A   1      28.944  27.530  23.504  1.00  0.00     0.004 A 
ATOM     13  C   UNL A   1      30.380  29.252  22.719  1.00  0.00     0.004 A 
ATOM     14  C   UNL A   1      27.826  28.285  23.148  1.00  0.00     0.000 A 
ATOM     15  C   UNL A   1      29.260  30.028  22.380  1.00  0.00     0.000 A 
ATOM     16  C   UNL A   1      27.979  29.551  22.609  1.00  0.00     0.000 A 
ENDBRANCH  10  11
BRANCH  10  17
ATOM     17  C   UNL A   1      32.453  26.936  22.586  1.00  0.00    -0.006 C 
ATOM     18  C   UNL A   1      33.804  26.299  22.930  1.00  0.00     0.008 C 
ATOM     19  C   UNL A   1      31.856  26.058  21.458  1.00  0.00     0.008 C 
ENDBRANCH  10  17
ENDBRANCH   5  10
ENDBRANCH   3   5
ENDBRANCH   2   3
ENDBRANCH   1   2
BRANCH   1  20
ATOM     20  C   UNL A   1      31.361  31.909  26.865  1.00  0.00     0.275 C 
BRANCH  20  21
ATOM     21  O   UNL A   1      32.432  32.827  26.598  1.00  0.00    -0.458 OA
BRANCH  21  22
ATOM     22  C   UNL A   1      32.977  33.420  27.683  1.00  0.00     0.338 C 
ATOM     23  O   UNL A   1      32.525  34.380  28.293  1.00  0.00    -0.246 OA
BRANCH  22  24
ATOM     24  C   UNL A   1      34.245  32.757  28.056  1.00  0.00     0.060 A 
ATOM     25  C   UNL A   1      34.302  31.393  28.340  1.00  0.00     0.016 A 
ATOM     26  C   UNL A   1      35.381  33.547  28.247  1.00  0.00     0.016 A 
ATOM     27  C   UNL A   1      35.446  30.859  28.943  1.00  0.00     0.010 A 
ATOM     28  C   UNL A   1      36.555  32.985  28.759  1.00  0.00     0.010 A 
ATOM     29  C   UNL A   1      36.583  31.649  29.187  1.00  0.00    -0.014 A 
BRANCH  29  30
ATOM     30  C   UNL A   1      37.762  31.096  29.925  1.00  0.00     0.031 A 
ATOM     31  C   UNL A   1      38.723  30.124  29.269  1.00  0.00     0.074 A 
ATOM     32  C   UNL A   1      38.019  31.499  31.187  1.00  0.00     0.049 A 
ATOM     33  N   UNL A   1      39.786  29.540  29.770  1.00  0.00    -0.248 NA
ATOM     34  C   UNL A   1      38.475  29.775  27.861  1.00  0.00     0.031 C 
ATOM     35  C   UNL A   1      37.226  32.464  31.949  1.00  0.00     0.029 A 
ATOM     36  N   UNL A   1      39.029  31.147  32.050  1.00  0.00    -0.354 N 
ATOM     37  C   UNL A   1      40.335  28.784  28.739  1.00  0.00     0.074 A 
ATOM     38  C   UNL A   1      39.487  28.965  27.585  1.00  0.00     0.031 C 
ATOM     39  C   UNL A   1      37.797  32.656  33.146  1.00  0.00     0.029 A 
ATOM     40  C   UNL A   1      38.934  31.754  33.278  1.00  0.00     0.049 A 
ATOM     41  H   UNL A   1      39.749  30.520  31.811  1.00  0.00     0.167 HD
ATOM     42  C   UNL A   1      41.437  27.995  28.745  1.00  0.00     0.037 A 
ATOM     43  C   UNL A   1      39.638  31.570  34.412  1.00  0.00     0.037 A 
ATOM     44  C   UNL A   1      42.255  27.738  29.899  1.00  0.00     0.049 A 
ATOM     45  C   UNL A   1      40.733  30.549  34.450  1.00  0.00     0.074 A 
ATOM     46  C   UNL A   1      43.365  26.918  30.006  1.00  0.00     0.029 A 
ATOM     47  N   UNL A   1      42.029  28.274  31.154  1.00  0.00    -0.354 N 
ATOM     48  N   UNL A   1      41.219  29.823  33.474  1.00  0.00    -0.248 NA
ATOM     49  C   UNL A   1      41.351  30.292  35.758  1.00  0.00     0.031 C 
ATOM     50  C   UNL A   1      43.775  26.911  31.344  1.00  0.00     0.029 A 
ATOM     51  C   UNL A   1      42.948  27.763  32.057  1.00  0.00     0.049 A 
ATOM     52  H   UNL A   1      41.323  28.924  31.375  1.00  0.00     0.167 HD
ATOM     53  C   UNL A   1      42.194  29.020  34.047  1.00  0.00     0.074 A 
ATOM     54  C   UNL A   1      42.246  29.362  35.454  1.00  0.00     0.031 C 
ATOM     55  C   UNL A   1      42.973  28.081  33.459  1.00  0.00     0.037 A 
BRANCH  42  56
ATOM     56  C   UNL A   1      41.799  27.301  27.467  1.00  0.00     0.057 A 
ATOM     57  C   UNL A   1      42.673  27.878  26.539  1.00  0.00     0.134 A 
ATOM     58  C   UNL A   1      41.311  26.018  27.189  1.00  0.00     0.134 A 
ATOM     59  F   UNL A   1      43.165  29.109  26.742  1.00  0.00    -0.206 F 
ATOM     60  C   UNL A   1      43.049  27.203  25.376  1.00  0.00     0.040 A 
ATOM     61  C   UNL A   1      41.689  25.328  26.037  1.00  0.00     0.040 A 
ATOM     62  F   UNL A   1      40.468  25.413  28.039  1.00  0.00    -0.206 F 
ATOM     63  C   UNL A   1      42.561  25.920  25.126  1.00  0.00     0.006 A 
ENDBRANCH  42  56
BRANCH  43  64
ATOM     64  C   UNL A   1      39.249  32.320  35.631  1.00  0.00     0.057 A 
ATOM     65  C   UNL A   1      38.320  31.803  36.538  1.00  0.00     0.134 A 
ATOM     66  C   UNL A   1      39.834  33.557  35.932  1.00  0.00     0.134 A 
ATOM     67  F   UNL A   1      37.706  30.638  36.287  1.00  0.00    -0.206 F 
ATOM     68  C   UNL A   1      37.996  32.486  37.712  1.00  0.00     0.040 A 
ATOM     69  C   UNL A   1      39.539  34.236  37.113  1.00  0.00     0.040 A 
ATOM     70  F   UNL A   1      40.729  34.104  35.096  1.00  0.00    -0.206 F 
ATOM     71  C   UNL A   1      38.617  33.699  38.008  1.00  0.00     0.006 A 
ENDBRANCH  43  64
BRANCH  55  72
ATOM     72  C   UNL A   1      43.937  27.347  34.337  1.00  0.00     0.057 A 
ATOM     73  C   UNL A   1      43.601  26.120  34.923  1.00  0.00     0.134 A 
ATOM     74  C   UNL A   1      45.217  27.856  34.583  1.00  0.00     0.134 A 
ATOM     75  F   UNL A   1      42.383  25.587  34.734  1.00  0.00    -0.206 F 
ATOM     76  C   UNL A   1      44.500  25.435  35.742  1.00  0.00     0.040 A 
ATOM     77  C   UNL A   1      46.131  27.171  35.384  1.00  0.00     0.040 A 
ATOM     78  F   UNL A   1      45.600  29.023  34.044  1.00  0.00    -0.206 F 
ATOM     79  C   UNL A   1      45.770  25.959  35.971  1.00  0.00     0.006 A 
ENDBRANCH  55  72
ENDBRANCH  29  30
ENDBRANCH  22  24
ENDBRANCH  21  22
ENDBRANCH  20  21
ENDBRANCH   1  20
TORSDOF 16
ENDMDL
MODEL 2
REMARK VINA RESULT:     -10.2      4.506      9.293
REMARK SMILES CC[C@@](O)(C(=O)OCCOC(=O)c1ccc(-c2c3nc(c(-c4c(F)cccc4F)c4ccc([nH]4)c(-c4c(F)cccc4F)c4nc(c(-c5c(F)cccc5F)c5ccc2[nH]5)C=C4)C=C3)cc1)[C@@H](c1ccccc1)C(C)C
REMARK SMILES IDX 8 1 7 2 5 3 6 4 3 5 2 6 1 7 4 8 67 10 68 11 69 12 73 13
REMARK SMILES IDX 70 14 72 15 71 16 74 17 75 18 76 19 9 20 10 21 11 22 12 23
REMARK SMILES IDX 13 24 14 25 66 26 15 27 65 28 16 29 17 30 18 31 59 32 19 33
REMARK SMILES IDX 64 34 58 35 60 36 20 37 63 38 57 39 56 40 21 42 47 43 30 44
REMARK SMILES IDX 46 45 31 46 34 47 45 48 61 49 32 50 33 51 44 53 62 54 35 55
REMARK SMILES IDX 22 56 23 57 28 58 24 59 25 60 27 61 29 62 26 63 48 64 49 65
REMARK SMILES IDX 54 66 50 67 51 68 53 69 55 70 52 71 36 72 37 73 42 74 38 75
REMARK SMILES IDX 39 76 41 77 43 78 40 79
REMARK H PARENT 4 9 60 41 34 52
REMARK Flexibility Score: inf
ROOT
ATOM      1  C   UNL A   1      36.569  22.299  23.895  1.00  0.00     0.274 C 
ENDROOT
BRANCH   1   2
ATOM      2  O   UNL A   1      35.377  22.807  24.533  1.00  0.00    -0.460 OA
BRANCH   2   3
ATOM      3  C   UNL A   1      34.527  23.501  23.724  1.00  0.00     0.338 C 
ATOM      4  O   UNL A   1      34.887  24.098  22.712  1.00  0.00    -0.249 OA
BRANCH   3   5
ATOM      5  C   UNL A   1      33.086  23.615  24.304  1.00  0.00     0.168 C 
BRANCH   5   6
ATOM      6  C   UNL A   1      32.119  24.298  23.315  1.00  0.00     0.044 C 
ATOM      7  C   UNL A   1      30.675  23.821  23.385  1.00  0.00     0.007 C 
ENDBRANCH   5   6
BRANCH   5   8
ATOM      8  O   UNL A   1      32.674  22.222  24.325  1.00  0.00    -0.378 OA
ATOM      9  H   UNL A   1      31.754  22.152  24.025  1.00  0.00     0.212 HD
ENDBRANCH   5   8
BRANCH   5  10
ATOM     10  C   UNL A   1      33.183  24.156  25.801  1.00  0.00     0.065 C 
BRANCH  10  11
ATOM     11  C   UNL A   1      33.000  25.681  25.982  1.00  0.00    -0.041 A 
ATOM     12  C   UNL A   1      31.757  26.162  26.417  1.00  0.00     0.004 A 
ATOM     13  C   UNL A   1      33.956  26.652  25.665  1.00  0.00     0.004 A 
ATOM     14  C   UNL A   1      31.512  27.521  26.619  1.00  0.00     0.000 A 
ATOM     15  C   UNL A   1      33.726  28.018  25.889  1.00  0.00     0.000 A 
ATOM     16  C   UNL A   1      32.506  28.454  26.382  1.00  0.00     0.000 A 
ENDBRANCH  10  11
BRANCH  10  17
ATOM     17  C   UNL A   1      32.438  23.383  26.969  1.00  0.00    -0.006 C 
ATOM     18  C   UNL A   1      31.116  22.702  26.598  1.00  0.00     0.008 C 
ATOM     19  C   UNL A   1      33.330  22.263  27.559  1.00  0.00     0.008 C 
ENDBRANCH  10  17
ENDBRANCH   5  10
ENDBRANCH   3   5
ENDBRANCH   2   3
ENDBRANCH   1   2
BRANCH   1  20
ATOM     20  C   UNL A   1      37.113  21.082  24.630  1.00  0.00     0.275 C 
BRANCH  20  21
ATOM     21  O   UNL A   1      37.579  21.482  25.928  1.00  0.00    -0.458 OA
BRANCH  21  22
ATOM     22  C   UNL A   1      38.917  21.433  26.108  1.00  0.00     0.338 C 
ATOM     23  O   UNL A   1      39.650  20.482  25.873  1.00  0.00    -0.246 OA
BRANCH  22  24
ATOM     24  C   UNL A   1      39.414  22.712  26.661  1.00  0.00     0.060 A 
ATOM     25  C   UNL A   1      38.938  23.940  26.206  1.00  0.00     0.016 A 
ATOM     26  C   UNL A   1      40.473  22.679  27.572  1.00  0.00     0.016 A 
ATOM     27  C   UNL A   1      39.614  25.116  26.552  1.00  0.00     0.010 A 
ATOM     28  C   UNL A   1      41.081  23.867  27.992  1.00  0.00     0.010 A 
ATOM     29  C   UNL A   1      40.711  25.099  27.431  1.00  0.00    -0.014 A 
BRANCH  29  30
ATOM     30  C   UNL A   1      41.491  26.344  27.714  1.00  0.00     0.031 A 
ATOM     31  C   UNL A   1      40.891  27.491  28.504  1.00  0.00     0.074 A 
ATOM     32  C   UNL A   1      42.774  26.446  27.310  1.00  0.00     0.049 A 
ATOM     33  N   UNL A   1      41.424  28.646  28.828  1.00  0.00    -0.248 NA
ATOM     34  C   UNL A   1      39.523  27.317  29.017  1.00  0.00     0.031 C 
ATOM     35  C   UNL A   1      43.520  25.418  26.583  1.00  0.00     0.029 A 
ATOM     36  N   UNL A   1      43.681  27.468  27.459  1.00  0.00    -0.354 N 
ATOM     37  C   UNL A   1      40.471  29.312  29.593  1.00  0.00     0.074 A 
ATOM     38  C   UNL A   1      39.318  28.447  29.678  1.00  0.00     0.031 C 
ATOM     39  C   UNL A   1      44.775  25.842  26.384  1.00  0.00     0.029 A 
ATOM     40  C   UNL A   1      44.896  27.210  26.875  1.00  0.00     0.049 A 
ATOM     41  H   UNL A   1      43.477  28.304  27.938  1.00  0.00     0.167 HD
ATOM     42  C   UNL A   1      40.534  30.539  30.165  1.00  0.00     0.037 A 
ATOM     43  C   UNL A   1      45.974  27.996  26.692  1.00  0.00     0.037 A 
ATOM     44  C   UNL A   1      41.638  31.450  30.033  1.00  0.00     0.049 A 
ATOM     45  C   UNL A   1      45.948  29.417  27.166  1.00  0.00     0.074 A 
ATOM     46  C   UNL A   1      41.767  32.730  30.543  1.00  0.00     0.029 A 
ATOM     47  N   UNL A   1      42.789  31.187  29.312  1.00  0.00    -0.354 N 
ATOM     48  N   UNL A   1      45.028  30.037  27.861  1.00  0.00    -0.248 NA
ATOM     49  C   UNL A   1      47.093  30.259  26.794  1.00  0.00     0.031 C 
ATOM     50  C   UNL A   1      42.974  33.265  30.079  1.00  0.00     0.029 A 
ATOM     51  C   UNL A   1      43.613  32.300  29.318  1.00  0.00     0.049 A 
ATOM     52  H   UNL A   1      42.993  30.336  28.861  1.00  0.00     0.167 HD
ATOM     53  C   UNL A   1      45.477  31.341  28.007  1.00  0.00     0.074 A 
ATOM     54  C   UNL A   1      46.763  31.419  27.345  1.00  0.00     0.031 C 
ATOM     55  C   UNL A   1      44.874  32.381  28.631  1.00  0.00     0.037 A 
BRANCH  42  56
ATOM     56  C   UNL A   1      39.343  30.998  30.951  1.00  0.00     0.057 A 
ATOM     57  C   UNL A   1      39.260  30.810  32.336  1.00  0.00     0.134 A 
ATOM     58  C   UNL A   1      38.295  31.684  30.325  1.00  0.00     0.134 A 
ATOM     59  F   UNL A   1      40.226  30.151  32.992  1.00  0.00    -0.206 F 
ATOM     60  C   UNL A   1      38.173  31.289  33.071  1.00  0.00     0.040 A 
ATOM     61  C   UNL A   1      37.210  32.177  31.050  1.00  0.00     0.040 A 
ATOM     62  F   UNL A   1      38.316  31.892  29.000  1.00  0.00    -0.206 F 
ATOM     63  C   UNL A   1      37.147  31.980  32.427  1.00  0.00     0.006 A 
ENDBRANCH  42  56
BRANCH  43  64
ATOM     64  C   UNL A   1      47.134  27.464  25.937  1.00  0.00     0.057 A 
ATOM     65  C   UNL A   1      48.197  26.830  26.587  1.00  0.00     0.134 A 
ATOM     66  C   UNL A   1      47.183  27.546  24.539  1.00  0.00     0.134 A 
ATOM     67  F   UNL A   1      48.219  26.748  27.925  1.00  0.00    -0.206 F 
ATOM     68  C   UNL A   1      49.262  26.282  25.870  1.00  0.00     0.040 A 
ATOM     69  C   UNL A   1      48.228  26.981  23.810  1.00  0.00     0.040 A 
ATOM     70  F   UNL A   1      46.194  28.148  23.862  1.00  0.00    -0.206 F 
ATOM     71  C   UNL A   1      49.272  26.345  24.477  1.00  0.00     0.006 A 
ENDBRANCH  43  64
BRANCH  55  72
ATOM     72  C   UNL A   1      45.591  33.695  28.615  1.00  0.00     0.057 A 
ATOM     73  C   UNL A   1      46.548  34.014  29.587  1.00  0.00     0.134 A 
ATOM     74  C   UNL A   1      45.342  34.639  27.613  1.00  0.00     0.134 A 
ATOM     75  F   UNL A   1      46.821  33.155  30.581  1.00  0.00    -0.206 F 
ATOM     76  C   UNL A   1      47.217  35.239  29.573  1.00  0.00     0.040 A 
ATOM     77  C   UNL A   1      46.018  35.858  27.578  1.00  0.00     0.040 A 
ATOM     78  F   UNL A   1      44.442  34.388  26.651  1.00  0.00    -0.206 F 
ATOM     79  C   UNL A   1      46.956  36.163  28.563  1.00  0.00     0.006 A 
ENDBRANCH  55  72
ENDBRANCH  29  30
ENDBRANCH  22  24
ENDBRANCH  21  22
ENDBRANCH  20  21
ENDBRANCH   1  20
TORSDOF 16
ENDMDL
MODEL 3
REMARK VINA RESULT:     -10.2      4.513      9.368
REMARK SMILES CC[C@@](O)(C(=O)OCCOC(=O)c1ccc(-c2c3nc(c(-c4c(F)cccc4F)c4ccc([nH]4)c(-c4c(F)cccc4F)c4nc(c(-c5c(F)cccc5F)c5ccc2[nH]5)C=C4)C=C3)cc1)[C@@H](c1ccccc1)C(C)C
REMARK SMILES IDX 8 1 7 2 5 3 6 4 3 5 2 6 1 7 4 8 67 10 68 11 69 12 73 13
REMARK SMILES IDX 70 14 72 15 71 16 74 17 75 18 76 19 9 20 10 21 11 22 12 23
REMARK SMILES IDX 13 24 14 25 66 26 15 27 65 28 16 29 17 30 18 31 59 32 19 33
REMARK SMILES IDX 64 34 58 35 60 36 20 37 63 38 57 39 56 40 21 42 47 43 30 44
REMARK SMILES IDX 46 45 31 46 34 47 45 48 61 49 32 50 33 51 44 53 62 54 35 55
REMARK SMILES IDX 22 56 23 57 28 58 24 59 25 60 27 61 29 62 26 63 48 64 49 65
REMARK SMILES IDX 54 66 50 67 51 68 53 69 55 70 52 71 36 72 37 73 42 74 38 75
REMARK SMILES IDX 39 76 41 77 43 78 40 79
REMARK H PARENT 4 9 60 41 34 52
REMARK Flexibility Score: inf
ROOT
ATOM      1  C   UNL A   1      36.624  22.869  23.647  1.00  0.00     0.274 C 
ENDROOT
BRANCH   1   2
ATOM      2  O   UNL A   1      35.647  23.718  24.286  1.00  0.00    -0.460 OA
BRANCH   2   3
ATOM      3  C   UNL A   1      34.477  23.884  23.606  1.00  0.00     0.338 C 
ATOM      4  O   UNL A   1      34.320  23.553  22.433  1.00  0.00    -0.249 OA
BRANCH   3   5
ATOM      5  C   UNL A   1      33.413  24.695  24.404  1.00  0.00     0.168 C 
BRANCH   5   6
ATOM      6  C   UNL A   1      34.058  25.577  25.493  1.00  0.00     0.044 C 
ATOM      7  C   UNL A   1      33.737  27.062  25.399  1.00  0.00     0.007 C 
ENDBRANCH   5   6
BRANCH   5   8
ATOM      8  O   UNL A   1      32.950  25.631  23.394  1.00  0.00    -0.378 OA
ATOM      9  H   UNL A   1      32.248  25.217  22.866  1.00  0.00     0.212 HD
ENDBRANCH   5   8
BRANCH   5  10
ATOM     10  C   UNL A   1      32.218  23.715  24.797  1.00  0.00     0.065 C 
BRANCH  10  11
ATOM     11  C   UNL A   1      32.568  22.209  24.844  1.00  0.00    -0.041 A 
ATOM     12  C   UNL A   1      33.315  21.726  25.927  1.00  0.00     0.004 A 
ATOM     13  C   UNL A   1      32.271  21.280  23.840  1.00  0.00     0.004 A 
ATOM     14  C   UNL A   1      33.662  20.380  26.053  1.00  0.00     0.000 A 
ATOM     15  C   UNL A   1      32.594  19.920  23.972  1.00  0.00     0.000 A 
ATOM     16  C   UNL A   1      33.277  19.465  25.089  1.00  0.00     0.000 A 
ENDBRANCH  10  11
BRANCH  10  17
ATOM     17  C   UNL A   1      31.263  24.083  26.009  1.00  0.00    -0.006 C 
ATOM     18  C   UNL A   1      30.379  25.321  25.826  1.00  0.00     0.008 C 
ATOM     19  C   UNL A   1      30.288  22.922  26.328  1.00  0.00     0.008 C 
ENDBRANCH  10  17
ENDBRANCH   5  10
ENDBRANCH   3   5
ENDBRANCH   2   3
ENDBRANCH   1   2
BRANCH   1  20
ATOM     20  C   UNL A   1      36.691  21.503  24.318  1.00  0.00     0.275 C 
BRANCH  20  21
ATOM     21  O   UNL A   1      37.144  21.663  25.671  1.00  0.00    -0.458 OA
BRANCH  21  22
ATOM     22  C   UNL A   1      38.475  21.528  25.861  1.00  0.00     0.338 C 
ATOM     23  O   UNL A   1      39.156  20.549  25.584  1.00  0.00    -0.246 OA
BRANCH  22  24
ATOM     24  C   UNL A   1      39.038  22.746  26.483  1.00  0.00     0.060 A 
ATOM     25  C   UNL A   1      38.506  24.010  26.230  1.00  0.00     0.016 A 
ATOM     26  C   UNL A   1      40.205  22.631  27.241  1.00  0.00     0.016 A 
ATOM     27  C   UNL A   1      39.219  25.151  26.615  1.00  0.00     0.010 A 
ATOM     28  C   UNL A   1      40.861  23.776  27.707  1.00  0.00     0.010 A 
ATOM     29  C   UNL A   1      40.420  25.055  27.338  1.00  0.00    -0.014 A 
BRANCH  29  30
ATOM     30  C   UNL A   1      41.228  26.274  27.655  1.00  0.00     0.031 A 
ATOM     31  C   UNL A   1      40.649  27.421  28.460  1.00  0.00     0.074 A 
ATOM     32  C   UNL A   1      42.518  26.351  27.267  1.00  0.00     0.049 A 
ATOM     33  N   UNL A   1      41.207  28.555  28.812  1.00  0.00    -0.248 NA
ATOM     34  C   UNL A   1      39.271  27.273  28.954  1.00  0.00     0.031 C 
ATOM     35  C   UNL A   1      43.246  25.318  26.528  1.00  0.00     0.029 A 
ATOM     36  N   UNL A   1      43.449  27.345  27.446  1.00  0.00    -0.354 N 
ATOM     37  C   UNL A   1      40.264  29.230  29.580  1.00  0.00     0.074 A 
ATOM     38  C   UNL A   1      39.088  28.395  29.635  1.00  0.00     0.031 C 
ATOM     39  C   UNL A   1      44.514  25.713  26.351  1.00  0.00     0.029 A 
ATOM     40  C   UNL A   1      44.664  27.067  26.870  1.00  0.00     0.049 A 
ATOM     41  H   UNL A   1      43.262  28.177  27.939  1.00  0.00     0.167 HD
ATOM     42  C   UNL A   1      40.351  30.444  30.176  1.00  0.00     0.037 A 
ATOM     43  C   UNL A   1      45.764  27.829  26.714  1.00  0.00     0.037 A 
ATOM     44  C   UNL A   1      41.480  31.328  30.074  1.00  0.00     0.049 A 
ATOM     45  C   UNL A   1      45.769  29.240  27.216  1.00  0.00     0.074 A 
ATOM     46  C   UNL A   1      41.636  32.595  30.611  1.00  0.00     0.029 A 
ATOM     47  N   UNL A   1      42.632  31.050  29.361  1.00  0.00    -0.354 N 
ATOM     48  N   UNL A   1      44.857  29.871  27.913  1.00  0.00    -0.248 NA
ATOM     49  C   UNL A   1      46.940  30.059  26.874  1.00  0.00     0.031 C 
ATOM     50  C   UNL A   1      42.862  33.107  30.171  1.00  0.00     0.029 A 
ATOM     51  C   UNL A   1      43.485  32.141  29.399  1.00  0.00     0.049 A 
ATOM     52  H   UNL A   1      42.819  30.202  28.896  1.00  0.00     0.167 HD
ATOM     53  C   UNL A   1      45.338  31.160  28.090  1.00  0.00     0.074 A 
ATOM     54  C   UNL A   1      46.633  31.217  27.443  1.00  0.00     0.031 C 
ATOM     55  C   UNL A   1      44.755  32.203  28.727  1.00  0.00     0.037 A 
BRANCH  42  56
ATOM     56  C   UNL A   1      39.163  30.918  30.958  1.00  0.00     0.057 A 
ATOM     57  C   UNL A   1      38.114  31.616  30.349  1.00  0.00     0.134 A 
ATOM     58  C   UNL A   1      39.043  30.625  32.322  1.00  0.00     0.134 A 
ATOM     59  F   UNL A   1      38.175  31.937  29.049  1.00  0.00    -0.206 F 
ATOM     60  C   UNL A   1      36.984  32.007  31.072  1.00  0.00     0.040 A 
ATOM     61  C   UNL A   1      37.914  30.999  33.052  1.00  0.00     0.040 A 
ATOM     62  F   UNL A   1      40.017  29.960  32.962  1.00  0.00    -0.206 F 
ATOM     63  C   UNL A   1      36.880  31.692  32.426  1.00  0.00     0.006 A 
ENDBRANCH  42  56
BRANCH  43  64
ATOM     64  C   UNL A   1      46.919  27.282  25.962  1.00  0.00     0.057 A 
ATOM     65  C   UNL A   1      47.031  27.445  24.579  1.00  0.00     0.134 A 
ATOM     66  C   UNL A   1      47.959  26.615  26.624  1.00  0.00     0.134 A 
ATOM     67  F   UNL A   1      46.053  28.049  23.888  1.00  0.00    -0.206 F 
ATOM     68  C   UNL A   1      48.146  26.977  23.881  1.00  0.00     0.040 A 
ATOM     69  C   UNL A   1      49.089  26.165  25.944  1.00  0.00     0.040 A 
ATOM     70  F   UNL A   1      47.903  26.424  27.951  1.00  0.00    -0.206 F 
ATOM     71  C   UNL A   1      49.184  26.347  24.566  1.00  0.00     0.006 A 
ENDBRANCH  43  64
BRANCH  55  72
ATOM     72  C   UNL A   1      45.505  33.497  28.745  1.00  0.00     0.057 A 
ATOM     73  C   UNL A   1      45.249  34.501  27.803  1.00  0.00     0.134 A 
ATOM     74  C   UNL A   1      46.475  33.753  29.721  1.00  0.00     0.134 A 
ATOM     75  F   UNL A   1      44.339  34.310  26.835  1.00  0.00    -0.206 F 
ATOM     76  C   UNL A   1      45.949  35.709  27.819  1.00  0.00     0.040 A 
ATOM     77  C   UNL A   1      47.168  34.963  29.759  1.00  0.00     0.040 A 
ATOM     78  F   UNL A   1      46.761  32.833  30.654  1.00  0.00    -0.206 F 
ATOM     79  C   UNL A   1      46.908  35.943  28.802  1.00  0.00     0.006 A 
ENDBRANCH  55  72
ENDBRANCH  29  30
ENDBRANCH  22  24
ENDBRANCH  21  22
ENDBRANCH  20  21
ENDBRANCH   1  20
TORSDOF 16
ENDMDL
