MODEL 1
REMARK VINA RESULT:     -11.6      0.000      0.000
REMARK SMILES CC[C@@H]1CC[C@](C[C@@H]2CCCc3ccccc32)(C(=O)OCCOC(=O)c2ccc(-c3c4nc(c(-c5c(F)cccc5F)c5ccc([nH]5)c(-c5c(F)cccc5F)c5nc(c(-c6c(F)cccc6F)c6ccc3[nH]6)C=C5)C=C4)cc2)C1
REMARK SMILES IDX 21 1 20 2 18 3 19 4 6 5 3 6 4 7 80 8 5 9 2 10 1 11 7 12 8 13
REMARK SMILES IDX 9 14 17 15 10 16 12 17 16 18 11 19 13 20 15 21 14 22 22 23
REMARK SMILES IDX 23 24 24 25 25 26 26 27 27 28 79 29 28 30 78 31 29 32 30 33
REMARK SMILES IDX 31 34 72 35 32 36 77 37 71 38 73 39 33 40 76 41 70 42 69 43
REMARK SMILES IDX 34 45 60 46 43 47 59 48 44 49 47 50 58 51 74 52 45 53 46 54
REMARK SMILES IDX 57 56 75 57 48 58 35 59 36 60 41 61 37 62 38 63 40 64 42 65
REMARK SMILES IDX 39 66 61 67 62 68 67 69 63 70 64 71 66 72 68 73 65 74 49 75
REMARK SMILES IDX 50 76 55 77 51 78 52 79 54 80 56 81 53 82
REMARK H PARENT 73 44 47 55
REMARK Flexibility Score: inf
ROOT
ATOM      1  C   UNL A   1      31.332  28.966  23.969  1.00  0.00     0.274 C 
ENDROOT
BRANCH   1   2
ATOM      2  O   UNL A   1      31.418  27.567  23.617  1.00  0.00    -0.462 OA
BRANCH   2   3
ATOM      3  C   UNL A   1      32.648  27.129  23.244  1.00  0.00     0.312 C 
ATOM      4  O   UNL A   1      33.373  27.746  22.467  1.00  0.00    -0.252 OA
BRANCH   3   5
ATOM      5  C   UNL A   1      33.050  25.745  23.821  1.00  0.00     0.069 C 
ATOM      6  C   UNL A   1      32.388  24.592  25.886  1.00  0.00    -0.010 C 
ATOM      7  C   UNL A   1      33.231  25.796  26.272  1.00  0.00     0.005 C 
ATOM      8  C   UNL A   1      31.883  24.978  24.488  1.00  0.00     0.022 C 
ATOM      9  C   UNL A   1      34.028  26.018  24.991  1.00  0.00     0.019 C 
BRANCH   6  10
ATOM     10  C   UNL A   1      31.286  24.227  26.876  1.00  0.00     0.000 C 
ATOM     11  C   UNL A   1      30.598  22.925  26.482  1.00  0.00     0.004 C 
ENDBRANCH   6  10
BRANCH   5  12
ATOM     12  C   UNL A   1      33.661  25.022  22.571  1.00  0.00     0.027 C 
BRANCH  12  13
ATOM     13  C   UNL A   1      34.015  23.515  22.433  1.00  0.00     0.020 C 
ATOM     14  C   UNL A   1      32.884  22.579  21.989  1.00  0.00     0.009 C 
ATOM     15  C   UNL A   1      34.885  22.928  23.517  1.00  0.00    -0.042 A 
ATOM     16  C   UNL A   1      32.153  21.868  23.111  1.00  0.00     0.005 C 
ATOM     17  C   UNL A   1      34.414  21.913  24.362  1.00  0.00    -0.045 A 
ATOM     18  C   UNL A   1      36.199  23.411  23.686  1.00  0.00     0.004 A 
ATOM     19  C   UNL A   1      33.066  21.267  24.180  1.00  0.00     0.036 C 
ATOM     20  C   UNL A   1      35.250  21.434  25.388  1.00  0.00     0.004 A 
ATOM     21  C   UNL A   1      37.021  22.916  24.698  1.00  0.00     0.000 A 
ATOM     22  C   UNL A   1      36.541  21.934  25.556  1.00  0.00     0.000 A 
ENDBRANCH  12  13
ENDBRANCH   5  12
ENDBRANCH   3   5
ENDBRANCH   2   3
ENDBRANCH   1   2
BRANCH   1  23
ATOM     23  C   UNL A   1      31.712  29.203  25.430  1.00  0.00     0.275 C 
BRANCH  23  24
ATOM     24  O   UNL A   1      32.851  30.078  25.502  1.00  0.00    -0.458 OA
BRANCH  24  25
ATOM     25  C   UNL A   1      32.971  30.811  26.633  1.00  0.00     0.338 C 
ATOM     26  O   UNL A   1      32.123  31.532  27.131  1.00  0.00    -0.246 OA
BRANCH  25  27
ATOM     27  C   UNL A   1      34.307  30.605  27.242  1.00  0.00     0.060 A 
ATOM     28  C   UNL A   1      34.765  29.327  27.544  1.00  0.00     0.016 A 
ATOM     29  C   UNL A   1      35.068  31.709  27.626  1.00  0.00     0.016 A 
ATOM     30  C   UNL A   1      35.896  29.149  28.339  1.00  0.00     0.010 A 
ATOM     31  C   UNL A   1      36.281  31.522  28.301  1.00  0.00     0.010 A 
ATOM     32  C   UNL A   1      36.697  30.239  28.700  1.00  0.00    -0.014 A 
BRANCH  32  33
ATOM     33  C   UNL A   1      37.953  30.044  29.485  1.00  0.00     0.031 A 
ATOM     34  C   UNL A   1      39.093  29.238  28.914  1.00  0.00     0.074 A 
ATOM     35  C   UNL A   1      38.088  30.576  30.717  1.00  0.00     0.049 A 
ATOM     36  N   UNL A   1      40.133  28.725  29.526  1.00  0.00    -0.248 NA
ATOM     37  C   UNL A   1      39.049  28.953  27.471  1.00  0.00     0.031 C 
ATOM     38  C   UNL A   1      37.102  31.421  31.395  1.00  0.00     0.029 A 
ATOM     39  N   UNL A   1      39.117  30.486  31.624  1.00  0.00    -0.354 N 
ATOM     40  C   UNL A   1      40.817  27.992  28.563  1.00  0.00     0.074 A 
ATOM     41  C   UNL A   1      40.088  28.141  27.322  1.00  0.00     0.031 C 
ATOM     42  C   UNL A   1      37.594  31.816  32.578  1.00  0.00     0.029 A 
ATOM     43  C   UNL A   1      38.875  31.157  32.799  1.00  0.00     0.049 A 
ATOM     44  H   UNL A   1      39.949  29.990  31.449  1.00  0.00     0.167 HD
ATOM     45  C   UNL A   1      41.943  27.253  28.710  1.00  0.00     0.037 A 
ATOM     46  C   UNL A   1      39.563  31.194  33.955  1.00  0.00     0.037 A 
ATOM     47  C   UNL A   1      42.712  27.173  29.925  1.00  0.00     0.049 A 
ATOM     48  C   UNL A   1      40.798  30.360  34.101  1.00  0.00     0.074 A 
ATOM     49  C   UNL A   1      43.879  26.468  30.165  1.00  0.00     0.029 A 
ATOM     50  N   UNL A   1      42.403  27.843  31.099  1.00  0.00    -0.354 N 
ATOM     51  N   UNL A   1      41.377  29.583  33.218  1.00  0.00    -0.248 NA
ATOM     52  C   UNL A   1      41.453  30.374  35.416  1.00  0.00     0.031 C 
ATOM     53  C   UNL A   1      44.265  26.694  31.492  1.00  0.00     0.029 A 
ATOM     54  C   UNL A   1      43.352  27.563  32.068  1.00  0.00     0.049 A 
ATOM     55  H   UNL A   1      41.622  28.430  31.226  1.00  0.00     0.167 HD
ATOM     56  C   UNL A   1      42.454  29.005  33.872  1.00  0.00     0.074 A 
ATOM     57  C   UNL A   1      42.468  29.544  35.216  1.00  0.00     0.031 C 
ATOM     58  C   UNL A   1      43.343  28.097  33.404  1.00  0.00     0.037 A 
BRANCH  45  59
ATOM     59  C   UNL A   1      42.398  26.436  27.536  1.00  0.00     0.057 A 
ATOM     60  C   UNL A   1      43.281  26.937  26.573  1.00  0.00     0.134 A 
ATOM     61  C   UNL A   1      41.980  25.105  27.402  1.00  0.00     0.134 A 
ATOM     62  F   UNL A   1      43.708  28.206  26.637  1.00  0.00    -0.206 F 
ATOM     63  C   UNL A   1      43.719  26.147  25.508  1.00  0.00     0.040 A 
ATOM     64  C   UNL A   1      42.429  24.300  26.354  1.00  0.00     0.040 A 
ATOM     65  F   UNL A   1      41.140  24.562  28.296  1.00  0.00    -0.206 F 
ATOM     66  C   UNL A   1      43.299  24.822  25.401  1.00  0.00     0.006 A 
ENDBRANCH  45  59
BRANCH  46  67
ATOM     67  C   UNL A   1      39.045  31.997  35.090  1.00  0.00     0.057 A 
ATOM     68  C   UNL A   1      39.224  33.384  35.134  1.00  0.00     0.134 A 
ATOM     69  C   UNL A   1      38.327  31.403  36.136  1.00  0.00     0.134 A 
ATOM     70  F   UNL A   1      39.926  34.005  34.174  1.00  0.00    -0.206 F 
ATOM     71  C   UNL A   1      38.703  34.153  36.176  1.00  0.00     0.040 A 
ATOM     72  C   UNL A   1      37.778  32.163  37.168  1.00  0.00     0.040 A 
ATOM     73  F   UNL A   1      38.122  30.078  36.148  1.00  0.00    -0.206 F 
ATOM     74  C   UNL A   1      37.967  33.543  37.190  1.00  0.00     0.006 A 
ENDBRANCH  46  67
BRANCH  58  75
ATOM     75  C   UNL A   1      44.400  27.637  34.358  1.00  0.00     0.057 A 
ATOM     76  C   UNL A   1      45.607  28.334  34.500  1.00  0.00     0.134 A 
ATOM     77  C   UNL A   1      44.210  26.496  35.145  1.00  0.00     0.134 A 
ATOM     78  F   UNL A   1      45.853  29.426  33.760  1.00  0.00    -0.206 F 
ATOM     79  C   UNL A   1      46.597  27.900  35.382  1.00  0.00     0.040 A 
ATOM     80  C   UNL A   1      45.186  26.062  36.043  1.00  0.00     0.040 A 
ATOM     81  F   UNL A   1      43.074  25.787  35.054  1.00  0.00    -0.206 F 
ATOM     82  C   UNL A   1      46.386  26.763  36.159  1.00  0.00     0.006 A 
ENDBRANCH  58  75
ENDBRANCH  32  33
ENDBRANCH  25  27
ENDBRANCH  24  25
ENDBRANCH  23  24
ENDBRANCH   1  23
TORSDOF 14
ENDMDL
MODEL 2
REMARK VINA RESULT:     -11.6      3.827      8.524
REMARK SMILES CC[C@@H]1CC[C@](C[C@@H]2CCCc3ccccc32)(C(=O)OCCOC(=O)c2ccc(-c3c4nc(c(-c5c(F)cccc5F)c5ccc([nH]5)c(-c5c(F)cccc5F)c5nc(c(-c6c(F)cccc6F)c6ccc3[nH]6)C=C5)C=C4)cc2)C1
REMARK SMILES IDX 21 1 20 2 18 3 19 4 6 5 3 6 4 7 80 8 5 9 2 10 1 11 7 12 8 13
REMARK SMILES IDX 9 14 17 15 10 16 12 17 16 18 11 19 13 20 15 21 14 22 22 23
REMARK SMILES IDX 23 24 24 25 25 26 26 27 27 28 79 29 28 30 78 31 29 32 30 33
REMARK SMILES IDX 31 34 72 35 32 36 77 37 71 38 73 39 33 40 76 41 70 42 69 43
REMARK SMILES IDX 34 45 60 46 43 47 59 48 44 49 47 50 58 51 74 52 45 53 46 54
REMARK SMILES IDX 57 56 75 57 48 58 35 59 36 60 41 61 37 62 38 63 40 64 42 65
REMARK SMILES IDX 39 66 61 67 62 68 67 69 63 70 64 71 66 72 68 73 65 74 49 75
REMARK SMILES IDX 50 76 55 77 51 78 52 79 54 80 56 81 53 82
REMARK H PARENT 73 44 47 55
REMARK Flexibility Score: inf
ROOT
ATOM      1  C   UNL A   1      34.379  20.531  25.625  1.00  0.00     0.274 C 
ENDROOT
BRANCH   1   2
ATOM      2  O   UNL A   1      33.440  21.549  25.213  1.00  0.00    -0.462 OA
BRANCH   2   3
ATOM      3  C   UNL A   1      33.235  22.554  26.102  1.00  0.00     0.312 C 
ATOM      4  O   UNL A   1      33.201  22.378  27.318  1.00  0.00    -0.252 OA
BRANCH   3   5
ATOM      5  C   UNL A   1      32.975  23.946  25.465  1.00  0.00     0.069 C 
ATOM      6  C   UNL A   1      33.217  24.745  23.156  1.00  0.00    -0.010 C 
ATOM      7  C   UNL A   1      34.606  24.460  23.699  1.00  0.00     0.005 C 
ATOM      8  C   UNL A   1      32.325  23.885  24.062  1.00  0.00     0.022 C 
ATOM      9  C   UNL A   1      34.363  24.580  25.200  1.00  0.00     0.019 C 
BRANCH   6  10
ATOM     10  C   UNL A   1      33.038  24.484  21.663  1.00  0.00     0.000 C 
ATOM     11  C   UNL A   1      32.661  25.760  20.920  1.00  0.00     0.004 C 
ENDBRANCH   6  10
BRANCH   5  12
ATOM     12  C   UNL A   1      32.092  24.654  26.550  1.00  0.00     0.027 C 
BRANCH  12  13
ATOM     13  C   UNL A   1      31.278  25.969  26.392  1.00  0.00     0.020 C 
ATOM     14  C   UNL A   1      29.816  25.825  25.947  1.00  0.00     0.009 C 
ATOM     15  C   UNL A   1      31.991  27.125  25.735  1.00  0.00    -0.042 A 
ATOM     16  C   UNL A   1      29.571  25.994  24.461  1.00  0.00     0.005 C 
ATOM     17  C   UNL A   1      31.552  27.655  24.512  1.00  0.00    -0.045 A 
ATOM     18  C   UNL A   1      33.123  27.685  26.360  1.00  0.00     0.004 A 
ATOM     19  C   UNL A   1      30.291  27.188  23.832  1.00  0.00     0.036 C 
ATOM     20  C   UNL A   1      32.281  28.701  23.919  1.00  0.00     0.004 A 
ATOM     21  C   UNL A   1      33.826  28.733  25.768  1.00  0.00     0.000 A 
ATOM     22  C   UNL A   1      33.410  29.233  24.540  1.00  0.00     0.000 A 
ENDBRANCH  12  13
ENDBRANCH   5  12
ENDBRANCH   3   5
ENDBRANCH   2   3
ENDBRANCH   1   2
BRANCH   1  23
ATOM     23  C   UNL A   1      35.741  20.718  24.958  1.00  0.00     0.275 C 
BRANCH  23  24
ATOM     24  O   UNL A   1      36.576  21.552  25.779  1.00  0.00    -0.458 OA
BRANCH  24  25
ATOM     25  C   UNL A   1      37.912  21.374  25.651  1.00  0.00     0.338 C 
ATOM     26  O   UNL A   1      38.475  20.449  25.091  1.00  0.00    -0.246 OA
BRANCH  25  27
ATOM     27  C   UNL A   1      38.644  22.503  26.274  1.00  0.00     0.060 A 
ATOM     28  C   UNL A   1      38.219  23.815  26.097  1.00  0.00     0.016 A 
ATOM     29  C   UNL A   1      39.841  22.259  26.947  1.00  0.00     0.016 A 
ATOM     30  C   UNL A   1      39.040  24.881  26.464  1.00  0.00     0.010 A 
ATOM     31  C   UNL A   1      40.596  23.331  27.443  1.00  0.00     0.010 A 
ATOM     32  C   UNL A   1      40.224  24.661  27.177  1.00  0.00    -0.014 A 
BRANCH  32  33
ATOM     33  C   UNL A   1      41.066  25.805  27.641  1.00  0.00     0.031 A 
ATOM     34  C   UNL A   1      40.487  26.861  28.548  1.00  0.00     0.074 A 
ATOM     35  C   UNL A   1      42.352  25.919  27.251  1.00  0.00     0.049 A 
ATOM     36  N   UNL A   1      40.950  28.054  28.833  1.00  0.00    -0.248 NA
ATOM     37  C   UNL A   1      39.210  26.544  29.207  1.00  0.00     0.031 C 
ATOM     38  C   UNL A   1      43.080  24.961  26.415  1.00  0.00     0.029 A 
ATOM     39  N   UNL A   1      43.284  26.897  27.510  1.00  0.00    -0.354 N 
ATOM     40  C   UNL A   1      39.985  28.656  29.631  1.00  0.00     0.074 A 
ATOM     41  C   UNL A   1      38.920  27.693  29.805  1.00  0.00     0.031 C 
ATOM     42  C   UNL A   1      44.351  25.365  26.279  1.00  0.00     0.029 A 
ATOM     43  C   UNL A   1      44.500  26.669  26.911  1.00  0.00     0.049 A 
ATOM     44  H   UNL A   1      43.099  27.683  28.072  1.00  0.00     0.167 HD
ATOM     45  C   UNL A   1      39.987  29.904  30.159  1.00  0.00     0.037 A 
ATOM     46  C   UNL A   1      45.598  27.442  26.817  1.00  0.00     0.037 A 
ATOM     47  C   UNL A   1      41.085  30.831  30.053  1.00  0.00     0.049 A 
ATOM     48  C   UNL A   1      45.575  28.823  27.396  1.00  0.00     0.074 A 
ATOM     49  C   UNL A   1      41.190  32.110  30.574  1.00  0.00     0.029 A 
ATOM     50  N   UNL A   1      42.281  30.566  29.404  1.00  0.00    -0.354 N 
ATOM     51  N   UNL A   1      44.616  29.424  28.055  1.00  0.00    -0.248 NA
ATOM     52  C   UNL A   1      46.771  29.649  27.181  1.00  0.00     0.031 C 
ATOM     53  C   UNL A   1      42.442  32.627  30.220  1.00  0.00     0.029 A 
ATOM     54  C   UNL A   1      43.127  31.658  29.504  1.00  0.00     0.049 A 
ATOM     55  H   UNL A   1      42.497  29.724  28.940  1.00  0.00     0.167 HD
ATOM     56  C   UNL A   1      45.084  30.701  28.323  1.00  0.00     0.074 A 
ATOM     57  C   UNL A   1      46.426  30.779  27.783  1.00  0.00     0.031 C 
ATOM     58  C   UNL A   1      44.452  31.723  28.948  1.00  0.00     0.037 A 
BRANCH  45  59
ATOM     59  C   UNL A   1      38.748  30.363  30.870  1.00  0.00     0.057 A 
ATOM     60  C   UNL A   1      37.703  31.016  30.207  1.00  0.00     0.134 A 
ATOM     61  C   UNL A   1      38.582  30.095  32.235  1.00  0.00     0.134 A 
ATOM     62  F   UNL A   1      37.805  31.313  28.904  1.00  0.00    -0.206 F 
ATOM     63  C   UNL A   1      36.543  31.403  30.882  1.00  0.00     0.040 A 
ATOM     64  C   UNL A   1      37.418  30.456  32.915  1.00  0.00     0.040 A 
ATOM     65  F   UNL A   1      39.543  29.464  32.928  1.00  0.00    -0.206 F 
ATOM     66  C   UNL A   1      36.395  31.116  32.239  1.00  0.00     0.006 A 
ENDBRANCH  45  59
BRANCH  46  67
ATOM     67  C   UNL A   1      46.782  26.944  26.075  1.00  0.00     0.057 A 
ATOM     68  C   UNL A   1      46.956  27.232  24.717  1.00  0.00     0.134 A 
ATOM     69  C   UNL A   1      47.783  26.201  26.713  1.00  0.00     0.134 A 
ATOM     70  F   UNL A   1      46.018  27.917  24.047  1.00  0.00    -0.206 F 
ATOM     71  C   UNL A   1      48.088  26.804  24.021  1.00  0.00     0.040 A 
ATOM     72  C   UNL A   1      48.932  25.790  26.037  1.00  0.00     0.040 A 
ATOM     73  F   UNL A   1      47.673  25.894  28.014  1.00  0.00    -0.206 F 
ATOM     74  C   UNL A   1      49.085  26.091  24.685  1.00  0.00     0.006 A 
ENDBRANCH  46  67
BRANCH  58  75
ATOM     75  C   UNL A   1      45.212  33.006  29.077  1.00  0.00     0.057 A 
ATOM     76  C   UNL A   1      46.068  33.241  30.161  1.00  0.00     0.134 A 
ATOM     77  C   UNL A   1      45.095  34.010  28.109  1.00  0.00     0.134 A 
ATOM     78  F   UNL A   1      46.208  32.322  31.128  1.00  0.00    -0.206 F 
ATOM     79  C   UNL A   1      46.769  34.441  30.286  1.00  0.00     0.040 A 
ATOM     80  C   UNL A   1      45.804  35.207  28.215  1.00  0.00     0.040 A 
ATOM     81  F   UNL A   1      44.291  33.843  27.047  1.00  0.00    -0.206 F 
ATOM     82  C   UNL A   1      46.640  35.427  29.309  1.00  0.00     0.006 A 
ENDBRANCH  58  75
ENDBRANCH  32  33
ENDBRANCH  25  27
ENDBRANCH  24  25
ENDBRANCH  23  24
ENDBRANCH   1  23
TORSDOF 14
ENDMDL
MODEL 3
REMARK VINA RESULT:     -11.3      4.010      7.611
REMARK SMILES CC[C@@H]1CC[C@](C[C@@H]2CCCc3ccccc32)(C(=O)OCCOC(=O)c2ccc(-c3c4nc(c(-c5c(F)cccc5F)c5ccc([nH]5)c(-c5c(F)cccc5F)c5nc(c(-c6c(F)cccc6F)c6ccc3[nH]6)C=C5)C=C4)cc2)C1
REMARK SMILES IDX 21 1 20 2 18 3 19 4 6 5 3 6 4 7 80 8 5 9 2 10 1 11 7 12 8 13
REMARK SMILES IDX 9 14 17 15 10 16 12 17 16 18 11 19 13 20 15 21 14 22 22 23
REMARK SMILES IDX 23 24 24 25 25 26 26 27 27 28 79 29 28 30 78 31 29 32 30 33
REMARK SMILES IDX 31 34 72 35 32 36 77 37 71 38 73 39 33 40 76 41 70 42 69 43
REMARK SMILES IDX 34 45 60 46 43 47 59 48 44 49 47 50 58 51 74 52 45 53 46 54
REMARK SMILES IDX 57 56 75 57 48 58 35 59 36 60 41 61 37 62 38 63 40 64 42 65
REMARK SMILES IDX 39 66 61 67 62 68 67 69 63 70 64 71 66 72 68 73 65 74 49 75
REMARK SMILES IDX 50 76 55 77 51 78 52 79 54 80 56 81 53 82
REMARK H PARENT 73 44 47 55
REMARK Flexibility Score: inf
ROOT
ATOM      1  C   UNL A   1      32.579  30.284  26.857  1.00  0.00     0.274 C 
ENDROOT
BRANCH   1   2
ATOM      2  O   UNL A   1      33.048  28.954  26.542  1.00  0.00    -0.462 OA
BRANCH   2   3
ATOM      3  C   UNL A   1      32.190  27.943  26.835  1.00  0.00     0.312 C 
ATOM      4  O   UNL A   1      31.633  27.830  27.925  1.00  0.00    -0.252 OA
BRANCH   3   5
ATOM      5  C   UNL A   1      32.012  26.891  25.708  1.00  0.00     0.069 C 
ATOM      6  C   UNL A   1      30.021  26.160  24.470  1.00  0.00    -0.010 C 
ATOM      7  C   UNL A   1      29.875  25.692  25.908  1.00  0.00     0.005 C 
ATOM      8  C   UNL A   1      31.019  27.319  24.599  1.00  0.00     0.022 C 
ATOM      9  C   UNL A   1      31.334  25.657  26.353  1.00  0.00     0.019 C 
BRANCH   6  10
ATOM     10  C   UNL A   1      28.714  26.528  23.772  1.00  0.00     0.000 C 
ATOM     11  C   UNL A   1      28.782  27.930  23.177  1.00  0.00     0.004 C 
ENDBRANCH   6  10
BRANCH   5  12
ATOM     12  C   UNL A   1      33.482  26.682  25.205  1.00  0.00     0.027 C 
BRANCH  12  13
ATOM     13  C   UNL A   1      34.021  25.520  24.325  1.00  0.00     0.020 C 
ATOM     14  C   UNL A   1      33.723  25.599  22.821  1.00  0.00     0.009 C 
ATOM     15  C   UNL A   1      33.880  24.128  24.889  1.00  0.00    -0.042 A 
ATOM     16  C   UNL A   1      32.508  24.818  22.360  1.00  0.00     0.005 C 
ATOM     17  C   UNL A   1      33.082  23.162  24.259  1.00  0.00    -0.045 A 
ATOM     18  C   UNL A   1      34.562  23.791  26.076  1.00  0.00     0.004 A 
ATOM     19  C   UNL A   1      32.407  23.405  22.935  1.00  0.00     0.036 C 
ATOM     20  C   UNL A   1      32.945  21.895  24.854  1.00  0.00     0.004 A 
ATOM     21  C   UNL A   1      34.430  22.525  26.645  1.00  0.00     0.000 A 
ATOM     22  C   UNL A   1      33.611  21.580  26.039  1.00  0.00     0.000 A 
ENDBRANCH  12  13
ENDBRANCH   5  12
ENDBRANCH   3   5
ENDBRANCH   2   3
ENDBRANCH   1   2
BRANCH   1  23
ATOM     23  C   UNL A   1      33.645  31.098  27.589  1.00  0.00     0.275 C 
BRANCH  23  24
ATOM     24  O   UNL A   1      34.675  30.223  28.080  1.00  0.00    -0.458 OA
BRANCH  24  25
ATOM     25  C   UNL A   1      35.533  30.755  28.982  1.00  0.00     0.338 C 
ATOM     26  O   UNL A   1      35.291  31.637  29.787  1.00  0.00    -0.246 OA
BRANCH  25  27
ATOM     27  C   UNL A   1      36.854  30.089  28.891  1.00  0.00     0.060 A 
ATOM     28  C   UNL A   1      37.457  29.541  30.019  1.00  0.00     0.016 A 
ATOM     29  C   UNL A   1      37.557  30.113  27.687  1.00  0.00     0.016 A 
ATOM     30  C   UNL A   1      38.794  29.147  29.986  1.00  0.00     0.010 A 
ATOM     31  C   UNL A   1      38.853  29.582  27.622  1.00  0.00     0.010 A 
ATOM     32  C   UNL A   1      39.505  29.123  28.780  1.00  0.00    -0.014 A 
BRANCH  32  33
ATOM     33  C   UNL A   1      40.913  28.625  28.728  1.00  0.00     0.031 A 
ATOM     34  C   UNL A   1      42.064  29.560  29.003  1.00  0.00     0.074 A 
ATOM     35  C   UNL A   1      41.180  27.339  28.425  1.00  0.00     0.049 A 
ATOM     36  N   UNL A   1      43.339  29.403  28.741  1.00  0.00    -0.248 NA
ATOM     37  C   UNL A   1      41.738  30.847  29.637  1.00  0.00     0.031 C 
ATOM     38  C   UNL A   1      40.183  26.294  28.180  1.00  0.00     0.029 A 
ATOM     39  N   UNL A   1      42.380  26.684  28.275  1.00  0.00    -0.354 N 
ATOM     40  C   UNL A   1      43.950  30.599  29.100  1.00  0.00     0.074 A 
ATOM     41  C   UNL A   1      42.913  31.464  29.618  1.00  0.00     0.031 C 
ATOM     42  C   UNL A   1      40.805  25.126  27.967  1.00  0.00     0.029 A 
ATOM     43  C   UNL A   1      42.243  25.358  27.939  1.00  0.00     0.049 A 
ATOM     44  H   UNL A   1      43.252  27.122  28.397  1.00  0.00     0.167 HD
ATOM     45  C   UNL A   1      45.257  30.942  28.994  1.00  0.00     0.037 A 
ATOM     46  C   UNL A   1      43.158  24.437  27.581  1.00  0.00     0.037 A 
ATOM     47  C   UNL A   1      46.300  30.050  28.556  1.00  0.00     0.049 A 
ATOM     48  C   UNL A   1      44.595  24.841  27.458  1.00  0.00     0.074 A 
ATOM     49  C   UNL A   1      47.657  30.300  28.437  1.00  0.00     0.029 A 
ATOM     50  N   UNL A   1      46.105  28.727  28.192  1.00  0.00    -0.354 N 
ATOM     51  N   UNL A   1      45.148  26.005  27.695  1.00  0.00    -0.248 NA
ATOM     52  C   UNL A   1      45.530  23.814  26.977  1.00  0.00     0.031 C 
ATOM     53  C   UNL A   1      48.280  29.132  27.979  1.00  0.00     0.029 A 
ATOM     54  C   UNL A   1      47.313  28.149  27.840  1.00  0.00     0.049 A 
ATOM     55  H   UNL A   1      45.234  28.266  28.183  1.00  0.00     0.167 HD
ATOM     56  C   UNL A   1      46.489  25.857  27.379  1.00  0.00     0.074 A 
ATOM     57  C   UNL A   1      46.676  24.482  26.964  1.00  0.00     0.031 C 
ATOM     58  C   UNL A   1      47.477  26.784  27.417  1.00  0.00     0.037 A 
BRANCH  45  59
ATOM     59  C   UNL A   1      45.634  32.357  29.322  1.00  0.00     0.057 A 
ATOM     60  C   UNL A   1      45.580  33.385  28.374  1.00  0.00     0.134 A 
ATOM     61  C   UNL A   1      46.010  32.699  30.628  1.00  0.00     0.134 A 
ATOM     62  F   UNL A   1      45.241  33.121  27.104  1.00  0.00    -0.206 F 
ATOM     63  C   UNL A   1      45.902  34.702  28.710  1.00  0.00     0.040 A 
ATOM     64  C   UNL A   1      46.313  34.015  30.980  1.00  0.00     0.040 A 
ATOM     65  F   UNL A   1      46.075  31.762  31.585  1.00  0.00    -0.206 F 
ATOM     66  C   UNL A   1      46.262  35.021  30.018  1.00  0.00     0.006 A 
ENDBRANCH  45  59
BRANCH  46  67
ATOM     67  C   UNL A   1      42.718  23.062  27.241  1.00  0.00     0.057 A 
ATOM     68  C   UNL A   1      42.453  22.121  28.240  1.00  0.00     0.134 A 
ATOM     69  C   UNL A   1      42.517  22.670  25.911  1.00  0.00     0.134 A 
ATOM     70  F   UNL A   1      42.653  22.430  29.530  1.00  0.00    -0.206 F 
ATOM     71  C   UNL A   1      41.997  20.838  27.931  1.00  0.00     0.040 A 
ATOM     72  C   UNL A   1      42.036  21.401  25.589  1.00  0.00     0.040 A 
ATOM     73  F   UNL A   1      42.753  23.529  24.909  1.00  0.00    -0.206 F 
ATOM     74  C   UNL A   1      41.777  20.480  26.602  1.00  0.00     0.006 A 
ENDBRANCH  46  67
BRANCH  58  75
ATOM     75  C   UNL A   1      48.840  26.332  26.998  1.00  0.00     0.057 A 
ATOM     76  C   UNL A   1      49.291  26.497  25.682  1.00  0.00     0.134 A 
ATOM     77  C   UNL A   1      49.712  25.735  27.915  1.00  0.00     0.134 A 
ATOM     78  F   UNL A   1      48.494  27.048  24.754  1.00  0.00    -0.206 F 
ATOM     79  C   UNL A   1      50.559  26.067  25.289  1.00  0.00     0.040 A 
ATOM     80  C   UNL A   1      50.989  25.316  27.538  1.00  0.00     0.040 A 
ATOM     81  F   UNL A   1      49.338  25.550  29.191  1.00  0.00    -0.206 F 
ATOM     82  C   UNL A   1      51.413  25.478  26.220  1.00  0.00     0.006 A 
ENDBRANCH  58  75
ENDBRANCH  32  33
ENDBRANCH  25  27
ENDBRANCH  24  25
ENDBRANCH  23  24
ENDBRANCH   1  23
TORSDOF 14
ENDMDL
