MODEL 1
REMARK VINA RESULT:     -10.2      0.000      0.000
REMARK SMILES O=C(OCCOC(=O)c1ccc(-c2ccn(C(F)F)c(=O)c2)cc1O)c1ccc(-c2c3nc(c(-c4c(F)cccc4F)c4ccc([nH]4)c(-c4c(F)cccc4F)c4nc(c(-c5c(F)cccc5F)c5ccc2[nH]5)C=C4)C=C3)cc1
REMARK SMILES IDX 4 1 3 2 2 3 1 4 26 5 27 6 79 7 28 8 78 9 29 10 30 11 31 12
REMARK SMILES IDX 72 13 32 14 77 15 71 16 73 17 33 18 76 19 70 20 69 21 34 23
REMARK SMILES IDX 60 24 43 25 59 26 44 27 47 28 58 29 74 30 45 31 46 32 57 34
REMARK SMILES IDX 75 35 48 36 35 37 36 38 41 39 37 40 38 41 40 42 42 43 39 44
REMARK SMILES IDX 61 45 62 46 67 47 63 48 64 49 66 50 68 51 65 52 49 53 50 54
REMARK SMILES IDX 55 55 51 56 52 57 54 58 56 59 53 60 5 61 6 62 7 63 8 64 9 65
REMARK SMILES IDX 10 66 24 67 11 68 23 69 12 70 25 71 13 73 14 74 22 75 15 76
REMARK SMILES IDX 20 77 16 78 21 79 17 80 18 81 19 82
REMARK H PARENT 73 22 47 33 25 72
REMARK Flexibility Score: inf
ROOT
ATOM      1  C   UNL A   1      43.516  18.644  26.041  1.00  0.00     0.275 C 
ENDROOT
BRANCH   1   2
ATOM      2  O   UNL A   1      42.111  18.630  25.734  1.00  0.00    -0.458 OA
BRANCH   2   3
ATOM      3  C   UNL A   1      41.155  19.539  26.035  1.00  0.00     0.338 C 
ATOM      4  O   UNL A   1      39.988  19.302  25.726  1.00  0.00    -0.246 OA
BRANCH   3   5
ATOM      5  C   UNL A   1      41.459  20.897  26.579  1.00  0.00     0.060 A 
ATOM      6  C   UNL A   1      41.464  21.010  27.978  1.00  0.00     0.016 A 
ATOM      7  C   UNL A   1      41.772  22.036  25.833  1.00  0.00     0.016 A 
ATOM      8  C   UNL A   1      41.660  22.243  28.604  1.00  0.00     0.010 A 
ATOM      9  C   UNL A   1      41.972  23.276  26.457  1.00  0.00     0.010 A 
ATOM     10  C   UNL A   1      41.890  23.397  27.846  1.00  0.00    -0.014 A 
BRANCH  10  11
ATOM     11  C   UNL A   1      42.189  24.684  28.518  1.00  0.00     0.031 A 
ATOM     12  C   UNL A   1      43.479  24.926  29.246  1.00  0.00     0.074 A 
ATOM     13  C   UNL A   1      41.252  25.648  28.480  1.00  0.00     0.049 A 
ATOM     14  N   UNL A   1      43.975  26.055  29.688  1.00  0.00    -0.248 NA
ATOM     15  C   UNL A   1      44.337  23.762  29.506  1.00  0.00     0.031 C 
ATOM     16  C   UNL A   1      39.936  25.517  27.854  1.00  0.00     0.029 A 
ATOM     17  N   UNL A   1      41.255  26.915  28.998  1.00  0.00    -0.354 N 
ATOM     18  C   UNL A   1      45.240  25.756  30.171  1.00  0.00     0.074 A 
ATOM     19  C   UNL A   1      45.410  24.325  30.050  1.00  0.00     0.031 C 
ATOM     20  C   UNL A   1      39.250  26.655  28.037  1.00  0.00     0.029 A 
ATOM     21  C   UNL A   1      40.070  27.580  28.809  1.00  0.00     0.049 A 
ATOM     22  H   UNL A   1      42.030  27.310  29.458  1.00  0.00     0.167 HD
ATOM     23  C   UNL A   1      46.177  26.603  30.662  1.00  0.00     0.037 A 
ATOM     24  C   UNL A   1      39.682  28.795  29.234  1.00  0.00     0.037 A 
ATOM     25  C   UNL A   1      45.921  27.984  30.982  1.00  0.00     0.049 A 
ATOM     26  C   UNL A   1      40.662  29.649  29.982  1.00  0.00     0.074 A 
ATOM     27  C   UNL A   1      46.774  28.920  31.540  1.00  0.00     0.029 A 
ATOM     28  N   UNL A   1      44.685  28.602  30.846  1.00  0.00    -0.354 N 
ATOM     29  N   UNL A   1      41.916  29.403  30.278  1.00  0.00    -0.248 NA
ATOM     30  C   UNL A   1      40.175  30.951  30.449  1.00  0.00     0.031 C 
ATOM     31  C   UNL A   1      46.030  30.072  31.826  1.00  0.00     0.029 A 
ATOM     32  C   UNL A   1      44.731  29.876  31.386  1.00  0.00     0.049 A 
ATOM     33  H   UNL A   1      43.894  28.194  30.427  1.00  0.00     0.167 HD
ATOM     34  C   UNL A   1      42.378  30.531  30.943  1.00  0.00     0.074 A 
ATOM     35  C   UNL A   1      41.268  31.464  30.996  1.00  0.00     0.031 C 
ATOM     36  C   UNL A   1      43.607  30.777  31.459  1.00  0.00     0.037 A 
BRANCH  23  37
ATOM     37  C   UNL A   1      47.551  26.052  30.908  1.00  0.00     0.057 A 
ATOM     38  C   UNL A   1      47.946  25.606  32.175  1.00  0.00     0.134 A 
ATOM     39  C   UNL A   1      48.511  26.025  29.886  1.00  0.00     0.134 A 
ATOM     40  F   UNL A   1      47.076  25.602  33.196  1.00  0.00    -0.206 F 
ATOM     41  C   UNL A   1      49.248  25.166  32.420  1.00  0.00     0.040 A 
ATOM     42  C   UNL A   1      49.814  25.576  30.117  1.00  0.00     0.040 A 
ATOM     43  F   UNL A   1      48.196  26.420  28.642  1.00  0.00    -0.206 F 
ATOM     44  C   UNL A   1      50.187  25.152  31.391  1.00  0.00     0.006 A 
ENDBRANCH  23  37
BRANCH  24  45
ATOM     45  C   UNL A   1      38.295  29.250  28.977  1.00  0.00     0.057 A 
ATOM     46  C   UNL A   1      37.917  29.733  27.717  1.00  0.00     0.134 A 
ATOM     47  C   UNL A   1      37.321  29.228  29.979  1.00  0.00     0.134 A 
ATOM     48  F   UNL A   1      38.809  29.786  26.716  1.00  0.00    -0.206 F 
ATOM     49  C   UNL A   1      36.624  30.191  27.467  1.00  0.00     0.040 A 
ATOM     50  C   UNL A   1      36.015  29.658  29.735  1.00  0.00     0.040 A 
ATOM     51  F   UNL A   1      37.617  28.758  31.198  1.00  0.00    -0.206 F 
ATOM     52  C   UNL A   1      35.666  30.147  28.478  1.00  0.00     0.006 A 
ENDBRANCH  24  45
BRANCH  36  53
ATOM     53  C   UNL A   1      43.801  32.107  32.125  1.00  0.00     0.057 A 
ATOM     54  C   UNL A   1      44.215  33.222  31.389  1.00  0.00     0.134 A 
ATOM     55  C   UNL A   1      43.569  32.283  33.495  1.00  0.00     0.134 A 
ATOM     56  F   UNL A   1      44.466  33.119  30.074  1.00  0.00    -0.206 F 
ATOM     57  C   UNL A   1      44.383  34.470  31.989  1.00  0.00     0.040 A 
ATOM     58  C   UNL A   1      43.706  33.532  34.102  1.00  0.00     0.040 A 
ATOM     59  F   UNL A   1      43.156  31.256  34.253  1.00  0.00    -0.206 F 
ATOM     60  C   UNL A   1      44.118  34.629  33.348  1.00  0.00     0.006 A 
ENDBRANCH  36  53
ENDBRANCH  10  11
ENDBRANCH   3   5
ENDBRANCH   2   3
ENDBRANCH   1   2
BRANCH   1  61
ATOM     61  C   UNL A   1      44.435  18.506  24.827  1.00  0.00     0.275 C 
BRANCH  61  62
ATOM     62  O   UNL A   1      44.676  19.752  24.160  1.00  0.00    -0.458 OA
BRANCH  62  63
ATOM     63  C   UNL A   1      45.798  20.413  24.552  1.00  0.00     0.342 C 
ATOM     64  O   UNL A   1      46.944  19.996  24.512  1.00  0.00    -0.246 OA
BRANCH  63  65
ATOM     65  C   UNL A   1      45.467  21.809  24.896  1.00  0.00     0.101 A 
ATOM     66  C   UNL A   1      45.756  22.245  26.194  1.00  0.00     0.020 A 
ATOM     67  C   UNL A   1      44.880  22.692  23.988  1.00  0.00     0.130 A 
ATOM     68  C   UNL A   1      45.543  23.582  26.553  1.00  0.00     0.010 A 
ATOM     69  C   UNL A   1      44.649  24.022  24.355  1.00  0.00     0.055 A 
ATOM     70  C   UNL A   1      45.011  24.489  25.628  1.00  0.00    -0.014 A 
BRANCH  67  71
ATOM     71  O   UNL A   1      44.520  22.263  22.742  1.00  0.00    -0.507 OA
ATOM     72  H   UNL A   1      45.177  22.102  22.093  1.00  0.00     0.293 HD
ENDBRANCH  67  71
BRANCH  70  73
ATOM     73  C   UNL A   1      44.814  25.917  25.964  1.00  0.00    -0.011 A 
ATOM     74  C   UNL A   1      45.783  26.673  26.736  1.00  0.00     0.027 A 
ATOM     75  C   UNL A   1      43.684  26.535  25.576  1.00  0.00     0.080 A 
ATOM     76  C   UNL A   1      45.560  27.952  27.053  1.00  0.00     0.095 A 
ATOM     77  C   UNL A   1      43.428  27.967  25.904  1.00  0.00     0.255 A 
ATOM     78  N   UNL A   1      44.408  28.599  26.648  1.00  0.00    -0.258 N 
ATOM     79  O   UNL A   1      42.397  28.486  25.485  1.00  0.00    -0.269 OA
BRANCH  78  80
ATOM     80  C   UNL A   1      44.190  29.983  26.979  1.00  0.00     0.451 C 
ATOM     81  F   UNL A   1      42.936  30.175  27.459  1.00  0.00    -0.185 F 
ATOM     82  F   UNL A   1      45.068  30.414  27.916  1.00  0.00    -0.185 F 
ENDBRANCH  78  80
ENDBRANCH  70  73
ENDBRANCH  63  65
ENDBRANCH  62  63
ENDBRANCH  61  62
ENDBRANCH   1  61
TORSDOF 14
ENDMDL
MODEL 2
REMARK VINA RESULT:      -9.9      4.709     11.154
REMARK SMILES O=C(OCCOC(=O)c1ccc(-c2ccn(C(F)F)c(=O)c2)cc1O)c1ccc(-c2c3nc(c(-c4c(F)cccc4F)c4ccc([nH]4)c(-c4c(F)cccc4F)c4nc(c(-c5c(F)cccc5F)c5ccc2[nH]5)C=C4)C=C3)cc1
REMARK SMILES IDX 4 1 3 2 2 3 1 4 26 5 27 6 79 7 28 8 78 9 29 10 30 11 31 12
REMARK SMILES IDX 72 13 32 14 77 15 71 16 73 17 33 18 76 19 70 20 69 21 34 23
REMARK SMILES IDX 60 24 43 25 59 26 44 27 47 28 58 29 74 30 45 31 46 32 57 34
REMARK SMILES IDX 75 35 48 36 35 37 36 38 41 39 37 40 38 41 40 42 42 43 39 44
REMARK SMILES IDX 61 45 62 46 67 47 63 48 64 49 66 50 68 51 65 52 49 53 50 54
REMARK SMILES IDX 55 55 51 56 52 57 54 58 56 59 53 60 5 61 6 62 7 63 8 64 9 65
REMARK SMILES IDX 10 66 24 67 11 68 23 69 12 70 25 71 13 73 14 74 22 75 15 76
REMARK SMILES IDX 20 77 16 78 21 79 17 80 18 81 19 82
REMARK H PARENT 73 22 47 33 25 72
REMARK Flexibility Score: inf
ROOT
ATOM      1  C   UNL A   1      32.246  36.226  29.851  1.00  0.00     0.275 C 
ENDROOT
BRANCH   1   2
ATOM      2  O   UNL A   1      32.810  35.722  28.627  1.00  0.00    -0.458 OA
BRANCH   2   3
ATOM      3  C   UNL A   1      33.148  34.454  28.294  1.00  0.00     0.338 C 
ATOM      4  O   UNL A   1      32.318  33.743  27.731  1.00  0.00    -0.246 OA
BRANCH   3   5
ATOM      5  C   UNL A   1      34.428  33.811  28.719  1.00  0.00     0.060 A 
ATOM      6  C   UNL A   1      35.584  34.244  28.051  1.00  0.00     0.016 A 
ATOM      7  C   UNL A   1      34.579  32.860  29.732  1.00  0.00     0.016 A 
ATOM      8  C   UNL A   1      36.828  33.663  28.307  1.00  0.00     0.010 A 
ATOM      9  C   UNL A   1      35.827  32.276  29.994  1.00  0.00     0.010 A 
ATOM     10  C   UNL A   1      36.957  32.651  29.265  1.00  0.00    -0.014 A 
BRANCH  10  11
ATOM     11  C   UNL A   1      38.295  32.106  29.597  1.00  0.00     0.031 A 
ATOM     12  C   UNL A   1      39.349  32.928  30.279  1.00  0.00     0.074 A 
ATOM     13  C   UNL A   1      38.561  30.833  29.250  1.00  0.00     0.049 A 
ATOM     14  N   UNL A   1      40.472  32.535  30.828  1.00  0.00    -0.248 NA
ATOM     15  C   UNL A   1      39.120  34.375  30.375  1.00  0.00     0.031 C 
ATOM     16  C   UNL A   1      37.641  29.948  28.534  1.00  0.00     0.029 A 
ATOM     17  N   UNL A   1      39.686  30.076  29.432  1.00  0.00    -0.354 N 
ATOM     18  C   UNL A   1      41.020  33.659  31.427  1.00  0.00     0.074 A 
ATOM     19  C   UNL A   1      40.155  34.772  31.105  1.00  0.00     0.031 C 
ATOM     20  C   UNL A   1      38.245  28.770  28.323  1.00  0.00     0.029 A 
ATOM     21  C   UNL A   1      39.596  28.828  28.868  1.00  0.00     0.049 A 
ATOM     22  H   UNL A   1      40.479  30.394  29.918  1.00  0.00     0.167 HD
ATOM     23  C   UNL A   1      42.140  33.749  32.184  1.00  0.00     0.037 A 
ATOM     24  C   UNL A   1      40.513  27.849  28.782  1.00  0.00     0.037 A 
ATOM     25  C   UNL A   1      43.107  32.689  32.315  1.00  0.00     0.049 A 
ATOM     26  C   UNL A   1      41.847  28.046  29.437  1.00  0.00     0.074 A 
ATOM     27  C   UNL A   1      44.308  32.687  33.004  1.00  0.00     0.029 A 
ATOM     28  N   UNL A   1      43.018  31.464  31.667  1.00  0.00    -0.354 N 
ATOM     29  N   UNL A   1      42.280  29.061  30.147  1.00  0.00    -0.248 NA
ATOM     30  C   UNL A   1      42.821  26.958  29.284  1.00  0.00     0.031 C 
ATOM     31  C   UNL A   1      44.984  31.499  32.698  1.00  0.00     0.029 A 
ATOM     32  C   UNL A   1      44.176  30.734  31.872  1.00  0.00     0.049 A 
ATOM     33  H   UNL A   1      42.245  31.160  31.141  1.00  0.00     0.167 HD
ATOM     34  C   UNL A   1      43.564  28.725  30.550  1.00  0.00     0.074 A 
ATOM     35  C   UNL A   1      43.836  27.405  30.011  1.00  0.00     0.031 C 
ATOM     36  C   UNL A   1      44.440  29.437  31.300  1.00  0.00     0.037 A 
BRANCH  23  37
ATOM     37  C   UNL A   1      42.391  35.043  32.902  1.00  0.00     0.057 A 
ATOM     38  C   UNL A   1      43.234  36.026  32.369  1.00  0.00     0.134 A 
ATOM     39  C   UNL A   1      41.838  35.284  34.169  1.00  0.00     0.134 A 
ATOM     40  F   UNL A   1      43.792  35.860  31.160  1.00  0.00    -0.206 F 
ATOM     41  C   UNL A   1      43.527  37.196  33.073  1.00  0.00     0.040 A 
ATOM     42  C   UNL A   1      42.117  36.455  34.877  1.00  0.00     0.040 A 
ATOM     43  F   UNL A   1      41.008  34.392  34.731  1.00  0.00    -0.206 F 
ATOM     44  C   UNL A   1      42.970  37.412  34.332  1.00  0.00     0.006 A 
ENDBRANCH  23  37
BRANCH  24  45
ATOM     45  C   UNL A   1      40.195  26.615  28.025  1.00  0.00     0.057 A 
ATOM     46  C   UNL A   1      40.704  26.408  26.736  1.00  0.00     0.134 A 
ATOM     47  C   UNL A   1      39.368  25.623  28.561  1.00  0.00     0.134 A 
ATOM     48  F   UNL A   1      41.497  27.326  26.165  1.00  0.00    -0.206 F 
ATOM     49  C   UNL A   1      40.391  25.264  26.002  1.00  0.00     0.040 A 
ATOM     50  C   UNL A   1      39.068  24.462  27.847  1.00  0.00     0.040 A 
ATOM     51  F   UNL A   1      38.868  25.756  29.797  1.00  0.00    -0.206 F 
ATOM     52  C   UNL A   1      39.575  24.284  26.561  1.00  0.00     0.006 A 
ENDBRANCH  24  45
BRANCH  36  53
ATOM     53  C   UNL A   1      45.768  28.795  31.571  1.00  0.00     0.057 A 
ATOM     54  C   UNL A   1      46.857  29.016  30.719  1.00  0.00     0.134 A 
ATOM     55  C   UNL A   1      45.970  27.965  32.680  1.00  0.00     0.134 A 
ATOM     56  F   UNL A   1      46.727  29.792  29.632  1.00  0.00    -0.206 F 
ATOM     57  C   UNL A   1      48.103  28.441  30.966  1.00  0.00     0.040 A 
ATOM     58  C   UNL A   1      47.220  27.406  32.953  1.00  0.00     0.040 A 
ATOM     59  F   UNL A   1      44.971  27.725  33.543  1.00  0.00    -0.206 F 
ATOM     60  C   UNL A   1      48.290  27.642  32.092  1.00  0.00     0.006 A 
ENDBRANCH  36  53
ENDBRANCH  10  11
ENDBRANCH   3   5
ENDBRANCH   2   3
ENDBRANCH   1   2
BRANCH   1  61
ATOM     61  C   UNL A   1      33.270  36.558  30.936  1.00  0.00     0.275 C 
BRANCH  61  62
ATOM     62  O   UNL A   1      32.921  36.028  32.221  1.00  0.00    -0.458 OA
BRANCH  62  63
ATOM     63  C   UNL A   1      33.874  36.158  33.182  1.00  0.00     0.342 C 
ATOM     64  O   UNL A   1      33.931  37.022  34.042  1.00  0.00    -0.246 OA
BRANCH  63  65
ATOM     65  C   UNL A   1      34.780  34.993  33.157  1.00  0.00     0.101 A 
ATOM     66  C   UNL A   1      36.137  35.230  32.910  1.00  0.00     0.020 A 
ATOM     67  C   UNL A   1      34.335  33.687  33.361  1.00  0.00     0.130 A 
ATOM     68  C   UNL A   1      37.057  34.175  32.958  1.00  0.00     0.010 A 
ATOM     69  C   UNL A   1      35.253  32.631  33.388  1.00  0.00     0.055 A 
ATOM     70  C   UNL A   1      36.626  32.869  33.223  1.00  0.00    -0.014 A 
BRANCH  67  71
ATOM     71  O   UNL A   1      33.003  33.428  33.526  1.00  0.00    -0.507 OA
ATOM     72  H   UNL A   1      32.405  33.575  32.819  1.00  0.00     0.293 HD
ENDBRANCH  67  71
BRANCH  70  73
ATOM     73  C   UNL A   1      37.579  31.741  33.323  1.00  0.00    -0.011 A 
ATOM     74  C   UNL A   1      38.956  31.924  33.744  1.00  0.00     0.027 A 
ATOM     75  C   UNL A   1      37.174  30.505  32.978  1.00  0.00     0.080 A 
ATOM     76  C   UNL A   1      39.802  30.889  33.791  1.00  0.00     0.095 A 
ATOM     77  C   UNL A   1      38.099  29.337  33.043  1.00  0.00     0.255 A 
ATOM     78  N   UNL A   1      39.391  29.614  33.451  1.00  0.00    -0.258 N 
ATOM     79  O   UNL A   1      37.658  28.228  32.756  1.00  0.00    -0.269 OA
BRANCH  78  80
ATOM     80  C   UNL A   1      40.308  28.506  33.524  1.00  0.00     0.451 C 
ATOM     81  F   UNL A   1      40.273  27.771  32.385  1.00  0.00    -0.185 F 
ATOM     82  F   UNL A   1      41.581  28.926  33.714  1.00  0.00    -0.185 F 
ENDBRANCH  78  80
ENDBRANCH  70  73
ENDBRANCH  63  65
ENDBRANCH  62  63
ENDBRANCH  61  62
ENDBRANCH   1  61
TORSDOF 14
ENDMDL
MODEL 3
REMARK VINA RESULT:      -9.4      4.308      8.813
REMARK SMILES O=C(OCCOC(=O)c1ccc(-c2ccn(C(F)F)c(=O)c2)cc1O)c1ccc(-c2c3nc(c(-c4c(F)cccc4F)c4ccc([nH]4)c(-c4c(F)cccc4F)c4nc(c(-c5c(F)cccc5F)c5ccc2[nH]5)C=C4)C=C3)cc1
REMARK SMILES IDX 4 1 3 2 2 3 1 4 26 5 27 6 79 7 28 8 78 9 29 10 30 11 31 12
REMARK SMILES IDX 72 13 32 14 77 15 71 16 73 17 33 18 76 19 70 20 69 21 34 23
REMARK SMILES IDX 60 24 43 25 59 26 44 27 47 28 58 29 74 30 45 31 46 32 57 34
REMARK SMILES IDX 75 35 48 36 35 37 36 38 41 39 37 40 38 41 40 42 42 43 39 44
REMARK SMILES IDX 61 45 62 46 67 47 63 48 64 49 66 50 68 51 65 52 49 53 50 54
REMARK SMILES IDX 55 55 51 56 52 57 54 58 56 59 53 60 5 61 6 62 7 63 8 64 9 65
REMARK SMILES IDX 10 66 24 67 11 68 23 69 12 70 25 71 13 73 14 74 22 75 15 76
REMARK SMILES IDX 20 77 16 78 21 79 17 80 18 81 19 82
REMARK H PARENT 73 22 47 33 25 72
REMARK Flexibility Score: inf
ROOT
ATOM      1  C   UNL A   1      43.509  21.710  25.466  1.00  0.00     0.275 C 
ENDROOT
BRANCH   1   2
ATOM      2  O   UNL A   1      43.081  23.024  25.067  1.00  0.00    -0.458 OA
BRANCH   2   3
ATOM      3  C   UNL A   1      43.686  24.221  25.254  1.00  0.00     0.338 C 
ATOM      4  O   UNL A   1      44.691  24.490  24.598  1.00  0.00    -0.246 OA
BRANCH   3   5
ATOM      5  C   UNL A   1      43.296  25.174  26.335  1.00  0.00     0.060 A 
ATOM      6  C   UNL A   1      42.224  24.774  27.148  1.00  0.00     0.016 A 
ATOM      7  C   UNL A   1      43.917  26.391  26.629  1.00  0.00     0.016 A 
ATOM      8  C   UNL A   1      41.719  25.613  28.145  1.00  0.00     0.010 A 
ATOM      9  C   UNL A   1      43.414  27.235  27.631  1.00  0.00     0.010 A 
ATOM     10  C   UNL A   1      42.293  26.868  28.378  1.00  0.00    -0.014 A 
BRANCH  10  11
ATOM     11  C   UNL A   1      41.812  27.712  29.497  1.00  0.00     0.031 A 
ATOM     12  C   UNL A   1      40.686  28.692  29.335  1.00  0.00     0.074 A 
ATOM     13  C   UNL A   1      42.431  27.596  30.685  1.00  0.00     0.049 A 
ATOM     14  N   UNL A   1      40.014  29.332  30.259  1.00  0.00    -0.248 NA
ATOM     15  C   UNL A   1      40.241  28.989  27.967  1.00  0.00     0.031 C 
ATOM     16  C   UNL A   1      43.574  26.722  30.956  1.00  0.00     0.029 A 
ATOM     17  N   UNL A   1      42.202  28.231  31.875  1.00  0.00    -0.354 N 
ATOM     18  C   UNL A   1      39.003  30.012  29.596  1.00  0.00     0.074 A 
ATOM     19  C   UNL A   1      39.197  29.780  28.182  1.00  0.00     0.031 C 
ATOM     20  C   UNL A   1      43.956  26.887  32.231  1.00  0.00     0.029 A 
ATOM     21  C   UNL A   1      43.102  27.891  32.854  1.00  0.00     0.049 A 
ATOM     22  H   UNL A   1      41.465  28.868  32.016  1.00  0.00     0.167 HD
ATOM     23  C   UNL A   1      38.000  30.755  30.123  1.00  0.00     0.037 A 
ATOM     24  C   UNL A   1      43.235  28.357  34.107  1.00  0.00     0.037 A 
ATOM     25  C   UNL A   1      37.943  31.160  31.505  1.00  0.00     0.049 A 
ATOM     26  C   UNL A   1      42.244  29.359  34.618  1.00  0.00     0.074 A 
ATOM     27  C   UNL A   1      37.010  31.962  32.139  1.00  0.00     0.029 A 
ATOM     28  N   UNL A   1      38.915  30.857  32.449  1.00  0.00    -0.354 N 
ATOM     29  N   UNL A   1      41.190  29.861  34.018  1.00  0.00    -0.248 NA
ATOM     30  C   UNL A   1      42.456  29.857  35.982  1.00  0.00     0.031 C 
ATOM     31  C   UNL A   1      37.466  32.218  33.438  1.00  0.00     0.029 A 
ATOM     32  C   UNL A   1      38.648  31.523  33.634  1.00  0.00     0.049 A 
ATOM     33  H   UNL A   1      39.679  30.257  32.299  1.00  0.00     0.167 HD
ATOM     34  C   UNL A   1      40.597  30.712  34.940  1.00  0.00     0.074 A 
ATOM     35  C   UNL A   1      41.406  30.649  36.143  1.00  0.00     0.031 C 
ATOM     36  C   UNL A   1      39.483  31.473  34.808  1.00  0.00     0.037 A 
BRANCH  23  37
ATOM     37  C   UNL A   1      36.904  31.199  29.199  1.00  0.00     0.057 A 
ATOM     38  C   UNL A   1      36.821  32.520  28.742  1.00  0.00     0.134 A 
ATOM     39  C   UNL A   1      35.885  30.316  28.812  1.00  0.00     0.134 A 
ATOM     40  F   UNL A   1      37.765  33.414  29.072  1.00  0.00    -0.206 F 
ATOM     41  C   UNL A   1      35.758  32.950  27.945  1.00  0.00     0.040 A 
ATOM     42  C   UNL A   1      34.823  30.733  28.006  1.00  0.00     0.040 A 
ATOM     43  F   UNL A   1      35.912  29.031  29.199  1.00  0.00    -0.206 F 
ATOM     44  C   UNL A   1      34.754  32.057  27.576  1.00  0.00     0.006 A 
ENDBRANCH  23  37
BRANCH  24  45
ATOM     45  C   UNL A   1      44.367  27.889  34.944  1.00  0.00     0.057 A 
ATOM     46  C   UNL A   1      44.229  26.778  35.785  1.00  0.00     0.134 A 
ATOM     47  C   UNL A   1      45.601  28.545  34.935  1.00  0.00     0.134 A 
ATOM     48  F   UNL A   1      43.067  26.111  35.844  1.00  0.00    -0.206 F 
ATOM     49  C   UNL A   1      45.276  26.343  36.599  1.00  0.00     0.040 A 
ATOM     50  C   UNL A   1      46.665  28.104  35.724  1.00  0.00     0.040 A 
ATOM     51  F   UNL A   1      45.799  29.602  34.135  1.00  0.00    -0.206 F 
ATOM     52  C   UNL A   1      46.501  27.004  36.564  1.00  0.00     0.006 A 
ENDBRANCH  24  45
BRANCH  36  53
ATOM     53  C   UNL A   1      39.089  32.296  35.999  1.00  0.00     0.057 A 
ATOM     54  C   UNL A   1      39.538  33.614  36.139  1.00  0.00     0.134 A 
ATOM     55  C   UNL A   1      38.256  31.784  37.002  1.00  0.00     0.134 A 
ATOM     56  F   UNL A   1      40.347  34.161  35.218  1.00  0.00    -0.206 F 
ATOM     57  C   UNL A   1      39.166  34.398  37.231  1.00  0.00     0.040 A 
ATOM     58  C   UNL A   1      37.855  32.567  38.085  1.00  0.00     0.040 A 
ATOM     59  F   UNL A   1      37.780  30.532  36.919  1.00  0.00    -0.206 F 
ATOM     60  C   UNL A   1      38.313  33.878  38.202  1.00  0.00     0.006 A 
ENDBRANCH  36  53
ENDBRANCH  10  11
ENDBRANCH   3   5
ENDBRANCH   2   3
ENDBRANCH   1   2
BRANCH   1  61
ATOM     61  C   UNL A   1      42.427  20.862  26.133  1.00  0.00     0.275 C 
BRANCH  61  62
ATOM     62  O   UNL A   1      41.100  21.227  25.732  1.00  0.00    -0.458 OA
BRANCH  62  63
ATOM     63  C   UNL A   1      40.267  21.593  26.742  1.00  0.00     0.342 C 
ATOM     64  O   UNL A   1      40.536  21.638  27.932  1.00  0.00    -0.246 OA
BRANCH  63  65
ATOM     65  C   UNL A   1      38.996  22.102  26.191  1.00  0.00     0.101 A 
ATOM     66  C   UNL A   1      38.631  23.417  26.503  1.00  0.00     0.020 A 
ATOM     67  C   UNL A   1      38.158  21.327  25.388  1.00  0.00     0.130 A 
ATOM     68  C   UNL A   1      37.481  23.982  25.940  1.00  0.00     0.010 A 
ATOM     69  C   UNL A   1      36.997  21.887  24.844  1.00  0.00     0.055 A 
ATOM     70  C   UNL A   1      36.667  23.230  25.084  1.00  0.00    -0.014 A 
BRANCH  67  71
ATOM     71  O   UNL A   1      38.458  20.018  25.137  1.00  0.00    -0.507 OA
ATOM     72  H   UNL A   1      38.009  19.556  24.457  1.00  0.00     0.293 HD
ENDBRANCH  67  71
BRANCH  70  73
ATOM     73  C   UNL A   1      35.468  23.812  24.440  1.00  0.00    -0.011 A 
ATOM     74  C   UNL A   1      34.742  24.928  25.018  1.00  0.00     0.027 A 
ATOM     75  C   UNL A   1      35.006  23.271  23.298  1.00  0.00     0.080 A 
ATOM     76  C   UNL A   1      33.642  25.410  24.429  1.00  0.00     0.095 A 
ATOM     77  C   UNL A   1      33.792  23.808  22.618  1.00  0.00     0.255 A 
ATOM     78  N   UNL A   1      33.168  24.869  23.249  1.00  0.00    -0.258 N 
ATOM     79  O   UNL A   1      33.445  23.299  21.556  1.00  0.00    -0.269 OA
BRANCH  78  80
ATOM     80  C   UNL A   1      31.993  25.410  22.616  1.00  0.00     0.451 C 
ATOM     81  F   UNL A   1      31.262  26.141  23.493  1.00  0.00    -0.185 F 
ATOM     82  F   UNL A   1      32.316  26.208  21.571  1.00  0.00    -0.185 F 
ENDBRANCH  78  80
ENDBRANCH  70  73
ENDBRANCH  63  65
ENDBRANCH  62  63
ENDBRANCH  61  62
ENDBRANCH   1  61
TORSDOF 14
ENDMDL
