MODEL 1
REMARK VINA RESULT:     -10.5      0.000      0.000
REMARK SMILES C#CCOc1ccccc1/C=C(\C#N)C(=O)OCCOC(=O)c1ccc(-c2c3nc(c(-c4c(F)cccc4F)c4ccc([nH]4)c(-c4c(F)cccc4F)c4nc(c(-c5c(F)cccc5F)c5ccc2[nH]5)C=C4)C=C3)cc1
REMARK SMILES IDX 18 1 17 2 15 3 16 4 12 5 11 6 10 7 5 8 6 9 7 10 9 11 8 12
REMARK SMILES IDX 4 13 3 14 2 15 1 16 13 17 14 18 19 19 20 20 21 21 22 22
REMARK SMILES IDX 23 23 24 24 76 25 25 26 75 27 26 28 27 29 28 30 69 31 29 32
REMARK SMILES IDX 74 33 68 34 70 35 30 36 73 37 67 38 66 39 31 41 57 42 40 43
REMARK SMILES IDX 56 44 41 45 44 46 55 47 71 48 42 49 43 50 54 52 72 53 45 54
REMARK SMILES IDX 32 55 33 56 38 57 34 58 35 59 37 60 39 61 36 62 58 63 59 64
REMARK SMILES IDX 64 65 60 66 61 67 63 68 65 69 62 70 46 71 47 72 52 73 48 74
REMARK SMILES IDX 49 75 51 76 53 77 50 78
REMARK H PARENT 70 40 44 51
REMARK Flexibility Score: inf
ROOT
ATOM      1  C   UNL A   1      31.173  27.324  26.347  1.00  0.00     0.275 C 
ENDROOT
BRANCH   1   2
ATOM      2  O   UNL A   1      32.304  26.445  26.496  1.00  0.00    -0.458 OA
BRANCH   2   3
ATOM      3  C   UNL A   1      32.702  25.778  25.380  1.00  0.00     0.349 C 
ATOM      4  O   UNL A   1      32.225  25.867  24.260  1.00  0.00    -0.245 OA
BRANCH   3   5
ATOM      5  C   UNL A   1      33.925  24.967  25.744  1.00  0.00     0.138 C 
ATOM      6  C   UNL A   1      34.687  24.252  24.799  1.00  0.00     0.039 C 
BRANCH   6   7
ATOM      7  C   UNL A   1      35.876  23.322  25.039  1.00  0.00     0.018 A 
ATOM      8  C   UNL A   1      35.877  21.914  24.817  1.00  0.00     0.128 A 
ATOM      9  C   UNL A   1      37.006  21.128  25.112  1.00  0.00     0.047 A 
ATOM     10  C   UNL A   1      38.165  21.700  25.619  1.00  0.00     0.004 A 
ATOM     11  C   UNL A   1      37.052  23.844  25.619  1.00  0.00     0.012 A 
ATOM     12  C   UNL A   1      38.184  23.060  25.880  1.00  0.00     0.001 A 
BRANCH   8  13
ATOM     13  O   UNL A   1      34.786  21.143  24.470  1.00  0.00    -0.480 OA
BRANCH  13  14
ATOM     14  C   UNL A   1      34.844  19.783  24.928  1.00  0.00     0.318 C 
BRANCH  14  15
ATOM     15  C   UNL A   1      33.610  19.140  24.317  1.00  0.00    -0.065 C 
ATOM     16  C   UNL A   1      32.552  18.588  23.792  1.00  0.00     0.007 C 
ENDBRANCH  14  15
ENDBRANCH  13  14
ENDBRANCH   8  13
ENDBRANCH   6   7
BRANCH   5  17
ATOM     17  C   UNL A   1      33.327  23.769  26.463  1.00  0.00     0.107 C 
ATOM     18  N   UNL A   1      32.830  22.776  27.061  1.00  0.00    -0.192 NA
ENDBRANCH   5  17
ENDBRANCH   3   5
ENDBRANCH   2   3
ENDBRANCH   1   2
BRANCH   1  19
ATOM     19  C   UNL A   1      31.682  28.725  25.998  1.00  0.00     0.275 C 
BRANCH  19  20
ATOM     20  O   UNL A   1      32.040  29.432  27.210  1.00  0.00    -0.458 OA
BRANCH  20  21
ATOM     21  C   UNL A   1      32.606  30.661  27.067  1.00  0.00     0.338 C 
ATOM     22  O   UNL A   1      32.002  31.718  26.945  1.00  0.00    -0.246 OA
BRANCH  21  23
ATOM     23  C   UNL A   1      34.092  30.598  27.205  1.00  0.00     0.060 A 
ATOM     24  C   UNL A   1      34.765  29.392  27.169  1.00  0.00     0.016 A 
ATOM     25  C   UNL A   1      34.817  31.729  27.581  1.00  0.00     0.016 A 
ATOM     26  C   UNL A   1      36.007  29.278  27.815  1.00  0.00     0.010 A 
ATOM     27  C   UNL A   1      36.150  31.614  28.039  1.00  0.00     0.010 A 
ATOM     28  C   UNL A   1      36.742  30.367  28.312  1.00  0.00    -0.014 A 
BRANCH  28  29
ATOM     29  C   UNL A   1      38.024  30.239  29.150  1.00  0.00     0.031 A 
ATOM     30  C   UNL A   1      39.223  29.443  28.614  1.00  0.00     0.074 A 
ATOM     31  C   UNL A   1      38.273  30.863  30.333  1.00  0.00     0.049 A 
ATOM     32  N   UNL A   1      40.165  28.797  29.267  1.00  0.00    -0.248 NA
ATOM     33  C   UNL A   1      39.388  29.374  27.153  1.00  0.00     0.031 C 
ATOM     34  C   UNL A   1      37.451  31.861  31.014  1.00  0.00     0.029 A 
ATOM     35  N   UNL A   1      39.359  30.736  31.194  1.00  0.00    -0.354 N 
ATOM     36  C   UNL A   1      40.926  28.132  28.305  1.00  0.00     0.074 A 
ATOM     37  C   UNL A   1      40.364  28.485  27.019  1.00  0.00     0.031 C 
ATOM     38  C   UNL A   1      38.065  32.293  32.120  1.00  0.00     0.029 A 
ATOM     39  C   UNL A   1      39.223  31.457  32.360  1.00  0.00     0.049 A 
ATOM     40  H   UNL A   1      40.149  30.185  30.988  1.00  0.00     0.167 HD
ATOM     41  C   UNL A   1      41.984  27.297  28.474  1.00  0.00     0.037 A 
ATOM     42  C   UNL A   1      39.837  31.397  33.560  1.00  0.00     0.037 A 
ATOM     43  C   UNL A   1      42.667  27.089  29.730  1.00  0.00     0.049 A 
ATOM     44  C   UNL A   1      40.918  30.393  33.796  1.00  0.00     0.074 A 
ATOM     45  C   UNL A   1      43.751  26.266  30.001  1.00  0.00     0.029 A 
ATOM     46  N   UNL A   1      42.374  27.752  30.909  1.00  0.00    -0.354 N 
ATOM     47  N   UNL A   1      41.461  29.555  32.952  1.00  0.00    -0.248 NA
ATOM     48  C   UNL A   1      41.445  30.300  35.166  1.00  0.00     0.031 C 
ATOM     49  C   UNL A   1      44.085  26.402  31.353  1.00  0.00     0.029 A 
ATOM     50  C   UNL A   1      43.244  27.348  31.911  1.00  0.00     0.049 A 
ATOM     51  H   UNL A   1      41.653  28.413  31.021  1.00  0.00     0.167 HD
ATOM     52  C   UNL A   1      42.405  28.846  33.681  1.00  0.00     0.074 A 
ATOM     53  C   UNL A   1      42.371  29.361  35.033  1.00  0.00     0.031 C 
ATOM     54  C   UNL A   1      43.222  27.853  33.257  1.00  0.00     0.037 A 
BRANCH  41  55
ATOM     55  C   UNL A   1      42.450  26.477  27.297  1.00  0.00     0.057 A 
ATOM     56  C   UNL A   1      43.477  26.874  26.435  1.00  0.00     0.134 A 
ATOM     57  C   UNL A   1      41.891  25.206  27.083  1.00  0.00     0.134 A 
ATOM     58  F   UNL A   1      44.057  28.076  26.576  1.00  0.00    -0.206 F 
ATOM     59  C   UNL A   1      43.914  26.051  25.391  1.00  0.00     0.040 A 
ATOM     60  C   UNL A   1      42.340  24.363  26.065  1.00  0.00     0.040 A 
ATOM     61  F   UNL A   1      40.915  24.748  27.882  1.00  0.00    -0.206 F 
ATOM     62  C   UNL A   1      43.352  24.788  25.210  1.00  0.00     0.006 A 
ENDBRANCH  41  55
BRANCH  42  63
ATOM     63  C   UNL A   1      39.318  32.225  34.687  1.00  0.00     0.057 A 
ATOM     64  C   UNL A   1      39.739  33.543  34.884  1.00  0.00     0.134 A 
ATOM     65  C   UNL A   1      38.361  31.714  35.578  1.00  0.00     0.134 A 
ATOM     66  F   UNL A   1      40.681  34.077  34.093  1.00  0.00    -0.206 F 
ATOM     67  C   UNL A   1      39.219  34.327  35.917  1.00  0.00     0.040 A 
ATOM     68  C   UNL A   1      37.804  32.498  36.588  1.00  0.00     0.040 A 
ATOM     69  F   UNL A   1      37.920  30.454  35.450  1.00  0.00    -0.206 F 
ATOM     70  C   UNL A   1      38.236  33.810  36.761  1.00  0.00     0.006 A 
ENDBRANCH  42  63
BRANCH  54  71
ATOM     71  C   UNL A   1      44.189  27.293  34.257  1.00  0.00     0.057 A 
ATOM     72  C   UNL A   1      43.881  26.171  35.036  1.00  0.00     0.134 A 
ATOM     73  C   UNL A   1      45.441  27.890  34.447  1.00  0.00     0.134 A 
ATOM     74  F   UNL A   1      42.689  25.566  34.918  1.00  0.00    -0.206 F 
ATOM     75  C   UNL A   1      44.775  25.680  35.990  1.00  0.00     0.040 A 
ATOM     76  C   UNL A   1      46.353  27.392  35.378  1.00  0.00     0.040 A 
ATOM     77  F   UNL A   1      45.799  28.966  33.730  1.00  0.00    -0.206 F 
ATOM     78  C   UNL A   1      46.017  26.288  36.159  1.00  0.00     0.006 A 
ENDBRANCH  54  71
ENDBRANCH  28  29
ENDBRANCH  21  23
ENDBRANCH  20  21
ENDBRANCH  19  20
ENDBRANCH   1  19
TORSDOF 16
ENDMDL
MODEL 2
REMARK VINA RESULT:     -10.5      0.776      2.088
REMARK SMILES C#CCOc1ccccc1/C=C(\C#N)C(=O)OCCOC(=O)c1ccc(-c2c3nc(c(-c4c(F)cccc4F)c4ccc([nH]4)c(-c4c(F)cccc4F)c4nc(c(-c5c(F)cccc5F)c5ccc2[nH]5)C=C4)C=C3)cc1
REMARK SMILES IDX 18 1 17 2 15 3 16 4 12 5 11 6 10 7 5 8 6 9 7 10 9 11 8 12
REMARK SMILES IDX 4 13 3 14 2 15 1 16 13 17 14 18 19 19 20 20 21 21 22 22
REMARK SMILES IDX 23 23 24 24 76 25 25 26 75 27 26 28 27 29 28 30 69 31 29 32
REMARK SMILES IDX 74 33 68 34 70 35 30 36 73 37 67 38 66 39 31 41 57 42 40 43
REMARK SMILES IDX 56 44 41 45 44 46 55 47 71 48 42 49 43 50 54 52 72 53 45 54
REMARK SMILES IDX 32 55 33 56 38 57 34 58 35 59 37 60 39 61 36 62 58 63 59 64
REMARK SMILES IDX 64 65 60 66 61 67 63 68 65 69 62 70 46 71 47 72 52 73 48 74
REMARK SMILES IDX 49 75 51 76 53 77 50 78
REMARK H PARENT 70 40 44 51
REMARK Flexibility Score: inf
ROOT
ATOM      1  C   UNL A   1      32.236  28.313  24.790  1.00  0.00     0.275 C 
ENDROOT
BRANCH   1   2
ATOM      2  O   UNL A   1      32.146  27.015  25.409  1.00  0.00    -0.458 OA
BRANCH   2   3
ATOM      3  C   UNL A   1      31.643  26.013  24.641  1.00  0.00     0.349 C 
ATOM      4  O   UNL A   1      30.774  26.104  23.790  1.00  0.00    -0.245 OA
BRANCH   3   5
ATOM      5  C   UNL A   1      32.429  24.759  24.953  1.00  0.00     0.138 C 
ATOM      6  C   UNL A   1      32.374  23.596  24.161  1.00  0.00     0.039 C 
BRANCH   6   7
ATOM      7  C   UNL A   1      33.033  22.239  24.410  1.00  0.00     0.018 A 
ATOM      8  C   UNL A   1      34.412  22.038  24.710  1.00  0.00     0.128 A 
ATOM      9  C   UNL A   1      34.942  20.745  24.879  1.00  0.00     0.047 A 
ATOM     10  C   UNL A   1      34.136  19.621  24.769  1.00  0.00     0.004 A 
ATOM     11  C   UNL A   1      32.272  21.064  24.243  1.00  0.00     0.012 A 
ATOM     12  C   UNL A   1      32.799  19.781  24.443  1.00  0.00     0.001 A 
BRANCH   8  13
ATOM     13  O   UNL A   1      35.397  23.005  24.706  1.00  0.00    -0.480 OA
BRANCH  13  14
ATOM     14  C   UNL A   1      35.629  23.628  25.979  1.00  0.00     0.318 C 
BRANCH  14  15
ATOM     15  C   UNL A   1      37.144  23.702  26.078  1.00  0.00    -0.065 C 
ATOM     16  C   UNL A   1      38.443  23.766  26.163  1.00  0.00     0.007 C 
ENDBRANCH  14  15
ENDBRANCH  13  14
ENDBRANCH   8  13
ENDBRANCH   6   7
BRANCH   5  17
ATOM     17  C   UNL A   1      31.702  24.206  26.168  1.00  0.00     0.107 C 
ATOM     18  N   UNL A   1      31.098  23.748  27.176  1.00  0.00    -0.192 NA
ENDBRANCH   5  17
ENDBRANCH   3   5
ENDBRANCH   2   3
ENDBRANCH   1   2
BRANCH   1  19
ATOM     19  C   UNL A   1      31.445  29.316  25.634  1.00  0.00     0.275 C 
BRANCH  19  20
ATOM     20  O   UNL A   1      32.121  29.535  26.896  1.00  0.00    -0.458 OA
BRANCH  20  21
ATOM     21  C   UNL A   1      32.676  30.760  27.098  1.00  0.00     0.338 C 
ATOM     22  O   UNL A   1      32.062  31.806  27.256  1.00  0.00    -0.246 OA
BRANCH  21  23
ATOM     23  C   UNL A   1      34.161  30.673  27.238  1.00  0.00     0.060 A 
ATOM     24  C   UNL A   1      34.812  29.454  27.218  1.00  0.00     0.016 A 
ATOM     25  C   UNL A   1      34.905  31.795  27.601  1.00  0.00     0.016 A 
ATOM     26  C   UNL A   1      36.051  29.326  27.866  1.00  0.00     0.010 A 
ATOM     27  C   UNL A   1      36.236  31.662  28.062  1.00  0.00     0.010 A 
ATOM     28  C   UNL A   1      36.805  30.408  28.351  1.00  0.00    -0.014 A 
BRANCH  28  29
ATOM     29  C   UNL A   1      38.084  30.267  29.191  1.00  0.00     0.031 A 
ATOM     30  C   UNL A   1      39.275  29.456  28.660  1.00  0.00     0.074 A 
ATOM     31  C   UNL A   1      38.338  30.891  30.373  1.00  0.00     0.049 A 
ATOM     32  N   UNL A   1      40.209  28.802  29.316  1.00  0.00    -0.248 NA
ATOM     33  C   UNL A   1      39.442  29.382  27.198  1.00  0.00     0.031 C 
ATOM     34  C   UNL A   1      37.526  31.900  31.050  1.00  0.00     0.029 A 
ATOM     35  N   UNL A   1      39.421  30.754  31.236  1.00  0.00    -0.354 N 
ATOM     36  C   UNL A   1      40.964  28.126  28.357  1.00  0.00     0.074 A 
ATOM     37  C   UNL A   1      40.408  28.482  27.069  1.00  0.00     0.031 C 
ATOM     38  C   UNL A   1      38.143  32.328  32.156  1.00  0.00     0.029 A 
ATOM     39  C   UNL A   1      39.290  31.479  32.401  1.00  0.00     0.049 A 
ATOM     40  H   UNL A   1      40.205  30.194  31.034  1.00  0.00     0.167 HD
ATOM     41  C   UNL A   1      42.012  27.279  28.530  1.00  0.00     0.037 A 
ATOM     42  C   UNL A   1      39.902  31.415  33.602  1.00  0.00     0.037 A 
ATOM     43  C   UNL A   1      42.690  27.066  29.787  1.00  0.00     0.049 A 
ATOM     44  C   UNL A   1      40.971  30.400  33.843  1.00  0.00     0.074 A 
ATOM     45  C   UNL A   1      43.764  26.232  30.062  1.00  0.00     0.029 A 
ATOM     46  N   UNL A   1      42.403  27.735  30.965  1.00  0.00    -0.354 N 
ATOM     47  N   UNL A   1      41.506  29.554  33.001  1.00  0.00    -0.248 NA
ATOM     48  C   UNL A   1      41.495  30.304  35.213  1.00  0.00     0.031 C 
ATOM     49  C   UNL A   1      44.097  26.368  31.415  1.00  0.00     0.029 A 
ATOM     50  C   UNL A   1      43.266  27.324  31.968  1.00  0.00     0.049 A 
ATOM     51  H   UNL A   1      41.689  28.405  31.073  1.00  0.00     0.167 HD
ATOM     52  C   UNL A   1      42.440  28.836  33.734  1.00  0.00     0.074 A 
ATOM     53  C   UNL A   1      42.410  29.354  35.084  1.00  0.00     0.031 C 
ATOM     54  C   UNL A   1      43.248  27.832  33.314  1.00  0.00     0.037 A 
BRANCH  41  55
ATOM     55  C   UNL A   1      42.470  26.452  27.356  1.00  0.00     0.057 A 
ATOM     56  C   UNL A   1      43.473  26.855  26.468  1.00  0.00     0.134 A 
ATOM     57  C   UNL A   1      41.932  25.168  27.169  1.00  0.00     0.134 A 
ATOM     58  F   UNL A   1      44.033  28.069  26.581  1.00  0.00    -0.206 F 
ATOM     59  C   UNL A   1      43.906  26.026  25.427  1.00  0.00     0.040 A 
ATOM     60  C   UNL A   1      42.377  24.318  26.155  1.00  0.00     0.040 A 
ATOM     61  F   UNL A   1      40.979  24.703  27.993  1.00  0.00    -0.206 F 
ATOM     62  C   UNL A   1      43.365  24.750  25.274  1.00  0.00     0.006 A 
ENDBRANCH  41  55
BRANCH  42  63
ATOM     63  C   UNL A   1      39.390  32.251  34.726  1.00  0.00     0.057 A 
ATOM     64  C   UNL A   1      39.810  33.572  34.908  1.00  0.00     0.134 A 
ATOM     65  C   UNL A   1      38.442  31.746  35.630  1.00  0.00     0.134 A 
ATOM     66  F   UNL A   1      40.744  34.101  34.105  1.00  0.00    -0.206 F 
ATOM     67  C   UNL A   1      39.297  34.364  35.938  1.00  0.00     0.040 A 
ATOM     68  C   UNL A   1      37.891  32.537  36.637  1.00  0.00     0.040 A 
ATOM     69  F   UNL A   1      38.002  30.484  35.515  1.00  0.00    -0.206 F 
ATOM     70  C   UNL A   1      38.322  33.852  36.795  1.00  0.00     0.006 A 
ENDBRANCH  42  63
BRANCH  54  71
ATOM     71  C   UNL A   1      44.206  27.264  34.316  1.00  0.00     0.057 A 
ATOM     72  C   UNL A   1      45.465  27.832  34.542  1.00  0.00     0.134 A 
ATOM     73  C   UNL A   1      43.865  26.128  35.062  1.00  0.00     0.134 A 
ATOM     74  F   UNL A   1      45.860  28.908  33.845  1.00  0.00    -0.206 F 
ATOM     75  C   UNL A   1      46.364  27.273  35.453  1.00  0.00     0.040 A 
ATOM     76  C   UNL A   1      44.744  25.576  35.993  1.00  0.00     0.040 A 
ATOM     77  F   UNL A   1      42.672  25.537  34.896  1.00  0.00    -0.206 F 
ATOM     78  C   UNL A   1      46.002  26.144  36.184  1.00  0.00     0.006 A 
ENDBRANCH  54  71
ENDBRANCH  28  29
ENDBRANCH  21  23
ENDBRANCH  20  21
ENDBRANCH  19  20
ENDBRANCH   1  19
TORSDOF 16
ENDMDL
MODEL 3
REMARK VINA RESULT:     -10.4      0.952      1.945
REMARK SMILES C#CCOc1ccccc1/C=C(\C#N)C(=O)OCCOC(=O)c1ccc(-c2c3nc(c(-c4c(F)cccc4F)c4ccc([nH]4)c(-c4c(F)cccc4F)c4nc(c(-c5c(F)cccc5F)c5ccc2[nH]5)C=C4)C=C3)cc1
REMARK SMILES IDX 18 1 17 2 15 3 16 4 12 5 11 6 10 7 5 8 6 9 7 10 9 11 8 12
REMARK SMILES IDX 4 13 3 14 2 15 1 16 13 17 14 18 19 19 20 20 21 21 22 22
REMARK SMILES IDX 23 23 24 24 76 25 25 26 75 27 26 28 27 29 28 30 69 31 29 32
REMARK SMILES IDX 74 33 68 34 70 35 30 36 73 37 67 38 66 39 31 41 57 42 40 43
REMARK SMILES IDX 56 44 41 45 44 46 55 47 71 48 42 49 43 50 54 52 72 53 45 54
REMARK SMILES IDX 32 55 33 56 38 57 34 58 35 59 37 60 39 61 36 62 58 63 59 64
REMARK SMILES IDX 64 65 60 66 61 67 63 68 65 69 62 70 46 71 47 72 52 73 48 74
REMARK SMILES IDX 49 75 51 76 53 77 50 78
REMARK H PARENT 70 40 44 51
REMARK Flexibility Score: inf
ROOT
ATOM      1  C   UNL A   1      31.129  27.717  24.867  1.00  0.00     0.275 C 
ENDROOT
BRANCH   1   2
ATOM      2  O   UNL A   1      31.923  26.838  25.686  1.00  0.00    -0.458 OA
BRANCH   2   3
ATOM      3  C   UNL A   1      31.383  25.623  25.968  1.00  0.00     0.349 C 
ATOM      4  O   UNL A   1      30.251  25.395  26.364  1.00  0.00    -0.245 OA
BRANCH   3   5
ATOM      5  C   UNL A   1      32.407  24.571  25.604  1.00  0.00     0.138 C 
ATOM      6  C   UNL A   1      33.670  24.477  26.220  1.00  0.00     0.039 C 
BRANCH   6   7
ATOM      7  C   UNL A   1      34.827  23.536  25.886  1.00  0.00     0.018 A 
ATOM      8  C   UNL A   1      34.762  22.112  25.915  1.00  0.00     0.128 A 
ATOM      9  C   UNL A   1      35.895  21.324  25.637  1.00  0.00     0.047 A 
ATOM     10  C   UNL A   1      37.112  21.907  25.314  1.00  0.00     0.004 A 
ATOM     11  C   UNL A   1      36.101  24.079  25.619  1.00  0.00     0.012 A 
ATOM     12  C   UNL A   1      37.216  23.288  25.312  1.00  0.00     0.001 A 
BRANCH   8  13
ATOM     13  O   UNL A   1      33.699  21.353  26.360  1.00  0.00    -0.480 OA
BRANCH  13  14
ATOM     14  C   UNL A   1      33.326  20.276  25.487  1.00  0.00     0.318 C 
BRANCH  14  15
ATOM     15  C   UNL A   1      32.776  20.979  24.257  1.00  0.00    -0.065 C 
ATOM     16  C   UNL A   1      32.304  21.582  23.201  1.00  0.00     0.007 C 
ENDBRANCH  14  15
ENDBRANCH  13  14
ENDBRANCH   8  13
ENDBRANCH   6   7
BRANCH   5  17
ATOM     17  C   UNL A   1      32.886  25.035  24.238  1.00  0.00     0.107 C 
ATOM     18  N   UNL A   1      33.283  25.420  23.104  1.00  0.00    -0.192 NA
ENDBRANCH   5  17
ENDBRANCH   3   5
ENDBRANCH   2   3
ENDBRANCH   1   2
BRANCH   1  19
ATOM     19  C   UNL A   1      31.483  29.166  25.216  1.00  0.00     0.275 C 
BRANCH  19  20
ATOM     20  O   UNL A   1      32.153  29.211  26.499  1.00  0.00    -0.458 OA
BRANCH  20  21
ATOM     21  C   UNL A   1      32.577  30.428  26.935  1.00  0.00     0.338 C 
ATOM     22  O   UNL A   1      31.858  31.364  27.255  1.00  0.00    -0.246 OA
BRANCH  21  23
ATOM     23  C   UNL A   1      34.061  30.461  27.107  1.00  0.00     0.060 A 
ATOM     24  C   UNL A   1      34.820  29.311  27.001  1.00  0.00     0.016 A 
ATOM     25  C   UNL A   1      34.693  31.609  27.584  1.00  0.00     0.016 A 
ATOM     26  C   UNL A   1      36.053  29.238  27.670  1.00  0.00     0.010 A 
ATOM     27  C   UNL A   1      36.021  31.554  28.069  1.00  0.00     0.010 A 
ATOM     28  C   UNL A   1      36.696  30.335  28.265  1.00  0.00    -0.014 A 
BRANCH  28  29
ATOM     29  C   UNL A   1      37.966  30.236  29.125  1.00  0.00     0.031 A 
ATOM     30  C   UNL A   1      39.183  29.445  28.622  1.00  0.00     0.074 A 
ATOM     31  C   UNL A   1      38.189  30.883  30.302  1.00  0.00     0.049 A 
ATOM     32  N   UNL A   1      40.121  28.822  29.301  1.00  0.00    -0.248 NA
ATOM     33  C   UNL A   1      39.372  29.355  27.165  1.00  0.00     0.031 C 
ATOM     34  C   UNL A   1      37.345  31.882  30.953  1.00  0.00     0.029 A 
ATOM     35  N   UNL A   1      39.262  30.783  31.181  1.00  0.00    -0.354 N 
ATOM     36  C   UNL A   1      40.905  28.150  28.362  1.00  0.00     0.074 A 
ATOM     37  C   UNL A   1      40.360  28.475  27.061  1.00  0.00     0.031 C 
ATOM     38  C   UNL A   1      37.936  32.339  32.061  1.00  0.00     0.029 A 
ATOM     39  C   UNL A   1      39.098  31.521  32.333  1.00  0.00     0.049 A 
ATOM     40  H   UNL A   1      40.061  30.238  30.998  1.00  0.00     0.167 HD
ATOM     41  C   UNL A   1      41.969  27.330  28.562  1.00  0.00     0.037 A 
ATOM     42  C   UNL A   1      39.694  31.488  33.544  1.00  0.00     0.037 A 
ATOM     43  C   UNL A   1      42.634  27.151  29.832  1.00  0.00     0.049 A 
ATOM     44  C   UNL A   1      40.783  30.501  33.814  1.00  0.00     0.074 A 
ATOM     45  C   UNL A   1      43.723  26.346  30.134  1.00  0.00     0.029 A 
ATOM     46  N   UNL A   1      42.315  27.829  30.995  1.00  0.00    -0.354 N 
ATOM     47  N   UNL A   1      41.349  29.656  32.992  1.00  0.00    -0.248 NA
ATOM     48  C   UNL A   1      41.288  30.437  35.193  1.00  0.00     0.031 C 
ATOM     49  C   UNL A   1      44.034  26.508  31.489  1.00  0.00     0.029 A 
ATOM     50  C   UNL A   1      43.174  27.452  32.017  1.00  0.00     0.049 A 
ATOM     51  H   UNL A   1      41.585  28.484  31.084  1.00  0.00     0.167 HD
ATOM     52  C   UNL A   1      42.288  28.970  33.748  1.00  0.00     0.074 A 
ATOM     53  C   UNL A   1      42.226  29.507  35.091  1.00  0.00     0.031 C 
ATOM     54  C   UNL A   1      43.124  27.979  33.355  1.00  0.00     0.037 A 
BRANCH  41  55
ATOM     55  C   UNL A   1      42.464  26.497  27.407  1.00  0.00     0.057 A 
ATOM     56  C   UNL A   1      41.955  25.233  27.090  1.00  0.00     0.134 A 
ATOM     57  C   UNL A   1      43.432  27.031  26.540  1.00  0.00     0.134 A 
ATOM     58  F   UNL A   1      41.029  24.657  27.872  1.00  0.00    -0.206 F 
ATOM     59  C   UNL A   1      42.405  24.523  25.971  1.00  0.00     0.040 A 
ATOM     60  C   UNL A   1      43.866  26.347  25.404  1.00  0.00     0.040 A 
ATOM     61  F   UNL A   1      43.953  28.247  26.769  1.00  0.00    -0.206 F 
ATOM     62  C   UNL A   1      43.356  25.083  25.119  1.00  0.00     0.006 A 
ENDBRANCH  41  55
BRANCH  42  63
ATOM     63  C   UNL A   1      39.147  32.328  34.648  1.00  0.00     0.057 A 
ATOM     64  C   UNL A   1      38.269  31.806  35.602  1.00  0.00     0.134 A 
ATOM     65  C   UNL A   1      39.520  33.675  34.785  1.00  0.00     0.134 A 
ATOM     66  F   UNL A   1      37.842  30.538  35.505  1.00  0.00    -0.206 F 
ATOM     67  C   UNL A   1      37.792  32.586  36.658  1.00  0.00     0.040 A 
ATOM     68  C   UNL A   1      39.084  34.453  35.856  1.00  0.00     0.040 A 
ATOM     69  F   UNL A   1      40.353  34.240  33.900  1.00  0.00    -0.206 F 
ATOM     70  C   UNL A   1      38.214  33.909  36.796  1.00  0.00     0.006 A 
ENDBRANCH  42  63
BRANCH  54  71
ATOM     71  C   UNL A   1      44.080  27.447  34.379  1.00  0.00     0.057 A 
ATOM     72  C   UNL A   1      45.327  28.043  34.607  1.00  0.00     0.134 A 
ATOM     73  C   UNL A   1      43.752  26.320  35.141  1.00  0.00     0.134 A 
ATOM     74  F   UNL A   1      45.711  29.113  33.895  1.00  0.00    -0.206 F 
ATOM     75  C   UNL A   1      46.224  27.517  35.539  1.00  0.00     0.040 A 
ATOM     76  C   UNL A   1      44.629  25.801  36.093  1.00  0.00     0.040 A 
ATOM     77  F   UNL A   1      42.571  25.704  34.973  1.00  0.00    -0.206 F 
ATOM     78  C   UNL A   1      45.875  26.396  36.288  1.00  0.00     0.006 A 
ENDBRANCH  54  71
ENDBRANCH  28  29
ENDBRANCH  21  23
ENDBRANCH  20  21
ENDBRANCH  19  20
ENDBRANCH   1  19
TORSDOF 16
ENDMDL
