MODEL 1
REMARK VINA RESULT:     -14.5      0.000      0.000
REMARK SMILES O=C(OCCOC(=O)[C@H](Cc1ccccc1Cl)S[C@H]1CC(=O)N(c2ccc(Cl)cc2)C1=O)c1ccc(-c2c3nc(c(-c4c(F)cccc4F)c4ccc([nH]4)c(-c4c(F)cccc4F)c4nc(c(-c5c(F)cccc5F)c5ccc2[nH]5)C=C4)C=C3)cc1
REMARK SMILES IDX 5 1 4 2 3 3 2 4 1 5 33 6 34 7 86 8 35 9 85 10 36 11 37 12
REMARK SMILES IDX 38 13 79 14 39 15 84 16 78 17 80 18 40 19 83 20 77 21 76 22
REMARK SMILES IDX 41 24 67 25 50 26 66 27 51 28 54 29 65 30 81 31 52 32 53 33
REMARK SMILES IDX 64 35 82 36 55 37 42 38 43 39 48 40 44 41 45 42 47 43 49 44
REMARK SMILES IDX 46 45 68 46 69 47 74 48 70 49 71 50 73 51 75 52 72 53 56 54
REMARK SMILES IDX 57 55 62 56 58 57 59 58 61 59 63 60 60 61 6 62 7 63 8 64
REMARK SMILES IDX 9 65 18 66 19 67 20 68 31 69 21 70 23 71 32 72 22 73 24 74
REMARK SMILES IDX 25 75 30 76 26 77 29 78 27 79 28 80 10 81 11 82 12 83 16 84
REMARK SMILES IDX 13 85 15 86 17 87 14 88
REMARK H PARENT 80 23 54 34
REMARK Flexibility Score: inf
ROOT
ATOM      1  C   UNL A   1      32.061  28.046  27.042  1.00  0.00     0.274 C 
ENDROOT
BRANCH   1   2
ATOM      2  C   UNL A   1      31.677  29.519  26.725  1.00  0.00     0.275 C 
BRANCH   2   3
ATOM      3  O   UNL A   1      32.746  30.397  26.280  1.00  0.00    -0.458 OA
BRANCH   3   4
ATOM      4  C   UNL A   1      33.315  31.164  27.222  1.00  0.00     0.338 C 
ATOM      5  O   UNL A   1      32.910  32.276  27.542  1.00  0.00    -0.246 OA
BRANCH   4   6
ATOM      6  C   UNL A   1      34.702  30.664  27.591  1.00  0.00     0.060 A 
ATOM      7  C   UNL A   1      35.300  29.431  27.602  1.00  0.00     0.016 A 
ATOM      8  C   UNL A   1      35.579  31.654  27.942  1.00  0.00     0.016 A 
ATOM      9  C   UNL A   1      36.665  29.272  28.114  1.00  0.00     0.010 A 
ATOM     10  C   UNL A   1      36.926  31.546  28.383  1.00  0.00     0.010 A 
ATOM     11  C   UNL A   1      37.453  30.322  28.662  1.00  0.00    -0.014 A 
BRANCH  11  12
ATOM     12  C   UNL A   1      38.814  30.220  29.315  1.00  0.00     0.031 A 
ATOM     13  C   UNL A   1      39.364  30.888  30.573  1.00  0.00     0.074 A 
ATOM     14  C   UNL A   1      39.780  29.553  28.680  1.00  0.00     0.049 A 
ATOM     15  N   UNL A   1      39.945  30.332  31.613  1.00  0.00    -0.248 NA
ATOM     16  C   UNL A   1      39.382  32.348  30.700  1.00  0.00     0.031 C 
ATOM     17  C   UNL A   1      39.770  29.204  27.284  1.00  0.00     0.029 A 
ATOM     18  N   UNL A   1      40.927  28.998  29.166  1.00  0.00    -0.354 N 
ATOM     19  C   UNL A   1      40.066  31.343  32.576  1.00  0.00     0.074 A 
ATOM     20  C   UNL A   1      39.713  32.579  31.964  1.00  0.00     0.031 C 
ATOM     21  C   UNL A   1      40.742  28.318  27.043  1.00  0.00     0.029 A 
ATOM     22  C   UNL A   1      41.468  28.099  28.286  1.00  0.00     0.049 A 
ATOM     23  H   UNL A   1      41.318  29.218  30.042  1.00  0.00     0.167 HD
ATOM     24  C   UNL A   1      40.352  31.194  33.888  1.00  0.00     0.037 A 
ATOM     25  C   UNL A   1      42.404  27.164  28.498  1.00  0.00     0.037 A 
ATOM     26  C   UNL A   1      41.172  30.108  34.304  1.00  0.00     0.049 A 
ATOM     27  C   UNL A   1      42.939  27.020  29.893  1.00  0.00     0.074 A 
ATOM     28  C   UNL A   1      41.705  29.821  35.539  1.00  0.00     0.029 A 
ATOM     29  N   UNL A   1      41.713  29.217  33.392  1.00  0.00    -0.354 N 
ATOM     30  N   UNL A   1      42.589  27.653  30.991  1.00  0.00    -0.248 NA
ATOM     31  C   UNL A   1      44.003  26.031  30.077  1.00  0.00     0.031 C 
ATOM     32  C   UNL A   1      42.663  28.814  35.344  1.00  0.00     0.029 A 
ATOM     33  C   UNL A   1      42.668  28.448  34.002  1.00  0.00     0.049 A 
ATOM     34  H   UNL A   1      41.450  29.147  32.446  1.00  0.00     0.167 HD
ATOM     35  C   UNL A   1      43.401  27.148  31.998  1.00  0.00     0.074 A 
ATOM     36  C   UNL A   1      44.227  26.127  31.379  1.00  0.00     0.031 C 
ATOM     37  C   UNL A   1      43.480  27.487  33.311  1.00  0.00     0.037 A 
BRANCH  24  38
ATOM     38  C   UNL A   1      39.792  32.175  34.879  1.00  0.00     0.057 A 
ATOM     39  C   UNL A   1      38.554  31.903  35.491  1.00  0.00     0.134 A 
ATOM     40  C   UNL A   1      40.445  33.340  35.284  1.00  0.00     0.134 A 
ATOM     41  F   UNL A   1      37.907  30.756  35.243  1.00  0.00    -0.206 F 
ATOM     42  C   UNL A   1      37.959  32.776  36.404  1.00  0.00     0.040 A 
ATOM     43  C   UNL A   1      39.876  34.207  36.229  1.00  0.00     0.040 A 
ATOM     44  F   UNL A   1      41.644  33.657  34.778  1.00  0.00    -0.206 F 
ATOM     45  C   UNL A   1      38.624  33.935  36.780  1.00  0.00     0.006 A 
ENDBRANCH  24  38
BRANCH  25  46
ATOM     46  C   UNL A   1      42.822  26.295  27.372  1.00  0.00     0.057 A 
ATOM     47  C   UNL A   1      42.218  25.057  27.131  1.00  0.00     0.134 A 
ATOM     48  C   UNL A   1      43.802  26.720  26.464  1.00  0.00     0.134 A 
ATOM     49  F   UNL A   1      41.263  24.598  27.953  1.00  0.00    -0.206 F 
ATOM     50  C   UNL A   1      42.589  24.264  26.044  1.00  0.00     0.040 A 
ATOM     51  C   UNL A   1      44.157  25.956  25.355  1.00  0.00     0.040 A 
ATOM     52  F   UNL A   1      44.394  27.914  26.618  1.00  0.00    -0.206 F 
ATOM     53  C   UNL A   1      43.556  24.717  25.148  1.00  0.00     0.006 A 
ENDBRANCH  25  46
BRANCH  37  54
ATOM     54  C   UNL A   1      44.521  26.793  34.119  1.00  0.00     0.057 A 
ATOM     55  C   UNL A   1      45.795  27.345  34.287  1.00  0.00     0.134 A 
ATOM     56  C   UNL A   1      44.220  25.599  34.782  1.00  0.00     0.134 A 
ATOM     57  F   UNL A   1      46.129  28.490  33.672  1.00  0.00    -0.206 F 
ATOM     58  C   UNL A   1      46.754  26.708  35.067  1.00  0.00     0.040 A 
ATOM     59  C   UNL A   1      45.161  24.972  35.591  1.00  0.00     0.040 A 
ATOM     60  F   UNL A   1      43.004  25.045  34.672  1.00  0.00    -0.206 F 
ATOM     61  C   UNL A   1      46.435  25.521  35.727  1.00  0.00     0.006 A 
ENDBRANCH  37  54
ENDBRANCH  11  12
ENDBRANCH   4   6
ENDBRANCH   3   4
ENDBRANCH   2   3
ENDBRANCH   1   2
BRANCH   1  62
ATOM     62  O   UNL A   1      32.439  27.348  25.849  1.00  0.00    -0.461 OA
BRANCH  62  63
ATOM     63  C   UNL A   1      31.466  26.845  25.046  1.00  0.00     0.319 C 
ATOM     64  O   UNL A   1      30.477  26.265  25.416  1.00  0.00    -0.251 OA
BRANCH  63  65
ATOM     65  C   UNL A   1      31.860  27.124  23.596  1.00  0.00     0.161 C 
BRANCH  65  66
ATOM     66  S   UNL A   1      33.151  25.491  22.923  1.00  0.00    -0.132 SA
BRANCH  66  67
ATOM     67  C   UNL A   1      34.621  24.601  24.208  1.00  0.00     0.147 C 
ATOM     68  C   UNL A   1      34.843  24.548  25.709  1.00  0.00     0.125 C 
ATOM     69  C   UNL A   1      35.077  23.165  23.865  1.00  0.00     0.247 C 
ATOM     70  C   UNL A   1      34.720  23.081  26.084  1.00  0.00     0.235 C 
ATOM     71  N   UNL A   1      34.916  22.306  24.969  1.00  0.00    -0.250 N 
ATOM     72  O   UNL A   1      35.550  22.960  22.763  1.00  0.00    -0.273 OA
ATOM     73  O   UNL A   1      34.587  22.684  27.234  1.00  0.00    -0.274 OA
BRANCH  71  74
ATOM     74  C   UNL A   1      34.749  20.834  25.020  1.00  0.00     0.052 A 
ATOM     75  C   UNL A   1      33.459  20.253  24.959  1.00  0.00     0.028 A 
ATOM     76  C   UNL A   1      35.762  19.888  24.989  1.00  0.00     0.028 A 
ATOM     77  C   UNL A   1      33.216  18.926  24.497  1.00  0.00     0.022 A 
ATOM     78  C   UNL A   1      35.525  18.543  24.565  1.00  0.00     0.022 A 
ATOM     79  C   UNL A   1      34.273  18.104  24.193  1.00  0.00     0.041 A 
ATOM     80  Cl  UNL A   1      34.058  16.653  23.292  1.00  0.00    -0.084 Cl
ENDBRANCH  71  74
ENDBRANCH  66  67
ENDBRANCH  65  66
BRANCH  65  81
ATOM     81  C   UNL A   1      31.038  28.486  22.914  1.00  0.00     0.063 C 
BRANCH  81  82
ATOM     82  C   UNL A   1      29.726  29.354  23.139  1.00  0.00    -0.028 A 
ATOM     83  C   UNL A   1      29.890  30.620  23.751  1.00  0.00     0.005 A 
ATOM     84  C   UNL A   1      28.355  29.044  23.071  1.00  0.00     0.044 A 
ATOM     85  C   UNL A   1      28.880  31.611  23.848  1.00  0.00     0.000 A 
ATOM     86  C   UNL A   1      27.326  30.038  23.069  1.00  0.00     0.021 A 
ATOM     87  Cl  UNL A   1      27.727  27.501  23.480  1.00  0.00    -0.084 Cl
ATOM     88  C   UNL A   1      27.604  31.351  23.395  1.00  0.00     0.002 A 
ENDBRANCH  81  82
ENDBRANCH  65  81
ENDBRANCH  63  65
ENDBRANCH  62  63
ENDBRANCH   1  62
TORSDOF 16
ENDMDL
MODEL 2
REMARK VINA RESULT:     -14.5      2.316      8.424
REMARK SMILES O=C(OCCOC(=O)[C@H](Cc1ccccc1Cl)S[C@H]1CC(=O)N(c2ccc(Cl)cc2)C1=O)c1ccc(-c2c3nc(c(-c4c(F)cccc4F)c4ccc([nH]4)c(-c4c(F)cccc4F)c4nc(c(-c5c(F)cccc5F)c5ccc2[nH]5)C=C4)C=C3)cc1
REMARK SMILES IDX 5 1 4 2 3 3 2 4 1 5 33 6 34 7 86 8 35 9 85 10 36 11 37 12
REMARK SMILES IDX 38 13 79 14 39 15 84 16 78 17 80 18 40 19 83 20 77 21 76 22
REMARK SMILES IDX 41 24 67 25 50 26 66 27 51 28 54 29 65 30 81 31 52 32 53 33
REMARK SMILES IDX 64 35 82 36 55 37 42 38 43 39 48 40 44 41 45 42 47 43 49 44
REMARK SMILES IDX 46 45 68 46 69 47 74 48 70 49 71 50 73 51 75 52 72 53 56 54
REMARK SMILES IDX 57 55 62 56 58 57 59 58 61 59 63 60 60 61 6 62 7 63 8 64
REMARK SMILES IDX 9 65 18 66 19 67 20 68 31 69 21 70 23 71 32 72 22 73 24 74
REMARK SMILES IDX 25 75 30 76 26 77 29 78 27 79 28 80 10 81 11 82 12 83 16 84
REMARK SMILES IDX 13 85 15 86 17 87 14 88
REMARK H PARENT 80 23 54 34
REMARK Flexibility Score: inf
ROOT
ATOM      1  C   UNL A   1      36.002  21.232  24.715  1.00  0.00     0.274 C 
ENDROOT
BRANCH   1   2
ATOM      2  C   UNL A   1      37.489  21.681  24.759  1.00  0.00     0.275 C 
BRANCH   2   3
ATOM      3  O   UNL A   1      37.986  22.192  26.026  1.00  0.00    -0.458 OA
BRANCH   3   4
ATOM      4  C   UNL A   1      39.314  22.152  26.202  1.00  0.00     0.338 C 
ATOM      5  O   UNL A   1      39.992  21.134  26.112  1.00  0.00    -0.246 OA
BRANCH   4   6
ATOM      6  C   UNL A   1      39.831  23.417  26.867  1.00  0.00     0.060 A 
ATOM      7  C   UNL A   1      41.038  23.793  27.394  1.00  0.00     0.016 A 
ATOM      8  C   UNL A   1      38.920  24.439  26.911  1.00  0.00     0.016 A 
ATOM      9  C   UNL A   1      41.186  25.091  28.062  1.00  0.00     0.010 A 
ATOM     10  C   UNL A   1      39.047  25.730  27.492  1.00  0.00     0.010 A 
ATOM     11  C   UNL A   1      40.133  26.027  28.257  1.00  0.00    -0.014 A 
BRANCH  11  12
ATOM     12  C   UNL A   1      40.174  27.325  29.033  1.00  0.00     0.031 A 
ATOM     13  C   UNL A   1      39.279  28.560  28.952  1.00  0.00     0.074 A 
ATOM     14  C   UNL A   1      41.203  27.548  29.853  1.00  0.00     0.049 A 
ATOM     15  N   UNL A   1      38.639  29.177  29.920  1.00  0.00    -0.248 NA
ATOM     16  C   UNL A   1      39.119  29.287  27.690  1.00  0.00     0.031 C 
ATOM     17  C   UNL A   1      42.454  26.838  29.828  1.00  0.00     0.029 A 
ATOM     18  N   UNL A   1      41.314  28.403  30.909  1.00  0.00    -0.354 N 
ATOM     19  C   UNL A   1      37.799  30.109  29.296  1.00  0.00     0.074 A 
ATOM     20  C   UNL A   1      38.136  30.150  27.913  1.00  0.00     0.031 C 
ATOM     21  C   UNL A   1      43.145  27.119  30.939  1.00  0.00     0.029 A 
ATOM     22  C   UNL A   1      42.377  28.085  31.711  1.00  0.00     0.049 A 
ATOM     23  H   UNL A   1      40.704  29.158  31.074  1.00  0.00     0.167 HD
ATOM     24  C   UNL A   1      36.766  30.781  29.851  1.00  0.00     0.037 A 
ATOM     25  C   UNL A   1      42.649  28.492  32.958  1.00  0.00     0.037 A 
ATOM     26  C   UNL A   1      36.810  31.106  31.236  1.00  0.00     0.049 A 
ATOM     27  C   UNL A   1      41.657  29.399  33.626  1.00  0.00     0.074 A 
ATOM     28  C   UNL A   1      35.964  31.884  31.992  1.00  0.00     0.029 A 
ATOM     29  N   UNL A   1      37.902  30.779  32.023  1.00  0.00    -0.354 N 
ATOM     30  N   UNL A   1      40.496  29.834  33.188  1.00  0.00    -0.248 NA
ATOM     31  C   UNL A   1      42.014  29.872  34.965  1.00  0.00     0.031 C 
ATOM     32  C   UNL A   1      36.611  32.117  33.215  1.00  0.00     0.029 A 
ATOM     33  C   UNL A   1      37.822  31.432  33.225  1.00  0.00     0.049 A 
ATOM     34  H   UNL A   1      38.627  30.168  31.759  1.00  0.00     0.167 HD
ATOM     35  C   UNL A   1      39.988  30.646  34.192  1.00  0.00     0.074 A 
ATOM     36  C   UNL A   1      40.953  30.602  35.276  1.00  0.00     0.031 C 
ATOM     37  C   UNL A   1      38.843  31.375  34.233  1.00  0.00     0.037 A 
BRANCH  24  38
ATOM     38  C   UNL A   1      35.593  31.165  28.995  1.00  0.00     0.057 A 
ATOM     39  C   UNL A   1      35.297  32.527  28.805  1.00  0.00     0.134 A 
ATOM     40  C   UNL A   1      34.783  30.251  28.319  1.00  0.00     0.134 A 
ATOM     41  F   UNL A   1      36.084  33.477  29.328  1.00  0.00    -0.206 F 
ATOM     42  C   UNL A   1      34.211  32.962  28.042  1.00  0.00     0.040 A 
ATOM     43  C   UNL A   1      33.712  30.675  27.518  1.00  0.00     0.040 A 
ATOM     44  F   UNL A   1      35.016  28.936  28.416  1.00  0.00    -0.206 F 
ATOM     45  C   UNL A   1      33.413  32.032  27.390  1.00  0.00     0.006 A 
ENDBRANCH  24  38
BRANCH  25  46
ATOM     46  C   UNL A   1      43.875  27.992  33.628  1.00  0.00     0.057 A 
ATOM     47  C   UNL A   1      45.062  28.731  33.641  1.00  0.00     0.134 A 
ATOM     48  C   UNL A   1      43.861  26.781  34.335  1.00  0.00     0.134 A 
ATOM     49  F   UNL A   1      45.137  29.905  32.997  1.00  0.00    -0.206 F 
ATOM     50  C   UNL A   1      46.198  28.271  34.309  1.00  0.00     0.040 A 
ATOM     51  C   UNL A   1      44.976  26.329  35.036  1.00  0.00     0.040 A 
ATOM     52  F   UNL A   1      42.742  26.044  34.391  1.00  0.00    -0.206 F 
ATOM     53  C   UNL A   1      46.154  27.071  35.016  1.00  0.00     0.006 A 
ENDBRANCH  25  46
BRANCH  37  54
ATOM     54  C   UNL A   1      38.623  32.208  35.447  1.00  0.00     0.057 A 
ATOM     55  C   UNL A   1      38.117  31.651  36.627  1.00  0.00     0.134 A 
ATOM     56  C   UNL A   1      38.979  33.560  35.450  1.00  0.00     0.134 A 
ATOM     57  F   UNL A   1      37.762  30.357  36.672  1.00  0.00    -0.206 F 
ATOM     58  C   UNL A   1      37.941  32.426  37.767  1.00  0.00     0.040 A 
ATOM     59  C   UNL A   1      38.838  34.336  36.595  1.00  0.00     0.040 A 
ATOM     60  F   UNL A   1      39.491  34.134  34.351  1.00  0.00    -0.206 F 
ATOM     61  C   UNL A   1      38.308  33.772  37.755  1.00  0.00     0.006 A 
ENDBRANCH  37  54
ENDBRANCH  11  12
ENDBRANCH   4   6
ENDBRANCH   3   4
ENDBRANCH   2   3
ENDBRANCH   1   2
BRANCH   1  62
ATOM     62  O   UNL A   1      35.128  22.326  25.022  1.00  0.00    -0.461 OA
BRANCH  62  63
ATOM     63  C   UNL A   1      34.521  22.359  26.236  1.00  0.00     0.319 C 
ATOM     64  O   UNL A   1      35.048  22.644  27.281  1.00  0.00    -0.251 OA
BRANCH  63  65
ATOM     65  C   UNL A   1      33.061  21.950  26.043  1.00  0.00     0.161 C 
BRANCH  65  66
ATOM     66  S   UNL A   1      31.846  23.769  26.037  1.00  0.00    -0.132 SA
BRANCH  66  67
ATOM     67  C   UNL A   1      32.721  25.721  26.210  1.00  0.00     0.147 C 
ATOM     68  C   UNL A   1      33.943  26.404  25.624  1.00  0.00     0.125 C 
ATOM     69  C   UNL A   1      31.757  26.929  26.185  1.00  0.00     0.247 C 
ATOM     70  C   UNL A   1      33.402  27.546  24.780  1.00  0.00     0.235 C 
ATOM     71  N   UNL A   1      32.127  27.849  25.185  1.00  0.00    -0.250 N 
ATOM     72  O   UNL A   1      30.872  26.975  27.018  1.00  0.00    -0.273 OA
ATOM     73  O   UNL A   1      34.071  28.158  23.958  1.00  0.00    -0.274 OA
BRANCH  71  74
ATOM     74  C   UNL A   1      31.314  28.858  24.465  1.00  0.00     0.052 A 
ATOM     75  C   UNL A   1      30.442  28.467  23.420  1.00  0.00     0.028 A 
ATOM     76  C   UNL A   1      31.191  30.201  24.788  1.00  0.00     0.028 A 
ATOM     77  C   UNL A   1      29.293  29.217  23.033  1.00  0.00     0.022 A 
ATOM     78  C   UNL A   1      30.063  30.976  24.373  1.00  0.00     0.022 A 
ATOM     79  C   UNL A   1      29.051  30.441  23.606  1.00  0.00     0.041 A 
ATOM     80  Cl  UNL A   1      27.520  31.216  23.469  1.00  0.00    -0.084 Cl
ENDBRANCH  71  74
ENDBRANCH  66  67
ENDBRANCH  65  66
BRANCH  65  81
ATOM     81  C   UNL A   1      32.861  20.263  25.712  1.00  0.00     0.063 C 
BRANCH  81  82
ATOM     82  C   UNL A   1      33.015  19.231  24.513  1.00  0.00    -0.028 A 
ATOM     83  C   UNL A   1      34.101  18.325  24.580  1.00  0.00     0.005 A 
ATOM     84  C   UNL A   1      32.426  19.158  23.237  1.00  0.00     0.044 A 
ATOM     85  C   UNL A   1      34.282  17.211  23.720  1.00  0.00     0.000 A 
ATOM     86  C   UNL A   1      32.517  18.003  22.397  1.00  0.00     0.021 A 
ATOM     87  Cl  UNL A   1      31.977  20.548  22.337  1.00  0.00    -0.084 Cl
ATOM     88  C   UNL A   1      33.408  16.986  22.678  1.00  0.00     0.002 A 
ENDBRANCH  81  82
ENDBRANCH  65  81
ENDBRANCH  63  65
ENDBRANCH  62  63
ENDBRANCH   1  62
TORSDOF 16
ENDMDL
MODEL 3
REMARK VINA RESULT:     -14.3      3.744      6.893
REMARK SMILES O=C(OCCOC(=O)[C@H](Cc1ccccc1Cl)S[C@H]1CC(=O)N(c2ccc(Cl)cc2)C1=O)c1ccc(-c2c3nc(c(-c4c(F)cccc4F)c4ccc([nH]4)c(-c4c(F)cccc4F)c4nc(c(-c5c(F)cccc5F)c5ccc2[nH]5)C=C4)C=C3)cc1
REMARK SMILES IDX 5 1 4 2 3 3 2 4 1 5 33 6 34 7 86 8 35 9 85 10 36 11 37 12
REMARK SMILES IDX 38 13 79 14 39 15 84 16 78 17 80 18 40 19 83 20 77 21 76 22
REMARK SMILES IDX 41 24 67 25 50 26 66 27 51 28 54 29 65 30 81 31 52 32 53 33
REMARK SMILES IDX 64 35 82 36 55 37 42 38 43 39 48 40 44 41 45 42 47 43 49 44
REMARK SMILES IDX 46 45 68 46 69 47 74 48 70 49 71 50 73 51 75 52 72 53 56 54
REMARK SMILES IDX 57 55 62 56 58 57 59 58 61 59 63 60 60 61 6 62 7 63 8 64
REMARK SMILES IDX 9 65 18 66 19 67 20 68 31 69 21 70 23 71 32 72 22 73 24 74
REMARK SMILES IDX 25 75 30 76 26 77 29 78 27 79 28 80 10 81 11 82 12 83 16 84
REMARK SMILES IDX 13 85 15 86 17 87 14 88
REMARK H PARENT 80 23 54 34
REMARK Flexibility Score: inf
ROOT
ATOM      1  C   UNL A   1      32.876  28.796  25.904  1.00  0.00     0.274 C 
ENDROOT
BRANCH   1   2
ATOM      2  C   UNL A   1      33.133  30.242  26.413  1.00  0.00     0.275 C 
BRANCH   2   3
ATOM      3  O   UNL A   1      33.461  30.395  27.821  1.00  0.00    -0.458 OA
BRANCH   3   4
ATOM      4  C   UNL A   1      34.140  31.503  28.155  1.00  0.00     0.338 C 
ATOM      5  O   UNL A   1      33.723  32.643  27.988  1.00  0.00    -0.246 OA
BRANCH   4   6
ATOM      6  C   UNL A   1      35.604  31.202  28.430  1.00  0.00     0.060 A 
ATOM      7  C   UNL A   1      36.717  31.978  28.620  1.00  0.00     0.016 A 
ATOM      8  C   UNL A   1      35.884  29.871  28.579  1.00  0.00     0.016 A 
ATOM      9  C   UNL A   1      38.037  31.357  28.779  1.00  0.00     0.010 A 
ATOM     10  C   UNL A   1      37.138  29.236  28.796  1.00  0.00     0.010 A 
ATOM     11  C   UNL A   1      38.288  29.959  28.715  1.00  0.00    -0.014 A 
BRANCH  11  12
ATOM     12  C   UNL A   1      39.625  29.252  28.750  1.00  0.00     0.031 A 
ATOM     13  C   UNL A   1      39.977  27.782  28.531  1.00  0.00     0.074 A 
ATOM     14  C   UNL A   1      40.700  29.935  29.151  1.00  0.00     0.049 A 
ATOM     15  N   UNL A   1      40.866  27.262  27.713  1.00  0.00    -0.248 NA
ATOM     16  C   UNL A   1      39.370  26.735  29.356  1.00  0.00     0.031 C 
ATOM     17  C   UNL A   1      40.672  31.177  29.876  1.00  0.00     0.029 A 
ATOM     18  N   UNL A   1      42.024  29.692  28.934  1.00  0.00    -0.354 N 
ATOM     19  C   UNL A   1      40.650  25.878  27.736  1.00  0.00     0.074 A 
ATOM     20  C   UNL A   1      39.719  25.594  28.775  1.00  0.00     0.031 C 
ATOM     21  C   UNL A   1      41.897  31.716  29.877  1.00  0.00     0.029 A 
ATOM     22  C   UNL A   1      42.791  30.797  29.188  1.00  0.00     0.049 A 
ATOM     23  H   UNL A   1      42.384  28.827  28.633  1.00  0.00     0.167 HD
ATOM     24  C   UNL A   1      41.130  24.960  26.868  1.00  0.00     0.037 A 
ATOM     25  C   UNL A   1      44.060  31.046  28.837  1.00  0.00     0.037 A 
ATOM     26  C   UNL A   1      42.387  25.185  26.240  1.00  0.00     0.049 A 
ATOM     27  C   UNL A   1      44.771  30.010  28.016  1.00  0.00     0.074 A 
ATOM     28  C   UNL A   1      43.139  24.359  25.437  1.00  0.00     0.029 A 
ATOM     29  N   UNL A   1      43.147  26.309  26.520  1.00  0.00    -0.354 N 
ATOM     30  N   UNL A   1      44.317  28.878  27.525  1.00  0.00    -0.248 NA
ATOM     31  C   UNL A   1      46.174  30.287  27.701  1.00  0.00     0.031 C 
ATOM     32  C   UNL A   1      44.408  24.946  25.327  1.00  0.00     0.029 A 
ATOM     33  C   UNL A   1      44.408  26.157  26.010  1.00  0.00     0.049 A 
ATOM     34  H   UNL A   1      42.827  27.099  27.013  1.00  0.00     0.167 HD
ATOM     35  C   UNL A   1      45.385  28.298  26.853  1.00  0.00     0.074 A 
ATOM     36  C   UNL A   1      46.491  29.231  26.968  1.00  0.00     0.031 C 
ATOM     37  C   UNL A   1      45.468  27.107  26.206  1.00  0.00     0.037 A 
BRANCH  24  38
ATOM     38  C   UNL A   1      40.324  23.725  26.583  1.00  0.00     0.057 A 
ATOM     39  C   UNL A   1      40.867  22.464  26.888  1.00  0.00     0.134 A 
ATOM     40  C   UNL A   1      39.026  23.737  26.070  1.00  0.00     0.134 A 
ATOM     41  F   UNL A   1      42.064  22.360  27.481  1.00  0.00    -0.206 F 
ATOM     42  C   UNL A   1      40.189  21.270  26.630  1.00  0.00     0.040 A 
ATOM     43  C   UNL A   1      38.317  22.547  25.842  1.00  0.00     0.040 A 
ATOM     44  F   UNL A   1      38.419  24.897  25.785  1.00  0.00    -0.206 F 
ATOM     45  C   UNL A   1      38.903  21.309  26.108  1.00  0.00     0.006 A 
ENDBRANCH  24  38
BRANCH  25  46
ATOM     46  C   UNL A   1      44.675  32.338  29.227  1.00  0.00     0.057 A 
ATOM     47  C   UNL A   1      45.397  32.483  30.416  1.00  0.00     0.134 A 
ATOM     48  C   UNL A   1      44.608  33.450  28.375  1.00  0.00     0.134 A 
ATOM     49  F   UNL A   1      45.513  31.454  31.268  1.00  0.00    -0.206 F 
ATOM     50  C   UNL A   1      46.008  33.692  30.754  1.00  0.00     0.040 A 
ATOM     51  C   UNL A   1      45.242  34.651  28.683  1.00  0.00     0.040 A 
ATOM     52  F   UNL A   1      43.961  33.364  27.203  1.00  0.00    -0.206 F 
ATOM     53  C   UNL A   1      45.937  34.777  29.883  1.00  0.00     0.006 A 
ENDBRANCH  25  46
BRANCH  37  54
ATOM     54  C   UNL A   1      46.797  26.743  25.642  1.00  0.00     0.057 A 
ATOM     55  C   UNL A   1      47.222  27.244  24.407  1.00  0.00     0.134 A 
ATOM     56  C   UNL A   1      47.677  25.938  26.372  1.00  0.00     0.134 A 
ATOM     57  F   UNL A   1      46.413  28.021  23.671  1.00  0.00    -0.206 F 
ATOM     58  C   UNL A   1      48.477  26.924  23.898  1.00  0.00     0.040 A 
ATOM     59  C   UNL A   1      48.946  25.640  25.888  1.00  0.00     0.040 A 
ATOM     60  F   UNL A   1      47.324  25.455  27.573  1.00  0.00    -0.206 F 
ATOM     61  C   UNL A   1      49.344  26.126  24.643  1.00  0.00     0.006 A 
ENDBRANCH  37  54
ENDBRANCH  11  12
ENDBRANCH   4   6
ENDBRANCH   3   4
ENDBRANCH   2   3
ENDBRANCH   1   2
BRANCH   1  62
ATOM     62  O   UNL A   1      31.730  28.754  25.042  1.00  0.00    -0.461 OA
BRANCH  62  63
ATOM     63  C   UNL A   1      30.973  27.628  25.013  1.00  0.00     0.319 C 
ATOM     64  O   UNL A   1      30.736  26.913  25.953  1.00  0.00    -0.251 OA
BRANCH  63  65
ATOM     65  C   UNL A   1      30.495  27.418  23.577  1.00  0.00     0.161 C 
BRANCH  65  66
ATOM     66  S   UNL A   1      31.564  25.694  22.757  1.00  0.00    -0.132 SA
BRANCH  66  67
ATOM     67  C   UNL A   1      33.398  24.980  23.615  1.00  0.00     0.147 C 
ATOM     68  C   UNL A   1      34.056  25.087  24.978  1.00  0.00     0.125 C 
ATOM     69  C   UNL A   1      33.812  23.530  23.279  1.00  0.00     0.247 C 
ATOM     70  C   UNL A   1      34.134  23.663  25.501  1.00  0.00     0.235 C 
ATOM     71  N   UNL A   1      34.035  22.784  24.452  1.00  0.00    -0.250 N 
ATOM     72  O   UNL A   1      33.947  23.227  22.109  1.00  0.00    -0.273 OA
ATOM     73  O   UNL A   1      34.372  23.382  26.668  1.00  0.00    -0.274 OA
BRANCH  71  74
ATOM     74  C   UNL A   1      33.975  21.321  24.682  1.00  0.00     0.052 A 
ATOM     75  C   UNL A   1      32.760  20.614  24.512  1.00  0.00     0.028 A 
ATOM     76  C   UNL A   1      35.050  20.481  24.931  1.00  0.00     0.028 A 
ATOM     77  C   UNL A   1      32.696  19.223  24.207  1.00  0.00     0.022 A 
ATOM     78  C   UNL A   1      34.986  19.077  24.667  1.00  0.00     0.022 A 
ATOM     79  C   UNL A   1      33.847  18.476  24.179  1.00  0.00     0.041 A 
ATOM     80  Cl  UNL A   1      33.890  16.909  23.466  1.00  0.00    -0.084 Cl
ENDBRANCH  71  74
ENDBRANCH  66  67
ENDBRANCH  65  66
BRANCH  65  81
ATOM     81  C   UNL A   1      29.175  28.448  23.137  1.00  0.00     0.063 C 
BRANCH  81  82
ATOM     82  C   UNL A   1      28.888  29.964  22.758  1.00  0.00    -0.028 A 
ATOM     83  C   UNL A   1      28.829  30.282  21.379  1.00  0.00     0.005 A 
ATOM     84  C   UNL A   1      28.903  31.154  23.509  1.00  0.00     0.044 A 
ATOM     85  C   UNL A   1      28.386  31.522  20.851  1.00  0.00     0.000 A 
ATOM     86  C   UNL A   1      28.371  32.392  23.027  1.00  0.00     0.021 A 
ATOM     87  Cl  UNL A   1      29.965  31.406  24.833  1.00  0.00    -0.084 Cl
ATOM     88  C   UNL A   1      28.045  32.557  21.696  1.00  0.00     0.002 A 
ENDBRANCH  81  82
ENDBRANCH  65  81
ENDBRANCH  63  65
ENDBRANCH  62  63
ENDBRANCH   1  62
TORSDOF 16
ENDMDL
