MODEL 1
REMARK VINA RESULT:     -10.5      0.000      0.000
REMARK SMILES CC(C)C[C@@H](NS(=O)(=O)c1ccc(CC#N)cc1)C(=O)OCCOC(=O)c1ccc(-c2c3nc(c(-c4c(F)cccc4F)c4ccc([nH]4)c(-c4c(F)cccc4F)c4nc(c(-c5c(F)cccc5F)c5ccc2[nH]5)C=C4)C=C3)cc1
REMARK SMILES IDX 21 1 19 2 20 3 5 4 4 5 2 6 1 7 3 8 6 9 7 11 8 12 9 13 10 14
REMARK SMILES IDX 11 15 18 16 12 17 17 18 13 19 14 20 15 21 16 22 22 23 23 24
REMARK SMILES IDX 24 25 25 26 26 27 27 28 28 29 80 30 29 31 79 32 30 33 31 34
REMARK SMILES IDX 32 35 73 36 33 37 78 38 72 39 74 40 34 41 77 42 71 43 70 44
REMARK SMILES IDX 35 46 61 47 44 48 60 49 45 50 48 51 59 52 75 53 46 54 47 55
REMARK SMILES IDX 58 57 76 58 49 59 36 60 37 61 42 62 38 63 39 64 41 65 43 66
REMARK SMILES IDX 40 67 62 68 63 69 68 70 64 71 65 72 67 73 69 74 66 75 50 76
REMARK SMILES IDX 51 77 56 78 52 79 53 80 55 81 57 82 54 83
REMARK H PARENT 6 10 74 45 48 56
REMARK Flexibility Score: inf
ROOT
ATOM      1  O   UNL A   1      34.483  21.551  24.644  1.00  0.00    -0.461 OA
ENDROOT
BRANCH   1   2
ATOM      2  C   UNL A   1      33.141  21.421  24.464  1.00  0.00     0.324 C 
ATOM      3  O   UNL A   1      32.583  20.357  24.221  1.00  0.00    -0.250 OA
BRANCH   2   4
ATOM      4  C   UNL A   1      32.379  22.742  24.537  1.00  0.00     0.180 C 
BRANCH   4   5
ATOM      5  C   UNL A   1      32.085  23.306  23.137  1.00  0.00     0.035 C 
BRANCH   5   6
ATOM      6  C   UNL A   1      33.138  24.289  22.575  1.00  0.00    -0.015 C 
ATOM      7  C   UNL A   1      32.528  25.497  21.858  1.00  0.00     0.007 C 
ATOM      8  C   UNL A   1      34.017  24.794  23.725  1.00  0.00     0.007 C 
ENDBRANCH   5   6
ENDBRANCH   4   5
BRANCH   4   9
ATOM      9  N   UNL A   1      31.141  22.612  25.335  1.00  0.00    -0.197 NA
ATOM     10  H   UNL A   1      31.068  21.635  25.623  1.00  0.00     0.142 HD
BRANCH   9  11
ATOM     11  S   UNL A   1      30.985  23.559  26.731  1.00  0.00     0.241 S 
ATOM     12  O   UNL A   1      29.665  23.310  27.271  1.00  0.00    -0.207 OA
ATOM     13  O   UNL A   1      32.180  23.325  27.507  1.00  0.00    -0.207 OA
BRANCH  11  14
ATOM     14  C   UNL A   1      31.065  25.222  26.123  1.00  0.00     0.082 A 
ATOM     15  C   UNL A   1      32.140  26.027  26.501  1.00  0.00     0.022 A 
ATOM     16  C   UNL A   1      30.146  25.661  25.163  1.00  0.00     0.022 A 
ATOM     17  C   UNL A   1      32.333  27.249  25.861  1.00  0.00     0.006 A 
ATOM     18  C   UNL A   1      30.343  26.889  24.524  1.00  0.00     0.006 A 
ATOM     19  C   UNL A   1      31.452  27.683  24.848  1.00  0.00    -0.034 A 
BRANCH  19  20
ATOM     20  C   UNL A   1      31.663  29.037  24.191  1.00  0.00     0.155 C 
BRANCH  20  21
ATOM     21  C   UNL A   1      32.955  28.925  23.399  1.00  0.00     0.067 C 
ATOM     22  N   UNL A   1      34.027  28.833  22.741  1.00  0.00    -0.198 NA
ENDBRANCH  20  21
ENDBRANCH  19  20
ENDBRANCH  11  14
ENDBRANCH   9  11
ENDBRANCH   4   9
ENDBRANCH   2   4
ENDBRANCH   1   2
BRANCH   1  23
ATOM     23  C   UNL A   1      35.136  20.427  25.270  1.00  0.00     0.274 C 
BRANCH  23  24
ATOM     24  C   UNL A   1      36.639  20.335  24.968  1.00  0.00     0.275 C 
BRANCH  24  25
ATOM     25  O   UNL A   1      37.376  21.452  25.502  1.00  0.00    -0.458 OA
BRANCH  25  26
ATOM     26  C   UNL A   1      38.631  21.157  25.919  1.00  0.00     0.338 C 
ATOM     27  O   UNL A   1      39.238  20.116  25.714  1.00  0.00    -0.246 OA
BRANCH  26  28
ATOM     28  C   UNL A   1      39.286  22.348  26.499  1.00  0.00     0.060 A 
ATOM     29  C   UNL A   1      38.797  23.600  26.106  1.00  0.00     0.016 A 
ATOM     30  C   UNL A   1      40.377  22.258  27.363  1.00  0.00     0.016 A 
ATOM     31  C   UNL A   1      39.393  24.768  26.562  1.00  0.00     0.010 A 
ATOM     32  C   UNL A   1      40.999  23.434  27.799  1.00  0.00     0.010 A 
ATOM     33  C   UNL A   1      40.520  24.691  27.383  1.00  0.00    -0.014 A 
BRANCH  33  34
ATOM     34  C   UNL A   1      41.278  25.927  27.674  1.00  0.00     0.031 A 
ATOM     35  C   UNL A   1      40.613  27.007  28.478  1.00  0.00     0.074 A 
ATOM     36  C   UNL A   1      42.556  26.059  27.280  1.00  0.00     0.049 A 
ATOM     37  N   UNL A   1      41.054  28.197  28.794  1.00  0.00    -0.248 NA
ATOM     38  C   UNL A   1      39.271  26.701  28.999  1.00  0.00     0.031 C 
ATOM     39  C   UNL A   1      43.330  25.042  26.571  1.00  0.00     0.029 A 
ATOM     40  N   UNL A   1      43.425  27.108  27.425  1.00  0.00    -0.354 N 
ATOM     41  C   UNL A   1      40.041  28.786  29.537  1.00  0.00     0.074 A 
ATOM     42  C   UNL A   1      38.958  27.830  29.618  1.00  0.00     0.031 C 
ATOM     43  C   UNL A   1      44.562  25.526  26.329  1.00  0.00     0.029 A 
ATOM     44  C   UNL A   1      44.646  26.894  26.835  1.00  0.00     0.049 A 
ATOM     45  H   UNL A   1      43.197  27.936  27.908  1.00  0.00     0.167 HD
ATOM     46  C   UNL A   1      40.018  30.017  30.101  1.00  0.00     0.037 A 
ATOM     47  C   UNL A   1      45.697  27.723  26.696  1.00  0.00     0.037 A 
ATOM     48  C   UNL A   1      41.099  30.961  30.023  1.00  0.00     0.049 A 
ATOM     49  C   UNL A   1      45.618  29.114  27.264  1.00  0.00     0.074 A 
ATOM     50  C   UNL A   1      41.170  32.239  30.549  1.00  0.00     0.029 A 
ATOM     51  N   UNL A   1      42.303  30.724  29.379  1.00  0.00    -0.354 N 
ATOM     52  N   UNL A   1      44.645  29.677  27.940  1.00  0.00    -0.248 NA
ATOM     53  C   UNL A   1      46.780  29.988  27.045  1.00  0.00     0.031 C 
ATOM     54  C   UNL A   1      42.406  32.789  30.192  1.00  0.00     0.029 A 
ATOM     55  C   UNL A   1      43.119  31.839  29.479  1.00  0.00     0.049 A 
ATOM     56  H   UNL A   1      42.544  29.888  28.919  1.00  0.00     0.167 HD
ATOM     57  C   UNL A   1      45.084  30.958  28.245  1.00  0.00     0.074 A 
ATOM     58  C   UNL A   1      46.415  31.089  27.688  1.00  0.00     0.031 C 
ATOM     59  C   UNL A   1      44.444  31.941  28.923  1.00  0.00     0.037 A 
BRANCH  46  60
ATOM     60  C   UNL A   1      38.764  30.420  30.815  1.00  0.00     0.057 A 
ATOM     61  C   UNL A   1      38.555  30.123  32.168  1.00  0.00     0.134 A 
ATOM     62  C   UNL A   1      37.761  31.127  30.143  1.00  0.00     0.134 A 
ATOM     63  F   UNL A   1      39.470  29.430  32.862  1.00  0.00    -0.206 F 
ATOM     64  C   UNL A   1      37.382  30.503  32.822  1.00  0.00     0.040 A 
ATOM     65  C   UNL A   1      36.592  31.530  30.791  1.00  0.00     0.040 A 
ATOM     66  F   UNL A   1      37.899  31.438  28.846  1.00  0.00    -0.206 F 
ATOM     67  C   UNL A   1      36.399  31.214  32.135  1.00  0.00     0.006 A 
ENDBRANCH  46  60
BRANCH  47  68
ATOM     68  C   UNL A   1      46.905  27.273  25.959  1.00  0.00     0.057 A 
ATOM     69  C   UNL A   1      47.021  27.450  24.577  1.00  0.00     0.134 A 
ATOM     70  C   UNL A   1      47.963  26.639  26.622  1.00  0.00     0.134 A 
ATOM     71  F   UNL A   1      46.028  28.027  23.883  1.00  0.00    -0.206 F 
ATOM     72  C   UNL A   1      48.143  27.003  23.876  1.00  0.00     0.040 A 
ATOM     73  C   UNL A   1      49.099  26.206  25.937  1.00  0.00     0.040 A 
ATOM     74  F   UNL A   1      47.909  26.436  27.946  1.00  0.00    -0.206 F 
ATOM     75  C   UNL A   1      49.189  26.382  24.557  1.00  0.00     0.006 A 
ENDBRANCH  47  68
BRANCH  59  76
ATOM     76  C   UNL A   1      45.186  33.227  29.129  1.00  0.00     0.057 A 
ATOM     77  C   UNL A   1      46.036  33.419  30.224  1.00  0.00     0.134 A 
ATOM     78  C   UNL A   1      45.082  34.267  28.196  1.00  0.00     0.134 A 
ATOM     79  F   UNL A   1      46.169  32.464  31.157  1.00  0.00    -0.206 F 
ATOM     80  C   UNL A   1      46.747  34.607  30.394  1.00  0.00     0.040 A 
ATOM     81  C   UNL A   1      45.803  35.451  28.344  1.00  0.00     0.040 A 
ATOM     82  F   UNL A   1      44.290  34.140  27.122  1.00  0.00    -0.206 F 
ATOM     83  C   UNL A   1      46.636  35.626  29.448  1.00  0.00     0.006 A 
ENDBRANCH  59  76
ENDBRANCH  33  34
ENDBRANCH  26  28
ENDBRANCH  25  26
ENDBRANCH  24  25
ENDBRANCH  23  24
ENDBRANCH   1  23
TORSDOF 18
ENDMDL
MODEL 2
REMARK VINA RESULT:     -10.4      1.441      2.473
REMARK SMILES CC(C)C[C@@H](NS(=O)(=O)c1ccc(CC#N)cc1)C(=O)OCCOC(=O)c1ccc(-c2c3nc(c(-c4c(F)cccc4F)c4ccc([nH]4)c(-c4c(F)cccc4F)c4nc(c(-c5c(F)cccc5F)c5ccc2[nH]5)C=C4)C=C3)cc1
REMARK SMILES IDX 21 1 19 2 20 3 5 4 4 5 2 6 1 7 3 8 6 9 7 11 8 12 9 13 10 14
REMARK SMILES IDX 11 15 18 16 12 17 17 18 13 19 14 20 15 21 16 22 22 23 23 24
REMARK SMILES IDX 24 25 25 26 26 27 27 28 28 29 80 30 29 31 79 32 30 33 31 34
REMARK SMILES IDX 32 35 73 36 33 37 78 38 72 39 74 40 34 41 77 42 71 43 70 44
REMARK SMILES IDX 35 46 61 47 44 48 60 49 45 50 48 51 59 52 75 53 46 54 47 55
REMARK SMILES IDX 58 57 76 58 49 59 36 60 37 61 42 62 38 63 39 64 41 65 43 66
REMARK SMILES IDX 40 67 62 68 63 69 68 70 64 71 65 72 67 73 69 74 66 75 50 76
REMARK SMILES IDX 51 77 56 78 52 79 53 80 55 81 57 82 54 83
REMARK H PARENT 6 10 74 45 48 56
REMARK Flexibility Score: inf
ROOT
ATOM      1  O   UNL A   1      35.316  22.978  24.922  1.00  0.00    -0.461 OA
ENDROOT
BRANCH   1   2
ATOM      2  C   UNL A   1      34.453  23.620  25.754  1.00  0.00     0.324 C 
ATOM      3  O   UNL A   1      34.275  23.310  26.927  1.00  0.00    -0.250 OA
BRANCH   2   4
ATOM      4  C   UNL A   1      33.669  24.745  25.082  1.00  0.00     0.180 C 
BRANCH   4   5
ATOM      5  C   UNL A   1      33.944  26.104  25.747  1.00  0.00     0.035 C 
BRANCH   5   6
ATOM      6  C   UNL A   1      32.870  27.193  25.516  1.00  0.00    -0.015 C 
ATOM      7  C   UNL A   1      31.946  27.407  26.718  1.00  0.00     0.007 C 
ATOM      8  C   UNL A   1      33.565  28.521  25.190  1.00  0.00     0.007 C 
ENDBRANCH   5   6
ENDBRANCH   4   5
BRANCH   4   9
ATOM      9  N   UNL A   1      33.930  24.796  23.627  1.00  0.00    -0.197 NA
ATOM     10  H   UNL A   1      34.766  24.237  23.451  1.00  0.00     0.142 HD
BRANCH   9  11
ATOM     11  S   UNL A   1      32.723  24.239  22.578  1.00  0.00     0.241 S 
ATOM     12  O   UNL A   1      33.278  24.257  21.241  1.00  0.00    -0.207 OA
ATOM     13  O   UNL A   1      32.209  23.026  23.170  1.00  0.00    -0.207 OA
BRANCH  11  14
ATOM     14  C   UNL A   1      31.455  25.470  22.703  1.00  0.00     0.082 A 
ATOM     15  C   UNL A   1      30.361  25.228  23.535  1.00  0.00     0.022 A 
ATOM     16  C   UNL A   1      31.629  26.718  22.096  1.00  0.00     0.022 A 
ATOM     17  C   UNL A   1      29.476  26.268  23.813  1.00  0.00     0.006 A 
ATOM     18  C   UNL A   1      30.738  27.758  22.377  1.00  0.00     0.006 A 
ATOM     19  C   UNL A   1      29.667  27.551  23.258  1.00  0.00    -0.034 A 
BRANCH  19  20
ATOM     20  C   UNL A   1      28.668  28.658  23.549  1.00  0.00     0.155 C 
BRANCH  20  21
ATOM     21  C   UNL A   1      28.522  29.445  22.257  1.00  0.00     0.067 C 
ATOM     22  N   UNL A   1      28.400  30.098  21.185  1.00  0.00    -0.198 NA
ENDBRANCH  20  21
ENDBRANCH  19  20
ENDBRANCH  11  14
ENDBRANCH   9  11
ENDBRANCH   4   9
ENDBRANCH   2   4
ENDBRANCH   1   2
BRANCH   1  23
ATOM     23  C   UNL A   1      35.115  21.555  24.799  1.00  0.00     0.274 C 
BRANCH  23  24
ATOM     24  C   UNL A   1      36.349  20.719  25.170  1.00  0.00     0.275 C 
BRANCH  24  25
ATOM     25  O   UNL A   1      37.582  21.429  24.943  1.00  0.00    -0.458 OA
BRANCH  25  26
ATOM     26  C   UNL A   1      38.612  21.047  25.737  1.00  0.00     0.338 C 
ATOM     27  O   UNL A   1      39.072  19.919  25.836  1.00  0.00    -0.246 OA
BRANCH  26  28
ATOM     28  C   UNL A   1      39.273  22.222  26.341  1.00  0.00     0.060 A 
ATOM     29  C   UNL A   1      38.766  23.483  26.006  1.00  0.00     0.016 A 
ATOM     30  C   UNL A   1      40.387  22.110  27.173  1.00  0.00     0.016 A 
ATOM     31  C   UNL A   1      39.365  24.640  26.488  1.00  0.00     0.010 A 
ATOM     32  C   UNL A   1      41.012  23.275  27.635  1.00  0.00     0.010 A 
ATOM     33  C   UNL A   1      40.514  24.542  27.276  1.00  0.00    -0.014 A 
BRANCH  33  34
ATOM     34  C   UNL A   1      41.270  25.772  27.592  1.00  0.00     0.031 A 
ATOM     35  C   UNL A   1      40.599  26.843  28.403  1.00  0.00     0.074 A 
ATOM     36  C   UNL A   1      42.552  25.908  27.213  1.00  0.00     0.049 A 
ATOM     37  N   UNL A   1      41.038  28.028  28.740  1.00  0.00    -0.248 NA
ATOM     38  C   UNL A   1      39.251  26.532  28.907  1.00  0.00     0.031 C 
ATOM     39  C   UNL A   1      43.332  24.900  26.498  1.00  0.00     0.029 A 
ATOM     40  N   UNL A   1      43.422  26.954  27.381  1.00  0.00    -0.354 N 
ATOM     41  C   UNL A   1      40.019  28.609  29.480  1.00  0.00     0.074 A 
ATOM     42  C   UNL A   1      38.933  27.653  29.537  1.00  0.00     0.031 C 
ATOM     43  C   UNL A   1      44.567  25.384  26.275  1.00  0.00     0.029 A 
ATOM     44  C   UNL A   1      44.648  26.745  26.800  1.00  0.00     0.049 A 
ATOM     45  H   UNL A   1      43.190  27.775  27.872  1.00  0.00     0.167 HD
ATOM     46  C   UNL A   1      39.991  29.831  30.061  1.00  0.00     0.037 A 
ATOM     47  C   UNL A   1      45.702  27.575  26.683  1.00  0.00     0.037 A 
ATOM     48  C   UNL A   1      41.075  30.775  30.007  1.00  0.00     0.049 A 
ATOM     49  C   UNL A   1      45.619  28.959  27.269  1.00  0.00     0.074 A 
ATOM     50  C   UNL A   1      41.142  32.045  30.551  1.00  0.00     0.029 A 
ATOM     51  N   UNL A   1      42.285  30.545  29.372  1.00  0.00    -0.354 N 
ATOM     52  N   UNL A   1      44.640  29.513  27.943  1.00  0.00    -0.248 NA
ATOM     53  C   UNL A   1      46.784  29.833  27.073  1.00  0.00     0.031 C 
ATOM     54  C   UNL A   1      42.382  32.599  30.214  1.00  0.00     0.029 A 
ATOM     55  C   UNL A   1      43.101  31.657  29.495  1.00  0.00     0.049 A 
ATOM     56  H   UNL A   1      42.529  29.714  28.903  1.00  0.00     0.167 HD
ATOM     57  C   UNL A   1      45.078  30.790  28.269  1.00  0.00     0.074 A 
ATOM     58  C   UNL A   1      46.414  30.926  27.728  1.00  0.00     0.031 C 
ATOM     59  C   UNL A   1      44.432  31.765  28.954  1.00  0.00     0.037 A 
BRANCH  46  60
ATOM     60  C   UNL A   1      38.731  30.227  30.768  1.00  0.00     0.057 A 
ATOM     61  C   UNL A   1      37.718  30.949  30.125  1.00  0.00     0.134 A 
ATOM     62  C   UNL A   1      38.524  29.866  32.104  1.00  0.00     0.134 A 
ATOM     63  F   UNL A   1      37.865  31.342  28.851  1.00  0.00    -0.206 F 
ATOM     64  C   UNL A   1      36.548  31.313  30.794  1.00  0.00     0.040 A 
ATOM     65  C   UNL A   1      37.350  30.206  32.778  1.00  0.00     0.040 A 
ATOM     66  F   UNL A   1      39.458  29.177  32.776  1.00  0.00    -0.206 F 
ATOM     67  C   UNL A   1      36.359  30.936  32.123  1.00  0.00     0.006 A 
ENDBRANCH  46  60
BRANCH  47  68
ATOM     68  C   UNL A   1      46.916  27.133  25.953  1.00  0.00     0.057 A 
ATOM     69  C   UNL A   1      47.982  26.520  26.618  1.00  0.00     0.134 A 
ATOM     70  C   UNL A   1      47.044  27.332  24.572  1.00  0.00     0.134 A 
ATOM     71  F   UNL A   1      47.929  26.327  27.945  1.00  0.00    -0.206 F 
ATOM     72  C   UNL A   1      49.138  26.129  25.941  1.00  0.00     0.040 A 
ATOM     73  C   UNL A   1      48.186  26.927  23.879  1.00  0.00     0.040 A 
ATOM     74  F   UNL A   1      46.059  27.919  23.878  1.00  0.00    -0.206 F 
ATOM     75  C   UNL A   1      49.240  26.328  24.565  1.00  0.00     0.006 A 
ENDBRANCH  47  68
BRANCH  59  76
ATOM     76  C   UNL A   1      45.174  33.046  29.185  1.00  0.00     0.057 A 
ATOM     77  C   UNL A   1      46.014  33.222  30.291  1.00  0.00     0.134 A 
ATOM     78  C   UNL A   1      45.081  34.099  28.266  1.00  0.00     0.134 A 
ATOM     79  F   UNL A   1      46.136  32.254  31.212  1.00  0.00    -0.206 F 
ATOM     80  C   UNL A   1      46.724  34.407  30.484  1.00  0.00     0.040 A 
ATOM     81  C   UNL A   1      45.801  35.280  28.437  1.00  0.00     0.040 A 
ATOM     82  F   UNL A   1      44.299  33.988  27.181  1.00  0.00    -0.206 F 
ATOM     83  C   UNL A   1      46.624  35.439  29.551  1.00  0.00     0.006 A 
ENDBRANCH  59  76
ENDBRANCH  33  34
ENDBRANCH  26  28
ENDBRANCH  25  26
ENDBRANCH  24  25
ENDBRANCH  23  24
ENDBRANCH   1  23
TORSDOF 18
ENDMDL
MODEL 3
REMARK VINA RESULT:     -10.2      4.336      7.090
REMARK SMILES CC(C)C[C@@H](NS(=O)(=O)c1ccc(CC#N)cc1)C(=O)OCCOC(=O)c1ccc(-c2c3nc(c(-c4c(F)cccc4F)c4ccc([nH]4)c(-c4c(F)cccc4F)c4nc(c(-c5c(F)cccc5F)c5ccc2[nH]5)C=C4)C=C3)cc1
REMARK SMILES IDX 21 1 19 2 20 3 5 4 4 5 2 6 1 7 3 8 6 9 7 11 8 12 9 13 10 14
REMARK SMILES IDX 11 15 18 16 12 17 17 18 13 19 14 20 15 21 16 22 22 23 23 24
REMARK SMILES IDX 24 25 25 26 26 27 27 28 28 29 80 30 29 31 79 32 30 33 31 34
REMARK SMILES IDX 32 35 73 36 33 37 78 38 72 39 74 40 34 41 77 42 71 43 70 44
REMARK SMILES IDX 35 46 61 47 44 48 60 49 45 50 48 51 59 52 75 53 46 54 47 55
REMARK SMILES IDX 58 57 76 58 49 59 36 60 37 61 42 62 38 63 39 64 41 65 43 66
REMARK SMILES IDX 40 67 62 68 63 69 68 70 64 71 65 72 67 73 69 74 66 75 50 76
REMARK SMILES IDX 51 77 56 78 52 79 53 80 55 81 57 82 54 83
REMARK H PARENT 6 10 74 45 48 56
REMARK Flexibility Score: inf
ROOT
ATOM      1  O   UNL A   1      31.835  29.257  26.383  1.00  0.00    -0.461 OA
ENDROOT
BRANCH   1   2
ATOM      2  C   UNL A   1      32.847  28.490  25.895  1.00  0.00     0.324 C 
ATOM      3  O   UNL A   1      34.000  28.884  25.761  1.00  0.00    -0.250 OA
BRANCH   2   4
ATOM      4  C   UNL A   1      32.409  27.091  25.468  1.00  0.00     0.180 C 
BRANCH   4   5
ATOM      5  C   UNL A   1      32.898  26.017  26.454  1.00  0.00     0.035 C 
BRANCH   5   6
ATOM      6  C   UNL A   1      33.536  24.762  25.817  1.00  0.00    -0.015 C 
ATOM      7  C   UNL A   1      32.511  23.730  25.335  1.00  0.00     0.007 C 
ATOM      8  C   UNL A   1      34.400  25.188  24.624  1.00  0.00     0.007 C 
ENDBRANCH   5   6
ENDBRANCH   4   5
BRANCH   4   9
ATOM      9  N   UNL A   1      30.946  27.015  25.271  1.00  0.00    -0.197 NA
ATOM     10  H   UNL A   1      30.562  27.932  25.504  1.00  0.00     0.142 HD
BRANCH   9  11
ATOM     11  S   UNL A   1      30.364  26.603  23.735  1.00  0.00     0.241 S 
ATOM     12  O   UNL A   1      31.508  26.223  22.933  1.00  0.00    -0.207 OA
ATOM     13  O   UNL A   1      29.259  25.701  23.956  1.00  0.00    -0.207 OA
BRANCH  11  14
ATOM     14  C   UNL A   1      29.694  28.122  23.116  1.00  0.00     0.082 A 
ATOM     15  C   UNL A   1      30.543  29.019  22.468  1.00  0.00     0.022 A 
ATOM     16  C   UNL A   1      28.312  28.341  23.147  1.00  0.00     0.022 A 
ATOM     17  C   UNL A   1      29.994  30.104  21.788  1.00  0.00     0.006 A 
ATOM     18  C   UNL A   1      27.766  29.432  22.464  1.00  0.00     0.006 A 
ATOM     19  C   UNL A   1      28.599  30.310  21.756  1.00  0.00    -0.034 A 
BRANCH  19  20
ATOM     20  C   UNL A   1      28.029  31.521  21.038  1.00  0.00     0.155 C 
BRANCH  20  21
ATOM     21  C   UNL A   1      28.235  32.703  21.971  1.00  0.00     0.067 C 
ATOM     22  N   UNL A   1      28.407  33.683  22.745  1.00  0.00    -0.198 NA
ENDBRANCH  20  21
ENDBRANCH  19  20
ENDBRANCH  11  14
ENDBRANCH   9  11
ENDBRANCH   4   9
ENDBRANCH   2   4
ENDBRANCH   1   2
BRANCH   1  23
ATOM     23  C   UNL A   1      31.738  30.584  25.826  1.00  0.00     0.274 C 
BRANCH  23  24
ATOM     24  C   UNL A   1      31.724  31.701  26.879  1.00  0.00     0.275 C 
BRANCH  24  25
ATOM     25  O   UNL A   1      32.684  32.736  26.594  1.00  0.00    -0.458 OA
BRANCH  25  26
ATOM     26  C   UNL A   1      33.178  33.369  27.686  1.00  0.00     0.338 C 
ATOM     27  O   UNL A   1      32.609  34.226  28.347  1.00  0.00    -0.246 OA
BRANCH  26  28
ATOM     28  C   UNL A   1      34.443  32.747  28.128  1.00  0.00     0.060 A 
ATOM     29  C   UNL A   1      34.403  31.388  28.463  1.00  0.00     0.016 A 
ATOM     30  C   UNL A   1      35.628  33.470  28.261  1.00  0.00     0.016 A 
ATOM     31  C   UNL A   1      35.536  30.741  28.939  1.00  0.00     0.010 A 
ATOM     32  C   UNL A   1      36.763  32.829  28.771  1.00  0.00     0.010 A 
ATOM     33  C   UNL A   1      36.714  31.469  29.130  1.00  0.00    -0.014 A 
BRANCH  33  34
ATOM     34  C   UNL A   1      37.839  30.830  29.846  1.00  0.00     0.031 A 
ATOM     35  C   UNL A   1      38.073  31.187  31.285  1.00  0.00     0.074 A 
ATOM     36  C   UNL A   1      38.603  29.905  29.240  1.00  0.00     0.049 A 
ATOM     37  N   UNL A   1      39.033  30.809  32.089  1.00  0.00    -0.248 NA
ATOM     38  C   UNL A   1      37.086  32.087  31.904  1.00  0.00     0.031 C 
ATOM     39  C   UNL A   1      38.415  29.417  27.875  1.00  0.00     0.029 A 
ATOM     40  N   UNL A   1      39.690  29.211  29.702  1.00  0.00    -0.354 N 
ATOM     41  C   UNL A   1      38.776  31.435  33.300  1.00  0.00     0.074 A 
ATOM     42  C   UNL A   1      37.576  32.226  33.127  1.00  0.00     0.031 C 
ATOM     43  C   UNL A   1      39.369  28.508  27.604  1.00  0.00     0.029 A 
ATOM     44  C   UNL A   1      40.250  28.381  28.762  1.00  0.00     0.049 A 
ATOM     45  H   UNL A   1      40.036  29.298  30.620  1.00  0.00     0.167 HD
ATOM     46  C   UNL A   1      39.480  31.357  34.454  1.00  0.00     0.037 A 
ATOM     47  C   UNL A   1      41.365  27.629  28.827  1.00  0.00     0.037 A 
ATOM     48  C   UNL A   1      40.668  30.566  34.623  1.00  0.00     0.049 A 
ATOM     49  C   UNL A   1      42.174  27.619  30.096  1.00  0.00     0.074 A 
ATOM     50  C   UNL A   1      41.462  30.429  35.747  1.00  0.00     0.029 A 
ATOM     51  N   UNL A   1      41.230  29.772  33.635  1.00  0.00    -0.354 N 
ATOM     52  N   UNL A   1      41.942  28.238  31.229  1.00  0.00    -0.248 NA
ATOM     53  C   UNL A   1      43.403  26.813  30.093  1.00  0.00     0.031 C 
ATOM     54  C   UNL A   1      42.526  29.578  35.428  1.00  0.00     0.029 A 
ATOM     55  C   UNL A   1      42.371  29.155  34.118  1.00  0.00     0.049 A 
ATOM     56  H   UNL A   1      40.870  29.663  32.725  1.00  0.00     0.167 HD
ATOM     57  C   UNL A   1      42.981  27.879  32.078  1.00  0.00     0.074 A 
ATOM     58  C   UNL A   1      43.840  26.982  31.334  1.00  0.00     0.031 C 
ATOM     59  C   UNL A   1      43.206  28.259  33.360  1.00  0.00     0.037 A 
BRANCH  46  60
ATOM     60  C   UNL A   1      38.999  32.184  35.607  1.00  0.00     0.057 A 
ATOM     61  C   UNL A   1      38.184  31.649  36.612  1.00  0.00     0.134 A 
ATOM     62  C   UNL A   1      39.370  33.529  35.719  1.00  0.00     0.134 A 
ATOM     63  F   UNL A   1      37.777  30.373  36.550  1.00  0.00    -0.206 F 
ATOM     64  C   UNL A   1      37.741  32.430  37.681  1.00  0.00     0.040 A 
ATOM     65  C   UNL A   1      38.951  34.314  36.794  1.00  0.00     0.040 A 
ATOM     66  F   UNL A   1      40.147  34.101  34.787  1.00  0.00    -0.206 F 
ATOM     67  C   UNL A   1      38.130  33.765  37.777  1.00  0.00     0.006 A 
ENDBRANCH  46  60
BRANCH  47  68
ATOM     68  C   UNL A   1      41.802  26.847  27.644  1.00  0.00     0.057 A 
ATOM     69  C   UNL A   1      42.626  27.410  26.664  1.00  0.00     0.134 A 
ATOM     70  C   UNL A   1      41.388  25.522  27.458  1.00  0.00     0.134 A 
ATOM     71  F   UNL A   1      43.032  28.684  26.773  1.00  0.00    -0.206 F 
ATOM     72  C   UNL A   1      43.015  26.687  25.535  1.00  0.00     0.040 A 
ATOM     73  C   UNL A   1      41.788  24.781  26.345  1.00  0.00     0.040 A 
ATOM     74  F   UNL A   1      40.594  24.927  28.360  1.00  0.00    -0.206 F 
ATOM     75  C   UNL A   1      42.600  25.366  25.375  1.00  0.00     0.006 A 
ENDBRANCH  47  68
BRANCH  59  76
ATOM     76  C   UNL A   1      44.406  27.679  34.045  1.00  0.00     0.057 A 
ATOM     77  C   UNL A   1      45.637  28.343  34.058  1.00  0.00     0.134 A 
ATOM     78  C   UNL A   1      44.314  26.465  34.738  1.00  0.00     0.134 A 
ATOM     79  F   UNL A   1      45.791  29.504  33.404  1.00  0.00    -0.206 F 
ATOM     80  C   UNL A   1      46.743  27.812  34.723  1.00  0.00     0.040 A 
ATOM     81  C   UNL A   1      45.406  25.934  35.423  1.00  0.00     0.040 A 
ATOM     82  F   UNL A   1      43.158  25.786  34.769  1.00  0.00    -0.206 F 
ATOM     83  C   UNL A   1      46.627  26.606  35.415  1.00  0.00     0.006 A 
ENDBRANCH  59  76
ENDBRANCH  33  34
ENDBRANCH  26  28
ENDBRANCH  25  26
ENDBRANCH  24  25
ENDBRANCH  23  24
ENDBRANCH   1  23
TORSDOF 18
ENDMDL
