MODEL 1
REMARK VINA RESULT:     -11.9      0.000      0.000
REMARK SMILES COc1ccc(-c2cc(Cl)cc3c2O[C@H](C(F)(F)F)C(C(=O)OCCOC(=O)c2ccc(-c4c5nc(c(-c6c(F)cccc6F)c6ccc([nH]6)c(-c6c(F)cccc6F)c6nc(c(-c7c(F)cccc7F)c7ccc4[nH]7)C=C6)C=C5)cc2)=C3)cc1C
REMARK SMILES IDX 24 1 23 2 21 3 22 4 20 5 7 6 8 7 13 8 9 9 12 10 14 11 10 12
REMARK SMILES IDX 11 13 83 14 15 15 6 16 3 17 4 18 85 19 5 20 84 21 86 22 2 23
REMARK SMILES IDX 1 24 16 25 17 26 18 27 19 28 25 29 26 30 27 31 28 32 29 33
REMARK SMILES IDX 30 34 82 35 31 36 81 37 32 38 33 39 34 40 75 41 35 42 80 43
REMARK SMILES IDX 74 44 76 45 36 46 79 47 73 48 72 49 37 51 63 52 46 53 62 54
REMARK SMILES IDX 47 55 50 56 61 57 77 58 48 59 49 60 60 62 78 63 51 64 38 65
REMARK SMILES IDX 39 66 44 67 40 68 41 69 43 70 45 71 42 72 64 73 65 74 70 75
REMARK SMILES IDX 66 76 67 77 69 78 71 79 68 80 52 81 53 82 58 83 54 84 55 85
REMARK SMILES IDX 57 86 59 87 56 88
REMARK H PARENT 76 50 50 61
REMARK Flexibility Score: inf
ROOT
ATOM      1  C   UNL A   1      44.380  26.631  25.193  1.00  0.00     0.275 C 
ENDROOT
BRANCH   1   2
ATOM      2  O   UNL A   1      43.462  27.018  26.224  1.00  0.00    -0.459 OA
BRANCH   2   3
ATOM      3  C   UNL A   1      42.191  27.324  25.840  1.00  0.00     0.338 C 
ATOM      4  O   UNL A   1      41.545  26.634  25.067  1.00  0.00    -0.246 OA
BRANCH   3   5
ATOM      5  C   UNL A   1      41.772  28.776  26.167  1.00  0.00     0.087 C 
ATOM      6  C   UNL A   1      40.400  27.072  29.103  1.00  0.00     0.026 A 
ATOM      7  C   UNL A   1      39.143  27.394  29.693  1.00  0.00     0.033 A 
ATOM      8  C   UNL A   1      41.094  28.210  28.581  1.00  0.00     0.135 A 
ATOM      9  C   UNL A   1      38.542  28.650  29.517  1.00  0.00     0.042 A 
ATOM     10  C   UNL A   1      40.290  29.172  28.015  1.00  0.00     0.019 A 
ATOM     11  O   UNL A   1      42.459  28.535  28.425  1.00  0.00    -0.475 OA
ATOM     12  Cl  UNL A   1      36.972  28.953  30.155  1.00  0.00    -0.084 Cl
ATOM     13  C   UNL A   1      39.090  29.541  28.607  1.00  0.00     0.032 A 
ATOM     14  C   UNL A   1      40.523  29.157  26.552  1.00  0.00     0.027 C 
ATOM     15  C   UNL A   1      42.979  29.423  26.979  1.00  0.00     0.316 C 
BRANCH   6  16
ATOM     16  C   UNL A   1      40.436  25.626  28.493  1.00  0.00    -0.014 A 
ATOM     17  C   UNL A   1      40.495  23.218  26.857  1.00  0.00     0.121 A 
ATOM     18  C   UNL A   1      41.601  23.649  27.602  1.00  0.00     0.047 A 
ATOM     19  C   UNL A   1      39.296  23.909  26.984  1.00  0.00    -0.008 A 
ATOM     20  C   UNL A   1      41.571  24.827  28.403  1.00  0.00     0.013 A 
ATOM     21  C   UNL A   1      39.278  25.055  27.843  1.00  0.00     0.016 A 
ATOM     22  C   UNL A   1      38.095  23.562  26.126  1.00  0.00     0.048 C 
BRANCH  17  23
ATOM     23  O   UNL A   1      40.602  22.062  26.127  1.00  0.00    -0.496 OA
ATOM     24  C   UNL A   1      41.625  21.163  26.575  1.00  0.00     0.278 C 
ENDBRANCH  17  23
ENDBRANCH   6  16
BRANCH  15  25
ATOM     25  C   UNL A   1      44.197  31.272  26.824  1.00  0.00     0.430 C 
ATOM     26  F   UNL A   1      43.906  32.276  25.851  1.00  0.00    -0.167 F 
ATOM     27  F   UNL A   1      44.286  32.170  27.928  1.00  0.00    -0.167 F 
ATOM     28  F   UNL A   1      45.594  31.257  26.554  1.00  0.00    -0.167 F 
ENDBRANCH  15  25
ENDBRANCH   3   5
ENDBRANCH   2   3
ENDBRANCH   1   2
BRANCH   1  29
ATOM     29  C   UNL A   1      45.832  27.193  25.397  1.00  0.00     0.275 C 
BRANCH  29  30
ATOM     30  O   UNL A   1      46.814  26.762  26.443  1.00  0.00    -0.458 OA
BRANCH  30  31
ATOM     31  C   UNL A   1      47.597  25.714  26.840  1.00  0.00     0.338 C 
ATOM     32  O   UNL A   1      48.448  25.203  26.126  1.00  0.00    -0.246 OA
BRANCH  31  33
ATOM     33  C   UNL A   1      47.242  25.040  28.103  1.00  0.00     0.060 A 
ATOM     34  C   UNL A   1      45.584  24.268  28.350  1.00  0.00     0.016 A 
ATOM     35  C   UNL A   1      48.140  25.663  29.493  1.00  0.00     0.016 A 
ATOM     36  C   UNL A   1      44.834  24.285  30.014  1.00  0.00     0.010 A 
ATOM     37  C   UNL A   1      47.352  25.748  31.091  1.00  0.00     0.010 A 
ATOM     38  C   UNL A   1      45.741  25.059  31.393  1.00  0.00    -0.014 A 
BRANCH  38  39
ATOM     39  C   UNL A   1      45.347  25.337  32.811  1.00  0.00     0.031 A 
ATOM     40  C   UNL A   1      44.636  26.621  33.070  1.00  0.00     0.074 A 
ATOM     41  C   UNL A   1      45.034  24.336  33.697  1.00  0.00     0.049 A 
ATOM     42  N   UNL A   1      44.362  27.065  34.258  1.00  0.00    -0.248 NA
ATOM     43  C   UNL A   1      44.258  27.561  32.013  1.00  0.00     0.031 C 
ATOM     44  C   UNL A   1      43.770  24.241  34.442  1.00  0.00     0.029 A 
ATOM     45  N   UNL A   1      45.710  23.164  34.104  1.00  0.00    -0.354 N 
ATOM     46  C   UNL A   1      43.459  28.085  34.060  1.00  0.00     0.074 A 
ATOM     47  C   UNL A   1      43.742  28.555  32.739  1.00  0.00     0.031 C 
ATOM     48  C   UNL A   1      43.832  23.237  35.326  1.00  0.00     0.029 A 
ATOM     49  C   UNL A   1      45.169  22.690  35.309  1.00  0.00     0.049 A 
ATOM     50  H   UNL A   1      46.453  22.742  33.614  1.00  0.00     0.167 HD
ATOM     51  C   UNL A   1      42.369  28.213  34.870  1.00  0.00     0.037 A 
ATOM     52  C   UNL A   1      45.828  22.131  36.363  1.00  0.00     0.037 A 
ATOM     53  C   UNL A   1      42.417  27.262  35.984  1.00  0.00     0.049 A 
ATOM     54  C   UNL A   1      45.649  22.922  37.576  1.00  0.00     0.074 A 
ATOM     55  C   UNL A   1      41.630  26.179  36.341  1.00  0.00     0.029 A 
ATOM     56  N   UNL A   1      43.537  27.217  36.809  1.00  0.00    -0.354 N 
ATOM     57  N   UNL A   1      44.878  23.953  37.541  1.00  0.00    -0.248 NA
ATOM     58  C   UNL A   1      46.336  22.747  38.842  1.00  0.00     0.031 C 
ATOM     59  C   UNL A   1      42.295  25.484  37.385  1.00  0.00     0.029 A 
ATOM     60  C   UNL A   1      43.466  26.161  37.692  1.00  0.00     0.049 A 
ATOM     61  H   UNL A   1      44.285  27.857  36.766  1.00  0.00     0.167 HD
ATOM     62  C   UNL A   1      45.063  24.679  38.652  1.00  0.00     0.074 A 
ATOM     63  C   UNL A   1      45.928  23.859  39.478  1.00  0.00     0.031 C 
ATOM     64  C   UNL A   1      44.532  25.924  38.669  1.00  0.00     0.037 A 
BRANCH  51  65
ATOM     65  C   UNL A   1      41.121  29.043  34.568  1.00  0.00     0.057 A 
ATOM     66  C   UNL A   1      40.756  30.097  35.433  1.00  0.00     0.134 A 
ATOM     67  C   UNL A   1      40.218  28.866  33.496  1.00  0.00     0.134 A 
ATOM     68  F   UNL A   1      41.478  30.395  36.521  1.00  0.00    -0.206 F 
ATOM     69  C   UNL A   1      39.623  30.904  35.236  1.00  0.00     0.040 A 
ATOM     70  C   UNL A   1      39.117  29.702  33.256  1.00  0.00     0.040 A 
ATOM     71  F   UNL A   1      40.287  27.849  32.638  1.00  0.00    -0.206 F 
ATOM     72  C   UNL A   1      38.811  30.725  34.129  1.00  0.00     0.006 A 
ENDBRANCH  51  65
BRANCH  52  73
ATOM     73  C   UNL A   1      46.969  21.255  36.094  1.00  0.00     0.057 A 
ATOM     74  C   UNL A   1      46.489  20.011  35.703  1.00  0.00     0.134 A 
ATOM     75  C   UNL A   1      48.113  21.791  35.497  1.00  0.00     0.134 A 
ATOM     76  F   UNL A   1      45.467  19.423  36.345  1.00  0.00    -0.206 F 
ATOM     77  C   UNL A   1      46.766  19.628  34.425  1.00  0.00     0.040 A 
ATOM     78  C   UNL A   1      48.567  21.253  34.315  1.00  0.00     0.040 A 
ATOM     79  F   UNL A   1      48.640  22.948  35.917  1.00  0.00    -0.206 F 
ATOM     80  C   UNL A   1      47.811  20.240  33.749  1.00  0.00     0.006 A 
ENDBRANCH  52  73
BRANCH  64  81
ATOM     81  C   UNL A   1      44.947  26.947  39.656  1.00  0.00     0.057 A 
ATOM     82  C   UNL A   1      44.528  26.955  40.994  1.00  0.00     0.134 A 
ATOM     83  C   UNL A   1      45.871  27.937  39.290  1.00  0.00     0.134 A 
ATOM     84  F   UNL A   1      43.807  25.954  41.521  1.00  0.00    -0.206 F 
ATOM     85  C   UNL A   1      44.875  27.979  41.869  1.00  0.00     0.040 A 
ATOM     86  C   UNL A   1      46.290  28.919  40.178  1.00  0.00     0.040 A 
ATOM     87  F   UNL A   1      46.416  27.979  38.066  1.00  0.00    -0.206 F 
ATOM     88  C   UNL A   1      45.757  28.968  41.459  1.00  0.00     0.006 A 
ENDBRANCH  64  81
ENDBRANCH  38  39
ENDBRANCH  31  33
ENDBRANCH  30  31
ENDBRANCH  29  30
ENDBRANCH   1  29
TORSDOF 14
ENDMDL
MODEL 2
REMARK VINA RESULT:     -11.8      3.978      8.934
REMARK SMILES COc1ccc(-c2cc(Cl)cc3c2O[C@H](C(F)(F)F)C(C(=O)OCCOC(=O)c2ccc(-c4c5nc(c(-c6c(F)cccc6F)c6ccc([nH]6)c(-c6c(F)cccc6F)c6nc(c(-c7c(F)cccc7F)c7ccc4[nH]7)C=C6)C=C5)cc2)=C3)cc1C
REMARK SMILES IDX 24 1 23 2 21 3 22 4 20 5 7 6 8 7 13 8 9 9 12 10 14 11 10 12
REMARK SMILES IDX 11 13 83 14 15 15 6 16 3 17 4 18 85 19 5 20 84 21 86 22 2 23
REMARK SMILES IDX 1 24 16 25 17 26 18 27 19 28 25 29 26 30 27 31 28 32 29 33
REMARK SMILES IDX 30 34 82 35 31 36 81 37 32 38 33 39 34 40 75 41 35 42 80 43
REMARK SMILES IDX 74 44 76 45 36 46 79 47 73 48 72 49 37 51 63 52 46 53 62 54
REMARK SMILES IDX 47 55 50 56 61 57 77 58 48 59 49 60 60 62 78 63 51 64 38 65
REMARK SMILES IDX 39 66 44 67 40 68 41 69 43 70 45 71 42 72 64 73 65 74 70 75
REMARK SMILES IDX 66 76 67 77 69 78 71 79 68 80 52 81 53 82 58 83 54 84 55 85
REMARK SMILES IDX 57 86 59 87 56 88
REMARK H PARENT 76 50 50 61
REMARK Flexibility Score: inf
ROOT
ATOM      1  C   UNL A   1      38.917  33.807  32.282  1.00  0.00     0.275 C 
ENDROOT
BRANCH   1   2
ATOM      2  O   UNL A   1      37.978  32.890  31.705  1.00  0.00    -0.459 OA
BRANCH   2   3
ATOM      3  C   UNL A   1      37.735  33.010  30.370  1.00  0.00     0.338 C 
ATOM      4  O   UNL A   1      38.592  32.835  29.519  1.00  0.00    -0.246 OA
BRANCH   3   5
ATOM      5  C   UNL A   1      36.406  33.729  30.040  1.00  0.00     0.087 C 
ATOM      6  C   UNL A   1      35.483  30.301  29.140  1.00  0.00     0.026 A 
ATOM      7  C   UNL A   1      34.690  29.964  28.004  1.00  0.00     0.033 A 
ATOM      8  C   UNL A   1      35.098  31.532  29.760  1.00  0.00     0.135 A 
ATOM      9  C   UNL A   1      33.819  30.889  27.408  1.00  0.00     0.042 A 
ATOM     10  C   UNL A   1      34.680  32.514  28.892  1.00  0.00     0.019 A 
ATOM     11  O   UNL A   1      35.143  32.015  31.087  1.00  0.00    -0.475 OA
ATOM     12  Cl  UNL A   1      32.968  30.471  25.971  1.00  0.00    -0.084 Cl
ATOM     13  C   UNL A   1      33.859  32.215  27.815  1.00  0.00     0.032 A 
ATOM     14  C   UNL A   1      35.709  33.580  28.879  1.00  0.00     0.027 C 
ATOM     15  C   UNL A   1      35.542  33.720  31.377  1.00  0.00     0.316 C 
BRANCH   6  16
ATOM     16  C   UNL A   1      36.949  29.749  29.046  1.00  0.00    -0.014 A 
ATOM     17  C   UNL A   1      39.415  28.212  28.842  1.00  0.00     0.121 A 
ATOM     18  C   UNL A   1      38.945  29.022  27.800  1.00  0.00     0.047 A 
ATOM     19  C   UNL A   1      38.734  28.223  30.053  1.00  0.00    -0.008 A 
ATOM     20  C   UNL A   1      37.739  29.775  27.900  1.00  0.00     0.013 A 
ATOM     21  C   UNL A   1      37.558  29.035  30.146  1.00  0.00     0.016 A 
ATOM     22  C   UNL A   1      39.124  27.290  31.183  1.00  0.00     0.048 C 
BRANCH  17  23
ATOM     23  O   UNL A   1      40.595  27.536  28.670  1.00  0.00    -0.496 OA
ATOM     24  C   UNL A   1      41.174  27.663  27.365  1.00  0.00     0.278 C 
ENDBRANCH  17  23
ENDBRANCH   6  16
BRANCH  15  25
ATOM     25  C   UNL A   1      34.460  35.231  32.589  1.00  0.00     0.430 C 
ATOM     26  F   UNL A   1      33.055  35.439  32.438  1.00  0.00    -0.167 F 
ATOM     27  F   UNL A   1      34.434  35.130  34.011  1.00  0.00    -0.167 F 
ATOM     28  F   UNL A   1      34.779  36.617  32.561  1.00  0.00    -0.167 F 
ENDBRANCH  15  25
ENDBRANCH   3   5
ENDBRANCH   2   3
ENDBRANCH   1   2
BRANCH   1  29
ATOM     29  C   UNL A   1      38.303  34.712  33.409  1.00  0.00     0.275 C 
BRANCH  29  30
ATOM     30  O   UNL A   1      37.383  34.267  34.505  1.00  0.00    -0.458 OA
BRANCH  30  31
ATOM     31  C   UNL A   1      37.227  33.328  35.486  1.00  0.00     0.338 C 
ATOM     32  O   UNL A   1      36.445  33.454  36.417  1.00  0.00    -0.246 OA
BRANCH  31  33
ATOM     33  C   UNL A   1      38.202  32.223  35.531  1.00  0.00     0.060 A 
ATOM     34  C   UNL A   1      39.968  32.515  35.986  1.00  0.00     0.016 A 
ATOM     35  C   UNL A   1      37.778  30.884  34.457  1.00  0.00     0.016 A 
ATOM     36  C   UNL A   1      41.267  31.498  35.204  1.00  0.00     0.010 A 
ATOM     37  C   UNL A   1      39.067  29.962  33.639  1.00  0.00     0.010 A 
ATOM     38  C   UNL A   1      40.790  30.214  33.998  1.00  0.00    -0.014 A 
BRANCH  38  39
ATOM     39  C   UNL A   1      41.611  29.327  33.116  1.00  0.00     0.031 A 
ATOM     40  C   UNL A   1      41.818  29.781  31.712  1.00  0.00     0.074 A 
ATOM     41  C   UNL A   1      42.626  28.540  33.604  1.00  0.00     0.049 A 
ATOM     42  N   UNL A   1      42.380  29.055  30.796  1.00  0.00    -0.248 NA
ATOM     43  C   UNL A   1      41.322  31.059  31.197  1.00  0.00     0.031 C 
ATOM     44  C   UNL A   1      44.017  28.575  33.129  1.00  0.00     0.029 A 
ATOM     45  N   UNL A   1      42.687  27.583  34.642  1.00  0.00    -0.354 N 
ATOM     46  C   UNL A   1      42.651  29.925  29.764  1.00  0.00     0.074 A 
ATOM     47  C   UNL A   1      41.678  30.964  29.915  1.00  0.00     0.031 C 
ATOM     48  C   UNL A   1      44.723  27.591  33.701  1.00  0.00     0.029 A 
ATOM     49  C   UNL A   1      43.824  26.775  34.484  1.00  0.00     0.049 A 
ATOM     50  H   UNL A   1      42.030  27.495  35.369  1.00  0.00     0.167 HD
ATOM     51  C   UNL A   1      43.841  29.868  29.102  1.00  0.00     0.037 A 
ATOM     52  C   UNL A   1      43.943  25.438  34.719  1.00  0.00     0.037 A 
ATOM     53  C   UNL A   1      44.637  28.714  29.534  1.00  0.00     0.049 A 
ATOM     54  C   UNL A   1      44.305  24.720  33.501  1.00  0.00     0.074 A 
ATOM     55  C   UNL A   1      45.846  28.592  30.198  1.00  0.00     0.029 A 
ATOM     56  N   UNL A   1      44.084  27.438  29.495  1.00  0.00    -0.354 N 
ATOM     57  N   UNL A   1      44.532  25.390  32.425  1.00  0.00    -0.248 NA
ATOM     58  C   UNL A   1      44.345  23.281  33.315  1.00  0.00     0.031 C 
ATOM     59  C   UNL A   1      46.007  27.229  30.560  1.00  0.00     0.029 A 
ATOM     60  C   UNL A   1      44.918  26.513  30.084  1.00  0.00     0.049 A 
ATOM     61  H   UNL A   1      43.207  27.223  29.097  1.00  0.00     0.167 HD
ATOM     62  C   UNL A   1      44.576  24.548  31.384  1.00  0.00     0.074 A 
ATOM     63  C   UNL A   1      44.528  23.228  31.984  1.00  0.00     0.031 C 
ATOM     64  C   UNL A   1      44.548  25.097  30.147  1.00  0.00     0.037 A 
BRANCH  51  65
ATOM     65  C   UNL A   1      44.423  30.962  28.207  1.00  0.00     0.057 A 
ATOM     66  C   UNL A   1      45.335  31.894  28.744  1.00  0.00     0.134 A 
ATOM     67  C   UNL A   1      44.127  31.197  26.846  1.00  0.00     0.134 A 
ATOM     68  F   UNL A   1      45.714  31.847  30.029  1.00  0.00    -0.206 F 
ATOM     69  C   UNL A   1      45.911  32.935  27.997  1.00  0.00     0.040 A 
ATOM     70  C   UNL A   1      44.738  32.196  26.073  1.00  0.00     0.040 A 
ATOM     71  F   UNL A   1      43.190  30.530  26.172  1.00  0.00    -0.206 F 
ATOM     72  C   UNL A   1      45.633  33.074  26.647  1.00  0.00     0.006 A 
ENDBRANCH  51  65
BRANCH  52  73
ATOM     73  C   UNL A   1      43.224  24.856  35.853  1.00  0.00     0.057 A 
ATOM     74  C   UNL A   1      43.600  25.531  37.008  1.00  0.00     0.134 A 
ATOM     75  C   UNL A   1      41.903  24.435  35.677  1.00  0.00     0.134 A 
ATOM     76  F   UNL A   1      44.884  25.835  37.252  1.00  0.00    -0.206 F 
ATOM     77  C   UNL A   1      42.626  26.248  37.636  1.00  0.00     0.040 A 
ATOM     78  C   UNL A   1      40.919  24.967  36.478  1.00  0.00     0.040 A 
ATOM     79  F   UNL A   1      41.538  23.711  34.612  1.00  0.00    -0.206 F 
ATOM     80  C   UNL A   1      41.296  25.950  37.378  1.00  0.00     0.006 A 
ENDBRANCH  52  73
BRANCH  64  81
ATOM     81  C   UNL A   1      44.238  24.303  28.936  1.00  0.00     0.057 A 
ATOM     82  C   UNL A   1      42.935  24.041  28.488  1.00  0.00     0.134 A 
ATOM     83  C   UNL A   1      45.279  23.833  28.122  1.00  0.00     0.134 A 
ATOM     84  F   UNL A   1      41.859  24.600  29.061  1.00  0.00    -0.206 F 
ATOM     85  C   UNL A   1      42.683  23.223  27.393  1.00  0.00     0.040 A 
ATOM     86  C   UNL A   1      45.039  23.083  26.978  1.00  0.00     0.040 A 
ATOM     87  F   UNL A   1      46.565  24.099  28.393  1.00  0.00    -0.206 F 
ATOM     88  C   UNL A   1      43.739  22.737  26.635  1.00  0.00     0.006 A 
ENDBRANCH  64  81
ENDBRANCH  38  39
ENDBRANCH  31  33
ENDBRANCH  30  31
ENDBRANCH  29  30
ENDBRANCH   1  29
TORSDOF 14
ENDMDL
MODEL 3
REMARK VINA RESULT:     -11.4      5.923     12.970
REMARK SMILES COc1ccc(-c2cc(Cl)cc3c2O[C@H](C(F)(F)F)C(C(=O)OCCOC(=O)c2ccc(-c4c5nc(c(-c6c(F)cccc6F)c6ccc([nH]6)c(-c6c(F)cccc6F)c6nc(c(-c7c(F)cccc7F)c7ccc4[nH]7)C=C6)C=C5)cc2)=C3)cc1C
REMARK SMILES IDX 24 1 23 2 21 3 22 4 20 5 7 6 8 7 13 8 9 9 12 10 14 11 10 12
REMARK SMILES IDX 11 13 83 14 15 15 6 16 3 17 4 18 85 19 5 20 84 21 86 22 2 23
REMARK SMILES IDX 1 24 16 25 17 26 18 27 19 28 25 29 26 30 27 31 28 32 29 33
REMARK SMILES IDX 30 34 82 35 31 36 81 37 32 38 33 39 34 40 75 41 35 42 80 43
REMARK SMILES IDX 74 44 76 45 36 46 79 47 73 48 72 49 37 51 63 52 46 53 62 54
REMARK SMILES IDX 47 55 50 56 61 57 77 58 48 59 49 60 60 62 78 63 51 64 38 65
REMARK SMILES IDX 39 66 44 67 40 68 41 69 43 70 45 71 42 72 64 73 65 74 70 75
REMARK SMILES IDX 66 76 67 77 69 78 71 79 68 80 52 81 53 82 58 83 54 84 55 85
REMARK SMILES IDX 57 86 59 87 56 88
REMARK H PARENT 76 50 50 61
REMARK Flexibility Score: inf
ROOT
ATOM      1  C   UNL A   1      37.315  31.157  33.570  1.00  0.00     0.275 C 
ENDROOT
BRANCH   1   2
ATOM      2  O   UNL A   1      37.992  30.710  32.387  1.00  0.00    -0.459 OA
BRANCH   2   3
ATOM      3  C   UNL A   1      37.542  29.558  31.814  1.00  0.00     0.338 C 
ATOM      4  O   UNL A   1      36.386  29.401  31.455  1.00  0.00    -0.246 OA
BRANCH   3   5
ATOM      5  C   UNL A   1      38.505  28.360  31.983  1.00  0.00     0.087 C 
ATOM      6  C   UNL A   1      39.260  29.259  28.516  1.00  0.00     0.026 A 
ATOM      7  C   UNL A   1      39.490  28.307  27.480  1.00  0.00     0.033 A 
ATOM      8  C   UNL A   1      39.758  28.846  29.792  1.00  0.00     0.135 A 
ATOM      9  C   UNL A   1      39.905  26.995  27.758  1.00  0.00     0.042 A 
ATOM     10  C   UNL A   1      39.644  27.500  30.052  1.00  0.00     0.019 A 
ATOM     11  O   UNL A   1      40.265  29.537  30.915  1.00  0.00    -0.475 OA
ATOM     12  Cl  UNL A   1      40.060  25.850  26.483  1.00  0.00    -0.084 Cl
ATOM     13  C   UNL A   1      39.922  26.556  29.074  1.00  0.00     0.032 A 
ATOM     14  C   UNL A   1      38.618  27.324  31.107  1.00  0.00     0.027 C 
ATOM     15  C   UNL A   1      39.872  28.952  32.543  1.00  0.00     0.316 C 
BRANCH   6  16
ATOM     16  C   UNL A   1      37.970  30.120  28.278  1.00  0.00    -0.014 A 
ATOM     17  C   UNL A   1      35.349  31.391  28.252  1.00  0.00     0.121 A 
ATOM     18  C   UNL A   1      36.493  32.036  28.740  1.00  0.00     0.047 A 
ATOM     19  C   UNL A   1      35.489  30.139  27.665  1.00  0.00    -0.008 A 
ATOM     20  C   UNL A   1      37.776  31.414  28.751  1.00  0.00     0.013 A 
ATOM     21  C   UNL A   1      36.800  29.562  27.636  1.00  0.00     0.016 A 
ATOM     22  C   UNL A   1      34.280  29.341  27.217  1.00  0.00     0.048 C 
BRANCH  17  23
ATOM     23  O   UNL A   1      34.157  32.068  28.259  1.00  0.00    -0.496 OA
ATOM     24  C   UNL A   1      34.280  33.495  28.321  1.00  0.00     0.278 C 
ENDBRANCH  17  23
ENDBRANCH   6  16
BRANCH  15  25
ATOM     25  C   UNL A   1      41.226  28.509  34.245  1.00  0.00     0.430 C 
ATOM     26  F   UNL A   1      40.942  28.976  35.564  1.00  0.00    -0.167 F 
ATOM     27  F   UNL A   1      41.483  27.160  34.627  1.00  0.00    -0.167 F 
ATOM     28  F   UNL A   1      42.589  28.916  34.275  1.00  0.00    -0.167 F 
ENDBRANCH  15  25
ENDBRANCH   3   5
ENDBRANCH   2   3
ENDBRANCH   1   2
BRANCH   1  29
ATOM     29  C   UNL A   1      38.268  31.382  34.796  1.00  0.00     0.275 C 
BRANCH  29  30
ATOM     30  O   UNL A   1      39.007  32.642  35.130  1.00  0.00    -0.458 OA
BRANCH  30  31
ATOM     31  C   UNL A   1      38.923  34.005  35.074  1.00  0.00     0.338 C 
ATOM     32  O   UNL A   1      38.302  34.673  35.888  1.00  0.00    -0.246 OA
BRANCH  31  33
ATOM     33  C   UNL A   1      39.421  34.667  33.854  1.00  0.00     0.060 A 
ATOM     34  C   UNL A   1      38.660  34.344  32.203  1.00  0.00     0.016 A 
ATOM     35  C   UNL A   1      41.126  35.123  33.965  1.00  0.00     0.016 A 
ATOM     36  C   UNL A   1      39.720  34.366  30.716  1.00  0.00     0.010 A 
ATOM     37  C   UNL A   1      42.158  35.053  32.512  1.00  0.00     0.010 A 
ATOM     38  C   UNL A   1      41.501  34.711  30.895  1.00  0.00    -0.014 A 
BRANCH  38  39
ATOM     39  C   UNL A   1      42.625  34.674  29.907  1.00  0.00     0.031 A 
ATOM     40  C   UNL A   1      43.237  33.344  29.634  1.00  0.00     0.074 A 
ATOM     41  C   UNL A   1      42.707  35.554  28.854  1.00  0.00     0.049 A 
ATOM     42  N   UNL A   1      44.305  33.175  28.918  1.00  0.00    -0.248 NA
ATOM     43  C   UNL A   1      42.750  32.096  30.227  1.00  0.00     0.031 C 
ATOM     44  C   UNL A   1      42.812  35.161  27.441  1.00  0.00     0.029 A 
ATOM     45  N   UNL A   1      42.667  36.964  28.772  1.00  0.00    -0.354 N 
ATOM     46  C   UNL A   1      44.355  31.824  28.661  1.00  0.00     0.074 A 
ATOM     47  C   UNL A   1      43.649  31.231  29.755  1.00  0.00     0.031 C 
ATOM     48  C   UNL A   1      43.020  36.243  26.678  1.00  0.00     0.029 A 
ATOM     49  C   UNL A   1      43.190  37.389  27.541  1.00  0.00     0.049 A 
ATOM     50  H   UNL A   1      42.322  37.561  29.475  1.00  0.00     0.167 HD
ATOM     51  C   UNL A   1      44.683  31.365  27.419  1.00  0.00     0.037 A 
ATOM     52  C   UNL A   1      43.964  38.482  27.291  1.00  0.00     0.037 A 
ATOM     53  C   UNL A   1      45.096  32.461  26.537  1.00  0.00     0.049 A 
ATOM     54  C   UNL A   1      45.262  38.094  26.747  1.00  0.00     0.074 A 
ATOM     55  C   UNL A   1      44.556  33.003  25.383  1.00  0.00     0.029 A 
ATOM     56  N   UNL A   1      46.110  33.326  26.936  1.00  0.00    -0.354 N 
ATOM     57  N   UNL A   1      45.492  36.850  26.507  1.00  0.00    -0.248 NA
ATOM     58  C   UNL A   1      46.409  38.956  26.528  1.00  0.00     0.031 C 
ATOM     59  C   UNL A   1      45.256  34.205  25.099  1.00  0.00     0.029 A 
ATOM     60  C   UNL A   1      46.247  34.377  26.055  1.00  0.00     0.049 A 
ATOM     61  H   UNL A   1      46.660  33.204  27.745  1.00  0.00     0.167 HD
ATOM     62  C   UNL A   1      46.802  36.681  26.279  1.00  0.00     0.074 A 
ATOM     63  C   UNL A   1      47.336  38.029  26.227  1.00  0.00     0.031 C 
ATOM     64  C   UNL A   1      47.265  35.409  26.265  1.00  0.00     0.037 A 
BRANCH  51  65
ATOM     65  C   UNL A   1      44.437  29.951  26.893  1.00  0.00     0.057 A 
ATOM     66  C   UNL A   1      45.532  29.136  26.537  1.00  0.00     0.134 A 
ATOM     67  C   UNL A   1      43.188  29.329  26.673  1.00  0.00     0.134 A 
ATOM     68  F   UNL A   1      46.796  29.568  26.650  1.00  0.00    -0.206 F 
ATOM     69  C   UNL A   1      45.397  27.830  26.038  1.00  0.00     0.040 A 
ATOM     70  C   UNL A   1      43.040  28.006  26.231  1.00  0.00     0.040 A 
ATOM     71  F   UNL A   1      42.020  29.958  26.806  1.00  0.00    -0.206 F 
ATOM     72  C   UNL A   1      44.147  27.249  25.907  1.00  0.00     0.006 A 
ENDBRANCH  51  65
BRANCH  52  73
ATOM     73  C   UNL A   1      43.701  39.716  28.033  1.00  0.00     0.057 A 
ATOM     74  C   UNL A   1      42.681  40.408  27.392  1.00  0.00     0.134 A 
ATOM     75  C   UNL A   1      43.778  39.700  29.429  1.00  0.00     0.134 A 
ATOM     76  F   UNL A   1      42.656  40.538  26.056  1.00  0.00    -0.206 F 
ATOM     77  C   UNL A   1      41.516  40.549  28.084  1.00  0.00     0.040 A 
ATOM     78  C   UNL A   1      42.681  40.083  30.164  1.00  0.00     0.040 A 
ATOM     79  F   UNL A   1      44.799  39.112  30.063  1.00  0.00    -0.206 F 
ATOM     80  C   UNL A   1      41.528  40.401  29.464  1.00  0.00     0.006 A 
ENDBRANCH  52  73
BRANCH  64  81
ATOM     81  C   UNL A   1      48.706  35.091  26.379  1.00  0.00     0.057 A 
ATOM     82  C   UNL A   1      49.627  35.263  25.335  1.00  0.00     0.134 A 
ATOM     83  C   UNL A   1      49.234  34.665  27.606  1.00  0.00     0.134 A 
ATOM     84  F   UNL A   1      49.291  35.850  24.178  1.00  0.00    -0.206 F 
ATOM     85  C   UNL A   1      50.958  34.876  25.455  1.00  0.00     0.040 A 
ATOM     86  C   UNL A   1      50.578  34.353  27.763  1.00  0.00     0.040 A 
ATOM     87  F   UNL A   1      48.472  34.552  28.703  1.00  0.00    -0.206 F 
ATOM     88  C   UNL A   1      51.436  34.415  26.673  1.00  0.00     0.006 A 
ENDBRANCH  64  81
ENDBRANCH  38  39
ENDBRANCH  31  33
ENDBRANCH  30  31
ENDBRANCH  29  30
ENDBRANCH   1  29
TORSDOF 14
ENDMDL
