MODEL 1
REMARK VINA RESULT:     -12.8      0.000      0.000
REMARK SMILES Cc1cccc(N2C(=O)/C(=C/c3cccn3-c3cccc(C(=O)OCCOC(=O)c4ccc(-c5c6nc(c(-c7c(F)cccc7F)c7ccc([nH]7)c(-c7c(F)cccc7F)c7nc(c(-c8c(F)cccc8F)c8ccc5[nH]8)C=C7)C=C6)cc4)c3)C(O)=NC2=S)c1C
REMARK SMILES IDX 25 1 24 2 22 3 23 4 21 5 17 6 18 7 84 8 19 9 20 10 16 11
REMARK SMILES IDX 12 12 13 13 14 14 15 15 11 16 7 17 8 18 88 19 9 20 10 21
REMARK SMILES IDX 87 22 89 23 85 24 6 25 1 26 2 27 3 28 90 29 4 30 91 31 5 32
REMARK SMILES IDX 86 33 26 35 27 36 28 37 29 38 30 39 31 40 83 41 32 42 82 43
REMARK SMILES IDX 33 44 34 45 35 46 76 47 36 48 81 49 75 50 77 51 37 52 80 53
REMARK SMILES IDX 74 54 73 55 38 57 64 58 47 59 63 60 48 61 51 62 62 63 78 64
REMARK SMILES IDX 49 65 50 66 61 68 79 69 52 70 39 71 40 72 45 73 41 74 42 75
REMARK SMILES IDX 44 76 46 77 43 78 65 79 66 80 71 81 67 82 68 83 70 84 72 85
REMARK SMILES IDX 69 86 53 87 54 88 59 89 55 90 56 91 58 92 60 93 57 94
REMARK H PARENT 86 34 77 56 51 67
REMARK Flexibility Score: inf
ROOT
ATOM      1  C   UNL A   1      33.697  31.409  27.633  1.00  0.00     0.275 C 
ENDROOT
BRANCH   1   2
ATOM      2  O   UNL A   1      33.142  30.187  27.111  1.00  0.00    -0.458 OA
BRANCH   2   3
ATOM      3  C   UNL A   1      34.017  29.361  26.479  1.00  0.00     0.338 C 
ATOM      4  O   UNL A   1      35.085  28.967  26.931  1.00  0.00    -0.246 OA
BRANCH   3   5
ATOM      5  C   UNL A   1      33.440  28.853  25.205  1.00  0.00     0.062 A 
ATOM      6  C   UNL A   1      31.637  27.870  23.910  1.00  0.00     0.046 A 
ATOM      7  C   UNL A   1      32.490  27.753  22.805  1.00  0.00     0.026 A 
ATOM      8  C   UNL A   1      32.123  28.391  25.119  1.00  0.00     0.042 A 
ATOM      9  C   UNL A   1      33.803  28.222  22.889  1.00  0.00     0.003 A 
ATOM     10  C   UNL A   1      34.272  28.781  24.080  1.00  0.00     0.016 A 
BRANCH   6  11
ATOM     11  N   UNL A   1      30.275  27.471  23.786  1.00  0.00    -0.317 N 
ATOM     12  C   UNL A   1      29.767  26.185  23.585  1.00  0.00     0.047 A 
ATOM     13  C   UNL A   1      28.387  26.272  23.534  1.00  0.00     0.028 A 
ATOM     14  C   UNL A   1      28.034  27.631  23.659  1.00  0.00     0.020 A 
ATOM     15  C   UNL A   1      29.200  28.340  23.835  1.00  0.00     0.092 A 
BRANCH  12  16
ATOM     16  C   UNL A   1      30.624  25.054  23.581  1.00  0.00     0.046 C 
ATOM     17  N   UNL A   1      32.358  22.525  25.535  1.00  0.00    -0.251 N 
ATOM     18  C   UNL A   1      31.853  23.152  24.394  1.00  0.00     0.270 C 
ATOM     19  C   UNL A   1      32.106  22.986  26.842  1.00  0.00     0.210 C 
ATOM     20  O   UNL A   1      32.107  22.815  23.237  1.00  0.00    -0.268 OA
ATOM     21  C   UNL A   1      30.941  24.308  24.659  1.00  0.00     0.104 C 
ATOM     22  N   UNL A   1      31.041  23.827  27.042  1.00  0.00    -0.184 NA
ATOM     23  S   UNL A   1      33.048  22.578  28.199  1.00  0.00    -0.038 S 
ATOM     24  C   UNL A   1      30.506  24.437  26.052  1.00  0.00     0.226 C 
BRANCH  17  25
ATOM     25  C   UNL A   1      33.220  21.400  25.315  1.00  0.00     0.055 A 
ATOM     26  C   UNL A   1      36.908  20.509  24.718  1.00  0.00     0.044 C 
ATOM     27  C   UNL A   1      35.415  20.425  24.897  1.00  0.00    -0.046 A 
ATOM     28  C   UNL A   1      34.799  19.170  24.750  1.00  0.00     0.004 A 
ATOM     29  C   UNL A   1      34.627  21.557  25.211  1.00  0.00    -0.024 A 
ATOM     30  C   UNL A   1      33.424  19.020  24.913  1.00  0.00     0.002 A 
ATOM     31  C   UNL A   1      35.263  22.901  25.478  1.00  0.00     0.047 C 
ATOM     32  C   UNL A   1      32.636  20.130  25.197  1.00  0.00     0.027 A 
ENDBRANCH  17  25
BRANCH  24  33
ATOM     33  O   UNL A   1      29.435  25.189  26.343  1.00  0.00    -0.493 OA
ATOM     34  H   UNL A   1      28.577  24.891  26.114  1.00  0.00     0.295 HD
ENDBRANCH  24  33
ENDBRANCH  12  16
ENDBRANCH   6  11
ENDBRANCH   3   5
ENDBRANCH   2   3
ENDBRANCH   1   2
BRANCH   1  35
ATOM     35  C   UNL A   1      32.698  32.567  27.618  1.00  0.00     0.275 C 
BRANCH  35  36
ATOM     36  O   UNL A   1      33.305  33.858  27.490  1.00  0.00    -0.458 OA
BRANCH  36  37
ATOM     37  C   UNL A   1      33.254  34.576  28.632  1.00  0.00     0.338 C 
ATOM     38  O   UNL A   1      32.491  35.491  28.902  1.00  0.00    -0.246 OA
BRANCH  37  39
ATOM     39  C   UNL A   1      34.419  34.325  29.474  1.00  0.00     0.060 A 
ATOM     40  C   UNL A   1      35.670  34.437  28.859  1.00  0.00     0.016 A 
ATOM     41  C   UNL A   1      34.239  33.645  30.685  1.00  0.00     0.016 A 
ATOM     42  C   UNL A   1      36.738  33.756  29.404  1.00  0.00     0.010 A 
ATOM     43  C   UNL A   1      35.302  32.942  31.218  1.00  0.00     0.010 A 
ATOM     44  C   UNL A   1      36.536  32.983  30.556  1.00  0.00    -0.014 A 
BRANCH  44  45
ATOM     45  C   UNL A   1      37.734  32.417  31.187  1.00  0.00     0.031 A 
ATOM     46  C   UNL A   1      38.052  31.048  30.504  1.00  0.00     0.074 A 
ATOM     47  C   UNL A   1      38.244  33.147  32.234  1.00  0.00     0.049 A 
ATOM     48  N   UNL A   1      38.643  29.983  30.953  1.00  0.00    -0.248 NA
ATOM     49  C   UNL A   1      37.566  30.816  29.104  1.00  0.00     0.031 C 
ATOM     50  C   UNL A   1      37.793  34.501  32.655  1.00  0.00     0.029 A 
ATOM     51  N   UNL A   1      39.232  32.918  33.166  1.00  0.00    -0.354 N 
ATOM     52  C   UNL A   1      38.816  29.099  29.855  1.00  0.00     0.074 A 
ATOM     53  C   UNL A   1      38.016  29.603  28.789  1.00  0.00     0.031 C 
ATOM     54  C   UNL A   1      38.426  34.909  33.782  1.00  0.00     0.029 A 
ATOM     55  C   UNL A   1      39.346  33.879  34.219  1.00  0.00     0.049 A 
ATOM     56  H   UNL A   1      39.827  32.135  33.109  1.00  0.00     0.167 HD
ATOM     57  C   UNL A   1      39.747  28.100  29.840  1.00  0.00     0.037 A 
ATOM     58  C   UNL A   1      40.084  33.794  35.377  1.00  0.00     0.037 A 
ATOM     59  C   UNL A   1      40.378  28.028  31.107  1.00  0.00     0.049 A 
ATOM     60  C   UNL A   1      40.811  32.537  35.204  1.00  0.00     0.074 A 
ATOM     61  C   UNL A   1      40.030  27.453  32.296  1.00  0.00     0.029 A 
ATOM     62  N   UNL A   1      41.433  28.877  31.304  1.00  0.00    -0.354 N 
ATOM     63  N   UNL A   1      41.812  32.373  34.399  1.00  0.00    -0.248 NA
ATOM     64  C   UNL A   1      40.282  31.341  35.858  1.00  0.00     0.031 C 
ATOM     65  C   UNL A   1      40.650  28.273  33.262  1.00  0.00     0.029 A 
ATOM     66  C   UNL A   1      41.427  29.245  32.625  1.00  0.00     0.049 A 
ATOM     67  H   UNL A   1      42.080  29.170  30.622  1.00  0.00     0.167 HD
ATOM     68  C   UNL A   1      41.813  31.016  34.192  1.00  0.00     0.074 A 
ATOM     69  C   UNL A   1      41.072  30.435  35.293  1.00  0.00     0.031 C 
ATOM     70  C   UNL A   1      42.027  30.516  32.949  1.00  0.00     0.037 A 
BRANCH  57  71
ATOM     71  C   UNL A   1      40.395  27.316  28.726  1.00  0.00     0.057 A 
ATOM     72  C   UNL A   1      41.260  28.013  27.846  1.00  0.00     0.134 A 
ATOM     73  C   UNL A   1      39.911  26.093  28.253  1.00  0.00     0.134 A 
ATOM     74  F   UNL A   1      41.850  29.160  28.217  1.00  0.00    -0.206 F 
ATOM     75  C   UNL A   1      41.475  27.614  26.525  1.00  0.00     0.040 A 
ATOM     76  C   UNL A   1      40.168  25.654  26.945  1.00  0.00     0.040 A 
ATOM     77  F   UNL A   1      39.098  25.327  28.992  1.00  0.00    -0.206 F 
ATOM     78  C   UNL A   1      40.904  26.440  26.061  1.00  0.00     0.006 A 
ENDBRANCH  57  71
BRANCH  58  79
ATOM     79  C   UNL A   1      40.278  34.466  36.726  1.00  0.00     0.057 A 
ATOM     80  C   UNL A   1      41.444  35.069  37.199  1.00  0.00     0.134 A 
ATOM     81  C   UNL A   1      39.168  34.608  37.617  1.00  0.00     0.134 A 
ATOM     82  F   UNL A   1      42.606  34.926  36.550  1.00  0.00    -0.206 F 
ATOM     83  C   UNL A   1      41.467  35.849  38.382  1.00  0.00     0.040 A 
ATOM     84  C   UNL A   1      39.160  35.419  38.758  1.00  0.00     0.040 A 
ATOM     85  F   UNL A   1      38.010  33.963  37.417  1.00  0.00    -0.206 F 
ATOM     86  C   UNL A   1      40.315  36.067  39.136  1.00  0.00     0.006 A 
ENDBRANCH  58  79
BRANCH  70  87
ATOM     87  C   UNL A   1      42.548  31.552  31.946  1.00  0.00     0.057 A 
ATOM     88  C   UNL A   1      43.822  32.108  32.097  1.00  0.00     0.134 A 
ATOM     89  C   UNL A   1      41.772  32.125  30.922  1.00  0.00     0.134 A 
ATOM     90  F   UNL A   1      44.656  31.629  33.031  1.00  0.00    -0.206 F 
ATOM     91  C   UNL A   1      44.275  33.178  31.305  1.00  0.00     0.040 A 
ATOM     92  C   UNL A   1      42.204  33.192  30.121  1.00  0.00     0.040 A 
ATOM     93  F   UNL A   1      40.557  31.660  30.647  1.00  0.00    -0.206 F 
ATOM     94  C   UNL A   1      43.462  33.731  30.320  1.00  0.00     0.006 A 
ENDBRANCH  70  87
ENDBRANCH  44  45
ENDBRANCH  37  39
ENDBRANCH  36  37
ENDBRANCH  35  36
ENDBRANCH   1  35
TORSDOF 15
ENDMDL
MODEL 2
REMARK VINA RESULT:     -12.4      3.298      7.381
REMARK SMILES Cc1cccc(N2C(=O)/C(=C/c3cccn3-c3cccc(C(=O)OCCOC(=O)c4ccc(-c5c6nc(c(-c7c(F)cccc7F)c7ccc([nH]7)c(-c7c(F)cccc7F)c7nc(c(-c8c(F)cccc8F)c8ccc5[nH]8)C=C7)C=C6)cc4)c3)C(O)=NC2=S)c1C
REMARK SMILES IDX 25 1 24 2 22 3 23 4 21 5 17 6 18 7 84 8 19 9 20 10 16 11
REMARK SMILES IDX 12 12 13 13 14 14 15 15 11 16 7 17 8 18 88 19 9 20 10 21
REMARK SMILES IDX 87 22 89 23 85 24 6 25 1 26 2 27 3 28 90 29 4 30 91 31 5 32
REMARK SMILES IDX 86 33 26 35 27 36 28 37 29 38 30 39 31 40 83 41 32 42 82 43
REMARK SMILES IDX 33 44 34 45 35 46 76 47 36 48 81 49 75 50 77 51 37 52 80 53
REMARK SMILES IDX 74 54 73 55 38 57 64 58 47 59 63 60 48 61 51 62 62 63 78 64
REMARK SMILES IDX 49 65 50 66 61 68 79 69 52 70 39 71 40 72 45 73 41 74 42 75
REMARK SMILES IDX 44 76 46 77 43 78 65 79 66 80 71 81 67 82 68 83 70 84 72 85
REMARK SMILES IDX 69 86 53 87 54 88 59 89 55 90 56 91 58 92 60 93 57 94
REMARK H PARENT 86 34 77 56 51 67
REMARK Flexibility Score: inf
ROOT
ATOM      1  C   UNL A   1      34.123  33.403  28.077  1.00  0.00     0.275 C 
ENDROOT
BRANCH   1   2
ATOM      2  O   UNL A   1      33.346  32.227  27.783  1.00  0.00    -0.458 OA
BRANCH   2   3
ATOM      3  C   UNL A   1      34.043  31.159  27.311  1.00  0.00     0.338 C 
ATOM      4  O   UNL A   1      35.263  31.045  27.303  1.00  0.00    -0.246 OA
BRANCH   3   5
ATOM      5  C   UNL A   1      33.124  30.050  26.936  1.00  0.00     0.062 A 
ATOM      6  C   UNL A   1      31.567  28.979  25.412  1.00  0.00     0.046 A 
ATOM      7  C   UNL A   1      31.279  28.010  26.383  1.00  0.00     0.026 A 
ATOM      8  C   UNL A   1      32.466  30.016  25.702  1.00  0.00     0.042 A 
ATOM      9  C   UNL A   1      31.941  28.042  27.612  1.00  0.00     0.003 A 
ATOM     10  C   UNL A   1      32.870  29.049  27.882  1.00  0.00     0.016 A 
BRANCH   6  11
ATOM     11  N   UNL A   1      30.953  28.887  24.131  1.00  0.00    -0.317 N 
ATOM     12  C   UNL A   1      31.189  27.946  23.125  1.00  0.00     0.047 A 
ATOM     13  C   UNL A   1      30.359  28.242  22.058  1.00  0.00     0.028 A 
ATOM     14  C   UNL A   1      29.632  29.405  22.383  1.00  0.00     0.020 A 
ATOM     15  C   UNL A   1      29.994  29.766  23.660  1.00  0.00     0.092 A 
BRANCH  12  16
ATOM     16  C   UNL A   1      32.062  26.849  23.342  1.00  0.00     0.046 C 
ATOM     17  N   UNL A   1      32.594  23.635  24.955  1.00  0.00    -0.251 N 
ATOM     18  C   UNL A   1      32.841  24.697  24.083  1.00  0.00     0.270 C 
ATOM     19  C   UNL A   1      31.446  23.558  25.769  1.00  0.00     0.210 C 
ATOM     20  O   UNL A   1      33.863  24.828  23.409  1.00  0.00    -0.268 OA
ATOM     21  C   UNL A   1      31.749  25.717  24.004  1.00  0.00     0.104 C 
ATOM     22  N   UNL A   1      30.359  24.326  25.437  1.00  0.00    -0.184 NA
ATOM     23  S   UNL A   1      31.319  22.579  27.155  1.00  0.00    -0.038 S 
ATOM     24  C   UNL A   1      30.490  25.315  24.635  1.00  0.00     0.226 C 
BRANCH  17  25
ATOM     25  C   UNL A   1      33.613  22.629  25.039  1.00  0.00     0.055 A 
ATOM     26  C   UNL A   1      34.252  18.925  24.251  1.00  0.00     0.044 C 
ATOM     27  C   UNL A   1      34.410  20.347  24.721  1.00  0.00    -0.046 A 
ATOM     28  C   UNL A   1      35.604  20.703  25.372  1.00  0.00     0.004 A 
ATOM     29  C   UNL A   1      33.406  21.323  24.522  1.00  0.00    -0.024 A 
ATOM     30  C   UNL A   1      35.817  22.004  25.822  1.00  0.00     0.002 A 
ATOM     31  C   UNL A   1      32.154  21.007  23.738  1.00  0.00     0.047 C 
ATOM     32  C   UNL A   1      34.828  22.965  25.654  1.00  0.00     0.027 A 
ENDBRANCH  17  25
BRANCH  24  33
ATOM     33  O   UNL A   1      29.359  25.967  24.328  1.00  0.00    -0.493 OA
ATOM     34  H   UNL A   1      28.964  26.540  24.955  1.00  0.00     0.295 HD
ENDBRANCH  24  33
ENDBRANCH  12  16
ENDBRANCH   6  11
ENDBRANCH   3   5
ENDBRANCH   2   3
ENDBRANCH   1   2
BRANCH   1  35
ATOM     35  C   UNL A   1      34.137  33.746  29.567  1.00  0.00     0.275 C 
BRANCH  35  36
ATOM     36  O   UNL A   1      35.443  33.740  30.153  1.00  0.00    -0.458 OA
BRANCH  36  37
ATOM     37  C   UNL A   1      35.706  32.607  30.839  1.00  0.00     0.338 C 
ATOM     38  O   UNL A   1      35.018  32.084  31.703  1.00  0.00    -0.246 OA
BRANCH  37  39
ATOM     39  C   UNL A   1      37.079  32.161  30.631  1.00  0.00     0.060 A 
ATOM     40  C   UNL A   1      37.520  32.093  29.306  1.00  0.00     0.016 A 
ATOM     41  C   UNL A   1      37.732  31.489  31.672  1.00  0.00     0.016 A 
ATOM     42  C   UNL A   1      38.561  31.244  28.998  1.00  0.00     0.010 A 
ATOM     43  C   UNL A   1      38.759  30.619  31.361  1.00  0.00     0.010 A 
ATOM     44  C   UNL A   1      39.146  30.485  30.022  1.00  0.00    -0.014 A 
BRANCH  44  45
ATOM     45  C   UNL A   1      40.353  29.727  29.672  1.00  0.00     0.031 A 
ATOM     46  C   UNL A   1      41.541  30.731  29.527  1.00  0.00     0.074 A 
ATOM     47  C   UNL A   1      40.165  28.377  29.492  1.00  0.00     0.049 A 
ATOM     48  N   UNL A   1      42.623  30.681  28.811  1.00  0.00    -0.248 NA
ATOM     49  C   UNL A   1      41.468  32.039  30.258  1.00  0.00     0.031 C 
ATOM     50  C   UNL A   1      38.913  27.625  29.776  1.00  0.00     0.029 A 
ATOM     51  N   UNL A   1      40.966  27.355  29.033  1.00  0.00    -0.354 N 
ATOM     52  C   UNL A   1      43.436  31.781  29.192  1.00  0.00     0.074 A 
ATOM     53  C   UNL A   1      42.618  32.647  29.974  1.00  0.00     0.031 C 
ATOM     54  C   UNL A   1      39.016  26.326  29.400  1.00  0.00     0.029 A 
ATOM     55  C   UNL A   1      40.328  26.090  28.834  1.00  0.00     0.049 A 
ATOM     56  H   UNL A   1      41.924  27.488  28.852  1.00  0.00     0.167 HD
ATOM     57  C   UNL A   1      44.784  31.821  28.982  1.00  0.00     0.037 A 
ATOM     58  C   UNL A   1      40.821  24.975  28.196  1.00  0.00     0.037 A 
ATOM     59  C   UNL A   1      45.177  30.685  28.231  1.00  0.00     0.049 A 
ATOM     60  C   UNL A   1      42.196  25.366  27.883  1.00  0.00     0.074 A 
ATOM     61  C   UNL A   1      45.151  30.388  26.899  1.00  0.00     0.029 A 
ATOM     62  N   UNL A   1      45.420  29.544  28.948  1.00  0.00    -0.354 N 
ATOM     63  N   UNL A   1      43.150  25.452  28.754  1.00  0.00    -0.248 NA
ATOM     64  C   UNL A   1      42.484  25.845  26.532  1.00  0.00     0.031 C 
ATOM     65  C   UNL A   1      44.997  28.985  26.869  1.00  0.00     0.029 A 
ATOM     66  C   UNL A   1      45.039  28.479  28.172  1.00  0.00     0.049 A 
ATOM     67  H   UNL A   1      45.800  29.496  29.855  1.00  0.00     0.167 HD
ATOM     68  C   UNL A   1      44.038  26.303  28.145  1.00  0.00     0.074 A 
ATOM     69  C   UNL A   1      43.725  26.276  26.731  1.00  0.00     0.031 C 
ATOM     70  C   UNL A   1      44.652  27.275  28.865  1.00  0.00     0.037 A 
BRANCH  57  71
ATOM     71  C   UNL A   1      45.897  32.626  29.605  1.00  0.00     0.057 A 
ATOM     72  C   UNL A   1      46.123  32.475  30.996  1.00  0.00     0.134 A 
ATOM     73  C   UNL A   1      46.439  33.780  29.028  1.00  0.00     0.134 A 
ATOM     74  F   UNL A   1      45.720  31.373  31.647  1.00  0.00    -0.206 F 
ATOM     75  C   UNL A   1      46.680  33.483  31.785  1.00  0.00     0.040 A 
ATOM     76  C   UNL A   1      47.052  34.774  29.806  1.00  0.00     0.040 A 
ATOM     77  F   UNL A   1      46.313  34.036  27.720  1.00  0.00    -0.206 F 
ATOM     78  C   UNL A   1      47.124  34.653  31.191  1.00  0.00     0.006 A 
ENDBRANCH  57  71
BRANCH  58  79
ATOM     79  C   UNL A   1      40.397  23.625  27.643  1.00  0.00     0.057 A 
ATOM     80  C   UNL A   1      39.383  23.384  26.716  1.00  0.00     0.134 A 
ATOM     81  C   UNL A   1      41.126  22.448  28.001  1.00  0.00     0.134 A 
ATOM     82  F   UNL A   1      38.525  24.351  26.365  1.00  0.00    -0.206 F 
ATOM     83  C   UNL A   1      39.199  22.118  26.106  1.00  0.00     0.040 A 
ATOM     84  C   UNL A   1      40.994  21.205  27.369  1.00  0.00     0.040 A 
ATOM     85  F   UNL A   1      42.028  22.445  28.993  1.00  0.00    -0.206 F 
ATOM     86  C   UNL A   1      40.035  21.040  26.394  1.00  0.00     0.006 A 
ENDBRANCH  58  79
BRANCH  70  87
ATOM     87  C   UNL A   1      44.497  27.115  30.382  1.00  0.00     0.057 A 
ATOM     88  C   UNL A   1      45.104  26.045  31.049  1.00  0.00     0.134 A 
ATOM     89  C   UNL A   1      43.646  27.901  31.179  1.00  0.00     0.134 A 
ATOM     90  F   UNL A   1      45.949  25.239  30.392  1.00  0.00    -0.206 F 
ATOM     91  C   UNL A   1      44.853  25.763  32.403  1.00  0.00     0.040 A 
ATOM     92  C   UNL A   1      43.382  27.637  32.531  1.00  0.00     0.040 A 
ATOM     93  F   UNL A   1      43.041  28.973  30.679  1.00  0.00    -0.206 F 
ATOM     94  C   UNL A   1      43.982  26.553  33.147  1.00  0.00     0.006 A 
ENDBRANCH  70  87
ENDBRANCH  44  45
ENDBRANCH  37  39
ENDBRANCH  36  37
ENDBRANCH  35  36
ENDBRANCH   1  35
TORSDOF 15
ENDMDL
MODEL 3
REMARK VINA RESULT:     -12.3      3.351      8.324
REMARK SMILES Cc1cccc(N2C(=O)/C(=C/c3cccn3-c3cccc(C(=O)OCCOC(=O)c4ccc(-c5c6nc(c(-c7c(F)cccc7F)c7ccc([nH]7)c(-c7c(F)cccc7F)c7nc(c(-c8c(F)cccc8F)c8ccc5[nH]8)C=C7)C=C6)cc4)c3)C(O)=NC2=S)c1C
REMARK SMILES IDX 25 1 24 2 22 3 23 4 21 5 17 6 18 7 84 8 19 9 20 10 16 11
REMARK SMILES IDX 12 12 13 13 14 14 15 15 11 16 7 17 8 18 88 19 9 20 10 21
REMARK SMILES IDX 87 22 89 23 85 24 6 25 1 26 2 27 3 28 90 29 4 30 91 31 5 32
REMARK SMILES IDX 86 33 26 35 27 36 28 37 29 38 30 39 31 40 83 41 32 42 82 43
REMARK SMILES IDX 33 44 34 45 35 46 76 47 36 48 81 49 75 50 77 51 37 52 80 53
REMARK SMILES IDX 74 54 73 55 38 57 64 58 47 59 63 60 48 61 51 62 62 63 78 64
REMARK SMILES IDX 49 65 50 66 61 68 79 69 52 70 39 71 40 72 45 73 41 74 42 75
REMARK SMILES IDX 44 76 46 77 43 78 65 79 66 80 71 81 67 82 68 83 70 84 72 85
REMARK SMILES IDX 69 86 53 87 54 88 59 89 55 90 56 91 58 92 60 93 57 94
REMARK H PARENT 86 34 77 56 51 67
REMARK Flexibility Score: inf
ROOT
ATOM      1  C   UNL A   1      41.355  20.844  26.854  1.00  0.00     0.275 C 
ENDROOT
BRANCH   1   2
ATOM      2  O   UNL A   1      40.159  21.398  26.275  1.00  0.00    -0.458 OA
BRANCH   2   3
ATOM      3  C   UNL A   1      39.341  20.514  25.645  1.00  0.00     0.338 C 
ATOM      4  O   UNL A   1      39.615  19.351  25.373  1.00  0.00    -0.246 OA
BRANCH   3   5
ATOM      5  C   UNL A   1      37.982  21.090  25.458  1.00  0.00     0.062 A 
ATOM      6  C   UNL A   1      35.638  20.901  24.854  1.00  0.00     0.046 A 
ATOM      7  C   UNL A   1      35.495  22.291  24.962  1.00  0.00     0.026 A 
ATOM      8  C   UNL A   1      36.890  20.306  25.071  1.00  0.00     0.042 A 
ATOM      9  C   UNL A   1      36.583  23.071  25.356  1.00  0.00     0.003 A 
ATOM     10  C   UNL A   1      37.818  22.473  25.615  1.00  0.00     0.016 A 
BRANCH   6  11
ATOM     11  N   UNL A   1      34.501  20.104  24.538  1.00  0.00    -0.317 N 
ATOM     12  C   UNL A   1      33.241  20.530  24.109  1.00  0.00     0.047 A 
ATOM     13  C   UNL A   1      32.452  19.409  23.917  1.00  0.00     0.028 A 
ATOM     14  C   UNL A   1      33.212  18.277  24.274  1.00  0.00     0.020 A 
ATOM     15  C   UNL A   1      34.465  18.724  24.627  1.00  0.00     0.092 A 
BRANCH  12  16
ATOM     16  C   UNL A   1      32.987  21.898  23.833  1.00  0.00     0.046 C 
ATOM     17  N   UNL A   1      31.317  24.964  24.847  1.00  0.00    -0.251 N 
ATOM     18  C   UNL A   1      32.197  24.151  24.130  1.00  0.00     0.270 C 
ATOM     19  C   UNL A   1      30.532  24.492  25.917  1.00  0.00     0.210 C 
ATOM     20  O   UNL A   1      32.847  24.514  23.149  1.00  0.00    -0.268 OA
ATOM     21  C   UNL A   1      32.318  22.749  24.637  1.00  0.00     0.104 C 
ATOM     22  N   UNL A   1      30.902  23.322  26.531  1.00  0.00    -0.184 NA
ATOM     23  S   UNL A   1      29.137  25.274  26.498  1.00  0.00    -0.038 S 
ATOM     24  C   UNL A   1      31.713  22.520  25.952  1.00  0.00     0.226 C 
BRANCH  17  25
ATOM     25  C   UNL A   1      31.194  26.321  24.398  1.00  0.00     0.055 A 
ATOM     26  C   UNL A   1      32.184  29.906  25.355  1.00  0.00     0.044 C 
ATOM     27  C   UNL A   1      31.592  28.712  24.653  1.00  0.00    -0.046 A 
ATOM     28  C   UNL A   1      30.782  28.939  23.527  1.00  0.00     0.004 A 
ATOM     29  C   UNL A   1      31.829  27.387  25.086  1.00  0.00    -0.024 A 
ATOM     30  C   UNL A   1      30.212  27.879  22.825  1.00  0.00     0.002 A 
ATOM     31  C   UNL A   1      32.775  27.097  26.228  1.00  0.00     0.047 C 
ATOM     32  C   UNL A   1      30.419  26.574  23.257  1.00  0.00     0.027 A 
ENDBRANCH  17  25
BRANCH  24  33
ATOM     33  O   UNL A   1      32.058  21.433  26.657  1.00  0.00    -0.493 OA
ATOM     34  H   UNL A   1      32.857  21.426  27.147  1.00  0.00     0.295 HD
ENDBRANCH  24  33
ENDBRANCH  12  16
ENDBRANCH   6  11
ENDBRANCH   3   5
ENDBRANCH   2   3
ENDBRANCH   1   2
BRANCH   1  35
ATOM     35  C   UNL A   1      42.610  21.160  26.037  1.00  0.00     0.275 C 
BRANCH  35  36
ATOM     36  O   UNL A   1      43.401  22.224  26.575  1.00  0.00    -0.458 OA
BRANCH  36  37
ATOM     37  C   UNL A   1      43.053  23.434  26.088  1.00  0.00     0.338 C 
ATOM     38  O   UNL A   1      43.020  23.784  24.917  1.00  0.00    -0.246 OA
BRANCH  37  39
ATOM     39  C   UNL A   1      42.952  24.430  27.149  1.00  0.00     0.060 A 
ATOM     40  C   UNL A   1      41.901  24.271  28.057  1.00  0.00     0.016 A 
ATOM     41  C   UNL A   1      43.630  25.646  26.997  1.00  0.00     0.016 A 
ATOM     42  C   UNL A   1      41.443  25.377  28.740  1.00  0.00     0.010 A 
ATOM     43  C   UNL A   1      43.156  26.760  27.661  1.00  0.00     0.010 A 
ATOM     44  C   UNL A   1      42.048  26.620  28.506  1.00  0.00    -0.014 A 
BRANCH  44  45
ATOM     45  C   UNL A   1      41.636  27.727  29.378  1.00  0.00     0.031 A 
ATOM     46  C   UNL A   1      42.431  27.621  30.719  1.00  0.00     0.074 A 
ATOM     47  C   UNL A   1      40.643  28.531  28.872  1.00  0.00     0.049 A 
ATOM     48  N   UNL A   1      42.133  28.002  31.924  1.00  0.00    -0.248 NA
ATOM     49  C   UNL A   1      43.750  26.908  30.716  1.00  0.00     0.031 C 
ATOM     50  C   UNL A   1      40.088  28.470  27.492  1.00  0.00     0.029 A 
ATOM     51  N   UNL A   1      39.886  29.556  29.395  1.00  0.00    -0.354 N 
ATOM     52  C   UNL A   1      43.289  27.814  32.726  1.00  0.00     0.074 A 
ATOM     53  C   UNL A   1      44.193  27.016  31.967  1.00  0.00     0.031 C 
ATOM     54  C   UNL A   1      39.051  29.328  27.334  1.00  0.00     0.029 A 
ATOM     55  C   UNL A   1      38.814  30.034  28.577  1.00  0.00     0.049 A 
ATOM     56  H   UNL A   1      40.073  29.938  30.282  1.00  0.00     0.167 HD
ATOM     57  C   UNL A   1      43.497  28.475  33.902  1.00  0.00     0.037 A 
ATOM     58  C   UNL A   1      37.787  30.882  28.923  1.00  0.00     0.037 A 
ATOM     59  C   UNL A   1      42.347  29.238  34.223  1.00  0.00     0.049 A 
ATOM     60  C   UNL A   1      38.134  31.265  30.292  1.00  0.00     0.074 A 
ATOM     61  C   UNL A   1      41.151  28.931  34.805  1.00  0.00     0.029 A 
ATOM     62  N   UNL A   1      42.268  30.479  33.650  1.00  0.00    -0.354 N 
ATOM     63  N   UNL A   1      39.090  32.080  30.605  1.00  0.00    -0.248 NA
ATOM     64  C   UNL A   1      37.470  30.565  31.391  1.00  0.00     0.031 C 
ATOM     65  C   UNL A   1      40.248  29.850  34.230  1.00  0.00     0.029 A 
ATOM     66  C   UNL A   1      40.945  30.739  33.404  1.00  0.00     0.049 A 
ATOM     67  H   UNL A   1      43.025  31.078  33.452  1.00  0.00     0.167 HD
ATOM     68  C   UNL A   1      39.364  31.737  31.906  1.00  0.00     0.074 A 
ATOM     69  C   UNL A   1      38.195  31.038  32.398  1.00  0.00     0.031 C 
ATOM     70  C   UNL A   1      40.650  31.657  32.332  1.00  0.00     0.037 A 
BRANCH  57  71
ATOM     71  C   UNL A   1      44.736  28.764  34.713  1.00  0.00     0.057 A 
ATOM     72  C   UNL A   1      44.678  28.540  36.111  1.00  0.00     0.134 A 
ATOM     73  C   UNL A   1      45.772  29.599  34.280  1.00  0.00     0.134 A 
ATOM     74  F   UNL A   1      43.777  27.696  36.640  1.00  0.00    -0.206 F 
ATOM     75  C   UNL A   1      45.470  29.240  37.023  1.00  0.00     0.040 A 
ATOM     76  C   UNL A   1      46.611  30.264  35.186  1.00  0.00     0.040 A 
ATOM     77  F   UNL A   1      45.949  29.879  32.982  1.00  0.00    -0.206 F 
ATOM     78  C   UNL A   1      46.426  30.129  36.560  1.00  0.00     0.006 A 
ENDBRANCH  57  71
BRANCH  58  79
ATOM     79  C   UNL A   1      36.450  31.409  28.430  1.00  0.00     0.057 A 
ATOM     80  C   UNL A   1      35.327  30.652  28.095  1.00  0.00     0.134 A 
ATOM     81  C   UNL A   1      36.221  32.819  28.362  1.00  0.00     0.134 A 
ATOM     82  F   UNL A   1      35.401  29.319  27.986  1.00  0.00    -0.206 F 
ATOM     83  C   UNL A   1      34.064  31.243  27.844  1.00  0.00     0.040 A 
ATOM     84  C   UNL A   1      34.969  33.415  28.170  1.00  0.00     0.040 A 
ATOM     85  F   UNL A   1      37.218  33.707  28.490  1.00  0.00    -0.206 F 
ATOM     86  C   UNL A   1      33.871  32.620  27.929  1.00  0.00     0.006 A 
ENDBRANCH  58  79
BRANCH  70  87
ATOM     87  C   UNL A   1      41.665  32.264  31.356  1.00  0.00     0.057 A 
ATOM     88  C   UNL A   1      41.694  33.643  31.127  1.00  0.00     0.134 A 
ATOM     89  C   UNL A   1      42.515  31.511  30.527  1.00  0.00     0.134 A 
ATOM     90  F   UNL A   1      40.936  34.462  31.872  1.00  0.00    -0.206 F 
ATOM     91  C   UNL A   1      42.488  34.224  30.124  1.00  0.00     0.040 A 
ATOM     92  C   UNL A   1      43.315  32.069  29.519  1.00  0.00     0.040 A 
ATOM     93  F   UNL A   1      42.615  30.193  30.669  1.00  0.00    -0.206 F 
ATOM     94  C   UNL A   1      43.295  33.436  29.307  1.00  0.00     0.006 A 
ENDBRANCH  70  87
ENDBRANCH  44  45
ENDBRANCH  37  39
ENDBRANCH  36  37
ENDBRANCH  35  36
ENDBRANCH   1  35
TORSDOF 15
ENDMDL
