MODEL 1
REMARK VINA RESULT:     -11.4      0.000      0.000
REMARK SMILES Cc1cc(=O)n(Cc2cc(C(=O)OCCOC(=O)c3ccc(-c4c5nc(c(-c6c(F)cccc6F)c6ccc([nH]6)c(-c6c(F)cccc6F)c6nc(c(-c7c(F)cccc7F)c7ccc4[nH]7)C=C6)C=C5)cc3)oc2C)cc1[N+](=O)[O-]
REMARK SMILES IDX 14 1 13 2 11 3 12 4 10 5 8 6 9 7 74 8 73 9 75 10 7 11 6 12
REMARK SMILES IDX 1 13 2 14 3 15 77 16 4 17 76 18 5 19 78 20 79 21 80 22 15 23
REMARK SMILES IDX 16 24 17 25 18 26 19 27 20 28 72 29 21 30 71 31 22 32 23 33
REMARK SMILES IDX 24 34 65 35 25 36 70 37 64 38 66 39 26 40 69 41 63 42 62 43
REMARK SMILES IDX 27 45 53 46 36 47 52 48 37 49 40 50 51 51 67 52 38 53 39 54
REMARK SMILES IDX 50 56 68 57 41 58 28 59 29 60 34 61 30 62 31 63 33 64 35 65
REMARK SMILES IDX 32 66 54 67 55 68 60 69 56 70 57 71 59 72 61 73 58 74 42 75
REMARK SMILES IDX 43 76 48 77 44 78 45 79 47 80 49 81 46 82
REMARK H PARENT 66 44 40 55
REMARK Flexibility Score: inf
ROOT
ATOM      1  C   UNL A   1      31.431  31.922  26.586  1.00  0.00     0.275 C 
ENDROOT
BRANCH   1   2
ATOM      2  O   UNL A   1      31.828  30.656  27.142  1.00  0.00    -0.456 OA
BRANCH   2   3
ATOM      3  C   UNL A   1      32.614  29.875  26.341  1.00  0.00     0.374 C 
ATOM      4  O   UNL A   1      33.818  30.029  26.192  1.00  0.00    -0.242 OA
BRANCH   3   5
ATOM      5  C   UNL A   1      31.825  28.810  25.766  1.00  0.00     0.212 A 
ATOM      6  C   UNL A   1      30.712  26.933  25.160  1.00  0.00     0.014 A 
ATOM      7  C   UNL A   1      31.565  27.512  26.152  1.00  0.00     0.064 A 
ATOM      8  C   UNL A   1      30.583  27.902  24.181  1.00  0.00     0.107 A 
ATOM      9  O   UNL A   1      31.203  29.048  24.570  1.00  0.00    -0.454 OA
ATOM     10  C   UNL A   1      29.939  27.953  22.852  1.00  0.00     0.088 C 
BRANCH   6  11
ATOM     11  C   UNL A   1      30.077  25.580  25.220  1.00  0.00     0.164 C 
BRANCH  11  12
ATOM     12  N   UNL A   1      31.163  24.598  25.189  1.00  0.00    -0.304 N 
ATOM     13  C   UNL A   1      33.709  21.177  24.640  1.00  0.00     0.052 C 
ATOM     14  C   UNL A   1      32.913  22.429  24.879  1.00  0.00     0.034 A 
ATOM     15  C   UNL A   1      32.149  22.520  25.986  1.00  0.00     0.082 A 
ATOM     16  C   UNL A   1      32.884  23.532  23.917  1.00  0.00     0.288 A 
ATOM     17  C   UNL A   1      31.233  23.667  26.219  1.00  0.00     0.251 A 
ATOM     18  C   UNL A   1      32.008  24.543  24.085  1.00  0.00     0.175 A 
ATOM     19  O   UNL A   1      30.565  23.698  27.248  1.00  0.00    -0.269 OA
BRANCH  16  20
ATOM     20  N   UNL A   1      33.755  23.628  22.730  1.00  0.00     0.064 N 
ATOM     21  O   UNL A   1      33.276  23.320  21.629  1.00  0.00    -0.258 OA
ATOM     22  O   UNL A   1      34.917  24.021  22.886  1.00  0.00    -0.258 OA
ENDBRANCH  16  20
ENDBRANCH  11  12
ENDBRANCH   6  11
ENDBRANCH   3   5
ENDBRANCH   2   3
ENDBRANCH   1   2
BRANCH   1  23
ATOM     23  C   UNL A   1      32.448  33.025  26.907  1.00  0.00     0.275 C 
BRANCH  23  24
ATOM     24  O   UNL A   1      32.149  33.684  28.152  1.00  0.00    -0.458 OA
BRANCH  24  25
ATOM     25  C   UNL A   1      33.036  34.634  28.539  1.00  0.00     0.338 C 
ATOM     26  O   UNL A   1      32.847  35.839  28.577  1.00  0.00    -0.246 OA
BRANCH  25  27
ATOM     27  C   UNL A   1      34.244  33.986  29.090  1.00  0.00     0.060 A 
ATOM     28  C   UNL A   1      35.530  34.347  28.682  1.00  0.00     0.016 A 
ATOM     29  C   UNL A   1      34.065  32.991  30.054  1.00  0.00     0.016 A 
ATOM     30  C   UNL A   1      36.636  33.684  29.228  1.00  0.00     0.010 A 
ATOM     31  C   UNL A   1      35.162  32.316  30.581  1.00  0.00     0.010 A 
ATOM     32  C   UNL A   1      36.455  32.654  30.168  1.00  0.00    -0.014 A 
BRANCH  32  33
ATOM     33  C   UNL A   1      37.615  31.948  30.759  1.00  0.00     0.031 A 
ATOM     34  C   UNL A   1      38.102  32.291  32.134  1.00  0.00     0.074 A 
ATOM     35  C   UNL A   1      38.264  31.029  30.022  1.00  0.00     0.049 A 
ATOM     36  N   UNL A   1      39.058  31.732  32.834  1.00  0.00    -0.248 NA
ATOM     37  C   UNL A   1      37.439  33.418  32.807  1.00  0.00     0.031 C 
ATOM     38  C   UNL A   1      37.923  30.656  28.649  1.00  0.00     0.029 A 
ATOM     39  N   UNL A   1      39.347  30.245  30.326  1.00  0.00    -0.354 N 
ATOM     40  C   UNL A   1      39.100  32.425  34.037  1.00  0.00     0.074 A 
ATOM     41  C   UNL A   1      38.111  33.480  33.949  1.00  0.00     0.031 C 
ATOM     42  C   UNL A   1      38.766  29.694  28.237  1.00  0.00     0.029 A 
ATOM     43  C   UNL A   1      39.705  29.392  29.314  1.00  0.00     0.049 A 
ATOM     44  H   UNL A   1      39.820  30.289  31.188  1.00  0.00     0.167 HD
ATOM     45  C   UNL A   1      39.877  32.189  35.121  1.00  0.00     0.037 A 
ATOM     46  C   UNL A   1      40.671  28.457  29.268  1.00  0.00     0.037 A 
ATOM     47  C   UNL A   1      40.875  31.153  35.197  1.00  0.00     0.049 A 
ATOM     48  C   UNL A   1      41.537  28.230  30.473  1.00  0.00     0.074 A 
ATOM     49  C   UNL A   1      41.674  30.795  36.269  1.00  0.00     0.029 A 
ATOM     50  N   UNL A   1      41.224  30.318  34.146  1.00  0.00    -0.354 N 
ATOM     51  N   UNL A   1      41.499  28.820  31.643  1.00  0.00    -0.248 NA
ATOM     52  C   UNL A   1      42.576  27.198  30.352  1.00  0.00     0.031 C 
ATOM     53  C   UNL A   1      42.531  29.767  35.856  1.00  0.00     0.029 A 
ATOM     54  C   UNL A   1      42.242  29.461  34.536  1.00  0.00     0.049 A 
ATOM     55  H   UNL A   1      40.809  30.330  33.254  1.00  0.00     0.167 HD
ATOM     56  C   UNL A   1      42.486  28.214  32.406  1.00  0.00     0.074 A 
ATOM     57  C   UNL A   1      43.102  27.204  31.569  1.00  0.00     0.031 C 
ATOM     58  C   UNL A   1      42.849  28.467  33.689  1.00  0.00     0.037 A 
BRANCH  45  59
ATOM     59  C   UNL A   1      39.663  33.069  36.317  1.00  0.00     0.057 A 
ATOM     60  C   UNL A   1      38.714  32.744  37.293  1.00  0.00     0.134 A 
ATOM     61  C   UNL A   1      40.392  34.253  36.493  1.00  0.00     0.134 A 
ATOM     62  F   UNL A   1      37.975  31.630  37.183  1.00  0.00    -0.206 F 
ATOM     63  C   UNL A   1      38.506  33.561  38.408  1.00  0.00     0.040 A 
ATOM     64  C   UNL A   1      40.210  35.065  37.613  1.00  0.00     0.040 A 
ATOM     65  F   UNL A   1      41.320  34.618  35.596  1.00  0.00    -0.206 F 
ATOM     66  C   UNL A   1      39.261  34.720  38.574  1.00  0.00     0.006 A 
ENDBRANCH  45  59
BRANCH  46  67
ATOM     67  C   UNL A   1      40.825  27.616  28.059  1.00  0.00     0.057 A 
ATOM     68  C   UNL A   1      40.189  26.376  27.939  1.00  0.00     0.134 A 
ATOM     69  C   UNL A   1      41.626  28.042  26.994  1.00  0.00     0.134 A 
ATOM     70  F   UNL A   1      39.413  25.914  28.929  1.00  0.00    -0.206 F 
ATOM     71  C   UNL A   1      40.350  25.584  26.801  1.00  0.00     0.040 A 
ATOM     72  C   UNL A   1      41.782  27.268  25.843  1.00  0.00     0.040 A 
ATOM     73  F   UNL A   1      42.246  29.230  27.048  1.00  0.00    -0.206 F 
ATOM     74  C   UNL A   1      41.145  26.033  25.748  1.00  0.00     0.006 A 
ENDBRANCH  46  67
BRANCH  58  75
ATOM     75  C   UNL A   1      43.949  27.624  34.259  1.00  0.00     0.057 A 
ATOM     76  C   UNL A   1      43.667  26.385  34.849  1.00  0.00     0.134 A 
ATOM     77  C   UNL A   1      45.286  28.038  34.227  1.00  0.00     0.134 A 
ATOM     78  F   UNL A   1      42.407  25.932  34.912  1.00  0.00    -0.206 F 
ATOM     79  C   UNL A   1      44.678  25.588  35.387  1.00  0.00     0.040 A 
ATOM     80  C   UNL A   1      46.309  27.239  34.743  1.00  0.00     0.040 A 
ATOM     81  F   UNL A   1      45.623  29.206  33.659  1.00  0.00    -0.206 F 
ATOM     82  C   UNL A   1      46.005  26.012  35.328  1.00  0.00     0.006 A 
ENDBRANCH  58  75
ENDBRANCH  32  33
ENDBRANCH  25  27
ENDBRANCH  24  25
ENDBRANCH  23  24
ENDBRANCH   1  23
TORSDOF 14
ENDMDL
MODEL 2
REMARK VINA RESULT:     -11.4      4.292      9.213
REMARK SMILES Cc1cc(=O)n(Cc2cc(C(=O)OCCOC(=O)c3ccc(-c4c5nc(c(-c6c(F)cccc6F)c6ccc([nH]6)c(-c6c(F)cccc6F)c6nc(c(-c7c(F)cccc7F)c7ccc4[nH]7)C=C6)C=C5)cc3)oc2C)cc1[N+](=O)[O-]
REMARK SMILES IDX 14 1 13 2 11 3 12 4 10 5 8 6 9 7 74 8 73 9 75 10 7 11 6 12
REMARK SMILES IDX 1 13 2 14 3 15 77 16 4 17 76 18 5 19 78 20 79 21 80 22 15 23
REMARK SMILES IDX 16 24 17 25 18 26 19 27 20 28 72 29 21 30 71 31 22 32 23 33
REMARK SMILES IDX 24 34 65 35 25 36 70 37 64 38 66 39 26 40 69 41 63 42 62 43
REMARK SMILES IDX 27 45 53 46 36 47 52 48 37 49 40 50 51 51 67 52 38 53 39 54
REMARK SMILES IDX 50 56 68 57 41 58 28 59 29 60 34 61 30 62 31 63 33 64 35 65
REMARK SMILES IDX 32 66 54 67 55 68 60 69 56 70 57 71 59 72 61 73 58 74 42 75
REMARK SMILES IDX 43 76 48 77 44 78 45 79 47 80 49 81 46 82
REMARK H PARENT 66 44 40 55
REMARK Flexibility Score: inf
ROOT
ATOM      1  C   UNL A   1      37.807  20.705  24.913  1.00  0.00     0.275 C 
ENDROOT
BRANCH   1   2
ATOM      2  O   UNL A   1      36.722  21.366  25.589  1.00  0.00    -0.456 OA
BRANCH   2   3
ATOM      3  C   UNL A   1      35.466  20.948  25.248  1.00  0.00     0.374 C 
ATOM      4  O   UNL A   1      35.203  19.842  24.797  1.00  0.00    -0.242 OA
BRANCH   3   5
ATOM      5  C   UNL A   1      34.503  21.976  25.568  1.00  0.00     0.212 A 
ATOM      6  C   UNL A   1      33.297  23.800  26.160  1.00  0.00     0.014 A 
ATOM      7  C   UNL A   1      34.620  23.279  26.006  1.00  0.00     0.064 A 
ATOM      8  C   UNL A   1      32.454  22.738  25.887  1.00  0.00     0.107 A 
ATOM      9  O   UNL A   1      33.174  21.660  25.477  1.00  0.00    -0.454 OA
ATOM     10  C   UNL A   1      30.991  22.534  25.946  1.00  0.00     0.088 C 
BRANCH   6  11
ATOM     11  C   UNL A   1      32.937  25.211  26.502  1.00  0.00     0.164 C 
BRANCH  11  12
ATOM     12  N   UNL A   1      32.268  25.776  25.328  1.00  0.00    -0.304 N 
ATOM     13  C   UNL A   1      30.599  28.267  22.246  1.00  0.00     0.052 C 
ATOM     14  C   UNL A   1      31.147  27.302  23.260  1.00  0.00     0.034 A 
ATOM     15  C   UNL A   1      30.409  27.006  24.350  1.00  0.00     0.082 A 
ATOM     16  C   UNL A   1      32.484  26.719  23.142  1.00  0.00     0.288 A 
ATOM     17  C   UNL A   1      30.941  26.170  25.458  1.00  0.00     0.251 A 
ATOM     18  C   UNL A   1      33.000  26.016  24.170  1.00  0.00     0.175 A 
ATOM     19  O   UNL A   1      30.222  25.930  26.422  1.00  0.00    -0.269 OA
BRANCH  16  20
ATOM     20  N   UNL A   1      33.351  26.852  21.955  1.00  0.00     0.064 N 
ATOM     21  O   UNL A   1      33.350  25.928  21.128  1.00  0.00    -0.258 OA
ATOM     22  O   UNL A   1      34.026  27.880  21.834  1.00  0.00    -0.258 OA
ENDBRANCH  16  20
ENDBRANCH  11  12
ENDBRANCH   6  11
ENDBRANCH   3   5
ENDBRANCH   2   3
ENDBRANCH   1   2
BRANCH   1  23
ATOM     23  C   UNL A   1      39.092  20.726  25.750  1.00  0.00     0.275 C 
BRANCH  23  24
ATOM     24  O   UNL A   1      39.785  19.465  25.700  1.00  0.00    -0.458 OA
BRANCH  24  25
ATOM     25  C   UNL A   1      41.114  19.515  25.966  1.00  0.00     0.338 C 
ATOM     26  O   UNL A   1      41.957  18.697  25.636  1.00  0.00    -0.246 OA
BRANCH  25  27
ATOM     27  C   UNL A   1      41.446  20.817  26.579  1.00  0.00     0.060 A 
ATOM     28  C   UNL A   1      41.269  21.062  27.942  1.00  0.00     0.016 A 
ATOM     29  C   UNL A   1      41.960  21.814  25.746  1.00  0.00     0.016 A 
ATOM     30  C   UNL A   1      41.586  22.323  28.461  1.00  0.00     0.010 A 
ATOM     31  C   UNL A   1      42.255  23.076  26.256  1.00  0.00     0.010 A 
ATOM     32  C   UNL A   1      42.065  23.340  27.617  1.00  0.00    -0.014 A 
BRANCH  32  33
ATOM     33  C   UNL A   1      42.410  24.677  28.152  1.00  0.00     0.031 A 
ATOM     34  C   UNL A   1      43.821  25.009  28.536  1.00  0.00     0.074 A 
ATOM     35  C   UNL A   1      41.429  25.577  28.342  1.00  0.00     0.049 A 
ATOM     36  N   UNL A   1      44.315  26.146  28.958  1.00  0.00    -0.248 NA
ATOM     37  C   UNL A   1      44.801  23.917  28.449  1.00  0.00     0.031 C 
ATOM     38  C   UNL A   1      40.010  25.348  28.068  1.00  0.00     0.029 A 
ATOM     39  N   UNL A   1      41.478  26.863  28.816  1.00  0.00    -0.354 N 
ATOM     40  C   UNL A   1      45.668  25.914  29.169  1.00  0.00     0.074 A 
ATOM     41  C   UNL A   1      45.904  24.514  28.881  1.00  0.00     0.031 C 
ATOM     42  C   UNL A   1      39.326  26.468  28.352  1.00  0.00     0.029 A 
ATOM     43  C   UNL A   1      40.256  27.485  28.834  1.00  0.00     0.049 A 
ATOM     44  H   UNL A   1      42.310  27.298  29.111  1.00  0.00     0.167 HD
ATOM     45  C   UNL A   1      46.627  26.794  29.546  1.00  0.00     0.037 A 
ATOM     46  C   UNL A   1      39.928  28.742  29.184  1.00  0.00     0.037 A 
ATOM     47  C   UNL A   1      46.385  28.180  29.852  1.00  0.00     0.049 A 
ATOM     48  C   UNL A   1      41.004  29.692  29.623  1.00  0.00     0.074 A 
ATOM     49  C   UNL A   1      47.297  29.166  30.188  1.00  0.00     0.029 A 
ATOM     50  N   UNL A   1      45.132  28.773  29.877  1.00  0.00    -0.354 N 
ATOM     51  N   UNL A   1      42.296  29.492  29.718  1.00  0.00    -0.248 NA
ATOM     52  C   UNL A   1      40.574  31.046  29.996  1.00  0.00     0.031 C 
ATOM     53  C   UNL A   1      46.590  30.346  30.452  1.00  0.00     0.029 A 
ATOM     54  C   UNL A   1      45.242  30.105  30.246  1.00  0.00     0.049 A 
ATOM     55  H   UNL A   1      44.286  28.315  29.664  1.00  0.00     0.167 HD
ATOM     56  C   UNL A   1      42.837  30.701  30.133  1.00  0.00     0.074 A 
ATOM     57  C   UNL A   1      41.733  31.631  30.264  1.00  0.00     0.031 C 
ATOM     58  C   UNL A   1      44.133  31.015  30.379  1.00  0.00     0.037 A 
BRANCH  45  59
ATOM     59  C   UNL A   1      48.031  26.272  29.636  1.00  0.00     0.057 A 
ATOM     60  C   UNL A   1      48.548  25.793  30.846  1.00  0.00     0.134 A 
ATOM     61  C   UNL A   1      48.880  26.261  28.521  1.00  0.00     0.134 A 
ATOM     62  F   UNL A   1      47.793  25.783  31.954  1.00  0.00    -0.206 F 
ATOM     63  C   UNL A   1      49.855  25.309  30.939  1.00  0.00     0.040 A 
ATOM     64  C   UNL A   1      50.180  25.760  28.596  1.00  0.00     0.040 A 
ATOM     65  F   UNL A   1      48.444  26.703  27.332  1.00  0.00    -0.206 F 
ATOM     66  C   UNL A   1      50.672  25.284  29.811  1.00  0.00     0.006 A 
ENDBRANCH  45  59
BRANCH  46  67
ATOM     67  C   UNL A   1      38.523  29.196  29.064  1.00  0.00     0.057 A 
ATOM     68  C   UNL A   1      37.651  29.187  30.157  1.00  0.00     0.134 A 
ATOM     69  C   UNL A   1      38.023  29.644  27.837  1.00  0.00     0.134 A 
ATOM     70  F   UNL A   1      38.072  28.762  31.357  1.00  0.00    -0.206 F 
ATOM     71  C   UNL A   1      36.324  29.604  30.033  1.00  0.00     0.040 A 
ATOM     72  C   UNL A   1      36.704  30.080  27.701  1.00  0.00     0.040 A 
ATOM     73  F   UNL A   1      38.819  29.689  26.759  1.00  0.00    -0.206 F 
ATOM     74  C   UNL A   1      35.851  30.057  28.803  1.00  0.00     0.006 A 
ENDBRANCH  46  67
BRANCH  58  75
ATOM     75  C   UNL A   1      44.419  32.426  30.797  1.00  0.00     0.057 A 
ATOM     76  C   UNL A   1      44.665  33.418  29.840  1.00  0.00     0.134 A 
ATOM     77  C   UNL A   1      44.455  32.801  32.146  1.00  0.00     0.134 A 
ATOM     78  F   UNL A   1      44.648  33.123  28.532  1.00  0.00    -0.206 F 
ATOM     79  C   UNL A   1      44.935  34.736  30.211  1.00  0.00     0.040 A 
ATOM     80  C   UNL A   1      44.703  34.121  32.529  1.00  0.00     0.040 A 
ATOM     81  F   UNL A   1      44.209  31.900  33.109  1.00  0.00    -0.206 F 
ATOM     82  C   UNL A   1      44.947  35.091  31.559  1.00  0.00     0.006 A 
ENDBRANCH  58  75
ENDBRANCH  32  33
ENDBRANCH  25  27
ENDBRANCH  24  25
ENDBRANCH  23  24
ENDBRANCH   1  23
TORSDOF 14
ENDMDL
MODEL 3
REMARK VINA RESULT:     -11.3      4.165      9.392
REMARK SMILES Cc1cc(=O)n(Cc2cc(C(=O)OCCOC(=O)c3ccc(-c4c5nc(c(-c6c(F)cccc6F)c6ccc([nH]6)c(-c6c(F)cccc6F)c6nc(c(-c7c(F)cccc7F)c7ccc4[nH]7)C=C6)C=C5)cc3)oc2C)cc1[N+](=O)[O-]
REMARK SMILES IDX 14 1 13 2 11 3 12 4 10 5 8 6 9 7 74 8 73 9 75 10 7 11 6 12
REMARK SMILES IDX 1 13 2 14 3 15 77 16 4 17 76 18 5 19 78 20 79 21 80 22 15 23
REMARK SMILES IDX 16 24 17 25 18 26 19 27 20 28 72 29 21 30 71 31 22 32 23 33
REMARK SMILES IDX 24 34 65 35 25 36 70 37 64 38 66 39 26 40 69 41 63 42 62 43
REMARK SMILES IDX 27 45 53 46 36 47 52 48 37 49 40 50 51 51 67 52 38 53 39 54
REMARK SMILES IDX 50 56 68 57 41 58 28 59 29 60 34 61 30 62 31 63 33 64 35 65
REMARK SMILES IDX 32 66 54 67 55 68 60 69 56 70 57 71 59 72 61 73 58 74 42 75
REMARK SMILES IDX 43 76 48 77 44 78 45 79 47 80 49 81 46 82
REMARK H PARENT 66 44 40 55
REMARK Flexibility Score: inf
ROOT
ATOM      1  C   UNL A   1      38.949  20.994  25.769  1.00  0.00     0.275 C 
ENDROOT
BRANCH   1   2
ATOM      2  O   UNL A   1      37.763  21.274  25.005  1.00  0.00    -0.456 OA
BRANCH   2   3
ATOM      3  C   UNL A   1      37.194  22.499  25.218  1.00  0.00     0.374 C 
ATOM      4  O   UNL A   1      37.747  23.429  25.788  1.00  0.00    -0.242 OA
BRANCH   3   5
ATOM      5  C   UNL A   1      35.886  22.546  24.606  1.00  0.00     0.212 A 
ATOM      6  C   UNL A   1      33.934  22.974  23.540  1.00  0.00     0.014 A 
ATOM      7  C   UNL A   1      35.225  23.500  23.861  1.00  0.00     0.064 A 
ATOM      8  C   UNL A   1      33.864  21.757  24.195  1.00  0.00     0.107 A 
ATOM      9  O   UNL A   1      35.055  21.474  24.787  1.00  0.00    -0.454 OA
ATOM     10  C   UNL A   1      32.809  20.739  24.381  1.00  0.00     0.088 C 
BRANCH   6  11
ATOM     11  C   UNL A   1      32.917  23.610  22.646  1.00  0.00     0.164 C 
BRANCH  11  12
ATOM     12  N   UNL A   1      32.650  24.944  23.188  1.00  0.00    -0.304 N 
ATOM     13  C   UNL A   1      31.035  28.765  24.319  1.00  0.00     0.052 C 
ATOM     14  C   UNL A   1      31.693  27.454  23.992  1.00  0.00     0.034 A 
ATOM     15  C   UNL A   1      32.408  27.343  22.855  1.00  0.00     0.082 A 
ATOM     16  C   UNL A   1      31.532  26.268  24.834  1.00  0.00     0.288 A 
ATOM     17  C   UNL A   1      32.971  26.045  22.400  1.00  0.00     0.251 A 
ATOM     18  C   UNL A   1      31.980  25.073  24.400  1.00  0.00     0.175 A 
ATOM     19  O   UNL A   1      33.617  26.006  21.358  1.00  0.00    -0.269 OA
BRANCH  16  20
ATOM     20  N   UNL A   1      30.887  26.268  26.162  1.00  0.00     0.064 N 
ATOM     21  O   UNL A   1      29.808  25.668  26.285  1.00  0.00    -0.258 OA
ATOM     22  O   UNL A   1      31.456  26.852  27.090  1.00  0.00    -0.258 OA
ENDBRANCH  16  20
ENDBRANCH  11  12
ENDBRANCH   6  11
ENDBRANCH   3   5
ENDBRANCH   2   3
ENDBRANCH   1   2
BRANCH   1  23
ATOM     23  C   UNL A   1      39.542  19.625  25.412  1.00  0.00     0.275 C 
BRANCH  23  24
ATOM     24  O   UNL A   1      40.627  19.265  26.288  1.00  0.00    -0.458 OA
BRANCH  24  25
ATOM     25  C   UNL A   1      41.852  19.709  25.917  1.00  0.00     0.338 C 
ATOM     26  O   UNL A   1      42.592  19.206  25.087  1.00  0.00    -0.246 OA
BRANCH  25  27
ATOM     27  C   UNL A   1      42.114  21.019  26.545  1.00  0.00     0.060 A 
ATOM     28  C   UNL A   1      41.983  21.223  27.920  1.00  0.00     0.016 A 
ATOM     29  C   UNL A   1      42.513  22.069  25.714  1.00  0.00     0.016 A 
ATOM     30  C   UNL A   1      42.229  22.493  28.454  1.00  0.00     0.010 A 
ATOM     31  C   UNL A   1      42.737  23.339  26.240  1.00  0.00     0.010 A 
ATOM     32  C   UNL A   1      42.590  23.561  27.614  1.00  0.00    -0.014 A 
BRANCH  32  33
ATOM     33  C   UNL A   1      42.859  24.909  28.165  1.00  0.00     0.031 A 
ATOM     34  C   UNL A   1      44.250  25.318  28.546  1.00  0.00     0.074 A 
ATOM     35  C   UNL A   1      41.829  25.747  28.371  1.00  0.00     0.049 A 
ATOM     36  N   UNL A   1      44.680  26.477  28.980  1.00  0.00    -0.248 NA
ATOM     37  C   UNL A   1      45.293  24.287  28.441  1.00  0.00     0.031 C 
ATOM     38  C   UNL A   1      40.424  25.438  28.100  1.00  0.00     0.029 A 
ATOM     39  N   UNL A   1      41.804  27.027  28.860  1.00  0.00    -0.354 N 
ATOM     40  C   UNL A   1      46.045  26.322  29.182  1.00  0.00     0.074 A 
ATOM     41  C   UNL A   1      46.361  24.942  28.875  1.00  0.00     0.031 C 
ATOM     42  C   UNL A   1      39.676  26.512  28.402  1.00  0.00     0.029 A 
ATOM     43  C   UNL A   1      40.548  27.576  28.892  1.00  0.00     0.049 A 
ATOM     44  H   UNL A   1      42.611  27.507  29.158  1.00  0.00     0.167 HD
ATOM     45  C   UNL A   1      46.953  27.252  29.566  1.00  0.00     0.037 A 
ATOM     46  C   UNL A   1      40.148  28.807  29.259  1.00  0.00     0.037 A 
ATOM     47  C   UNL A   1      46.631  28.618  29.891  1.00  0.00     0.049 A 
ATOM     48  C   UNL A   1      41.169  29.814  29.706  1.00  0.00     0.074 A 
ATOM     49  C   UNL A   1      47.485  29.651  30.235  1.00  0.00     0.029 A 
ATOM     50  N   UNL A   1      45.345  29.135  29.929  1.00  0.00    -0.354 N 
ATOM     51  N   UNL A   1      42.471  29.689  29.792  1.00  0.00    -0.248 NA
ATOM     52  C   UNL A   1      40.662  31.136  30.098  1.00  0.00     0.031 C 
ATOM     53  C   UNL A   1      46.711  30.785  30.517  1.00  0.00     0.029 A 
ATOM     54  C   UNL A   1      45.378  30.467  30.315  1.00  0.00     0.049 A 
ATOM     55  H   UNL A   1      44.527  28.631  29.714  1.00  0.00     0.167 HD
ATOM     56  C   UNL A   1      42.942  30.922  30.220  1.00  0.00     0.074 A 
ATOM     57  C   UNL A   1      41.786  31.784  30.368  1.00  0.00     0.031 C 
ATOM     58  C   UNL A   1      44.219  31.308  30.465  1.00  0.00     0.037 A 
BRANCH  45  59
ATOM     59  C   UNL A   1      48.385  26.813  29.643  1.00  0.00     0.057 A 
ATOM     60  C   UNL A   1      48.910  26.261  30.817  1.00  0.00     0.134 A 
ATOM     61  C   UNL A   1      49.253  26.954  28.551  1.00  0.00     0.134 A 
ATOM     62  F   UNL A   1      48.138  26.106  31.903  1.00  0.00    -0.206 F 
ATOM     63  C   UNL A   1      50.244  25.853  30.899  1.00  0.00     0.040 A 
ATOM     64  C   UNL A   1      50.581  26.530  28.613  1.00  0.00     0.040 A 
ATOM     65  F   UNL A   1      48.810  27.471  27.395  1.00  0.00    -0.206 F 
ATOM     66  C   UNL A   1      51.081  25.979  29.792  1.00  0.00     0.006 A 
ENDBRANCH  45  59
BRANCH  46  67
ATOM     67  C   UNL A   1      38.718  29.179  29.152  1.00  0.00     0.057 A 
ATOM     68  C   UNL A   1      37.863  29.141  30.258  1.00  0.00     0.134 A 
ATOM     69  C   UNL A   1      38.177  29.576  27.924  1.00  0.00     0.134 A 
ATOM     70  F   UNL A   1      38.324  28.763  31.458  1.00  0.00    -0.206 F 
ATOM     71  C   UNL A   1      36.513  29.481  30.145  1.00  0.00     0.040 A 
ATOM     72  C   UNL A   1      36.835  29.935  27.800  1.00  0.00     0.040 A 
ATOM     73  F   UNL A   1      38.956  29.646  26.834  1.00  0.00    -0.206 F 
ATOM     74  C   UNL A   1      35.999  29.884  28.914  1.00  0.00     0.006 A 
ENDBRANCH  46  67
BRANCH  58  75
ATOM     75  C   UNL A   1      44.424  32.728  30.899  1.00  0.00     0.057 A 
ATOM     76  C   UNL A   1      44.606  33.746  29.954  1.00  0.00     0.134 A 
ATOM     77  C   UNL A   1      44.444  33.089  32.252  1.00  0.00     0.134 A 
ATOM     78  F   UNL A   1      44.599  33.466  28.642  1.00  0.00    -0.206 F 
ATOM     79  C   UNL A   1      44.800  35.073  30.340  1.00  0.00     0.040 A 
ATOM     80  C   UNL A   1      44.616  34.416  32.650  1.00  0.00     0.040 A 
ATOM     81  F   UNL A   1      44.257  32.163  33.205  1.00  0.00    -0.206 F 
ATOM     82  C   UNL A   1      44.799  35.411  31.692  1.00  0.00     0.006 A 
ENDBRANCH  58  75
ENDBRANCH  32  33
ENDBRANCH  25  27
ENDBRANCH  24  25
ENDBRANCH  23  24
ENDBRANCH   1  23
TORSDOF 14
ENDMDL
