MODEL 1
REMARK VINA RESULT:     -11.0      0.000      0.000
REMARK SMILES O=C(CCc1ccc(S(=O)(=O)NC2COC2)cc1)OCCOC(=O)c1ccc(-c2c3nc(c(-c4c(F)cccc4F)c4ccc([nH]4)c(-c4c(F)cccc4F)c4nc(c(-c5c(F)cccc5F)c5ccc2[nH]5)C=C4)C=C3)cc1
REMARK SMILES IDX 19 1 2 2 1 3 3 4 4 5 5 6 6 7 18 8 7 9 17 10 8 11 9 12 10 13
REMARK SMILES IDX 11 14 12 15 13 17 14 18 16 19 15 20 20 21 21 22 22 23 23 24
REMARK SMILES IDX 24 25 25 26 26 27 78 28 27 29 77 30 28 31 29 32 30 33 71 34
REMARK SMILES IDX 31 35 76 36 70 37 72 38 32 39 75 40 69 41 68 42 33 44 59 45
REMARK SMILES IDX 42 46 58 47 43 48 46 49 57 50 73 51 44 52 45 53 56 55 74 56
REMARK SMILES IDX 47 57 34 58 35 59 40 60 36 61 37 62 39 63 41 64 38 65 60 66
REMARK SMILES IDX 61 67 66 68 62 69 63 70 65 71 67 72 64 73 48 74 49 75 54 76
REMARK SMILES IDX 50 77 51 78 53 79 55 80 52 81
REMARK H PARENT 12 16 72 43 46 54
REMARK Flexibility Score: inf
ROOT
ATOM      1  O   UNL A   1      42.561  21.670  25.313  1.00  0.00    -0.462 OA
ENDROOT
BRANCH   1   2
ATOM      2  C   UNL A   1      41.850  21.633  26.472  1.00  0.00     0.306 C 
ATOM      3  O   UNL A   1      42.408  21.592  27.563  1.00  0.00    -0.252 OA
BRANCH   2   4
ATOM      4  C   UNL A   1      40.359  21.417  26.320  1.00  0.00     0.127 C 
BRANCH   4   5
ATOM      5  C   UNL A   1      39.536  22.707  26.296  1.00  0.00     0.047 C 
BRANCH   5   6
ATOM      6  C   UNL A   1      38.100  22.539  25.848  1.00  0.00    -0.047 A 
ATOM      7  C   UNL A   1      37.719  21.375  25.164  1.00  0.00     0.005 A 
ATOM      8  C   UNL A   1      37.127  23.516  26.103  1.00  0.00     0.005 A 
ATOM      9  C   UNL A   1      36.371  21.108  24.908  1.00  0.00     0.022 A 
ATOM     10  C   UNL A   1      35.779  23.246  25.872  1.00  0.00     0.022 A 
ATOM     11  C   UNL A   1      35.403  22.014  25.333  1.00  0.00     0.082 A 
BRANCH  11  12
ATOM     12  S   UNL A   1      33.685  21.570  25.306  1.00  0.00     0.240 S 
ATOM     13  O   UNL A   1      33.008  22.284  26.364  1.00  0.00    -0.207 OA
ATOM     14  O   UNL A   1      33.226  21.585  23.936  1.00  0.00    -0.207 OA
BRANCH  12  15
ATOM     15  N   UNL A   1      33.755  19.934  25.728  1.00  0.00    -0.203 NA
ATOM     16  H   UNL A   1      33.187  19.845  26.570  1.00  0.00     0.141 HD
BRANCH  15  17
ATOM     17  C   UNL A   1      33.333  18.807  24.839  1.00  0.00     0.121 C 
ATOM     18  C   UNL A   1      34.355  17.749  24.404  1.00  0.00     0.182 C 
ATOM     19  C   UNL A   1      32.621  17.613  25.492  1.00  0.00     0.182 C 
ATOM     20  O   UNL A   1      33.424  16.679  24.728  1.00  0.00    -0.378 OA
ENDBRANCH  15  17
ENDBRANCH  12  15
ENDBRANCH  11  12
ENDBRANCH   5   6
ENDBRANCH   4   5
ENDBRANCH   2   4
ENDBRANCH   1   2
BRANCH   1  21
ATOM     21  C   UNL A   1      43.992  21.566  25.404  1.00  0.00     0.274 C 
BRANCH  21  22
ATOM     22  C   UNL A   1      44.736  22.596  24.541  1.00  0.00     0.275 C 
BRANCH  22  23
ATOM     23  O   UNL A   1      43.996  23.818  24.409  1.00  0.00    -0.458 OA
BRANCH  23  24
ATOM     24  C   UNL A   1      44.620  24.878  24.981  1.00  0.00     0.338 C 
ATOM     25  O   UNL A   1      45.755  25.263  24.754  1.00  0.00    -0.246 OA
BRANCH  24  26
ATOM     26  C   UNL A   1      43.667  25.648  25.802  1.00  0.00     0.060 A 
ATOM     27  C   UNL A   1      44.043  26.949  26.155  1.00  0.00     0.016 A 
ATOM     28  C   UNL A   1      42.463  25.108  26.265  1.00  0.00     0.016 A 
ATOM     29  C   UNL A   1      43.272  27.674  27.057  1.00  0.00     0.010 A 
ATOM     30  C   UNL A   1      41.683  25.844  27.167  1.00  0.00     0.010 A 
ATOM     31  C   UNL A   1      42.121  27.101  27.617  1.00  0.00    -0.014 A 
BRANCH  31  32
ATOM     32  C   UNL A   1      41.538  27.741  28.825  1.00  0.00     0.031 A 
ATOM     33  C   UNL A   1      42.257  27.586  30.140  1.00  0.00     0.074 A 
ATOM     34  C   UNL A   1      40.458  28.538  28.740  1.00  0.00     0.049 A 
ATOM     35  N   UNL A   1      42.023  28.166  31.290  1.00  0.00    -0.248 NA
ATOM     36  C   UNL A   1      43.397  26.655  30.162  1.00  0.00     0.031 C 
ATOM     37  C   UNL A   1      39.689  28.796  27.524  1.00  0.00     0.029 A 
ATOM     38  N   UNL A   1      39.839  29.299  29.700  1.00  0.00    -0.354 N 
ATOM     39  C   UNL A   1      42.988  27.680  32.163  1.00  0.00     0.074 A 
ATOM     40  C   UNL A   1      43.778  26.717  31.427  1.00  0.00     0.031 C 
ATOM     41  C   UNL A   1      38.708  29.670  27.808  1.00  0.00     0.029 A 
ATOM     42  C   UNL A   1      38.774  30.024  29.226  1.00  0.00     0.049 A 
ATOM     43  H   UNL A   1      40.131  29.322  30.640  1.00  0.00     0.167 HD
ATOM     44  C   UNL A   1      43.216  28.018  33.454  1.00  0.00     0.037 A 
ATOM     45  C   UNL A   1      37.954  30.883  29.863  1.00  0.00     0.037 A 
ATOM     46  C   UNL A   1      42.435  28.976  34.191  1.00  0.00     0.049 A 
ATOM     47  C   UNL A   1      38.192  31.198  31.318  1.00  0.00     0.074 A 
ATOM     48  C   UNL A   1      42.601  29.401  35.498  1.00  0.00     0.029 A 
ATOM     49  N   UNL A   1      41.334  29.650  33.686  1.00  0.00    -0.354 N 
ATOM     50  N   UNL A   1      39.142  30.774  32.115  1.00  0.00    -0.248 NA
ATOM     51  C   UNL A   1      37.247  32.128  31.954  1.00  0.00     0.031 C 
ATOM     52  C   UNL A   1      41.566  30.291  35.801  1.00  0.00     0.029 A 
ATOM     53  C   UNL A   1      40.793  30.467  34.665  1.00  0.00     0.049 A 
ATOM     54  H   UNL A   1      40.989  29.562  32.769  1.00  0.00     0.167 HD
ATOM     55  C   UNL A   1      38.935  31.418  33.331  1.00  0.00     0.074 A 
ATOM     56  C   UNL A   1      37.775  32.266  33.162  1.00  0.00     0.031 C 
ATOM     57  C   UNL A   1      39.646  31.319  34.482  1.00  0.00     0.037 A 
BRANCH  44  58
ATOM     58  C   UNL A   1      44.346  27.324  34.158  1.00  0.00     0.057 A 
ATOM     59  C   UNL A   1      44.174  26.096  34.811  1.00  0.00     0.134 A 
ATOM     60  C   UNL A   1      45.630  27.884  34.165  1.00  0.00     0.134 A 
ATOM     61  F   UNL A   1      42.966  25.514  34.857  1.00  0.00    -0.206 F 
ATOM     62  C   UNL A   1      45.230  25.465  35.470  1.00  0.00     0.040 A 
ATOM     63  C   UNL A   1      46.700  27.248  34.796  1.00  0.00     0.040 A 
ATOM     64  F   UNL A   1      45.866  29.056  33.557  1.00  0.00    -0.206 F 
ATOM     65  C   UNL A   1      46.501  26.039  35.457  1.00  0.00     0.006 A 
ENDBRANCH  44  58
BRANCH  45  66
ATOM     66  C   UNL A   1      36.837  31.533  29.129  1.00  0.00     0.057 A 
ATOM     67  C   UNL A   1      36.905  32.876  28.740  1.00  0.00     0.134 A 
ATOM     68  C   UNL A   1      35.658  30.836  28.838  1.00  0.00     0.134 A 
ATOM     69  F   UNL A   1      37.999  33.603  29.011  1.00  0.00    -0.206 F 
ATOM     70  C   UNL A   1      35.832  33.511  28.112  1.00  0.00     0.040 A 
ATOM     71  C   UNL A   1      34.587  31.451  28.188  1.00  0.00     0.040 A 
ATOM     72  F   UNL A   1      35.529  29.547  29.184  1.00  0.00    -0.206 F 
ATOM     73  C   UNL A   1      34.669  32.796  27.831  1.00  0.00     0.006 A 
ENDBRANCH  45  66
BRANCH  57  74
ATOM     74  C   UNL A   1      39.225  32.189  35.632  1.00  0.00     0.057 A 
ATOM     75  C   UNL A   1      39.665  33.512  35.770  1.00  0.00     0.134 A 
ATOM     76  C   UNL A   1      38.338  31.702  36.603  1.00  0.00     0.134 A 
ATOM     77  F   UNL A   1      40.521  34.040  34.882  1.00  0.00    -0.206 F 
ATOM     78  C   UNL A   1      39.267  34.306  36.847  1.00  0.00     0.040 A 
ATOM     79  C   UNL A   1      37.908  32.496  37.667  1.00  0.00     0.040 A 
ATOM     80  F   UNL A   1      37.866  30.449  36.527  1.00  0.00    -0.206 F 
ATOM     81  C   UNL A   1      38.380  33.800  37.796  1.00  0.00     0.006 A 
ENDBRANCH  57  74
ENDBRANCH  31  32
ENDBRANCH  24  26
ENDBRANCH  23  24
ENDBRANCH  22  23
ENDBRANCH  21  22
ENDBRANCH   1  21
TORSDOF 16
ENDMDL
MODEL 2
REMARK VINA RESULT:     -10.8      1.348      2.076
REMARK SMILES O=C(CCc1ccc(S(=O)(=O)NC2COC2)cc1)OCCOC(=O)c1ccc(-c2c3nc(c(-c4c(F)cccc4F)c4ccc([nH]4)c(-c4c(F)cccc4F)c4nc(c(-c5c(F)cccc5F)c5ccc2[nH]5)C=C4)C=C3)cc1
REMARK SMILES IDX 19 1 2 2 1 3 3 4 4 5 5 6 6 7 18 8 7 9 17 10 8 11 9 12 10 13
REMARK SMILES IDX 11 14 12 15 13 17 14 18 16 19 15 20 20 21 21 22 22 23 23 24
REMARK SMILES IDX 24 25 25 26 26 27 78 28 27 29 77 30 28 31 29 32 30 33 71 34
REMARK SMILES IDX 31 35 76 36 70 37 72 38 32 39 75 40 69 41 68 42 33 44 59 45
REMARK SMILES IDX 42 46 58 47 43 48 46 49 57 50 73 51 44 52 45 53 56 55 74 56
REMARK SMILES IDX 47 57 34 58 35 59 40 60 36 61 37 62 39 63 41 64 38 65 60 66
REMARK SMILES IDX 61 67 66 68 62 69 63 70 65 71 67 72 64 73 48 74 49 75 54 76
REMARK SMILES IDX 50 77 51 78 53 79 55 80 52 81
REMARK H PARENT 12 16 72 43 46 54
REMARK Flexibility Score: inf
ROOT
ATOM      1  O   UNL A   1      43.142  21.324  25.931  1.00  0.00    -0.462 OA
ENDROOT
BRANCH   1   2
ATOM      2  C   UNL A   1      42.333  20.235  26.038  1.00  0.00     0.306 C 
ATOM      3  O   UNL A   1      42.393  19.313  25.233  1.00  0.00    -0.252 OA
BRANCH   2   4
ATOM      4  C   UNL A   1      41.219  20.345  27.059  1.00  0.00     0.127 C 
BRANCH   4   5
ATOM      5  C   UNL A   1      40.770  21.779  27.346  1.00  0.00     0.047 C 
BRANCH   5   6
ATOM      6  C   UNL A   1      39.557  22.236  26.563  1.00  0.00    -0.047 A 
ATOM      7  C   UNL A   1      38.875  21.322  25.745  1.00  0.00     0.005 A 
ATOM      8  C   UNL A   1      39.084  23.554  26.634  1.00  0.00     0.005 A 
ATOM      9  C   UNL A   1      37.650  21.661  25.164  1.00  0.00     0.022 A 
ATOM     10  C   UNL A   1      37.852  23.893  26.077  1.00  0.00     0.022 A 
ATOM     11  C   UNL A   1      37.110  22.924  25.398  1.00  0.00     0.082 A 
BRANCH  11  12
ATOM     12  S   UNL A   1      35.433  23.281  24.943  1.00  0.00     0.240 S 
ATOM     13  O   UNL A   1      35.088  24.591  25.445  1.00  0.00    -0.207 OA
ATOM     14  O   UNL A   1      35.239  22.898  23.563  1.00  0.00    -0.207 OA
BRANCH  12  15
ATOM     15  N   UNL A   1      34.588  22.127  25.843  1.00  0.00    -0.203 NA
ATOM     16  H   UNL A   1      34.986  22.167  26.781  1.00  0.00     0.141 HD
BRANCH  15  17
ATOM     17  C   UNL A   1      33.104  22.117  26.038  1.00  0.00     0.121 C 
ATOM     18  C   UNL A   1      32.445  23.142  26.969  1.00  0.00     0.182 C 
ATOM     19  C   UNL A   1      32.240  22.785  24.959  1.00  0.00     0.182 C 
ATOM     20  O   UNL A   1      31.429  23.434  25.970  1.00  0.00    -0.378 OA
ENDBRANCH  15  17
ENDBRANCH  12  15
ENDBRANCH  11  12
ENDBRANCH   5   6
ENDBRANCH   4   5
ENDBRANCH   2   4
ENDBRANCH   1   2
BRANCH   1  21
ATOM     21  C   UNL A   1      44.386  21.164  25.228  1.00  0.00     0.274 C 
BRANCH  21  22
ATOM     22  C   UNL A   1      44.706  22.328  24.279  1.00  0.00     0.275 C 
BRANCH  22  23
ATOM     23  O   UNL A   1      43.862  23.462  24.520  1.00  0.00    -0.458 OA
BRANCH  23  24
ATOM     24  C   UNL A   1      44.545  24.542  24.977  1.00  0.00     0.338 C 
ATOM     25  O   UNL A   1      45.678  24.870  24.667  1.00  0.00    -0.246 OA
BRANCH  24  26
ATOM     26  C   UNL A   1      43.657  25.403  25.780  1.00  0.00     0.060 A 
ATOM     27  C   UNL A   1      44.203  26.597  26.264  1.00  0.00     0.016 A 
ATOM     28  C   UNL A   1      42.346  25.040  26.104  1.00  0.00     0.016 A 
ATOM     29  C   UNL A   1      43.480  27.379  27.159  1.00  0.00     0.010 A 
ATOM     30  C   UNL A   1      41.616  25.834  26.998  1.00  0.00     0.010 A 
ATOM     31  C   UNL A   1      42.207  26.969  27.580  1.00  0.00    -0.014 A 
BRANCH  31  32
ATOM     32  C   UNL A   1      41.628  27.615  28.786  1.00  0.00     0.031 A 
ATOM     33  C   UNL A   1      42.348  27.462  30.101  1.00  0.00     0.074 A 
ATOM     34  C   UNL A   1      40.551  28.416  28.700  1.00  0.00     0.049 A 
ATOM     35  N   UNL A   1      42.117  28.048  31.249  1.00  0.00    -0.248 NA
ATOM     36  C   UNL A   1      43.485  26.527  30.125  1.00  0.00     0.031 C 
ATOM     37  C   UNL A   1      39.781  28.672  27.484  1.00  0.00     0.029 A 
ATOM     38  N   UNL A   1      39.936  29.182  29.658  1.00  0.00    -0.354 N 
ATOM     39  C   UNL A   1      43.082  27.562  32.123  1.00  0.00     0.074 A 
ATOM     40  C   UNL A   1      43.867  26.594  31.390  1.00  0.00     0.031 C 
ATOM     41  C   UNL A   1      38.803  29.550  27.766  1.00  0.00     0.029 A 
ATOM     42  C   UNL A   1      38.872  29.909  29.182  1.00  0.00     0.049 A 
ATOM     43  H   UNL A   1      40.228  29.208  30.597  1.00  0.00     0.167 HD
ATOM     44  C   UNL A   1      43.313  27.903  33.413  1.00  0.00     0.037 A 
ATOM     45  C   UNL A   1      38.056  30.774  29.817  1.00  0.00     0.037 A 
ATOM     46  C   UNL A   1      42.536  28.867  34.147  1.00  0.00     0.049 A 
ATOM     47  C   UNL A   1      38.297  31.094  31.270  1.00  0.00     0.074 A 
ATOM     48  C   UNL A   1      42.705  29.296  35.451  1.00  0.00     0.029 A 
ATOM     49  N   UNL A   1      41.437  29.544  33.641  1.00  0.00    -0.354 N 
ATOM     50  N   UNL A   1      39.247  30.670  32.068  1.00  0.00    -0.248 NA
ATOM     51  C   UNL A   1      37.356  32.029  31.904  1.00  0.00     0.031 C 
ATOM     52  C   UNL A   1      41.673  30.191  35.753  1.00  0.00     0.029 A 
ATOM     53  C   UNL A   1      40.900  30.366  34.617  1.00  0.00     0.049 A 
ATOM     54  H   UNL A   1      41.090  29.453  32.724  1.00  0.00     0.167 HD
ATOM     55  C   UNL A   1      39.043  31.318  33.281  1.00  0.00     0.074 A 
ATOM     56  C   UNL A   1      37.886  32.171  33.111  1.00  0.00     0.031 C 
ATOM     57  C   UNL A   1      39.756  31.222  34.433  1.00  0.00     0.037 A 
BRANCH  44  58
ATOM     58  C   UNL A   1      44.441  27.208  34.118  1.00  0.00     0.057 A 
ATOM     59  C   UNL A   1      45.735  27.745  34.160  1.00  0.00     0.134 A 
ATOM     60  C   UNL A   1      44.224  25.993  34.780  1.00  0.00     0.134 A 
ATOM     61  F   UNL A   1      46.014  28.897  33.530  1.00  0.00    -0.206 F 
ATOM     62  C   UNL A   1      46.778  27.085  34.811  1.00  0.00     0.040 A 
ATOM     63  C   UNL A   1      45.253  25.339  35.459  1.00  0.00     0.040 A 
ATOM     64  F   UNL A   1      43.009  25.425  34.782  1.00  0.00    -0.206 F 
ATOM     65  C   UNL A   1      46.536  25.880  35.469  1.00  0.00     0.006 A 
ENDBRANCH  44  58
BRANCH  45  66
ATOM     66  C   UNL A   1      36.940  31.425  29.082  1.00  0.00     0.057 A 
ATOM     67  C   UNL A   1      37.018  32.762  28.676  1.00  0.00     0.134 A 
ATOM     68  C   UNL A   1      35.753  30.736  28.807  1.00  0.00     0.134 A 
ATOM     69  F   UNL A   1      38.121  33.483  28.931  1.00  0.00    -0.206 F 
ATOM     70  C   UNL A   1      35.947  33.400  28.047  1.00  0.00     0.040 A 
ATOM     71  C   UNL A   1      34.684  31.353  28.156  1.00  0.00     0.040 A 
ATOM     72  F   UNL A   1      35.615  29.452  29.170  1.00  0.00    -0.206 F 
ATOM     73  C   UNL A   1      34.776  32.692  27.782  1.00  0.00     0.006 A 
ENDBRANCH  45  66
BRANCH  57  74
ATOM     74  C   UNL A   1      39.339  32.097  35.580  1.00  0.00     0.057 A 
ATOM     75  C   UNL A   1      38.448  31.661  36.569  1.00  0.00     0.134 A 
ATOM     76  C   UNL A   1      39.864  33.391  35.713  1.00  0.00     0.134 A 
ATOM     77  F   UNL A   1      37.902  30.437  36.500  1.00  0.00    -0.206 F 
ATOM     78  C   UNL A   1      38.069  32.489  37.627  1.00  0.00     0.040 A 
ATOM     79  C   UNL A   1      39.517  34.216  36.783  1.00  0.00     0.040 A 
ATOM     80  F   UNL A   1      40.733  33.870  34.809  1.00  0.00    -0.206 F 
ATOM     81  C   UNL A   1      38.609  33.769  37.739  1.00  0.00     0.006 A 
ENDBRANCH  57  74
ENDBRANCH  31  32
ENDBRANCH  24  26
ENDBRANCH  23  24
ENDBRANCH  22  23
ENDBRANCH  21  22
ENDBRANCH   1  21
TORSDOF 16
ENDMDL
MODEL 3
REMARK VINA RESULT:     -10.5      5.256     10.637
REMARK SMILES O=C(CCc1ccc(S(=O)(=O)NC2COC2)cc1)OCCOC(=O)c1ccc(-c2c3nc(c(-c4c(F)cccc4F)c4ccc([nH]4)c(-c4c(F)cccc4F)c4nc(c(-c5c(F)cccc5F)c5ccc2[nH]5)C=C4)C=C3)cc1
REMARK SMILES IDX 19 1 2 2 1 3 3 4 4 5 5 6 6 7 18 8 7 9 17 10 8 11 9 12 10 13
REMARK SMILES IDX 11 14 12 15 13 17 14 18 16 19 15 20 20 21 21 22 22 23 23 24
REMARK SMILES IDX 24 25 25 26 26 27 78 28 27 29 77 30 28 31 29 32 30 33 71 34
REMARK SMILES IDX 31 35 76 36 70 37 72 38 32 39 75 40 69 41 68 42 33 44 59 45
REMARK SMILES IDX 42 46 58 47 43 48 46 49 57 50 73 51 44 52 45 53 56 55 74 56
REMARK SMILES IDX 47 57 34 58 35 59 40 60 36 61 37 62 39 63 41 64 38 65 60 66
REMARK SMILES IDX 61 67 66 68 62 69 63 70 65 71 67 72 64 73 48 74 49 75 54 76
REMARK SMILES IDX 50 77 51 78 53 79 55 80 52 81
REMARK H PARENT 12 16 72 43 46 54
REMARK Flexibility Score: inf
ROOT
ATOM      1  O   UNL A   1      34.829  34.122  30.105  1.00  0.00    -0.462 OA
ENDROOT
BRANCH   1   2
ATOM      2  C   UNL A   1      33.922  34.038  29.094  1.00  0.00     0.306 C 
ATOM      3  O   UNL A   1      32.805  34.532  29.195  1.00  0.00    -0.252 OA
BRANCH   2   4
ATOM      4  C   UNL A   1      34.298  33.116  27.952  1.00  0.00     0.127 C 
BRANCH   4   5
ATOM      5  C   UNL A   1      34.549  31.666  28.374  1.00  0.00     0.047 C 
BRANCH   5   6
ATOM      6  C   UNL A   1      33.940  30.623  27.461  1.00  0.00    -0.047 A 
ATOM      7  C   UNL A   1      34.637  29.432  27.209  1.00  0.00     0.005 A 
ATOM      8  C   UNL A   1      32.686  30.806  26.860  1.00  0.00     0.005 A 
ATOM      9  C   UNL A   1      34.022  28.376  26.531  1.00  0.00     0.022 A 
ATOM     10  C   UNL A   1      32.057  29.750  26.204  1.00  0.00     0.022 A 
ATOM     11  C   UNL A   1      32.705  28.517  26.098  1.00  0.00     0.082 A 
BRANCH  11  12
ATOM     12  S   UNL A   1      31.795  27.110  25.517  1.00  0.00     0.240 S 
ATOM     13  O   UNL A   1      32.571  26.448  24.495  1.00  0.00    -0.207 OA
ATOM     14  O   UNL A   1      31.250  26.410  26.659  1.00  0.00    -0.207 OA
BRANCH  12  15
ATOM     15  N   UNL A   1      30.465  27.850  24.781  1.00  0.00    -0.203 NA
ATOM     16  H   UNL A   1      30.493  28.824  25.082  1.00  0.00     0.141 HD
BRANCH  15  17
ATOM     17  C   UNL A   1      30.225  27.895  23.304  1.00  0.00     0.121 C 
ATOM     18  C   UNL A   1      29.005  28.639  22.747  1.00  0.00     0.182 C 
ATOM     19  C   UNL A   1      31.020  28.920  22.484  1.00  0.00     0.182 C 
ATOM     20  O   UNL A   1      29.831  29.294  21.744  1.00  0.00    -0.378 OA
ENDBRANCH  15  17
ENDBRANCH  12  15
ENDBRANCH  11  12
ENDBRANCH   5   6
ENDBRANCH   4   5
ENDBRANCH   2   4
ENDBRANCH   1   2
BRANCH   1  21
ATOM     21  C   UNL A   1      34.342  34.485  31.409  1.00  0.00     0.274 C 
BRANCH  21  22
ATOM     22  C   UNL A   1      34.490  33.365  32.449  1.00  0.00     0.275 C 
BRANCH  22  23
ATOM     23  O   UNL A   1      35.241  32.255  31.938  1.00  0.00    -0.458 OA
BRANCH  23  24
ATOM     24  C   UNL A   1      36.388  32.030  32.628  1.00  0.00     0.338 C 
ATOM     25  O   UNL A   1      36.588  32.277  33.806  1.00  0.00    -0.246 OA
BRANCH  24  26
ATOM     26  C   UNL A   1      37.334  31.254  31.804  1.00  0.00     0.060 A 
ATOM     27  C   UNL A   1      38.178  30.365  32.479  1.00  0.00     0.016 A 
ATOM     28  C   UNL A   1      37.441  31.421  30.420  1.00  0.00     0.016 A 
ATOM     29  C   UNL A   1      39.201  29.722  31.791  1.00  0.00     0.010 A 
ATOM     30  C   UNL A   1      38.466  30.764  29.727  1.00  0.00     0.010 A 
ATOM     31  C   UNL A   1      39.391  29.967  30.424  1.00  0.00    -0.014 A 
BRANCH  31  32
ATOM     32  C   UNL A   1      40.683  29.562  29.813  1.00  0.00     0.031 A 
ATOM     33  C   UNL A   1      40.809  28.170  29.250  1.00  0.00     0.074 A 
ATOM     34  C   UNL A   1      41.687  30.444  29.655  1.00  0.00     0.049 A 
ATOM     35  N   UNL A   1      41.778  27.641  28.546  1.00  0.00    -0.248 NA
ATOM     36  C   UNL A   1      39.690  27.250  29.511  1.00  0.00     0.031 C 
ATOM     37  C   UNL A   1      41.681  31.827  30.126  1.00  0.00     0.029 A 
ATOM     38  N   UNL A   1      42.899  30.304  29.027  1.00  0.00    -0.354 N 
ATOM     39  C   UNL A   1      41.381  26.338  28.274  1.00  0.00     0.074 A 
ATOM     40  C   UNL A   1      40.109  26.137  28.933  1.00  0.00     0.031 C 
ATOM     41  C   UNL A   1      42.831  32.417  29.756  1.00  0.00     0.029 A 
ATOM     42  C   UNL A   1      43.656  31.450  29.032  1.00  0.00     0.049 A 
ATOM     43  H   UNL A   1      43.198  29.463  28.613  1.00  0.00     0.167 HD
ATOM     44  C   UNL A   1      42.004  25.397  27.525  1.00  0.00     0.037 A 
ATOM     45  C   UNL A   1      44.871  31.692  28.502  1.00  0.00     0.037 A 
ATOM     46  C   UNL A   1      43.268  25.592  26.866  1.00  0.00     0.049 A 
ATOM     47  C   UNL A   1      45.572  30.608  27.722  1.00  0.00     0.074 A 
ATOM     48  C   UNL A   1      43.969  24.706  26.068  1.00  0.00     0.029 A 
ATOM     49  N   UNL A   1      44.024  26.752  26.938  1.00  0.00    -0.354 N 
ATOM     50  N   UNL A   1      45.160  29.400  27.425  1.00  0.00    -0.248 NA
ATOM     51  C   UNL A   1      46.903  30.934  27.189  1.00  0.00     0.031 C 
ATOM     52  C   UNL A   1      45.177  25.310  25.703  1.00  0.00     0.029 A 
ATOM     53  C   UNL A   1      45.198  26.594  26.222  1.00  0.00     0.049 A 
ATOM     54  H   UNL A   1      43.764  27.566  27.426  1.00  0.00     0.167 HD
ATOM     55  C   UNL A   1      46.160  28.839  26.637  1.00  0.00     0.074 A 
ATOM     56  C   UNL A   1      47.192  29.842  26.495  1.00  0.00     0.031 C 
ATOM     57  C   UNL A   1      46.214  27.604  26.075  1.00  0.00     0.037 A 
BRANCH  44  58
ATOM     58  C   UNL A   1      41.331  24.061  27.401  1.00  0.00     0.057 A 
ATOM     59  C   UNL A   1      41.757  22.943  28.130  1.00  0.00     0.134 A 
ATOM     60  C   UNL A   1      40.229  23.896  26.552  1.00  0.00     0.134 A 
ATOM     61  F   UNL A   1      42.817  23.028  28.948  1.00  0.00    -0.206 F 
ATOM     62  C   UNL A   1      41.129  21.703  28.000  1.00  0.00     0.040 A 
ATOM     63  C   UNL A   1      39.575  22.669  26.434  1.00  0.00     0.040 A 
ATOM     64  F   UNL A   1      39.768  24.925  25.826  1.00  0.00    -0.206 F 
ATOM     65  C   UNL A   1      40.029  21.566  27.154  1.00  0.00     0.006 A 
ENDBRANCH  44  58
BRANCH  45  66
ATOM     66  C   UNL A   1      45.507  33.025  28.666  1.00  0.00     0.057 A 
ATOM     67  C   UNL A   1      46.339  33.307  29.755  1.00  0.00     0.134 A 
ATOM     68  C   UNL A   1      45.260  34.062  27.758  1.00  0.00     0.134 A 
ATOM     69  F   UNL A   1      46.594  32.362  30.673  1.00  0.00    -0.206 F 
ATOM     70  C   UNL A   1      46.883  34.578  29.952  1.00  0.00     0.040 A 
ATOM     71  C   UNL A   1      45.818  35.330  27.928  1.00  0.00     0.040 A 
ATOM     72  F   UNL A   1      44.472  33.858  26.693  1.00  0.00    -0.206 F 
ATOM     73  C   UNL A   1      46.625  35.593  29.033  1.00  0.00     0.006 A 
ENDBRANCH  45  66
BRANCH  57  74
ATOM     74  C   UNL A   1      47.402  27.289  25.212  1.00  0.00     0.057 A 
ATOM     75  C   UNL A   1      47.447  27.619  23.851  1.00  0.00     0.134 A 
ATOM     76  C   UNL A   1      48.535  26.670  25.761  1.00  0.00     0.134 A 
ATOM     77  F   UNL A   1      46.395  28.205  23.258  1.00  0.00    -0.206 F 
ATOM     78  C   UNL A   1      48.558  27.315  23.062  1.00  0.00     0.040 A 
ATOM     79  C   UNL A   1      49.663  26.391  24.990  1.00  0.00     0.040 A 
ATOM     80  F   UNL A   1      48.566  26.338  27.061  1.00  0.00    -0.206 F 
ATOM     81  C   UNL A   1      49.673  26.705  23.633  1.00  0.00     0.006 A 
ENDBRANCH  57  74
ENDBRANCH  31  32
ENDBRANCH  24  26
ENDBRANCH  23  24
ENDBRANCH  22  23
ENDBRANCH  21  22
ENDBRANCH   1  21
TORSDOF 16
ENDMDL
