MODEL 1
REMARK VINA RESULT:     -12.1      0.000      0.000
REMARK SMILES C[C@@]1(CN2C(=O)c3ccc(C(=O)OCCOC(=O)c4ccc(-c5c6nc(c(-c7c(F)cccc7F)c7ccc([nH]7)c(-c7c(F)cccc7F)c7nc(c(-c8c(F)cccc8F)c8ccc5[nH]8)C=C7)C=C6)cc4)cc3C2=O)CCCO1
REMARK SMILES IDX 14 1 13 2 11 3 12 4 10 5 4 6 5 7 75 8 6 9 7 10 74 11 76 12
REMARK SMILES IDX 8 13 73 14 9 15 3 16 2 17 1 18 77 19 80 20 78 21 79 22 15 23
REMARK SMILES IDX 16 24 17 25 18 26 19 27 20 28 72 29 21 30 71 31 22 32 23 33
REMARK SMILES IDX 24 34 65 35 25 36 70 37 64 38 66 39 26 40 69 41 63 42 62 43
REMARK SMILES IDX 27 45 53 46 36 47 52 48 37 49 40 50 51 51 67 52 38 53 39 54
REMARK SMILES IDX 50 56 68 57 41 58 28 59 29 60 34 61 30 62 31 63 33 64 35 65
REMARK SMILES IDX 32 66 54 67 55 68 60 69 56 70 57 71 59 72 61 73 58 74 42 75
REMARK SMILES IDX 43 76 48 77 44 78 45 79 47 80 49 81 46 82
REMARK H PARENT 66 44 40 55
REMARK Flexibility Score: inf
ROOT
ATOM      1  C   UNL A   1      42.697  20.716  26.060  1.00  0.00     0.275 C 
ENDROOT
BRANCH   1   2
ATOM      2  O   UNL A   1      41.324  21.038  25.746  1.00  0.00    -0.458 OA
BRANCH   2   3
ATOM      3  C   UNL A   1      40.524  21.299  26.807  1.00  0.00     0.338 C 
ATOM      4  O   UNL A   1      40.777  21.069  27.979  1.00  0.00    -0.246 OA
BRANCH   3   5
ATOM      5  C   UNL A   1      39.302  22.037  26.397  1.00  0.00     0.060 A 
ATOM      6  N   UNL A   1      35.069  22.498  24.662  1.00  0.00    -0.271 N 
ATOM      7  C   UNL A   1      35.622  23.654  25.147  1.00  0.00     0.261 C 
ATOM      8  C   UNL A   1      35.903  21.429  24.843  1.00  0.00     0.261 C 
ATOM      9  O   UNL A   1      35.142  24.770  25.220  1.00  0.00    -0.269 OA
ATOM     10  C   UNL A   1      36.962  23.312  25.630  1.00  0.00     0.053 A 
ATOM     11  C   UNL A   1      37.130  21.962  25.420  1.00  0.00     0.054 A 
ATOM     12  O   UNL A   1      35.711  20.243  24.662  1.00  0.00    -0.269 OA
ATOM     13  C   UNL A   1      37.962  24.079  26.208  1.00  0.00     0.015 A 
ATOM     14  C   UNL A   1      38.295  21.308  25.751  1.00  0.00     0.030 A 
ATOM     15  C   UNL A   1      39.139  23.424  26.615  1.00  0.00     0.016 A 
BRANCH   6  16
ATOM     16  C   UNL A   1      33.735  22.371  24.096  1.00  0.00     0.164 C 
BRANCH  16  17
ATOM     17  C   UNL A   1      32.652  21.902  25.108  1.00  0.00     0.084 C 
ATOM     18  C   UNL A   1      32.172  20.482  24.811  1.00  0.00     0.044 C 
ATOM     19  C   UNL A   1      31.473  22.885  25.126  1.00  0.00     0.039 C 
ATOM     20  O   UNL A   1      33.201  21.923  26.446  1.00  0.00    -0.373 OA
ATOM     21  C   UNL A   1      31.851  23.852  26.222  1.00  0.00     0.031 C 
ATOM     22  C   UNL A   1      32.552  22.948  27.210  1.00  0.00     0.161 C 
ENDBRANCH  16  17
ENDBRANCH   6  16
ENDBRANCH   3   5
ENDBRANCH   2   3
ENDBRANCH   1   2
BRANCH   1  23
ATOM     23  C   UNL A   1      43.676  21.722  25.445  1.00  0.00     0.275 C 
BRANCH  23  24
ATOM     24  O   UNL A   1      42.997  22.913  25.003  1.00  0.00    -0.458 OA
BRANCH  24  25
ATOM     25  C   UNL A   1      43.688  24.060  25.188  1.00  0.00     0.338 C 
ATOM     26  O   UNL A   1      44.697  24.421  24.606  1.00  0.00    -0.246 OA
BRANCH  25  27
ATOM     27  C   UNL A   1      42.992  24.935  26.140  1.00  0.00     0.060 A 
ATOM     28  C   UNL A   1      43.244  26.296  26.045  1.00  0.00     0.016 A 
ATOM     29  C   UNL A   1      42.300  24.430  27.237  1.00  0.00     0.016 A 
ATOM     30  C   UNL A   1      42.950  27.143  27.106  1.00  0.00     0.010 A 
ATOM     31  C   UNL A   1      41.866  25.313  28.236  1.00  0.00     0.010 A 
ATOM     32  C   UNL A   1      42.221  26.676  28.207  1.00  0.00    -0.014 A 
BRANCH  32  33
ATOM     33  C   UNL A   1      41.837  27.612  29.306  1.00  0.00     0.031 A 
ATOM     34  C   UNL A   1      42.606  27.636  30.604  1.00  0.00     0.074 A 
ATOM     35  C   UNL A   1      40.791  28.452  29.148  1.00  0.00     0.049 A 
ATOM     36  N   UNL A   1      42.310  28.227  31.735  1.00  0.00    -0.248 NA
ATOM     37  C   UNL A   1      43.868  26.879  30.641  1.00  0.00     0.031 C 
ATOM     38  C   UNL A   1      39.979  28.582  27.935  1.00  0.00     0.029 A 
ATOM     39  N   UNL A   1      40.227  29.362  30.013  1.00  0.00    -0.354 N 
ATOM     40  C   UNL A   1      43.314  27.870  32.629  1.00  0.00     0.074 A 
ATOM     41  C   UNL A   1      44.221  26.998  31.914  1.00  0.00     0.031 C 
ATOM     42  C   UNL A   1      39.059  29.537  28.115  1.00  0.00     0.029 A 
ATOM     43  C   UNL A   1      39.133  30.008  29.491  1.00  0.00     0.049 A 
ATOM     44  H   UNL A   1      40.575  29.532  30.918  1.00  0.00     0.167 HD
ATOM     45  C   UNL A   1      43.463  28.236  33.927  1.00  0.00     0.037 A 
ATOM     46  C   UNL A   1      38.244  30.844  30.061  1.00  0.00     0.037 A 
ATOM     47  C   UNL A   1      42.579  29.143  34.617  1.00  0.00     0.049 A 
ATOM     48  C   UNL A   1      38.394  31.184  31.514  1.00  0.00     0.074 A 
ATOM     49  C   UNL A   1      42.656  29.593  35.926  1.00  0.00     0.029 A 
ATOM     50  N   UNL A   1      41.463  29.746  34.056  1.00  0.00    -0.354 N 
ATOM     51  N   UNL A   1      39.322  30.808  32.360  1.00  0.00    -0.248 NA
ATOM     52  C   UNL A   1      37.364  32.054  32.098  1.00  0.00     0.031 C 
ATOM     53  C   UNL A   1      41.557  30.421  36.171  1.00  0.00     0.029 A 
ATOM     54  C   UNL A   1      40.831  30.542  34.998  1.00  0.00     0.049 A 
ATOM     55  H   UNL A   1      41.164  29.626  33.125  1.00  0.00     0.167 HD
ATOM     56  C   UNL A   1      39.002  31.413  33.567  1.00  0.00     0.074 A 
ATOM     57  C   UNL A   1      37.806  32.196  33.339  1.00  0.00     0.031 C 
ATOM     58  C   UNL A   1      39.644  31.325  34.757  1.00  0.00     0.037 A 
BRANCH  45  59
ATOM     59  C   UNL A   1      44.599  27.629  34.702  1.00  0.00     0.057 A 
ATOM     60  C   UNL A   1      45.851  28.248  34.810  1.00  0.00     0.134 A 
ATOM     61  C   UNL A   1      44.418  26.422  35.395  1.00  0.00     0.134 A 
ATOM     62  F   UNL A   1      46.099  29.399  34.170  1.00  0.00    -0.206 F 
ATOM     63  C   UNL A   1      46.888  27.676  35.554  1.00  0.00     0.040 A 
ATOM     64  C   UNL A   1      45.435  25.857  36.165  1.00  0.00     0.040 A 
ATOM     65  F   UNL A   1      43.241  25.780  35.346  1.00  0.00    -0.206 F 
ATOM     66  C   UNL A   1      46.678  26.481  36.241  1.00  0.00     0.006 A 
ENDBRANCH  45  59
BRANCH  46  67
ATOM     67  C   UNL A   1      37.101  31.368  29.267  1.00  0.00     0.057 A 
ATOM     68  C   UNL A   1      35.968  30.585  29.021  1.00  0.00     0.134 A 
ATOM     69  C   UNL A   1      37.115  32.664  28.731  1.00  0.00     0.134 A 
ATOM     70  F   UNL A   1      35.903  29.328  29.484  1.00  0.00    -0.206 F 
ATOM     71  C   UNL A   1      34.899  31.063  28.262  1.00  0.00     0.040 A 
ATOM     72  C   UNL A   1      36.038  33.167  28.002  1.00  0.00     0.040 A 
ATOM     73  F   UNL A   1      38.168  33.469  28.933  1.00  0.00    -0.206 F 
ATOM     74  C   UNL A   1      34.929  32.362  27.757  1.00  0.00     0.006 A 
ENDBRANCH  46  67
BRANCH  58  75
ATOM     75  C   UNL A   1      39.092  32.139  35.891  1.00  0.00     0.057 A 
ATOM     76  C   UNL A   1      39.450  33.478  36.089  1.00  0.00     0.134 A 
ATOM     77  C   UNL A   1      38.170  31.577  36.784  1.00  0.00     0.134 A 
ATOM     78  F   UNL A   1      40.340  34.072  35.279  1.00  0.00    -0.206 F 
ATOM     79  C   UNL A   1      38.931  34.222  37.152  1.00  0.00     0.040 A 
ATOM     80  C   UNL A   1      37.622  32.319  37.831  1.00  0.00     0.040 A 
ATOM     81  F   UNL A   1      37.779  30.301  36.648  1.00  0.00    -0.206 F 
ATOM     82  C   UNL A   1      38.009  33.644  38.021  1.00  0.00     0.006 A 
ENDBRANCH  58  75
ENDBRANCH  32  33
ENDBRANCH  25  27
ENDBRANCH  24  25
ENDBRANCH  23  24
ENDBRANCH   1  23
TORSDOF 13
ENDMDL
MODEL 2
REMARK VINA RESULT:     -11.9      4.101      9.181
REMARK SMILES C[C@@]1(CN2C(=O)c3ccc(C(=O)OCCOC(=O)c4ccc(-c5c6nc(c(-c7c(F)cccc7F)c7ccc([nH]7)c(-c7c(F)cccc7F)c7nc(c(-c8c(F)cccc8F)c8ccc5[nH]8)C=C7)C=C6)cc4)cc3C2=O)CCCO1
REMARK SMILES IDX 14 1 13 2 11 3 12 4 10 5 4 6 5 7 75 8 6 9 7 10 74 11 76 12
REMARK SMILES IDX 8 13 73 14 9 15 3 16 2 17 1 18 77 19 80 20 78 21 79 22 15 23
REMARK SMILES IDX 16 24 17 25 18 26 19 27 20 28 72 29 21 30 71 31 22 32 23 33
REMARK SMILES IDX 24 34 65 35 25 36 70 37 64 38 66 39 26 40 69 41 63 42 62 43
REMARK SMILES IDX 27 45 53 46 36 47 52 48 37 49 40 50 51 51 67 52 38 53 39 54
REMARK SMILES IDX 50 56 68 57 41 58 28 59 29 60 34 61 30 62 31 63 33 64 35 65
REMARK SMILES IDX 32 66 54 67 55 68 60 69 56 70 57 71 59 72 61 73 58 74 42 75
REMARK SMILES IDX 43 76 48 77 44 78 45 79 47 80 49 81 46 82
REMARK H PARENT 66 44 40 55
REMARK Flexibility Score: inf
ROOT
ATOM      1  C   UNL A   1      33.881  35.160  28.661  1.00  0.00     0.275 C 
ENDROOT
BRANCH   1   2
ATOM      2  O   UNL A   1      33.872  33.762  29.028  1.00  0.00    -0.458 OA
BRANCH   2   3
ATOM      3  C   UNL A   1      35.016  33.081  28.777  1.00  0.00     0.338 C 
ATOM      4  O   UNL A   1      36.144  33.415  29.101  1.00  0.00    -0.246 OA
BRANCH   3   5
ATOM      5  C   UNL A   1      34.736  31.766  28.145  1.00  0.00     0.060 A 
ATOM      6  N   UNL A   1      32.351  28.755  25.619  1.00  0.00    -0.271 N 
ATOM      7  C   UNL A   1      33.542  28.283  26.106  1.00  0.00     0.261 C 
ATOM      8  C   UNL A   1      32.150  30.062  25.966  1.00  0.00     0.261 C 
ATOM      9  O   UNL A   1      34.074  27.201  25.936  1.00  0.00    -0.269 OA
ATOM     10  C   UNL A   1      34.136  29.366  26.894  1.00  0.00     0.053 A 
ATOM     11  C   UNL A   1      33.271  30.434  26.819  1.00  0.00     0.054 A 
ATOM     12  O   UNL A   1      31.288  30.844  25.617  1.00  0.00    -0.269 OA
ATOM     13  C   UNL A   1      35.318  29.447  27.612  1.00  0.00     0.015 A 
ATOM     14  C   UNL A   1      33.520  31.625  27.463  1.00  0.00     0.030 A 
ATOM     15  C   UNL A   1      35.628  30.674  28.229  1.00  0.00     0.016 A 
BRANCH   6  16
ATOM     16  C   UNL A   1      31.432  28.014  24.768  1.00  0.00     0.164 C 
BRANCH  16  17
ATOM     17  C   UNL A   1      31.616  28.276  23.246  1.00  0.00     0.084 C 
ATOM     18  C   UNL A   1      30.436  29.048  22.655  1.00  0.00     0.044 C 
ATOM     19  C   UNL A   1      31.836  26.955  22.497  1.00  0.00     0.039 C 
ATOM     20  O   UNL A   1      32.816  29.054  23.033  1.00  0.00    -0.373 OA
ATOM     21  C   UNL A   1      33.339  26.813  22.491  1.00  0.00     0.031 C 
ATOM     22  C   UNL A   1      33.790  28.248  22.357  1.00  0.00     0.161 C 
ENDBRANCH  16  17
ENDBRANCH   6  16
ENDBRANCH   3   5
ENDBRANCH   2   3
ENDBRANCH   1   2
BRANCH   1  23
ATOM     23  C   UNL A   1      32.919  35.984  29.523  1.00  0.00     0.275 C 
BRANCH  23  24
ATOM     24  O   UNL A   1      32.441  35.224  30.650  1.00  0.00    -0.458 OA
BRANCH  24  25
ATOM     25  C   UNL A   1      32.689  35.783  31.855  1.00  0.00     0.338 C 
ATOM     26  O   UNL A   1      32.082  36.696  32.390  1.00  0.00    -0.246 OA
BRANCH  25  27
ATOM     27  C   UNL A   1      33.760  35.057  32.551  1.00  0.00     0.060 A 
ATOM     28  C   UNL A   1      35.028  35.618  32.513  1.00  0.00     0.016 A 
ATOM     29  C   UNL A   1      33.586  33.760  33.023  1.00  0.00     0.016 A 
ATOM     30  C   UNL A   1      36.148  34.847  32.797  1.00  0.00     0.010 A 
ATOM     31  C   UNL A   1      34.705  33.035  33.456  1.00  0.00     0.010 A 
ATOM     32  C   UNL A   1      36.008  33.552  33.311  1.00  0.00    -0.014 A 
BRANCH  32  33
ATOM     33  C   UNL A   1      37.215  32.758  33.691  1.00  0.00     0.031 A 
ATOM     34  C   UNL A   1      37.915  33.000  35.005  1.00  0.00     0.074 A 
ATOM     35  C   UNL A   1      37.693  31.809  32.857  1.00  0.00     0.049 A 
ATOM     36  N   UNL A   1      39.077  32.558  35.421  1.00  0.00    -0.248 NA
ATOM     37  C   UNL A   1      37.228  33.870  35.973  1.00  0.00     0.031 C 
ATOM     38  C   UNL A   1      37.099  31.425  31.574  1.00  0.00     0.029 A 
ATOM     39  N   UNL A   1      38.793  30.990  32.961  1.00  0.00    -0.354 N 
ATOM     40  C   UNL A   1      39.283  33.138  36.669  1.00  0.00     0.074 A 
ATOM     41  C   UNL A   1      38.133  33.975  36.937  1.00  0.00     0.031 C 
ATOM     42  C   UNL A   1      37.808  30.425  31.036  1.00  0.00     0.029 A 
ATOM     43  C   UNL A   1      38.974  30.172  31.871  1.00  0.00     0.049 A 
ATOM     44  H   UNL A   1      39.393  30.989  33.742  1.00  0.00     0.167 HD
ATOM     45  C   UNL A   1      40.335  32.984  37.511  1.00  0.00     0.037 A 
ATOM     46  C   UNL A   1      39.988  29.351  31.539  1.00  0.00     0.037 A 
ATOM     47  C   UNL A   1      41.454  32.111  37.256  1.00  0.00     0.049 A 
ATOM     48  C   UNL A   1      41.169  29.247  32.457  1.00  0.00     0.074 A 
ATOM     49  C   UNL A   1      42.560  31.870  38.057  1.00  0.00     0.029 A 
ATOM     50  N   UNL A   1      41.609  31.329  36.121  1.00  0.00    -0.354 N 
ATOM     51  N   UNL A   1      41.372  29.830  33.614  1.00  0.00    -0.248 NA
ATOM     52  C   UNL A   1      42.272  28.380  32.018  1.00  0.00     0.031 C 
ATOM     53  C   UNL A   1      43.408  30.988  37.380  1.00  0.00     0.029 A 
ATOM     54  C   UNL A   1      42.802  30.627  36.189  1.00  0.00     0.049 A 
ATOM     55  H   UNL A   1      40.966  31.281  35.376  1.00  0.00     0.167 HD
ATOM     56  C   UNL A   1      42.611  29.385  34.051  1.00  0.00     0.074 A 
ATOM     57  C   UNL A   1      43.105  28.467  33.045  1.00  0.00     0.031 C 
ATOM     58  C   UNL A   1      43.279  29.709  35.185  1.00  0.00     0.037 A 
BRANCH  45  59
ATOM     59  C   UNL A   1      40.351  33.804  38.772  1.00  0.00     0.057 A 
ATOM     60  C   UNL A   1      41.035  35.023  38.868  1.00  0.00     0.134 A 
ATOM     61  C   UNL A   1      39.626  33.385  39.897  1.00  0.00     0.134 A 
ATOM     62  F   UNL A   1      41.755  35.482  37.834  1.00  0.00    -0.206 F 
ATOM     63  C   UNL A   1      41.021  35.779  40.043  1.00  0.00     0.040 A 
ATOM     64  C   UNL A   1      39.578  34.147  41.066  1.00  0.00     0.040 A 
ATOM     65  F   UNL A   1      38.938  32.234  39.874  1.00  0.00    -0.206 F 
ATOM     66  C   UNL A   1      40.284  35.345  41.144  1.00  0.00     0.006 A 
ENDBRANCH  45  59
BRANCH  46  67
ATOM     67  C   UNL A   1      39.953  28.610  30.251  1.00  0.00     0.057 A 
ATOM     68  C   UNL A   1      40.595  29.105  29.111  1.00  0.00     0.134 A 
ATOM     69  C   UNL A   1      39.274  27.389  30.127  1.00  0.00     0.134 A 
ATOM     70  F   UNL A   1      41.241  30.279  29.156  1.00  0.00    -0.206 F 
ATOM     71  C   UNL A   1      40.551  28.424  27.893  1.00  0.00     0.040 A 
ATOM     72  C   UNL A   1      39.253  26.680  28.927  1.00  0.00     0.040 A 
ATOM     73  F   UNL A   1      38.640  26.856  31.182  1.00  0.00    -0.206 F 
ATOM     74  C   UNL A   1      39.886  27.203  27.801  1.00  0.00     0.006 A 
ENDBRANCH  46  67
BRANCH  58  75
ATOM     75  C   UNL A   1      44.594  29.024  35.421  1.00  0.00     0.057 A 
ATOM     76  C   UNL A   1      45.807  29.567  34.982  1.00  0.00     0.134 A 
ATOM     77  C   UNL A   1      44.645  27.811  36.121  1.00  0.00     0.134 A 
ATOM     78  F   UNL A   1      45.827  30.718  34.292  1.00  0.00    -0.206 F 
ATOM     79  C   UNL A   1      47.022  28.916  35.205  1.00  0.00     0.040 A 
ATOM     80  C   UNL A   1      45.855  27.166  36.378  1.00  0.00     0.040 A 
ATOM     81  F   UNL A   1      43.521  27.238  36.577  1.00  0.00    -0.206 F 
ATOM     82  C   UNL A   1      47.048  27.715  35.911  1.00  0.00     0.006 A 
ENDBRANCH  58  75
ENDBRANCH  32  33
ENDBRANCH  25  27
ENDBRANCH  24  25
ENDBRANCH  23  24
ENDBRANCH   1  23
TORSDOF 13
ENDMDL
MODEL 3
REMARK VINA RESULT:     -11.7      3.922      8.107
REMARK SMILES C[C@@]1(CN2C(=O)c3ccc(C(=O)OCCOC(=O)c4ccc(-c5c6nc(c(-c7c(F)cccc7F)c7ccc([nH]7)c(-c7c(F)cccc7F)c7nc(c(-c8c(F)cccc8F)c8ccc5[nH]8)C=C7)C=C6)cc4)cc3C2=O)CCCO1
REMARK SMILES IDX 14 1 13 2 11 3 12 4 10 5 4 6 5 7 75 8 6 9 7 10 74 11 76 12
REMARK SMILES IDX 8 13 73 14 9 15 3 16 2 17 1 18 77 19 80 20 78 21 79 22 15 23
REMARK SMILES IDX 16 24 17 25 18 26 19 27 20 28 72 29 21 30 71 31 22 32 23 33
REMARK SMILES IDX 24 34 65 35 25 36 70 37 64 38 66 39 26 40 69 41 63 42 62 43
REMARK SMILES IDX 27 45 53 46 36 47 52 48 37 49 40 50 51 51 67 52 38 53 39 54
REMARK SMILES IDX 50 56 68 57 41 58 28 59 29 60 34 61 30 62 31 63 33 64 35 65
REMARK SMILES IDX 32 66 54 67 55 68 60 69 56 70 57 71 59 72 61 73 58 74 42 75
REMARK SMILES IDX 43 76 48 77 44 78 45 79 47 80 49 81 46 82
REMARK H PARENT 66 44 40 55
REMARK Flexibility Score: inf
ROOT
ATOM      1  C   UNL A   1      35.137  20.507  25.175  1.00  0.00     0.275 C 
ENDROOT
BRANCH   1   2
ATOM      2  O   UNL A   1      34.277  19.476  24.641  1.00  0.00    -0.458 OA
BRANCH   2   3
ATOM      3  C   UNL A   1      32.955  19.624  24.893  1.00  0.00     0.338 C 
ATOM      4  O   UNL A   1      32.235  18.828  25.476  1.00  0.00    -0.246 OA
BRANCH   3   5
ATOM      5  C   UNL A   1      32.471  20.965  24.480  1.00  0.00     0.060 A 
ATOM      6  N   UNL A   1      30.903  25.239  25.132  1.00  0.00    -0.271 N 
ATOM      7  C   UNL A   1      31.119  24.897  23.822  1.00  0.00     0.261 C 
ATOM      8  C   UNL A   1      31.248  24.222  25.978  1.00  0.00     0.261 C 
ATOM      9  O   UNL A   1      30.993  25.571  22.816  1.00  0.00    -0.269 OA
ATOM     10  C   UNL A   1      31.588  23.510  23.818  1.00  0.00     0.053 A 
ATOM     11  C   UNL A   1      31.642  23.103  25.132  1.00  0.00     0.054 A 
ATOM     12  O   UNL A   1      31.317  24.198  27.191  1.00  0.00    -0.269 OA
ATOM     13  C   UNL A   1      31.950  22.658  22.787  1.00  0.00     0.015 A 
ATOM     14  C   UNL A   1      32.036  21.833  25.491  1.00  0.00     0.030 A 
ATOM     15  C   UNL A   1      32.416  21.374  23.129  1.00  0.00     0.016 A 
BRANCH   6  16
ATOM     16  C   UNL A   1      30.443  26.536  25.603  1.00  0.00     0.164 C 
BRANCH  16  17
ATOM     17  C   UNL A   1      31.585  27.541  25.925  1.00  0.00     0.084 C 
ATOM     18  C   UNL A   1      31.702  27.808  27.426  1.00  0.00     0.044 C 
ATOM     19  C   UNL A   1      31.382  28.850  25.151  1.00  0.00     0.039 C 
ATOM     20  O   UNL A   1      32.846  27.003  25.463  1.00  0.00    -0.373 OA
ATOM     21  C   UNL A   1      32.161  28.619  23.879  1.00  0.00     0.031 C 
ATOM     22  C   UNL A   1      33.328  27.796  24.371  1.00  0.00     0.161 C 
ENDBRANCH  16  17
ENDBRANCH   6  16
ENDBRANCH   3   5
ENDBRANCH   2   3
ENDBRANCH   1   2
BRANCH   1  23
ATOM     23  C   UNL A   1      36.619  20.178  24.974  1.00  0.00     0.275 C 
BRANCH  23  24
ATOM     24  O   UNL A   1      37.456  21.306  25.293  1.00  0.00    -0.458 OA
BRANCH  24  25
ATOM     25  C   UNL A   1      38.669  20.987  25.797  1.00  0.00     0.338 C 
ATOM     26  O   UNL A   1      39.287  19.947  25.643  1.00  0.00    -0.246 OA
BRANCH  25  27
ATOM     27  C   UNL A   1      39.256  22.137  26.498  1.00  0.00     0.060 A 
ATOM     28  C   UNL A   1      38.756  23.391  26.179  1.00  0.00     0.016 A 
ATOM     29  C   UNL A   1      40.412  22.022  27.263  1.00  0.00     0.016 A 
ATOM     30  C   UNL A   1      39.479  24.537  26.486  1.00  0.00     0.010 A 
ATOM     31  C   UNL A   1      41.057  23.186  27.705  1.00  0.00     0.010 A 
ATOM     32  C   UNL A   1      40.625  24.460  27.288  1.00  0.00    -0.014 A 
BRANCH  32  33
ATOM     33  C   UNL A   1      41.352  25.705  27.682  1.00  0.00     0.031 A 
ATOM     34  C   UNL A   1      40.675  26.761  28.521  1.00  0.00     0.074 A 
ATOM     35  C   UNL A   1      42.630  25.897  27.290  1.00  0.00     0.049 A 
ATOM     36  N   UNL A   1      41.067  27.982  28.795  1.00  0.00    -0.248 NA
ATOM     37  C   UNL A   1      39.377  26.406  29.115  1.00  0.00     0.031 C 
ATOM     38  C   UNL A   1      43.435  24.948  26.517  1.00  0.00     0.029 A 
ATOM     39  N   UNL A   1      43.483  26.958  27.487  1.00  0.00    -0.354 N 
ATOM     40  C   UNL A   1      40.044  28.554  29.542  1.00  0.00     0.074 A 
ATOM     41  C   UNL A   1      39.006  27.553  29.668  1.00  0.00     0.031 C 
ATOM     42  C   UNL A   1      44.666  25.445  26.345  1.00  0.00     0.029 A 
ATOM     43  C   UNL A   1      44.709  26.795  26.888  1.00  0.00     0.049 A 
ATOM     44  H   UNL A   1      43.237  27.758  28.006  1.00  0.00     0.167 HD
ATOM     45  C   UNL A   1      39.978  29.800  30.074  1.00  0.00     0.037 A 
ATOM     46  C   UNL A   1      45.739  27.648  26.734  1.00  0.00     0.037 A 
ATOM     47  C   UNL A   1      41.037  30.775  29.984  1.00  0.00     0.049 A 
ATOM     48  C   UNL A   1      45.617  29.041  27.277  1.00  0.00     0.074 A 
ATOM     49  C   UNL A   1      41.075  32.057  30.508  1.00  0.00     0.029 A 
ATOM     50  N   UNL A   1      42.248  30.574  29.337  1.00  0.00    -0.354 N 
ATOM     51  N   UNL A   1      44.629  29.585  27.945  1.00  0.00    -0.248 NA
ATOM     52  C   UNL A   1      46.748  29.946  27.031  1.00  0.00     0.031 C 
ATOM     53  C   UNL A   1      42.283  32.651  30.129  1.00  0.00     0.029 A 
ATOM     54  C   UNL A   1      43.027  31.717  29.426  1.00  0.00     0.049 A 
ATOM     55  H   UNL A   1      42.514  29.743  28.882  1.00  0.00     0.167 HD
ATOM     56  C   UNL A   1      45.027  30.885  28.220  1.00  0.00     0.074 A 
ATOM     57  C   UNL A   1      46.355  31.043  27.663  1.00  0.00     0.031 C 
ATOM     58  C   UNL A   1      44.351  31.860  28.875  1.00  0.00     0.037 A 
BRANCH  45  59
ATOM     59  C   UNL A   1      38.706  30.201  30.769  1.00  0.00     0.057 A 
ATOM     60  C   UNL A   1      38.497  29.990  32.138  1.00  0.00     0.134 A 
ATOM     61  C   UNL A   1      37.688  30.856  30.059  1.00  0.00     0.134 A 
ATOM     62  F   UNL A   1      39.423  29.363  32.878  1.00  0.00    -0.206 F 
ATOM     63  C   UNL A   1      37.315  30.389  32.768  1.00  0.00     0.040 A 
ATOM     64  C   UNL A   1      36.517  31.288  30.683  1.00  0.00     0.040 A 
ATOM     65  F   UNL A   1      37.824  31.103  28.747  1.00  0.00    -0.206 F 
ATOM     66  C   UNL A   1      36.324  31.048  32.041  1.00  0.00     0.006 A 
ENDBRANCH  45  59
BRANCH  46  67
ATOM     67  C   UNL A   1      46.951  27.223  25.984  1.00  0.00     0.057 A 
ATOM     68  C   UNL A   1      47.055  27.417  24.603  1.00  0.00     0.134 A 
ATOM     69  C   UNL A   1      48.034  26.609  26.630  1.00  0.00     0.134 A 
ATOM     70  F   UNL A   1      46.043  27.975  23.922  1.00  0.00    -0.206 F 
ATOM     71  C   UNL A   1      48.181  27.004  23.889  1.00  0.00     0.040 A 
ATOM     72  C   UNL A   1      49.180  26.226  25.936  1.00  0.00     0.040 A 
ATOM     73  F   UNL A   1      48.001  26.397  27.954  1.00  0.00    -0.206 F 
ATOM     74  C   UNL A   1      49.252  26.414  24.558  1.00  0.00     0.006 A 
ENDBRANCH  46  67
BRANCH  58  75
ATOM     75  C   UNL A   1      45.061  33.168  29.070  1.00  0.00     0.057 A 
ATOM     76  C   UNL A   1      45.895  33.407  30.168  1.00  0.00     0.134 A 
ATOM     77  C   UNL A   1      44.922  34.196  28.128  1.00  0.00     0.134 A 
ATOM     78  F   UNL A   1      46.058  32.470  31.115  1.00  0.00    -0.206 F 
ATOM     79  C   UNL A   1      46.545  34.631  30.339  1.00  0.00     0.040 A 
ATOM     80  C   UNL A   1      45.591  35.412  28.270  1.00  0.00     0.040 A 
ATOM     81  F   UNL A   1      44.144  34.032  27.047  1.00  0.00    -0.206 F 
ATOM     82  C   UNL A   1      46.399  35.635  29.384  1.00  0.00     0.006 A 
ENDBRANCH  58  75
ENDBRANCH  32  33
ENDBRANCH  25  27
ENDBRANCH  24  25
ENDBRANCH  23  24
ENDBRANCH   1  23
TORSDOF 13
ENDMDL
