MODEL 1
REMARK VINA RESULT:     -13.6      0.000      0.000
REMARK SMILES Cc1ccc([C@H](C)NC(=O)[C@H]2[C@@H]3CC[C@@H](C3)[C@@H]2C(=O)OCCOC(=O)c2ccc(-c3c4nc(c(-c5c(F)cccc5F)c5ccc([nH]5)c(-c5c(F)cccc5F)c5nc(c(-c6c(F)cccc6F)c6ccc3[nH]6)C=C5)C=C4)cc2)cc1
REMARK SMILES IDX 21 1 20 2 18 3 19 4 17 5 11 6 12 7 13 8 16 9 15 10 14 11
REMARK SMILES IDX 9 12 8 13 10 15 6 16 7 17 5 18 1 19 2 20 3 21 81 22 4 23
REMARK SMILES IDX 80 24 22 25 23 26 24 27 25 28 26 29 27 30 79 31 28 32 78 33
REMARK SMILES IDX 29 34 30 35 31 36 72 37 32 38 77 39 71 40 73 41 33 42 76 43
REMARK SMILES IDX 70 44 69 45 34 47 60 48 43 49 59 50 44 51 47 52 58 53 74 54
REMARK SMILES IDX 45 55 46 56 57 58 75 59 48 60 35 61 36 62 41 63 37 64 38 65
REMARK SMILES IDX 40 66 42 67 39 68 61 69 62 70 67 71 63 72 64 73 66 74 68 75
REMARK SMILES IDX 65 76 49 77 50 78 55 79 51 80 52 81 54 82 56 83 53 84
REMARK H PARENT 8 14 73 46 47 57
REMARK Flexibility Score: inf
ROOT
ATOM      1  C   UNL A   1      31.794  32.709  26.887  1.00  0.00     0.274 C 
ENDROOT
BRANCH   1   2
ATOM      2  O   UNL A   1      31.796  30.730  26.517  1.00  0.00    -0.462 OA
BRANCH   2   3
ATOM      3  C   UNL A   1      31.764  29.350  26.472  1.00  0.00     0.310 C 
ATOM      4  O   UNL A   1      32.087  28.752  27.508  1.00  0.00    -0.252 OA
BRANCH   3   5
ATOM      5  C   UNL A   1      31.449  28.455  25.242  1.00  0.00     0.115 C 
ATOM      6  C   UNL A   1      31.561  26.964  24.819  1.00  0.00     0.096 C 
ATOM      7  C   UNL A   1      32.135  27.039  23.371  1.00  0.00     0.002 C 
ATOM      8  C   UNL A   1      33.632  27.391  23.479  1.00  0.00     0.005 C 
ATOM      9  C   UNL A   1      31.585  28.348  22.821  1.00  0.00     0.009 C 
ATOM     10  C   UNL A   1      32.082  29.167  24.004  1.00  0.00     0.004 C 
ATOM     11  C   UNL A   1      33.592  28.872  23.888  1.00  0.00     0.005 C 
BRANCH   6  12
ATOM     12  C   UNL A   1      30.342  26.022  24.886  1.00  0.00     0.224 C 
ATOM     13  N   UNL A   1      30.294  24.778  25.405  1.00  0.00    -0.349 N 
ATOM     14  H   UNL A   1      29.389  24.391  25.393  1.00  0.00     0.164 HD
ATOM     15  O   UNL A   1      29.254  26.452  24.467  1.00  0.00    -0.275 OA
BRANCH  13  16
ATOM     16  C   UNL A   1      31.282  23.888  25.977  1.00  0.00     0.109 C 
ATOM     17  C   UNL A   1      30.728  22.480  26.179  1.00  0.00     0.036 C 
BRANCH  16  18
ATOM     18  C   UNL A   1      32.548  23.850  25.161  1.00  0.00    -0.026 A 
ATOM     19  C   UNL A   1      36.329  23.077  23.370  1.00  0.00     0.044 C 
ATOM     20  C   UNL A   1      34.988  23.381  23.924  1.00  0.00    -0.051 A 
ATOM     21  C   UNL A   1      34.943  24.075  25.128  1.00  0.00     0.004 A 
ATOM     22  C   UNL A   1      33.812  23.042  23.263  1.00  0.00     0.004 A 
ATOM     23  C   UNL A   1      33.737  24.290  25.757  1.00  0.00     0.006 A 
ATOM     24  C   UNL A   1      32.588  23.285  23.877  1.00  0.00     0.006 A 
ENDBRANCH  16  18
ENDBRANCH  13  16
ENDBRANCH   6  12
ENDBRANCH   3   5
ENDBRANCH   2   3
ENDBRANCH   1   2
BRANCH   1  25
ATOM     25  C   UNL A   1      32.890  33.549  27.853  1.00  0.00     0.275 C 
BRANCH  25  26
ATOM     26  O   UNL A   1      32.533  34.298  29.045  1.00  0.00    -0.458 OA
BRANCH  26  27
ATOM     27  C   UNL A   1      33.508  34.673  29.891  1.00  0.00     0.338 C 
ATOM     28  O   UNL A   1      33.602  35.695  30.544  1.00  0.00    -0.246 OA
BRANCH  27  29
ATOM     29  C   UNL A   1      34.574  33.809  29.529  1.00  0.00     0.060 A 
ATOM     30  C   UNL A   1      36.009  34.315  28.539  1.00  0.00     0.016 A 
ATOM     31  C   UNL A   1      34.753  32.602  30.839  1.00  0.00     0.016 A 
ATOM     32  C   UNL A   1      37.613  33.448  28.792  1.00  0.00     0.010 A 
ATOM     33  C   UNL A   1      36.311  31.855  31.128  1.00  0.00     0.010 A 
ATOM     34  C   UNL A   1      37.754  32.182  30.088  1.00  0.00    -0.014 A 
BRANCH  34  35
ATOM     35  C   UNL A   1      38.876  31.215  30.363  1.00  0.00     0.031 A 
ATOM     36  C   UNL A   1      39.092  29.863  29.763  1.00  0.00     0.074 A 
ATOM     37  C   UNL A   1      39.811  31.578  31.285  1.00  0.00     0.049 A 
ATOM     38  N   UNL A   1      40.076  29.071  30.069  1.00  0.00    -0.248 NA
ATOM     39  C   UNL A   1      38.181  29.232  28.818  1.00  0.00     0.031 C 
ATOM     40  C   UNL A   1      41.258  31.378  31.221  1.00  0.00     0.029 A 
ATOM     41  N   UNL A   1      39.642  32.268  32.483  1.00  0.00    -0.354 N 
ATOM     42  C   UNL A   1      40.090  28.018  29.176  1.00  0.00     0.074 A 
ATOM     43  C   UNL A   1      38.816  28.095  28.521  1.00  0.00     0.031 C 
ATOM     44  C   UNL A   1      41.831  31.848  32.343  1.00  0.00     0.029 A 
ATOM     45  C   UNL A   1      40.770  32.184  33.277  1.00  0.00     0.049 A 
ATOM     46  H   UNL A   1      38.823  32.754  32.732  1.00  0.00     0.167 HD
ATOM     47  C   UNL A   1      41.245  27.309  28.989  1.00  0.00     0.037 A 
ATOM     48  C   UNL A   1      40.731  31.940  34.613  1.00  0.00     0.037 A 
ATOM     49  C   UNL A   1      42.241  27.703  29.993  1.00  0.00     0.049 A 
ATOM     50  C   UNL A   1      41.453  30.637  34.877  1.00  0.00     0.074 A 
ATOM     51  C   UNL A   1      43.210  28.690  30.026  1.00  0.00     0.029 A 
ATOM     52  N   UNL A   1      42.094  27.276  31.300  1.00  0.00    -0.354 N 
ATOM     53  N   UNL A   1      41.838  29.818  33.931  1.00  0.00    -0.248 NA
ATOM     54  C   UNL A   1      41.846  30.174  36.195  1.00  0.00     0.031 C 
ATOM     55  C   UNL A   1      43.594  28.884  31.389  1.00  0.00     0.029 A 
ATOM     56  C   UNL A   1      42.908  27.978  32.187  1.00  0.00     0.049 A 
ATOM     57  H   UNL A   1      41.481  26.555  31.575  1.00  0.00     0.167 HD
ATOM     58  C   UNL A   1      42.508  28.743  34.453  1.00  0.00     0.074 A 
ATOM     59  C   UNL A   1      42.528  29.058  35.874  1.00  0.00     0.031 C 
ATOM     60  C   UNL A   1      42.897  27.690  33.648  1.00  0.00     0.037 A 
BRANCH  47  61
ATOM     61  C   UNL A   1      41.586  26.476  27.750  1.00  0.00     0.057 A 
ATOM     62  C   UNL A   1      42.015  25.138  27.900  1.00  0.00     0.134 A 
ATOM     63  C   UNL A   1      41.610  26.917  26.410  1.00  0.00     0.134 A 
ATOM     64  F   UNL A   1      41.991  24.526  29.093  1.00  0.00    -0.206 F 
ATOM     65  C   UNL A   1      42.500  24.352  26.839  1.00  0.00     0.040 A 
ATOM     66  C   UNL A   1      42.116  26.151  25.343  1.00  0.00     0.040 A 
ATOM     67  F   UNL A   1      41.111  28.094  26.032  1.00  0.00    -0.206 F 
ATOM     68  C   UNL A   1      42.578  24.865  25.556  1.00  0.00     0.006 A 
ENDBRANCH  47  61
BRANCH  48  69
ATOM     69  C   UNL A   1      39.520  32.521  35.280  1.00  0.00     0.057 A 
ATOM     70  C   UNL A   1      38.559  31.609  35.775  1.00  0.00     0.134 A 
ATOM     71  C   UNL A   1      39.508  33.795  35.852  1.00  0.00     0.134 A 
ATOM     72  F   UNL A   1      38.463  30.381  35.241  1.00  0.00    -0.206 F 
ATOM     73  C   UNL A   1      37.783  31.876  36.909  1.00  0.00     0.040 A 
ATOM     74  C   UNL A   1      38.735  34.077  36.989  1.00  0.00     0.040 A 
ATOM     75  F   UNL A   1      40.323  34.750  35.393  1.00  0.00    -0.206 F 
ATOM     76  C   UNL A   1      37.909  33.101  37.549  1.00  0.00     0.006 A 
ENDBRANCH  48  69
BRANCH  60  77
ATOM     77  C   UNL A   1      43.216  26.265  34.134  1.00  0.00     0.057 A 
ATOM     78  C   UNL A   1      42.368  25.440  34.893  1.00  0.00     0.134 A 
ATOM     79  C   UNL A   1      44.405  25.603  33.729  1.00  0.00     0.134 A 
ATOM     80  F   UNL A   1      41.177  25.831  35.338  1.00  0.00    -0.206 F 
ATOM     81  C   UNL A   1      42.667  24.108  35.222  1.00  0.00     0.040 A 
ATOM     82  C   UNL A   1      44.684  24.256  33.996  1.00  0.00     0.040 A 
ATOM     83  F   UNL A   1      45.365  26.208  33.020  1.00  0.00    -0.206 F 
ATOM     84  C   UNL A   1      43.817  23.502  34.757  1.00  0.00     0.006 A 
ENDBRANCH  60  77
ENDBRANCH  34  35
ENDBRANCH  27  29
ENDBRANCH  26  27
ENDBRANCH  25  26
ENDBRANCH   1  25
TORSDOF 14
ENDMDL
MODEL 2
REMARK VINA RESULT:     -13.5      3.493      8.532
REMARK SMILES Cc1ccc([C@H](C)NC(=O)[C@H]2[C@@H]3CC[C@@H](C3)[C@@H]2C(=O)OCCOC(=O)c2ccc(-c3c4nc(c(-c5c(F)cccc5F)c5ccc([nH]5)c(-c5c(F)cccc5F)c5nc(c(-c6c(F)cccc6F)c6ccc3[nH]6)C=C5)C=C4)cc2)cc1
REMARK SMILES IDX 21 1 20 2 18 3 19 4 17 5 11 6 12 7 13 8 16 9 15 10 14 11
REMARK SMILES IDX 9 12 8 13 10 15 6 16 7 17 5 18 1 19 2 20 3 21 81 22 4 23
REMARK SMILES IDX 80 24 22 25 23 26 24 27 25 28 26 29 27 30 79 31 28 32 78 33
REMARK SMILES IDX 29 34 30 35 31 36 72 37 32 38 77 39 71 40 73 41 33 42 76 43
REMARK SMILES IDX 70 44 69 45 34 47 60 48 43 49 59 50 44 51 47 52 58 53 74 54
REMARK SMILES IDX 45 55 46 56 57 58 75 59 48 60 35 61 36 62 41 63 37 64 38 65
REMARK SMILES IDX 40 66 42 67 39 68 61 69 62 70 67 71 63 72 64 73 66 74 68 75
REMARK SMILES IDX 65 76 49 77 50 78 55 79 51 80 52 81 54 82 56 83 53 84
REMARK H PARENT 8 14 73 46 47 57
REMARK Flexibility Score: inf
ROOT
ATOM      1  C   UNL A   1      29.404  26.094  25.379  1.00  0.00     0.274 C 
ENDROOT
BRANCH   1   2
ATOM      2  O   UNL A   1      30.532  24.599  26.119  1.00  0.00    -0.462 OA
BRANCH   2   3
ATOM      3  C   UNL A   1      31.175  23.445  26.519  1.00  0.00     0.310 C 
ATOM      4  O   UNL A   1      30.915  23.029  27.657  1.00  0.00    -0.252 OA
BRANCH   3   5
ATOM      5  C   UNL A   1      32.256  22.650  25.736  1.00  0.00     0.115 C 
ATOM      6  C   UNL A   1      33.797  22.650  25.539  1.00  0.00     0.096 C 
ATOM      7  C   UNL A   1      33.967  22.470  24.000  1.00  0.00     0.002 C 
ATOM      8  C   UNL A   1      33.620  23.815  23.330  1.00  0.00     0.005 C 
ATOM      9  C   UNL A   1      32.760  21.639  23.587  1.00  0.00     0.009 C 
ATOM     10  C   UNL A   1      31.764  22.577  24.255  1.00  0.00     0.004 C 
ATOM     11  C   UNL A   1      32.092  23.872  23.483  1.00  0.00     0.005 C 
BRANCH   6  12
ATOM     12  C   UNL A   1      34.701  21.671  26.317  1.00  0.00     0.224 C 
ATOM     13  N   UNL A   1      36.048  21.624  26.319  1.00  0.00    -0.349 N 
ATOM     14  H   UNL A   1      36.409  20.953  26.942  1.00  0.00     0.164 HD
ATOM     15  O   UNL A   1      34.152  20.855  27.076  1.00  0.00    -0.275 OA
BRANCH  13  16
ATOM     16  C   UNL A   1      37.080  22.345  25.605  1.00  0.00     0.109 C 
ATOM     17  C   UNL A   1      37.134  23.815  26.016  1.00  0.00     0.036 C 
BRANCH  16  18
ATOM     18  C   UNL A   1      38.433  21.700  25.760  1.00  0.00    -0.026 A 
ATOM     19  C   UNL A   1      42.034  19.825  27.033  1.00  0.00     0.044 C 
ATOM     20  C   UNL A   1      40.792  20.448  26.515  1.00  0.00    -0.051 A 
ATOM     21  C   UNL A   1      40.630  21.812  26.733  1.00  0.00     0.004 A 
ATOM     22  C   UNL A   1      39.840  19.733  25.796  1.00  0.00     0.004 A 
ATOM     23  C   UNL A   1      39.452  22.433  26.381  1.00  0.00     0.006 A 
ATOM     24  C   UNL A   1      38.662  20.361  25.408  1.00  0.00     0.006 A 
ENDBRANCH  16  18
ENDBRANCH  13  16
ENDBRANCH   6  12
ENDBRANCH   3   5
ENDBRANCH   2   3
ENDBRANCH   1   2
BRANCH   1  25
ATOM     25  C   UNL A   1      29.719  26.994  23.989  1.00  0.00     0.275 C 
BRANCH  25  26
ATOM     26  O   UNL A   1      31.021  27.101  23.355  1.00  0.00    -0.458 OA
BRANCH  26  27
ATOM     27  C   UNL A   1      31.630  28.300  23.325  1.00  0.00     0.338 C 
ATOM     28  O   UNL A   1      31.812  29.041  22.379  1.00  0.00    -0.246 OA
BRANCH  27  29
ATOM     29  C   UNL A   1      32.358  28.301  24.543  1.00  0.00     0.060 A 
ATOM     30  C   UNL A   1      33.998  27.549  24.754  1.00  0.00     0.016 A 
ATOM     31  C   UNL A   1      31.923  29.796  25.427  1.00  0.00     0.016 A 
ATOM     32  C   UNL A   1      35.142  28.253  26.013  1.00  0.00     0.010 A 
ATOM     33  C   UNL A   1      33.062  30.505  26.552  1.00  0.00     0.010 A 
ATOM     34  C   UNL A   1      34.652  29.736  26.942  1.00  0.00    -0.014 A 
BRANCH  34  35
ATOM     35  C   UNL A   1      35.311  30.380  28.133  1.00  0.00     0.031 A 
ATOM     36  C   UNL A   1      35.166  31.789  28.613  1.00  0.00     0.074 A 
ATOM     37  C   UNL A   1      36.167  29.619  28.870  1.00  0.00     0.049 A 
ATOM     38  N   UNL A   1      35.788  32.283  29.641  1.00  0.00    -0.248 NA
ATOM     39  C   UNL A   1      34.371  32.805  27.940  1.00  0.00     0.031 C 
ATOM     40  C   UNL A   1      36.306  29.579  30.325  1.00  0.00     0.029 A 
ATOM     41  N   UNL A   1      37.082  28.660  28.440  1.00  0.00    -0.354 N 
ATOM     42  C   UNL A   1      35.257  33.526  29.925  1.00  0.00     0.074 A 
ATOM     43  C   UNL A   1      34.490  33.854  28.758  1.00  0.00     0.031 C 
ATOM     44  C   UNL A   1      37.286  28.722  30.664  1.00  0.00     0.029 A 
ATOM     45  C   UNL A   1      37.970  28.325  29.446  1.00  0.00     0.049 A 
ATOM     46  H   UNL A   1      37.094  28.271  27.537  1.00  0.00     0.167 HD
ATOM     47  C   UNL A   1      35.403  34.051  31.179  1.00  0.00     0.037 A 
ATOM     48  C   UNL A   1      39.307  28.188  29.250  1.00  0.00     0.037 A 
ATOM     49  C   UNL A   1      36.334  33.227  31.961  1.00  0.00     0.049 A 
ATOM     50  C   UNL A   1      40.017  29.220  30.098  1.00  0.00     0.074 A 
ATOM     51  C   UNL A   1      36.164  32.119  32.773  1.00  0.00     0.029 A 
ATOM     52  N   UNL A   1      37.689  33.288  31.688  1.00  0.00    -0.354 N 
ATOM     53  N   UNL A   1      39.401  30.193  30.720  1.00  0.00    -0.248 NA
ATOM     54  C   UNL A   1      41.445  29.222  30.358  1.00  0.00     0.031 C 
ATOM     55  C   UNL A   1      37.436  31.489  32.929  1.00  0.00     0.029 A 
ATOM     56  C   UNL A   1      38.399  32.238  32.266  1.00  0.00     0.049 A 
ATOM     57  H   UNL A   1      38.106  33.997  31.146  1.00  0.00     0.167 HD
ATOM     58  C   UNL A   1      40.283  30.948  31.448  1.00  0.00     0.074 A 
ATOM     59  C   UNL A   1      41.539  30.249  31.224  1.00  0.00     0.031 C 
ATOM     60  C   UNL A   1      39.870  32.102  32.086  1.00  0.00     0.037 A 
BRANCH  47  61
ATOM     61  C   UNL A   1      34.510  35.127  31.803  1.00  0.00     0.057 A 
ATOM     62  C   UNL A   1      34.861  35.697  33.047  1.00  0.00     0.134 A 
ATOM     63  C   UNL A   1      33.270  35.591  31.312  1.00  0.00     0.134 A 
ATOM     64  F   UNL A   1      36.037  35.428  33.631  1.00  0.00    -0.206 F 
ATOM     65  C   UNL A   1      34.025  36.569  33.768  1.00  0.00     0.040 A 
ATOM     66  C   UNL A   1      32.412  36.442  32.034  1.00  0.00     0.040 A 
ATOM     67  F   UNL A   1      32.822  35.290  30.093  1.00  0.00    -0.206 F 
ATOM     68  C   UNL A   1      32.781  36.926  33.275  1.00  0.00     0.006 A 
ENDBRANCH  47  61
BRANCH  48  69
ATOM     69  C   UNL A   1      39.650  27.658  27.889  1.00  0.00     0.057 A 
ATOM     70  C   UNL A   1      40.297  28.547  26.999  1.00  0.00     0.134 A 
ATOM     71  C   UNL A   1      39.813  26.297  27.625  1.00  0.00     0.134 A 
ATOM     72  F   UNL A   1      40.146  29.872  27.147  1.00  0.00    -0.206 F 
ATOM     73  C   UNL A   1      41.220  28.111  26.041  1.00  0.00     0.040 A 
ATOM     74  C   UNL A   1      40.734  25.845  26.667  1.00  0.00     0.040 A 
ATOM     75  F   UNL A   1      39.173  25.383  28.361  1.00  0.00    -0.206 F 
ATOM     76  C   UNL A   1      41.476  26.753  25.908  1.00  0.00     0.006 A 
ENDBRANCH  48  69
BRANCH  60  77
ATOM     77  C   UNL A   1      40.790  33.257  32.522  1.00  0.00     0.057 A 
ATOM     78  C   UNL A   1      41.575  34.056  31.675  1.00  0.00     0.134 A 
ATOM     79  C   UNL A   1      40.819  33.698  33.872  1.00  0.00     0.134 A 
ATOM     80  F   UNL A   1      41.659  33.862  30.361  1.00  0.00    -0.206 F 
ATOM     81  C   UNL A   1      42.317  35.164  32.114  1.00  0.00     0.040 A 
ATOM     82  C   UNL A   1      41.502  34.840  34.310  1.00  0.00     0.040 A 
ATOM     83  F   UNL A   1      40.164  33.069  34.854  1.00  0.00    -0.206 F 
ATOM     84  C   UNL A   1      42.266  35.576  33.431  1.00  0.00     0.006 A 
ENDBRANCH  60  77
ENDBRANCH  34  35
ENDBRANCH  27  29
ENDBRANCH  26  27
ENDBRANCH  25  26
ENDBRANCH   1  25
TORSDOF 14
ENDMDL
MODEL 3
REMARK VINA RESULT:     -13.5      3.455      8.512
REMARK SMILES Cc1ccc([C@H](C)NC(=O)[C@H]2[C@@H]3CC[C@@H](C3)[C@@H]2C(=O)OCCOC(=O)c2ccc(-c3c4nc(c(-c5c(F)cccc5F)c5ccc([nH]5)c(-c5c(F)cccc5F)c5nc(c(-c6c(F)cccc6F)c6ccc3[nH]6)C=C5)C=C4)cc2)cc1
REMARK SMILES IDX 21 1 20 2 18 3 19 4 17 5 11 6 12 7 13 8 16 9 15 10 14 11
REMARK SMILES IDX 9 12 8 13 10 15 6 16 7 17 5 18 1 19 2 20 3 21 81 22 4 23
REMARK SMILES IDX 80 24 22 25 23 26 24 27 25 28 26 29 27 30 79 31 28 32 78 33
REMARK SMILES IDX 29 34 30 35 31 36 72 37 32 38 77 39 71 40 73 41 33 42 76 43
REMARK SMILES IDX 70 44 69 45 34 47 60 48 43 49 59 50 44 51 47 52 58 53 74 54
REMARK SMILES IDX 45 55 46 56 57 58 75 59 48 60 35 61 36 62 41 63 37 64 38 65
REMARK SMILES IDX 40 66 42 67 39 68 61 69 62 70 67 71 63 72 64 73 66 74 68 75
REMARK SMILES IDX 65 76 49 77 50 78 55 79 51 80 52 81 54 82 56 83 53 84
REMARK H PARENT 8 14 73 46 47 57
REMARK Flexibility Score: inf
ROOT
ATOM      1  C   UNL A   1      28.942  25.991  24.421  1.00  0.00     0.274 C 
ENDROOT
BRANCH   1   2
ATOM      2  O   UNL A   1      29.906  24.589  25.497  1.00  0.00    -0.462 OA
BRANCH   2   3
ATOM      3  C   UNL A   1      30.745  23.723  26.170  1.00  0.00     0.310 C 
ATOM      4  O   UNL A   1      30.542  23.583  27.384  1.00  0.00    -0.252 OA
BRANCH   3   5
ATOM      5  C   UNL A   1      31.974  22.966  25.596  1.00  0.00     0.115 C 
ATOM      6  C   UNL A   1      33.524  22.996  25.704  1.00  0.00     0.096 C 
ATOM      7  C   UNL A   1      33.995  22.859  24.224  1.00  0.00     0.002 C 
ATOM      8  C   UNL A   1      33.757  24.214  23.529  1.00  0.00     0.005 C 
ATOM      9  C   UNL A   1      32.908  22.020  23.565  1.00  0.00     0.009 C 
ATOM     10  C   UNL A   1      31.782  22.924  24.046  1.00  0.00     0.004 C 
ATOM     11  C   UNL A   1      32.227  24.243  23.381  1.00  0.00     0.005 C 
BRANCH   6  12
ATOM     12  C   UNL A   1      34.279  22.013  26.622  1.00  0.00     0.224 C 
ATOM     13  N   UNL A   1      34.970  20.915  26.254  1.00  0.00    -0.349 N 
ATOM     14  H   UNL A   1      35.423  20.475  27.010  1.00  0.00     0.164 HD
ATOM     15  O   UNL A   1      34.314  22.266  27.837  1.00  0.00    -0.275 OA
BRANCH  13  16
ATOM     16  C   UNL A   1      35.191  20.241  24.992  1.00  0.00     0.109 C 
ATOM     17  C   UNL A   1      36.675  19.994  24.734  1.00  0.00     0.036 C 
BRANCH  16  18
ATOM     18  C   UNL A   1      34.413  18.955  24.894  1.00  0.00    -0.026 A 
ATOM     19  C   UNL A   1      32.683  15.089  25.303  1.00  0.00     0.044 C 
ATOM     20  C   UNL A   1      33.218  16.460  25.122  1.00  0.00    -0.051 A 
ATOM     21  C   UNL A   1      34.470  16.578  24.527  1.00  0.00     0.004 A 
ATOM     22  C   UNL A   1      32.499  17.596  25.477  1.00  0.00     0.004 A 
ATOM     23  C   UNL A   1      35.077  17.810  24.432  1.00  0.00     0.006 A 
ATOM     24  C   UNL A   1      33.093  18.848  25.354  1.00  0.00     0.006 A 
ENDBRANCH  16  18
ENDBRANCH  13  16
ENDBRANCH   6  12
ENDBRANCH   3   5
ENDBRANCH   2   3
ENDBRANCH   1   2
BRANCH   1  25
ATOM     25  C   UNL A   1      29.642  27.306  23.632  1.00  0.00     0.275 C 
BRANCH  25  26
ATOM     26  O   UNL A   1      31.033  27.374  23.219  1.00  0.00    -0.458 OA
BRANCH  26  27
ATOM     27  C   UNL A   1      31.651  28.569  23.221  1.00  0.00     0.338 C 
ATOM     28  O   UNL A   1      31.842  29.332  22.293  1.00  0.00    -0.246 OA
BRANCH  27  29
ATOM     29  C   UNL A   1      32.374  28.536  24.441  1.00  0.00     0.060 A 
ATOM     30  C   UNL A   1      34.039  27.834  24.624  1.00  0.00     0.016 A 
ATOM     31  C   UNL A   1      31.881  29.969  25.395  1.00  0.00     0.016 A 
ATOM     32  C   UNL A   1      35.152  28.514  25.923  1.00  0.00     0.010 A 
ATOM     33  C   UNL A   1      32.990  30.662  26.560  1.00  0.00     0.010 A 
ATOM     34  C   UNL A   1      34.606  29.931  26.920  1.00  0.00    -0.014 A 
BRANCH  34  35
ATOM     35  C   UNL A   1      35.236  30.539  28.145  1.00  0.00     0.031 A 
ATOM     36  C   UNL A   1      35.090  31.936  28.658  1.00  0.00     0.074 A 
ATOM     37  C   UNL A   1      36.066  29.752  28.886  1.00  0.00     0.049 A 
ATOM     38  N   UNL A   1      35.687  32.399  29.715  1.00  0.00    -0.248 NA
ATOM     39  C   UNL A   1      34.322  32.977  27.989  1.00  0.00     0.031 C 
ATOM     40  C   UNL A   1      36.163  29.673  30.343  1.00  0.00     0.029 A 
ATOM     41  N   UNL A   1      36.983  28.796  28.457  1.00  0.00    -0.354 N 
ATOM     42  C   UNL A   1      35.159  33.638  30.016  1.00  0.00     0.074 A 
ATOM     43  C   UNL A   1      34.427  34.003  28.838  1.00  0.00     0.031 C 
ATOM     44  C   UNL A   1      37.126  28.799  30.686  1.00  0.00     0.029 A 
ATOM     45  C   UNL A   1      37.841  28.427  29.478  1.00  0.00     0.049 A 
ATOM     46  H   UNL A   1      37.018  28.430  27.544  1.00  0.00     0.167 HD
ATOM     47  C   UNL A   1      35.274  34.130  31.287  1.00  0.00     0.037 A 
ATOM     48  C   UNL A   1      39.182  28.283  29.315  1.00  0.00     0.037 A 
ATOM     49  C   UNL A   1      36.176  33.277  32.072  1.00  0.00     0.049 A 
ATOM     50  C   UNL A   1      39.876  29.287  30.208  1.00  0.00     0.074 A 
ATOM     51  C   UNL A   1      35.975  32.151  32.850  1.00  0.00     0.029 A 
ATOM     52  N   UNL A   1      37.539  33.334  31.839  1.00  0.00    -0.354 N 
ATOM     53  N   UNL A   1      39.251  30.249  30.839  1.00  0.00    -0.248 NA
ATOM     54  C   UNL A   1      41.296  29.269  30.508  1.00  0.00     0.031 C 
ATOM     55  C   UNL A   1      37.237  31.505  33.025  1.00  0.00     0.029 A 
ATOM     56  C   UNL A   1      38.224  32.262  32.408  1.00  0.00     0.049 A 
ATOM     57  H   UNL A   1      37.977  34.052  31.326  1.00  0.00     0.167 HD
ATOM     58  C   UNL A   1      40.119  30.977  31.609  1.00  0.00     0.074 A 
ATOM     59  C   UNL A   1      41.375  30.272  31.402  1.00  0.00     0.031 C 
ATOM     60  C   UNL A   1      39.698  32.118  32.266  1.00  0.00     0.037 A 
BRANCH  47  61
ATOM     61  C   UNL A   1      34.373  35.197  31.914  1.00  0.00     0.057 A 
ATOM     62  C   UNL A   1      34.763  35.828  33.116  1.00  0.00     0.134 A 
ATOM     63  C   UNL A   1      33.095  35.598  31.468  1.00  0.00     0.134 A 
ATOM     64  F   UNL A   1      35.975  35.624  33.651  1.00  0.00    -0.206 F 
ATOM     65  C   UNL A   1      33.931  36.697  33.844  1.00  0.00     0.040 A 
ATOM     66  C   UNL A   1      32.242  36.446  32.198  1.00  0.00     0.040 A 
ATOM     67  F   UNL A   1      32.600  35.234  30.284  1.00  0.00    -0.206 F 
ATOM     68  C   UNL A   1      32.652  36.991  33.401  1.00  0.00     0.006 A 
ENDBRANCH  47  61
BRANCH  48  69
ATOM     69  C   UNL A   1      39.558  27.785  27.951  1.00  0.00     0.057 A 
ATOM     70  C   UNL A   1      40.090  28.733  27.046  1.00  0.00     0.134 A 
ATOM     71  C   UNL A   1      39.864  26.448  27.691  1.00  0.00     0.134 A 
ATOM     72  F   UNL A   1      39.797  30.035  27.190  1.00  0.00    -0.206 F 
ATOM     73  C   UNL A   1      41.039  28.394  26.074  1.00  0.00     0.040 A 
ATOM     74  C   UNL A   1      40.812  26.093  26.718  1.00  0.00     0.040 A 
ATOM     75  F   UNL A   1      39.339  25.475  28.441  1.00  0.00    -0.206 F 
ATOM     76  C   UNL A   1      41.439  27.072  25.943  1.00  0.00     0.006 A 
ENDBRANCH  48  69
BRANCH  60  77
ATOM     77  C   UNL A   1      40.615  33.253  32.757  1.00  0.00     0.057 A 
ATOM     78  C   UNL A   1      41.502  34.003  31.966  1.00  0.00     0.134 A 
ATOM     79  C   UNL A   1      40.537  33.729  34.093  1.00  0.00     0.134 A 
ATOM     80  F   UNL A   1      41.698  33.770  30.670  1.00  0.00    -0.206 F 
ATOM     81  C   UNL A   1      42.239  35.097  32.445  1.00  0.00     0.040 A 
ATOM     82  C   UNL A   1      41.218  34.859  34.565  1.00  0.00     0.040 A 
ATOM     83  F   UNL A   1      39.774  33.149  35.026  1.00  0.00    -0.206 F 
ATOM     84  C   UNL A   1      42.085  35.545  33.742  1.00  0.00     0.006 A 
ENDBRANCH  60  77
ENDBRANCH  34  35
ENDBRANCH  27  29
ENDBRANCH  26  27
ENDBRANCH  25  26
ENDBRANCH   1  25
TORSDOF 14
ENDMDL
