MODEL 1
REMARK VINA RESULT:     -11.4      0.000      0.000
REMARK SMILES Cc1ccc(NC(=O)NC2(C(=O)OCCOC(=O)c3ccc(-c4c5nc(c(-c6c(F)cccc6F)c6ccc([nH]6)c(-c6c(F)cccc6F)c6nc(c(-c7c(F)cccc7F)c7ccc4[nH]7)C=C6)C=C5)cc3)CC2)c(C)n1
REMARK SMILES IDX 14 1 13 2 11 3 12 4 10 5 73 6 74 7 9 8 6 9 7 10 8 12 5 14
REMARK SMILES IDX 1 15 2 16 3 17 77 18 4 19 75 20 76 21 15 22 16 23 17 24
REMARK SMILES IDX 18 25 19 26 20 27 72 28 21 29 71 30 22 31 23 32 24 33 65 34
REMARK SMILES IDX 25 35 70 36 64 37 66 38 26 39 69 40 63 41 62 42 27 44 53 45
REMARK SMILES IDX 36 46 52 47 37 48 40 49 51 50 67 51 38 52 39 53 50 55 68 56
REMARK SMILES IDX 41 57 28 58 29 59 34 60 30 61 31 62 33 63 35 64 32 65 54 66
REMARK SMILES IDX 55 67 60 68 56 69 57 70 59 71 61 72 58 73 42 74 43 75 48 76
REMARK SMILES IDX 44 77 45 78 47 79 49 80 46 81
REMARK H PARENT 6 11 9 13 66 43 40 54
REMARK Flexibility Score: inf
ROOT
ATOM      1  C   UNL A   1      35.397  22.220  23.769  1.00  0.00     0.274 C 
ENDROOT
BRANCH   1   2
ATOM      2  O   UNL A   1      34.376  22.887  24.549  1.00  0.00    -0.460 OA
BRANCH   2   3
ATOM      3  C   UNL A   1      33.309  22.161  25.006  1.00  0.00     0.332 C 
ATOM      4  O   UNL A   1      32.554  21.510  24.292  1.00  0.00    -0.249 OA
BRANCH   3   5
ATOM      5  C   UNL A   1      33.145  22.241  26.542  1.00  0.00     0.139 C 
ATOM      6  C   UNL A   1      34.239  23.067  27.229  1.00  0.00     0.043 C 
ATOM      7  C   UNL A   1      34.014  21.679  27.682  1.00  0.00     0.043 C 
BRANCH   5   8
ATOM      8  N   UNL A   1      31.796  22.274  26.954  1.00  0.00    -0.322 N 
ATOM      9  N   UNL A   1      31.135  24.469  26.252  1.00  0.00    -0.306 N 
ATOM     10  C   UNL A   1      30.953  23.298  26.867  1.00  0.00     0.320 C 
ATOM     11  H   UNL A   1      30.390  25.036  26.555  1.00  0.00     0.171 HD
ATOM     12  O   UNL A   1      29.845  23.135  27.398  1.00  0.00    -0.248 OA
ATOM     13  H   UNL A   1      31.441  21.447  27.351  1.00  0.00     0.166 HD
BRANCH   9  14
ATOM     14  C   UNL A   1      31.894  25.296  25.364  1.00  0.00     0.064 A 
ATOM     15  C   UNL A   1      34.087  28.565  23.623  1.00  0.00     0.067 C 
ATOM     16  C   UNL A   1      33.410  27.434  24.312  1.00  0.00     0.038 A 
ATOM     17  C   UNL A   1      33.427  27.236  25.662  1.00  0.00     0.025 A 
ATOM     18  N   UNL A   1      32.751  26.599  23.508  1.00  0.00    -0.256 NA
ATOM     19  C   UNL A   1      32.676  26.177  26.165  1.00  0.00     0.030 A 
ATOM     20  C   UNL A   1      32.042  25.525  23.979  1.00  0.00     0.061 A 
ATOM     21  C   UNL A   1      31.806  24.742  22.733  1.00  0.00     0.069 C 
ENDBRANCH   9  14
ENDBRANCH   5   8
ENDBRANCH   3   5
ENDBRANCH   2   3
ENDBRANCH   1   2
BRANCH   1  22
ATOM     22  C   UNL A   1      36.086  21.152  24.628  1.00  0.00     0.275 C 
BRANCH  22  23
ATOM     23  O   UNL A   1      36.860  21.843  25.618  1.00  0.00    -0.458 OA
BRANCH  23  24
ATOM     24  C   UNL A   1      38.153  21.460  25.726  1.00  0.00     0.338 C 
ATOM     25  O   UNL A   1      38.696  20.494  25.220  1.00  0.00    -0.246 OA
BRANCH  24  26
ATOM     26  C   UNL A   1      38.870  22.529  26.441  1.00  0.00     0.060 A 
ATOM     27  C   UNL A   1      38.476  23.849  26.215  1.00  0.00     0.016 A 
ATOM     28  C   UNL A   1      40.015  22.260  27.182  1.00  0.00     0.016 A 
ATOM     29  C   UNL A   1      39.295  24.897  26.600  1.00  0.00     0.010 A 
ATOM     30  C   UNL A   1      40.750  23.326  27.708  1.00  0.00     0.010 A 
ATOM     31  C   UNL A   1      40.419  24.659  27.392  1.00  0.00    -0.014 A 
BRANCH  31  32
ATOM     32  C   UNL A   1      41.244  25.793  27.890  1.00  0.00     0.031 A 
ATOM     33  C   UNL A   1      40.613  26.860  28.742  1.00  0.00     0.074 A 
ATOM     34  C   UNL A   1      42.545  25.891  27.544  1.00  0.00     0.049 A 
ATOM     35  N   UNL A   1      41.024  28.079  28.975  1.00  0.00    -0.248 NA
ATOM     36  C   UNL A   1      39.334  26.524  29.390  1.00  0.00     0.031 C 
ATOM     37  C   UNL A   1      43.305  24.901  26.773  1.00  0.00     0.029 A 
ATOM     38  N   UNL A   1      43.460  26.889  27.774  1.00  0.00    -0.354 N 
ATOM     39  C   UNL A   1      40.012  28.685  29.710  1.00  0.00     0.074 A 
ATOM     40  C   UNL A   1      38.977  27.693  29.905  1.00  0.00     0.031 C 
ATOM     41  C   UNL A   1      44.564  25.326  26.617  1.00  0.00     0.029 A 
ATOM     42  C   UNL A   1      44.662  26.676  27.143  1.00  0.00     0.049 A 
ATOM     43  H   UNL A   1      43.273  27.678  28.335  1.00  0.00     0.167 HD
ATOM     44  C   UNL A   1      39.959  29.962  30.159  1.00  0.00     0.037 A 
ATOM     45  C   UNL A   1      45.699  27.503  26.916  1.00  0.00     0.037 A 
ATOM     46  C   UNL A   1      41.044  30.902  30.020  1.00  0.00     0.049 A 
ATOM     47  C   UNL A   1      45.607  28.917  27.403  1.00  0.00     0.074 A 
ATOM     48  C   UNL A   1      41.123  32.201  30.488  1.00  0.00     0.029 A 
ATOM     49  N   UNL A   1      42.244  30.634  29.376  1.00  0.00    -0.354 N 
ATOM     50  N   UNL A   1      44.627  29.506  28.043  1.00  0.00    -0.248 NA
ATOM     51  C   UNL A   1      46.753  29.787  27.118  1.00  0.00     0.031 C 
ATOM     52  C   UNL A   1      42.349  32.737  30.083  1.00  0.00     0.029 A 
ATOM     53  C   UNL A   1      43.060  31.753  29.415  1.00  0.00     0.049 A 
ATOM     54  H   UNL A   1      42.479  29.777  28.955  1.00  0.00     0.167 HD
ATOM     55  C   UNL A   1      45.043  30.812  28.253  1.00  0.00     0.074 A 
ATOM     56  C   UNL A   1      46.374  30.920  27.690  1.00  0.00     0.031 C 
ATOM     57  C   UNL A   1      44.383  31.832  28.853  1.00  0.00     0.037 A 
BRANCH  44  58
ATOM     58  C   UNL A   1      38.688  30.443  30.799  1.00  0.00     0.057 A 
ATOM     59  C   UNL A   1      37.642  31.019  30.068  1.00  0.00     0.134 A 
ATOM     60  C   UNL A   1      38.481  30.254  32.174  1.00  0.00     0.134 A 
ATOM     61  F   UNL A   1      37.771  31.237  28.752  1.00  0.00    -0.206 F 
ATOM     62  C   UNL A   1      36.444  31.399  30.683  1.00  0.00     0.040 A 
ATOM     63  C   UNL A   1      37.280  30.603  32.793  1.00  0.00     0.040 A 
ATOM     64  F   UNL A   1      39.439  29.702  32.936  1.00  0.00    -0.206 F 
ATOM     65  C   UNL A   1      36.257  31.181  32.046  1.00  0.00     0.006 A 
ENDBRANCH  44  58
BRANCH  45  66
ATOM     66  C   UNL A   1      46.859  27.034  26.114  1.00  0.00     0.057 A 
ATOM     67  C   UNL A   1      46.946  27.294  24.743  1.00  0.00     0.134 A 
ATOM     68  C   UNL A   1      47.921  26.333  26.705  1.00  0.00     0.134 A 
ATOM     69  F   UNL A   1      45.955  27.944  24.115  1.00  0.00    -0.206 F 
ATOM     70  C   UNL A   1      48.037  26.864  23.986  1.00  0.00     0.040 A 
ATOM     71  C   UNL A   1      49.033  25.930  25.968  1.00  0.00     0.040 A 
ATOM     72  F   UNL A   1      47.906  26.059  28.018  1.00  0.00    -0.206 F 
ATOM     73  C   UNL A   1      49.090  26.188  24.600  1.00  0.00     0.006 A 
ENDBRANCH  45  66
BRANCH  57  74
ATOM     74  C   UNL A   1      45.117  33.134  28.967  1.00  0.00     0.057 A 
ATOM     75  C   UNL A   1      44.990  34.144  28.005  1.00  0.00     0.134 A 
ATOM     76  C   UNL A   1      45.952  33.383  30.064  1.00  0.00     0.134 A 
ATOM     77  F   UNL A   1      44.221  33.959  26.922  1.00  0.00    -0.206 F 
ATOM     78  C   UNL A   1      45.689  35.346  28.117  1.00  0.00     0.040 A 
ATOM     79  C   UNL A   1      46.630  34.593  30.203  1.00  0.00     0.040 A 
ATOM     80  F   UNL A   1      46.110  32.458  31.023  1.00  0.00    -0.206 F 
ATOM     81  C   UNL A   1      46.507  35.575  29.222  1.00  0.00     0.006 A 
ENDBRANCH  57  74
ENDBRANCH  31  32
ENDBRANCH  24  26
ENDBRANCH  23  24
ENDBRANCH  22  23
ENDBRANCH   1  22
TORSDOF 13
ENDMDL
MODEL 2
REMARK VINA RESULT:     -11.4      3.740      8.456
REMARK SMILES Cc1ccc(NC(=O)NC2(C(=O)OCCOC(=O)c3ccc(-c4c5nc(c(-c6c(F)cccc6F)c6ccc([nH]6)c(-c6c(F)cccc6F)c6nc(c(-c7c(F)cccc7F)c7ccc4[nH]7)C=C6)C=C5)cc3)CC2)c(C)n1
REMARK SMILES IDX 14 1 13 2 11 3 12 4 10 5 73 6 74 7 9 8 6 9 7 10 8 12 5 14
REMARK SMILES IDX 1 15 2 16 3 17 77 18 4 19 75 20 76 21 15 22 16 23 17 24
REMARK SMILES IDX 18 25 19 26 20 27 72 28 21 29 71 30 22 31 23 32 24 33 65 34
REMARK SMILES IDX 25 35 70 36 64 37 66 38 26 39 69 40 63 41 62 42 27 44 53 45
REMARK SMILES IDX 36 46 52 47 37 48 40 49 51 50 67 51 38 52 39 53 50 55 68 56
REMARK SMILES IDX 41 57 28 58 29 59 34 60 30 61 31 62 33 63 35 64 32 65 54 66
REMARK SMILES IDX 55 67 60 68 56 69 57 70 59 71 61 72 58 73 42 74 43 75 48 76
REMARK SMILES IDX 44 77 45 78 47 79 49 80 46 81
REMARK H PARENT 6 11 9 13 66 43 40 54
REMARK Flexibility Score: inf
ROOT
ATOM      1  C   UNL A   1      32.543  27.980  25.338  1.00  0.00     0.274 C 
ENDROOT
BRANCH   1   2
ATOM      2  O   UNL A   1      32.137  26.772  26.025  1.00  0.00    -0.460 OA
BRANCH   2   3
ATOM      3  C   UNL A   1      32.313  25.564  25.405  1.00  0.00     0.332 C 
ATOM      4  O   UNL A   1      33.402  25.040  25.199  1.00  0.00    -0.249 OA
BRANCH   3   5
ATOM      5  C   UNL A   1      30.978  24.910  24.981  1.00  0.00     0.139 C 
ATOM      6  C   UNL A   1      31.079  24.105  23.679  1.00  0.00     0.043 C 
ATOM      7  C   UNL A   1      30.062  25.173  23.772  1.00  0.00     0.043 C 
BRANCH   5   8
ATOM      8  N   UNL A   1      30.196  24.487  26.077  1.00  0.00    -0.322 N 
ATOM      9  N   UNL A   1      31.171  22.354  26.566  1.00  0.00    -0.306 N 
ATOM     10  C   UNL A   1      30.266  23.324  26.715  1.00  0.00     0.320 C 
ATOM     11  H   UNL A   1      30.802  21.582  27.054  1.00  0.00     0.171 HD
ATOM     12  O   UNL A   1      29.400  23.125  27.580  1.00  0.00    -0.248 OA
ATOM     13  H   UNL A   1      29.522  25.126  26.404  1.00  0.00     0.166 HD
BRANCH   9  14
ATOM     14  C   UNL A   1      32.420  21.895  26.037  1.00  0.00     0.064 A 
ATOM     15  C   UNL A   1      36.608  21.375  25.194  1.00  0.00     0.067 C 
ATOM     16  C   UNL A   1      35.185  21.529  25.599  1.00  0.00     0.038 A 
ATOM     17  C   UNL A   1      34.779  21.941  26.834  1.00  0.00     0.025 A 
ATOM     18  N   UNL A   1      34.296  21.242  24.648  1.00  0.00    -0.256 NA
ATOM     19  C   UNL A   1      33.412  22.115  27.036  1.00  0.00     0.030 A 
ATOM     20  C   UNL A   1      32.944  21.364  24.839  1.00  0.00     0.061 A 
ATOM     21  C   UNL A   1      32.400  20.618  23.670  1.00  0.00     0.069 C 
ENDBRANCH   9  14
ENDBRANCH   5   8
ENDBRANCH   3   5
ENDBRANCH   2   3
ENDBRANCH   1   2
BRANCH   1  22
ATOM     22  C   UNL A   1      31.710  29.165  25.843  1.00  0.00     0.275 C 
BRANCH  22  23
ATOM     23  O   UNL A   1      32.311  29.610  27.067  1.00  0.00    -0.458 OA
BRANCH  23  24
ATOM     24  C   UNL A   1      32.803  30.870  27.057  1.00  0.00     0.338 C 
ATOM     25  O   UNL A   1      32.202  31.910  26.856  1.00  0.00    -0.246 OA
BRANCH  24  26
ATOM     26  C   UNL A   1      34.203  30.799  27.510  1.00  0.00     0.060 A 
ATOM     27  C   UNL A   1      34.718  29.549  27.856  1.00  0.00     0.016 A 
ATOM     28  C   UNL A   1      34.940  31.951  27.758  1.00  0.00     0.016 A 
ATOM     29  C   UNL A   1      35.897  29.456  28.576  1.00  0.00     0.010 A 
ATOM     30  C   UNL A   1      36.206  31.835  28.340  1.00  0.00     0.010 A 
ATOM     31  C   UNL A   1      36.684  30.588  28.790  1.00  0.00    -0.014 A 
BRANCH  31  32
ATOM     32  C   UNL A   1      37.999  30.474  29.476  1.00  0.00     0.031 A 
ATOM     33  C   UNL A   1      39.098  29.655  28.855  1.00  0.00     0.074 A 
ATOM     34  C   UNL A   1      38.195  31.064  30.674  1.00  0.00     0.049 A 
ATOM     35  N   UNL A   1      40.155  29.131  29.420  1.00  0.00    -0.248 NA
ATOM     36  C   UNL A   1      38.975  29.357  27.419  1.00  0.00     0.031 C 
ATOM     37  C   UNL A   1      37.241  31.937  31.366  1.00  0.00     0.029 A 
ATOM     38  N   UNL A   1      39.260  31.000  31.539  1.00  0.00    -0.354 N 
ATOM     39  C   UNL A   1      40.767  28.363  28.436  1.00  0.00     0.074 A 
ATOM     40  C   UNL A   1      39.977  28.507  27.233  1.00  0.00     0.031 C 
ATOM     41  C   UNL A   1      37.768  32.343  32.528  1.00  0.00     0.029 A 
ATOM     42  C   UNL A   1      39.025  31.645  32.731  1.00  0.00     0.049 A 
ATOM     43  H   UNL A   1      40.104  30.540  31.328  1.00  0.00     0.167 HD
ATOM     44  C   UNL A   1      41.879  27.598  28.549  1.00  0.00     0.037 A 
ATOM     45  C   UNL A   1      39.689  31.607  33.901  1.00  0.00     0.037 A 
ATOM     46  C   UNL A   1      42.691  27.541  29.740  1.00  0.00     0.049 A 
ATOM     47  C   UNL A   1      40.903  30.735  34.007  1.00  0.00     0.074 A 
ATOM     48  C   UNL A   1      43.870  26.847  29.946  1.00  0.00     0.029 A 
ATOM     49  N   UNL A   1      42.413  28.219  30.919  1.00  0.00    -0.354 N 
ATOM     50  N   UNL A   1      41.446  29.964  33.098  1.00  0.00    -0.248 NA
ATOM     51  C   UNL A   1      41.584  30.712  35.306  1.00  0.00     0.031 C 
ATOM     52  C   UNL A   1      44.278  27.063  31.266  1.00  0.00     0.029 A 
ATOM     53  C   UNL A   1      43.386  27.939  31.864  1.00  0.00     0.049 A 
ATOM     54  H   UNL A   1      41.639  28.809  31.062  1.00  0.00     0.167 HD
ATOM     55  C   UNL A   1      42.542  29.373  33.708  1.00  0.00     0.074 A 
ATOM     56  C   UNL A   1      42.598  29.896  35.058  1.00  0.00     0.031 C 
ATOM     57  C   UNL A   1      43.422  28.477  33.200  1.00  0.00     0.037 A 
BRANCH  44  58
ATOM     58  C   UNL A   1      42.268  26.725  27.390  1.00  0.00     0.057 A 
ATOM     59  C   UNL A   1      43.105  27.164  26.357  1.00  0.00     0.134 A 
ATOM     60  C   UNL A   1      41.850  25.386  27.351  1.00  0.00     0.134 A 
ATOM     61  F   UNL A   1      43.537  28.433  26.325  1.00  0.00    -0.206 F 
ATOM     62  C   UNL A   1      43.501  26.308  25.324  1.00  0.00     0.040 A 
ATOM     63  C   UNL A   1      42.262  24.515  26.342  1.00  0.00     0.040 A 
ATOM     64  F   UNL A   1      41.051  24.894  28.312  1.00  0.00    -0.206 F 
ATOM     65  C   UNL A   1      43.088  24.977  25.321  1.00  0.00     0.006 A 
ENDBRANCH  44  58
BRANCH  45  66
ATOM     66  C   UNL A   1      39.159  32.344  35.078  1.00  0.00     0.057 A 
ATOM     67  C   UNL A   1      38.340  31.713  36.020  1.00  0.00     0.134 A 
ATOM     68  C   UNL A   1      39.478  33.691  35.301  1.00  0.00     0.134 A 
ATOM     69  F   UNL A   1      37.984  30.431  35.853  1.00  0.00    -0.206 F 
ATOM     70  C   UNL A   1      37.845  32.397  37.131  1.00  0.00     0.040 A 
ATOM     71  C   UNL A   1      39.021  34.376  36.427  1.00  0.00     0.040 A 
ATOM     72  F   UNL A   1      40.267  34.353  34.443  1.00  0.00    -0.206 F 
ATOM     73  C   UNL A   1      38.194  33.730  37.343  1.00  0.00     0.006 A 
ENDBRANCH  45  66
BRANCH  57  74
ATOM     74  C   UNL A   1      44.541  28.047  34.100  1.00  0.00     0.057 A 
ATOM     75  C   UNL A   1      44.443  26.911  34.913  1.00  0.00     0.134 A 
ATOM     76  C   UNL A   1      45.737  28.774  34.139  1.00  0.00     0.134 A 
ATOM     77  F   UNL A   1      43.316  26.184  34.934  1.00  0.00    -0.206 F 
ATOM     78  C   UNL A   1      45.487  26.529  35.756  1.00  0.00     0.040 A 
ATOM     79  C   UNL A   1      46.799  28.384  34.954  1.00  0.00     0.040 A 
ATOM     80  F   UNL A   1      45.895  29.868  33.379  1.00  0.00    -0.206 F 
ATOM     81  C   UNL A   1      46.672  27.263  35.772  1.00  0.00     0.006 A 
ENDBRANCH  57  74
ENDBRANCH  31  32
ENDBRANCH  24  26
ENDBRANCH  23  24
ENDBRANCH  22  23
ENDBRANCH   1  22
TORSDOF 13
ENDMDL
MODEL 3
REMARK VINA RESULT:     -11.4      3.963      8.669
REMARK SMILES Cc1ccc(NC(=O)NC2(C(=O)OCCOC(=O)c3ccc(-c4c5nc(c(-c6c(F)cccc6F)c6ccc([nH]6)c(-c6c(F)cccc6F)c6nc(c(-c7c(F)cccc7F)c7ccc4[nH]7)C=C6)C=C5)cc3)CC2)c(C)n1
REMARK SMILES IDX 14 1 13 2 11 3 12 4 10 5 73 6 74 7 9 8 6 9 7 10 8 12 5 14
REMARK SMILES IDX 1 15 2 16 3 17 77 18 4 19 75 20 76 21 15 22 16 23 17 24
REMARK SMILES IDX 18 25 19 26 20 27 72 28 21 29 71 30 22 31 23 32 24 33 65 34
REMARK SMILES IDX 25 35 70 36 64 37 66 38 26 39 69 40 63 41 62 42 27 44 53 45
REMARK SMILES IDX 36 46 52 47 37 48 40 49 51 50 67 51 38 52 39 53 50 55 68 56
REMARK SMILES IDX 41 57 28 58 29 59 34 60 30 61 31 62 33 63 35 64 32 65 54 66
REMARK SMILES IDX 55 67 60 68 56 69 57 70 59 71 61 72 58 73 42 74 43 75 48 76
REMARK SMILES IDX 44 77 45 78 47 79 49 80 46 81
REMARK H PARENT 6 11 9 13 66 43 40 54
REMARK Flexibility Score: inf
ROOT
ATOM      1  C   UNL A   1      31.322  28.236  26.067  1.00  0.00     0.274 C 
ENDROOT
BRANCH   1   2
ATOM      2  O   UNL A   1      31.923  27.349  25.093  1.00  0.00    -0.460 OA
BRANCH   2   3
ATOM      3  C   UNL A   1      31.586  27.487  23.773  1.00  0.00     0.332 C 
ATOM      4  O   UNL A   1      30.444  27.411  23.335  1.00  0.00    -0.249 OA
BRANCH   3   5
ATOM      5  C   UNL A   1      32.812  27.754  22.869  1.00  0.00     0.139 C 
ATOM      6  C   UNL A   1      34.118  27.940  23.651  1.00  0.00     0.043 C 
ATOM      7  C   UNL A   1      33.700  29.001  22.712  1.00  0.00     0.043 C 
BRANCH   5   8
ATOM      8  N   UNL A   1      32.755  27.063  21.640  1.00  0.00    -0.322 N 
ATOM      9  N   UNL A   1      33.225  24.817  22.331  1.00  0.00    -0.306 N 
ATOM     10  C   UNL A   1      33.004  25.775  21.428  1.00  0.00     0.320 C 
ATOM     11  H   UNL A   1      33.556  24.048  21.813  1.00  0.00     0.171 HD
ATOM     12  O   UNL A   1      33.002  25.409  20.244  1.00  0.00    -0.248 OA
ATOM     13  H   UNL A   1      32.502  27.595  20.851  1.00  0.00     0.166 HD
BRANCH   9  14
ATOM     14  C   UNL A   1      33.214  24.370  23.691  1.00  0.00     0.064 A 
ATOM     15  C   UNL A   1      34.311  22.685  27.496  1.00  0.00     0.067 C 
ATOM     16  C   UNL A   1      34.023  23.343  26.194  1.00  0.00     0.038 A 
ATOM     17  C   UNL A   1      34.969  23.922  25.400  1.00  0.00     0.025 A 
ATOM     18  N   UNL A   1      32.741  23.326  25.827  1.00  0.00    -0.256 NA
ATOM     19  C   UNL A   1      34.554  24.425  24.170  1.00  0.00     0.030 A 
ATOM     20  C   UNL A   1      32.305  23.855  24.640  1.00  0.00     0.061 A 
ATOM     21  C   UNL A   1      30.831  23.910  24.852  1.00  0.00     0.069 C 
ENDBRANCH   9  14
ENDBRANCH   5   8
ENDBRANCH   3   5
ENDBRANCH   2   3
ENDBRANCH   1   2
BRANCH   1  22
ATOM     22  C   UNL A   1      31.547  29.693  25.646  1.00  0.00     0.275 C 
BRANCH  22  23
ATOM     23  O   UNL A   1      32.907  30.017  25.964  1.00  0.00    -0.458 OA
BRANCH  23  24
ATOM     24  C   UNL A   1      33.080  30.989  26.889  1.00  0.00     0.338 C 
ATOM     25  O   UNL A   1      32.243  31.746  27.348  1.00  0.00    -0.246 OA
BRANCH  24  26
ATOM     26  C   UNL A   1      34.457  30.875  27.397  1.00  0.00     0.060 A 
ATOM     27  C   UNL A   1      34.937  29.601  27.707  1.00  0.00     0.016 A 
ATOM     28  C   UNL A   1      35.200  32.001  27.728  1.00  0.00     0.016 A 
ATOM     29  C   UNL A   1      36.083  29.456  28.471  1.00  0.00     0.010 A 
ATOM     30  C   UNL A   1      36.438  31.837  28.357  1.00  0.00     0.010 A 
ATOM     31  C   UNL A   1      36.878  30.563  28.770  1.00  0.00    -0.014 A 
BRANCH  31  32
ATOM     32  C   UNL A   1      38.160  30.395  29.505  1.00  0.00     0.031 A 
ATOM     33  C   UNL A   1      39.247  29.532  28.925  1.00  0.00     0.074 A 
ATOM     34  C   UNL A   1      38.335  30.978  30.709  1.00  0.00     0.049 A 
ATOM     35  N   UNL A   1      40.260  28.965  29.529  1.00  0.00    -0.248 NA
ATOM     36  C   UNL A   1      39.166  29.238  27.485  1.00  0.00     0.031 C 
ATOM     37  C   UNL A   1      37.392  31.890  31.366  1.00  0.00     0.029 A 
ATOM     38  N   UNL A   1      39.362  30.871  31.615  1.00  0.00    -0.354 N 
ATOM     39  C   UNL A   1      40.877  28.172  28.568  1.00  0.00     0.074 A 
ATOM     40  C   UNL A   1      40.139  28.348  27.335  1.00  0.00     0.031 C 
ATOM     41  C   UNL A   1      37.890  32.274  32.548  1.00  0.00     0.029 A 
ATOM     42  C   UNL A   1      39.110  31.526  32.798  1.00  0.00     0.049 A 
ATOM     43  H   UNL A   1      40.195  30.376  31.435  1.00  0.00     0.167 HD
ATOM     44  C   UNL A   1      41.951  27.362  28.722  1.00  0.00     0.037 A 
ATOM     45  C   UNL A   1      39.727  31.461  33.991  1.00  0.00     0.037 A 
ATOM     46  C   UNL A   1      42.715  27.273  29.942  1.00  0.00     0.049 A 
ATOM     47  C   UNL A   1      40.899  30.540  34.143  1.00  0.00     0.074 A 
ATOM     48  C   UNL A   1      43.855  26.532  30.192  1.00  0.00     0.029 A 
ATOM     49  N   UNL A   1      42.420  27.962  31.111  1.00  0.00    -0.354 N 
ATOM     50  N   UNL A   1      41.444  29.747  33.253  1.00  0.00    -0.248 NA
ATOM     51  C   UNL A   1      41.529  30.489  35.466  1.00  0.00     0.031 C 
ATOM     52  C   UNL A   1      44.221  26.731  31.527  1.00  0.00     0.029 A 
ATOM     53  C   UNL A   1      43.345  27.644  32.091  1.00  0.00     0.049 A 
ATOM     54  H   UNL A   1      41.666  28.584  31.225  1.00  0.00     0.167 HD
ATOM     55  C   UNL A   1      42.492  29.112  33.904  1.00  0.00     0.074 A 
ATOM     56  C   UNL A   1      42.518  29.632  35.256  1.00  0.00     0.031 C 
ATOM     57  C   UNL A   1      43.352  28.180  33.428  1.00  0.00     0.037 A 
BRANCH  44  58
ATOM     58  C   UNL A   1      42.347  26.474  27.577  1.00  0.00     0.057 A 
ATOM     59  C   UNL A   1      43.240  26.877  26.577  1.00  0.00     0.134 A 
ATOM     60  C   UNL A   1      41.877  25.153  27.522  1.00  0.00     0.134 A 
ATOM     61  F   UNL A   1      43.724  28.127  26.562  1.00  0.00    -0.206 F 
ATOM     62  C   UNL A   1      43.639  26.006  25.559  1.00  0.00     0.040 A 
ATOM     63  C   UNL A   1      42.290  24.265  26.527  1.00  0.00     0.040 A 
ATOM     64  F   UNL A   1      41.023  24.694  28.451  1.00  0.00    -0.206 F 
ATOM     65  C   UNL A   1      43.173  24.693  25.539  1.00  0.00     0.006 A 
ENDBRANCH  44  58
BRANCH  45  66
ATOM     66  C   UNL A   1      39.184  32.219  35.148  1.00  0.00     0.057 A 
ATOM     67  C   UNL A   1      38.360  31.604  36.096  1.00  0.00     0.134 A 
ATOM     68  C   UNL A   1      39.494  33.573  35.346  1.00  0.00     0.134 A 
ATOM     69  F   UNL A   1      38.011  30.317  35.954  1.00  0.00    -0.206 F 
ATOM     70  C   UNL A   1      37.853  32.309  37.189  1.00  0.00     0.040 A 
ATOM     71  C   UNL A   1      39.024  34.278  36.453  1.00  0.00     0.040 A 
ATOM     72  F   UNL A   1      40.287  34.221  34.480  1.00  0.00    -0.206 F 
ATOM     73  C   UNL A   1      38.193  33.648  37.376  1.00  0.00     0.006 A 
ENDBRANCH  45  66
BRANCH  57  74
ATOM     74  C   UNL A   1      44.418  27.706  34.369  1.00  0.00     0.057 A 
ATOM     75  C   UNL A   1      45.642  28.374  34.501  1.00  0.00     0.134 A 
ATOM     76  C   UNL A   1      44.207  26.572  35.164  1.00  0.00     0.134 A 
ATOM     77  F   UNL A   1      45.911  29.455  33.754  1.00  0.00    -0.206 F 
ATOM     78  C   UNL A   1      46.630  27.913  35.371  1.00  0.00     0.040 A 
ATOM     79  C   UNL A   1      45.175  26.121  36.060  1.00  0.00     0.040 A 
ATOM     80  F   UNL A   1      43.053  25.892  35.089  1.00  0.00    -0.206 F 
ATOM     81  C   UNL A   1      46.395  26.788  36.159  1.00  0.00     0.006 A 
ENDBRANCH  57  74
ENDBRANCH  31  32
ENDBRANCH  24  26
ENDBRANCH  23  24
ENDBRANCH  22  23
ENDBRANCH   1  22
TORSDOF 13
ENDMDL
