MODEL 1
REMARK VINA RESULT:     -12.6      0.000      0.000
REMARK SMILES O=C(OCCOC(=O)c1ccc(-c2c3nc(c(-c4c(F)cccc4F)c4ccc([nH]4)c(-c4c(F)cccc4F)c4nc(c(-c5c(F)cccc5F)c5ccc2[nH]5)C=C4)C=C3)cc1)C1=Cc2c(ccc(Cl)c2Sc2ccccc2)O[C@H]1C(F)(F)F
REMARK SMILES IDX 4 1 3 2 2 3 1 4 63 5 64 6 80 7 65 8 79 9 66 10 71 11 67 12
REMARK SMILES IDX 69 13 68 14 70 15 81 16 82 17 83 18 84 19 72 20 73 21 74 22
REMARK SMILES IDX 78 23 75 24 77 25 76 26 5 27 6 28 7 29 8 30 9 31 10 32 62 33
REMARK SMILES IDX 11 34 61 35 12 36 13 37 14 38 55 39 15 40 60 41 54 42 56 43
REMARK SMILES IDX 16 44 59 45 53 46 52 47 17 49 43 50 26 51 42 52 27 53 30 54
REMARK SMILES IDX 41 55 57 56 28 57 29 58 40 60 58 61 31 62 18 63 19 64 24 65
REMARK SMILES IDX 20 66 21 67 23 68 25 69 22 70 44 71 45 72 50 73 46 74 47 75
REMARK SMILES IDX 49 76 51 77 48 78 32 79 33 80 38 81 34 82 35 83 37 84 39 85
REMARK SMILES IDX 36 86
REMARK H PARENT 56 48 30 59
REMARK Flexibility Score: inf
ROOT
ATOM      1  C   UNL A   1      33.697  28.637  25.125  1.00  0.00     0.275 C 
ENDROOT
BRANCH   1   2
ATOM      2  O   UNL A   1      32.746  29.494  24.459  1.00  0.00    -0.459 OA
BRANCH   2   3
ATOM      3  C   UNL A   1      31.428  29.614  24.716  1.00  0.00     0.338 C 
ATOM      4  O   UNL A   1      30.966  30.659  25.172  1.00  0.00    -0.246 OA
BRANCH   3   5
ATOM      5  C   UNL A   1      30.466  28.648  24.164  1.00  0.00     0.087 C 
ATOM      6  C   UNL A   1      30.297  27.326  24.284  1.00  0.00     0.028 C 
ATOM      7  C   UNL A   1      29.910  29.094  22.850  1.00  0.00     0.316 C 
ATOM      8  C   UNL A   1      31.197  26.535  23.471  1.00  0.00     0.033 A 
ATOM      9  O   UNL A   1      30.563  28.258  21.796  1.00  0.00    -0.475 OA
ATOM     10  C   UNL A   1      31.397  27.209  22.224  1.00  0.00     0.129 A 
ATOM     11  C   UNL A   1      31.918  25.393  23.933  1.00  0.00     0.042 A 
ATOM     12  C   UNL A   1      32.501  26.882  21.472  1.00  0.00     0.049 A 
ATOM     13  C   UNL A   1      33.071  25.139  23.148  1.00  0.00     0.055 A 
ATOM     14  C   UNL A   1      33.363  25.890  21.966  1.00  0.00     0.025 A 
ATOM     15  Cl  UNL A   1      34.313  24.038  23.649  1.00  0.00    -0.083 Cl
BRANCH   7  16
ATOM     16  C   UNL A   1      28.352  29.050  22.919  1.00  0.00     0.430 C 
ATOM     17  F   UNL A   1      27.898  27.842  23.360  1.00  0.00    -0.167 F 
ATOM     18  F   UNL A   1      27.844  29.970  23.764  1.00  0.00    -0.167 F 
ATOM     19  F   UNL A   1      27.780  29.236  21.705  1.00  0.00    -0.167 F 
ENDBRANCH   7  16
BRANCH  11  20
ATOM     20  S   UNL A   1      31.595  24.314  25.511  1.00  0.00    -0.088 SA
BRANCH  20  21
ATOM     21  C   UNL A   1      32.459  22.652  25.504  1.00  0.00     0.012 A 
ATOM     22  C   UNL A   1      32.053  21.268  24.441  1.00  0.00     0.015 A 
ATOM     23  C   UNL A   1      33.860  22.658  26.472  1.00  0.00     0.015 A 
ATOM     24  C   UNL A   1      33.126  19.832  24.199  1.00  0.00     0.001 A 
ATOM     25  C   UNL A   1      35.105  21.415  26.257  1.00  0.00     0.001 A 
ATOM     26  C   UNL A   1      34.728  19.835  25.053  1.00  0.00     0.000 A 
ENDBRANCH  20  21
ENDBRANCH  11  20
ENDBRANCH   3   5
ENDBRANCH   2   3
ENDBRANCH   1   2
BRANCH   1  27
ATOM     27  C   UNL A   1      33.500  28.447  26.606  1.00  0.00     0.275 C 
BRANCH  27  28
ATOM     28  O   UNL A   1      34.707  28.500  27.322  1.00  0.00    -0.458 OA
BRANCH  28  29
ATOM     29  C   UNL A   1      34.850  29.760  27.794  1.00  0.00     0.338 C 
ATOM     30  O   UNL A   1      33.924  30.549  27.693  1.00  0.00    -0.246 OA
BRANCH  29  31
ATOM     31  C   UNL A   1      36.219  29.864  28.663  1.00  0.00     0.060 A 
ATOM     32  C   UNL A   1      37.346  30.123  27.292  1.00  0.00     0.016 A 
ATOM     33  C   UNL A   1      36.991  29.124  30.393  1.00  0.00     0.016 A 
ATOM     34  C   UNL A   1      39.010  29.701  27.472  1.00  0.00     0.010 A 
ATOM     35  C   UNL A   1      38.776  28.793  30.441  1.00  0.00     0.010 A 
ATOM     36  C   UNL A   1      39.740  29.081  28.963  1.00  0.00    -0.014 A 
BRANCH  36  37
ATOM     37  C   UNL A   1      41.192  28.698  28.812  1.00  0.00     0.031 A 
ATOM     38  C   UNL A   1      41.508  27.323  28.312  1.00  0.00     0.074 A 
ATOM     39  C   UNL A   1      42.217  29.576  28.981  1.00  0.00     0.049 A 
ATOM     40  N   UNL A   1      42.654  26.700  28.251  1.00  0.00    -0.248 NA
ATOM     41  C   UNL A   1      40.369  26.502  27.891  1.00  0.00     0.031 C 
ATOM     42  C   UNL A   1      42.119  30.959  29.461  1.00  0.00     0.029 A 
ATOM     43  N   UNL A   1      43.564  29.454  28.696  1.00  0.00    -0.354 N 
ATOM     44  C   UNL A   1      42.333  25.398  27.898  1.00  0.00     0.074 A 
ATOM     45  C   UNL A   1      40.895  25.294  27.905  1.00  0.00     0.031 C 
ATOM     46  C   UNL A   1      43.291  31.591  29.281  1.00  0.00     0.029 A 
ATOM     47  C   UNL A   1      44.285  30.625  28.834  1.00  0.00     0.049 A 
ATOM     48  H   UNL A   1      43.976  28.604  28.418  1.00  0.00     0.167 HD
ATOM     49  C   UNL A   1      43.146  24.396  27.502  1.00  0.00     0.037 A 
ATOM     50  C   UNL A   1      45.599  30.891  28.661  1.00  0.00     0.037 A 
ATOM     51  C   UNL A   1      44.559  24.552  27.330  1.00  0.00     0.049 A 
ATOM     52  C   UNL A   1      46.504  29.747  28.277  1.00  0.00     0.074 A 
ATOM     53  C   UNL A   1      45.481  23.613  26.916  1.00  0.00     0.029 A 
ATOM     54  N   UNL A   1      45.245  25.740  27.532  1.00  0.00    -0.354 N 
ATOM     55  N   UNL A   1      46.190  28.505  27.996  1.00  0.00    -0.248 NA
ATOM     56  C   UNL A   1      47.946  30.028  28.211  1.00  0.00     0.031 C 
ATOM     57  C   UNL A   1      46.742  24.212  26.943  1.00  0.00     0.029 A 
ATOM     58  C   UNL A   1      46.590  25.548  27.284  1.00  0.00     0.049 A 
ATOM     59  H   UNL A   1      44.836  26.592  27.809  1.00  0.00     0.167 HD
ATOM     60  C   UNL A   1      47.385  27.866  27.699  1.00  0.00     0.074 A 
ATOM     61  C   UNL A   1      48.429  28.864  27.807  1.00  0.00     0.031 C 
ATOM     62  C   UNL A   1      47.603  26.567  27.376  1.00  0.00     0.037 A 
BRANCH  49  63
ATOM     63  C   UNL A   1      42.508  23.062  27.251  1.00  0.00     0.057 A 
ATOM     64  C   UNL A   1      42.253  22.569  25.963  1.00  0.00     0.134 A 
ATOM     65  C   UNL A   1      42.082  22.287  28.336  1.00  0.00     0.134 A 
ATOM     66  F   UNL A   1      42.607  23.275  24.878  1.00  0.00    -0.206 F 
ATOM     67  C   UNL A   1      41.535  21.389  25.763  1.00  0.00     0.040 A 
ATOM     68  C   UNL A   1      41.410  21.080  28.148  1.00  0.00     0.040 A 
ATOM     69  F   UNL A   1      42.294  22.699  29.594  1.00  0.00    -0.206 F 
ATOM     70  C   UNL A   1      41.117  20.638  26.861  1.00  0.00     0.006 A 
ENDBRANCH  49  63
BRANCH  50  71
ATOM     71  C   UNL A   1      46.170  32.254  28.908  1.00  0.00     0.057 A 
ATOM     72  C   UNL A   1      46.582  32.666  30.185  1.00  0.00     0.134 A 
ATOM     73  C   UNL A   1      46.256  33.210  27.886  1.00  0.00     0.134 A 
ATOM     74  F   UNL A   1      46.499  31.825  31.226  1.00  0.00    -0.206 F 
ATOM     75  C   UNL A   1      47.032  33.968  30.437  1.00  0.00     0.040 A 
ATOM     76  C   UNL A   1      46.740  34.502  28.114  1.00  0.00     0.040 A 
ATOM     77  F   UNL A   1      45.867  32.905  26.639  1.00  0.00    -0.206 F 
ATOM     78  C   UNL A   1      47.119  34.890  29.396  1.00  0.00     0.006 A 
ENDBRANCH  50  71
BRANCH  62  79
ATOM     79  C   UNL A   1      49.009  26.164  27.050  1.00  0.00     0.057 A 
ATOM     80  C   UNL A   1      49.542  26.290  25.762  1.00  0.00     0.134 A 
ATOM     81  C   UNL A   1      49.862  25.710  28.065  1.00  0.00     0.134 A 
ATOM     82  F   UNL A   1      48.776  26.718  24.746  1.00  0.00    -0.206 F 
ATOM     83  C   UNL A   1      50.866  25.945  25.488  1.00  0.00     0.040 A 
ATOM     84  C   UNL A   1      51.198  25.405  27.813  1.00  0.00     0.040 A 
ATOM     85  F   UNL A   1      49.419  25.587  29.326  1.00  0.00    -0.206 F 
ATOM     86  C   UNL A   1      51.700  25.512  26.517  1.00  0.00     0.006 A 
ENDBRANCH  62  79
ENDBRANCH  36  37
ENDBRANCH  29  31
ENDBRANCH  28  29
ENDBRANCH  27  28
ENDBRANCH   1  27
TORSDOF 14
ENDMDL
MODEL 2
REMARK VINA RESULT:     -12.5      4.683      7.599
REMARK SMILES O=C(OCCOC(=O)c1ccc(-c2c3nc(c(-c4c(F)cccc4F)c4ccc([nH]4)c(-c4c(F)cccc4F)c4nc(c(-c5c(F)cccc5F)c5ccc2[nH]5)C=C4)C=C3)cc1)C1=Cc2c(ccc(Cl)c2Sc2ccccc2)O[C@H]1C(F)(F)F
REMARK SMILES IDX 4 1 3 2 2 3 1 4 63 5 64 6 80 7 65 8 79 9 66 10 71 11 67 12
REMARK SMILES IDX 69 13 68 14 70 15 81 16 82 17 83 18 84 19 72 20 73 21 74 22
REMARK SMILES IDX 78 23 75 24 77 25 76 26 5 27 6 28 7 29 8 30 9 31 10 32 62 33
REMARK SMILES IDX 11 34 61 35 12 36 13 37 14 38 55 39 15 40 60 41 54 42 56 43
REMARK SMILES IDX 16 44 59 45 53 46 52 47 17 49 43 50 26 51 42 52 27 53 30 54
REMARK SMILES IDX 41 55 57 56 28 57 29 58 40 60 58 61 31 62 18 63 19 64 24 65
REMARK SMILES IDX 20 66 21 67 23 68 25 69 22 70 44 71 45 72 50 73 46 74 47 75
REMARK SMILES IDX 49 76 51 77 48 78 32 79 33 80 38 81 34 82 35 83 37 84 39 85
REMARK SMILES IDX 36 86
REMARK H PARENT 56 48 30 59
REMARK Flexibility Score: inf
ROOT
ATOM      1  C   UNL A   1      34.471  33.124  28.242  1.00  0.00     0.275 C 
ENDROOT
BRANCH   1   2
ATOM      2  O   UNL A   1      35.578  33.864  28.801  1.00  0.00    -0.459 OA
BRANCH   2   3
ATOM      3  C   UNL A   1      36.428  33.464  29.768  1.00  0.00     0.338 C 
ATOM      4  O   UNL A   1      37.462  32.859  29.488  1.00  0.00    -0.246 OA
BRANCH   3   5
ATOM      5  C   UNL A   1      36.326  34.011  31.129  1.00  0.00     0.087 C 
ATOM      6  C   UNL A   1      37.216  34.344  32.072  1.00  0.00     0.028 C 
ATOM      7  C   UNL A   1      35.032  33.652  31.786  1.00  0.00     0.316 C 
ATOM      8  C   UNL A   1      37.741  33.218  32.818  1.00  0.00     0.033 A 
ATOM      9  O   UNL A   1      35.336  32.590  32.794  1.00  0.00    -0.475 OA
ATOM     10  C   UNL A   1      36.688  32.266  33.007  1.00  0.00     0.129 A 
ATOM     11  C   UNL A   1      39.121  33.015  33.116  1.00  0.00     0.042 A 
ATOM     12  C   UNL A   1      37.026  30.968  33.310  1.00  0.00     0.049 A 
ATOM     13  C   UNL A   1      39.414  31.651  33.371  1.00  0.00     0.055 A 
ATOM     14  C   UNL A   1      38.389  30.655  33.433  1.00  0.00     0.025 A 
ATOM     15  Cl  UNL A   1      41.038  31.046  33.436  1.00  0.00    -0.083 Cl
BRANCH   7  16
ATOM     16  C   UNL A   1      34.355  34.953  32.315  1.00  0.00     0.430 C 
ATOM     17  F   UNL A   1      33.135  34.701  32.870  1.00  0.00    -0.167 F 
ATOM     18  F   UNL A   1      35.081  35.564  33.273  1.00  0.00    -0.167 F 
ATOM     19  F   UNL A   1      34.129  35.852  31.326  1.00  0.00    -0.167 F 
ENDBRANCH   7  16
BRANCH  11  20
ATOM     20  S   UNL A   1      40.574  34.298  33.065  1.00  0.00    -0.088 SA
BRANCH  20  21
ATOM     21  C   UNL A   1      41.336  34.539  31.371  1.00  0.00     0.012 A 
ATOM     22  C   UNL A   1      40.432  34.705  29.834  1.00  0.00     0.015 A 
ATOM     23  C   UNL A   1      43.012  34.827  31.462  1.00  0.00     0.015 A 
ATOM     24  C   UNL A   1      41.166  35.301  28.291  1.00  0.00     0.001 A 
ATOM     25  C   UNL A   1      43.872  35.563  30.097  1.00  0.00     0.001 A 
ATOM     26  C   UNL A   1      42.909  35.805  28.337  1.00  0.00     0.000 A 
ENDBRANCH  20  21
ENDBRANCH  11  20
ENDBRANCH   3   5
ENDBRANCH   2   3
ENDBRANCH   1   2
BRANCH   1  27
ATOM     27  C   UNL A   1      34.416  31.657  28.574  1.00  0.00     0.275 C 
BRANCH  27  28
ATOM     28  O   UNL A   1      34.427  30.844  27.428  1.00  0.00    -0.458 OA
BRANCH  28  29
ATOM     29  C   UNL A   1      34.854  29.615  27.800  1.00  0.00     0.338 C 
ATOM     30  O   UNL A   1      34.320  28.624  27.328  1.00  0.00    -0.246 OA
BRANCH  29  31
ATOM     31  C   UNL A   1      36.229  29.753  28.653  1.00  0.00     0.060 A 
ATOM     32  C   UNL A   1      37.334  30.042  27.271  1.00  0.00     0.016 A 
ATOM     33  C   UNL A   1      37.039  29.031  30.374  1.00  0.00     0.016 A 
ATOM     34  C   UNL A   1      39.010  29.663  27.432  1.00  0.00     0.010 A 
ATOM     35  C   UNL A   1      38.833  28.746  30.402  1.00  0.00     0.010 A 
ATOM     36  C   UNL A   1      39.773  29.061  28.914  1.00  0.00    -0.014 A 
BRANCH  36  37
ATOM     37  C   UNL A   1      41.232  28.715  28.747  1.00  0.00     0.031 A 
ATOM     38  C   UNL A   1      41.578  27.345  28.254  1.00  0.00     0.074 A 
ATOM     39  C   UNL A   1      42.235  29.621  28.895  1.00  0.00     0.049 A 
ATOM     40  N   UNL A   1      42.740  26.752  28.182  1.00  0.00    -0.248 NA
ATOM     41  C   UNL A   1      40.456  26.490  27.854  1.00  0.00     0.031 C 
ATOM     42  C   UNL A   1      42.107  31.005  29.365  1.00  0.00     0.029 A 
ATOM     43  N   UNL A   1      43.581  29.532  28.592  1.00  0.00    -0.354 N 
ATOM     44  C   UNL A   1      42.448  25.438  27.844  1.00  0.00     0.074 A 
ATOM     45  C   UNL A   1      41.014  25.297  27.871  1.00  0.00     0.031 C 
ATOM     46  C   UNL A   1      43.259  31.666  29.164  1.00  0.00     0.029 A 
ATOM     47  C   UNL A   1      44.272  30.724  28.712  1.00  0.00     0.049 A 
ATOM     48  H   UNL A   1      44.012  28.691  28.316  1.00  0.00     0.167 HD
ATOM     49  C   UNL A   1      43.283  24.456  27.445  1.00  0.00     0.037 A 
ATOM     50  C   UNL A   1      45.576  31.023  28.518  1.00  0.00     0.037 A 
ATOM     51  C   UNL A   1      44.689  24.647  27.252  1.00  0.00     0.049 A 
ATOM     52  C   UNL A   1      46.507  29.901  28.131  1.00  0.00     0.074 A 
ATOM     53  C   UNL A   1      45.630  23.730  26.834  1.00  0.00     0.029 A 
ATOM     54  N   UNL A   1      45.346  25.855  27.435  1.00  0.00    -0.354 N 
ATOM     55  N   UNL A   1      46.222  28.649  27.865  1.00  0.00    -0.248 NA
ATOM     56  C   UNL A   1      47.940  30.220  28.044  1.00  0.00     0.031 C 
ATOM     57  C   UNL A   1      46.875  24.363  26.839  1.00  0.00     0.029 A 
ATOM     58  C   UNL A   1      46.692  25.697  27.171  1.00  0.00     0.049 A 
ATOM     59  H   UNL A   1      44.918  26.698  27.712  1.00  0.00     0.167 HD
ATOM     60  C   UNL A   1      47.429  28.038  27.557  1.00  0.00     0.074 A 
ATOM     61  C   UNL A   1      48.448  29.065  27.643  1.00  0.00     0.031 C 
ATOM     62  C   UNL A   1      47.678  26.744  27.241  1.00  0.00     0.037 A 
BRANCH  49  63
ATOM     63  C   UNL A   1      42.678  23.103  27.213  1.00  0.00     0.057 A 
ATOM     64  C   UNL A   1      42.373  22.613  25.935  1.00  0.00     0.134 A 
ATOM     65  C   UNL A   1      42.333  22.305  28.310  1.00  0.00     0.134 A 
ATOM     66  F   UNL A   1      42.648  23.339  24.840  1.00  0.00    -0.206 F 
ATOM     67  C   UNL A   1      41.686  21.411  25.760  1.00  0.00     0.040 A 
ATOM     68  C   UNL A   1      41.693  21.078  28.145  1.00  0.00     0.040 A 
ATOM     69  F   UNL A   1      42.596  22.713  29.560  1.00  0.00    -0.206 F 
ATOM     70  C   UNL A   1      41.350  20.637  26.870  1.00  0.00     0.006 A 
ENDBRANCH  49  63
BRANCH  50  71
ATOM     71  C   UNL A   1      46.114  32.403  28.747  1.00  0.00     0.057 A 
ATOM     72  C   UNL A   1      46.144  33.367  27.727  1.00  0.00     0.134 A 
ATOM     73  C   UNL A   1      46.679  32.777  29.975  1.00  0.00     0.134 A 
ATOM     74  F   UNL A   1      45.658  33.079  26.511  1.00  0.00    -0.206 F 
ATOM     75  C   UNL A   1      46.728  34.626  27.912  1.00  0.00     0.040 A 
ATOM     76  C   UNL A   1      47.229  34.044  30.187  1.00  0.00     0.040 A 
ATOM     77  F   UNL A   1      46.706  31.910  30.998  1.00  0.00    -0.206 F 
ATOM     78  C   UNL A   1      47.266  34.971  29.149  1.00  0.00     0.006 A 
ENDBRANCH  50  71
BRANCH  62  79
ATOM     79  C   UNL A   1      49.090  26.376  26.900  1.00  0.00     0.057 A 
ATOM     80  C   UNL A   1      49.964  25.818  27.841  1.00  0.00     0.134 A 
ATOM     81  C   UNL A   1      49.555  26.519  25.586  1.00  0.00     0.134 A 
ATOM     82  F   UNL A   1      49.580  25.657  29.116  1.00  0.00    -0.206 F 
ATOM     83  C   UNL A   1      51.263  25.447  27.493  1.00  0.00     0.040 A 
ATOM     84  C   UNL A   1      50.835  26.110  25.216  1.00  0.00     0.040 A 
ATOM     85  F   UNL A   1      48.760  27.027  24.631  1.00  0.00    -0.206 F 
ATOM     86  C   UNL A   1      51.697  25.583  26.176  1.00  0.00     0.006 A 
ENDBRANCH  62  79
ENDBRANCH  36  37
ENDBRANCH  29  31
ENDBRANCH  28  29
ENDBRANCH  27  28
ENDBRANCH   1  27
TORSDOF 14
ENDMDL
MODEL 3
REMARK VINA RESULT:     -12.3      6.009     12.231
REMARK SMILES O=C(OCCOC(=O)c1ccc(-c2c3nc(c(-c4c(F)cccc4F)c4ccc([nH]4)c(-c4c(F)cccc4F)c4nc(c(-c5c(F)cccc5F)c5ccc2[nH]5)C=C4)C=C3)cc1)C1=Cc2c(ccc(Cl)c2Sc2ccccc2)O[C@H]1C(F)(F)F
REMARK SMILES IDX 4 1 3 2 2 3 1 4 63 5 64 6 80 7 65 8 79 9 66 10 71 11 67 12
REMARK SMILES IDX 69 13 68 14 70 15 81 16 82 17 83 18 84 19 72 20 73 21 74 22
REMARK SMILES IDX 78 23 75 24 77 25 76 26 5 27 6 28 7 29 8 30 9 31 10 32 62 33
REMARK SMILES IDX 11 34 61 35 12 36 13 37 14 38 55 39 15 40 60 41 54 42 56 43
REMARK SMILES IDX 16 44 59 45 53 46 52 47 17 49 43 50 26 51 42 52 27 53 30 54
REMARK SMILES IDX 41 55 57 56 28 57 29 58 40 60 58 61 31 62 18 63 19 64 24 65
REMARK SMILES IDX 20 66 21 67 23 68 25 69 22 70 44 71 45 72 50 73 46 74 47 75
REMARK SMILES IDX 49 76 51 77 48 78 32 79 33 80 38 81 34 82 35 83 37 84 39 85
REMARK SMILES IDX 36 86
REMARK H PARENT 56 48 30 59
REMARK Flexibility Score: inf
ROOT
ATOM      1  C   UNL A   1      40.860  21.275  26.270  1.00  0.00     0.275 C 
ENDROOT
BRANCH   1   2
ATOM      2  O   UNL A   1      42.103  21.433  26.987  1.00  0.00    -0.459 OA
BRANCH   2   3
ATOM      3  C   UNL A   1      42.812  22.565  27.164  1.00  0.00     0.338 C 
ATOM      4  O   UNL A   1      42.476  23.394  28.008  1.00  0.00    -0.246 OA
BRANCH   3   5
ATOM      5  C   UNL A   1      44.166  22.698  26.606  1.00  0.00     0.087 C 
ATOM      6  C   UNL A   1      45.275  23.342  26.988  1.00  0.00     0.028 C 
ATOM      7  C   UNL A   1      44.181  22.541  25.120  1.00  0.00     0.316 C 
ATOM      8  C   UNL A   1      45.271  24.760  26.693  1.00  0.00     0.033 A 
ATOM      9  O   UNL A   1      44.370  23.906  24.540  1.00  0.00    -0.475 OA
ATOM     10  C   UNL A   1      44.618  24.962  25.436  1.00  0.00     0.129 A 
ATOM     11  C   UNL A   1      45.663  25.781  27.610  1.00  0.00     0.042 A 
ATOM     12  C   UNL A   1      44.130  26.215  25.145  1.00  0.00     0.049 A 
ATOM     13  C   UNL A   1      45.089  27.036  27.285  1.00  0.00     0.055 A 
ATOM     14  C   UNL A   1      44.317  27.231  26.096  1.00  0.00     0.025 A 
ATOM     15  Cl  UNL A   1      45.109  28.379  28.381  1.00  0.00    -0.083 Cl
BRANCH   7  16
ATOM     16  C   UNL A   1      45.238  21.459  24.736  1.00  0.00     0.430 C 
ATOM     17  F   UNL A   1      46.401  22.020  24.299  1.00  0.00    -0.167 F 
ATOM     18  F   UNL A   1      45.573  20.669  25.776  1.00  0.00    -0.167 F 
ATOM     19  F   UNL A   1      44.813  20.663  23.725  1.00  0.00    -0.167 F 
ENDBRANCH   7  16
BRANCH  11  20
ATOM     20  S   UNL A   1      46.707  25.614  29.236  1.00  0.00    -0.088 SA
BRANCH  20  21
ATOM     21  C   UNL A   1      45.699  25.234  30.768  1.00  0.00     0.012 A 
ATOM     22  C   UNL A   1      44.408  23.999  30.890  1.00  0.00     0.015 A 
ATOM     23  C   UNL A   1      46.303  26.039  32.142  1.00  0.00     0.015 A 
ATOM     24  C   UNL A   1      43.721  23.407  32.455  1.00  0.00     0.001 A 
ATOM     25  C   UNL A   1      45.865  25.488  33.770  1.00  0.00     0.001 A 
ATOM     26  C   UNL A   1      44.433  24.079  33.984  1.00  0.00     0.000 A 
ENDBRANCH  20  21
ENDBRANCH  11  20
ENDBRANCH   3   5
ENDBRANCH   2   3
ENDBRANCH   1   2
BRANCH   1  27
ATOM     27  C   UNL A   1      39.715  22.141  26.724  1.00  0.00     0.275 C 
BRANCH  27  28
ATOM     28  O   UNL A   1      39.136  22.867  25.670  1.00  0.00    -0.458 OA
BRANCH  28  29
ATOM     29  C   UNL A   1      38.522  23.948  26.204  1.00  0.00     0.338 C 
ATOM     30  O   UNL A   1      37.308  23.954  26.319  1.00  0.00    -0.246 OA
BRANCH  29  31
ATOM     31  C   UNL A   1      39.635  24.949  26.835  1.00  0.00     0.060 A 
ATOM     32  C   UNL A   1      39.056  24.903  28.532  1.00  0.00     0.016 A 
ATOM     33  C   UNL A   1      40.750  26.550  26.261  1.00  0.00     0.016 A 
ATOM     34  C   UNL A   1      39.422  26.218  29.588  1.00  0.00     0.010 A 
ATOM     35  C   UNL A   1      41.103  27.819  27.513  1.00  0.00     0.010 A 
ATOM     36  C   UNL A   1      40.412  27.621  29.151  1.00  0.00    -0.014 A 
BRANCH  36  37
ATOM     37  C   UNL A   1      40.487  28.670  30.233  1.00  0.00     0.031 A 
ATOM     38  C   UNL A   1      39.402  29.699  30.290  1.00  0.00     0.074 A 
ATOM     39  C   UNL A   1      41.413  28.650  31.228  1.00  0.00     0.049 A 
ATOM     40  N   UNL A   1      39.320  30.788  31.008  1.00  0.00    -0.248 NA
ATOM     41  C   UNL A   1      38.283  29.523  29.360  1.00  0.00     0.031 C 
ATOM     42  C   UNL A   1      42.549  27.730  31.353  1.00  0.00     0.029 A 
ATOM     43  N   UNL A   1      41.505  29.397  32.388  1.00  0.00    -0.354 N 
ATOM     44  C   UNL A   1      38.209  31.456  30.516  1.00  0.00     0.074 A 
ATOM     45  C   UNL A   1      37.748  30.728  29.361  1.00  0.00     0.031 C 
ATOM     46  C   UNL A   1      43.107  27.853  32.570  1.00  0.00     0.029 A 
ATOM     47  C   UNL A   1      42.490  28.975  33.262  1.00  0.00     0.049 A 
ATOM     48  H   UNL A   1      40.920  30.166  32.576  1.00  0.00     0.167 HD
ATOM     49  C   UNL A   1      37.560  32.522  31.029  1.00  0.00     0.037 A 
ATOM     50  C   UNL A   1      42.882  29.453  34.463  1.00  0.00     0.037 A 
ATOM     51  C   UNL A   1      37.917  33.139  32.271  1.00  0.00     0.049 A 
ATOM     52  C   UNL A   1      42.186  30.682  34.994  1.00  0.00     0.074 A 
ATOM     53  C   UNL A   1      37.321  34.213  32.898  1.00  0.00     0.029 A 
ATOM     54  N   UNL A   1      38.950  32.707  33.089  1.00  0.00    -0.354 N 
ATOM     55  N   UNL A   1      41.167  31.334  34.489  1.00  0.00    -0.248 NA
ATOM     56  C   UNL A   1      42.706  31.259  36.243  1.00  0.00     0.031 C 
ATOM     57  C   UNL A   1      38.044  34.483  34.062  1.00  0.00     0.029 A 
ATOM     58  C   UNL A   1      39.031  33.519  34.204  1.00  0.00     0.049 A 
ATOM     59  H   UNL A   1      39.538  31.938  32.904  1.00  0.00     0.167 HD
ATOM     60  C   UNL A   1      40.909  32.379  35.365  1.00  0.00     0.074 A 
ATOM     61  C   UNL A   1      41.862  32.258  36.449  1.00  0.00     0.031 C 
ATOM     62  C   UNL A   1      39.975  33.359  35.278  1.00  0.00     0.037 A 
BRANCH  49  63
ATOM     63  C   UNL A   1      36.418  33.073  30.226  1.00  0.00     0.057 A 
ATOM     64  C   UNL A   1      35.078  32.748  30.484  1.00  0.00     0.134 A 
ATOM     65  C   UNL A   1      36.683  33.895  29.126  1.00  0.00     0.134 A 
ATOM     66  F   UNL A   1      34.755  31.939  31.505  1.00  0.00    -0.206 F 
ATOM     67  C   UNL A   1      34.051  33.165  29.636  1.00  0.00     0.040 A 
ATOM     68  C   UNL A   1      35.660  34.361  28.302  1.00  0.00     0.040 A 
ATOM     69  F   UNL A   1      37.942  34.244  28.822  1.00  0.00    -0.206 F 
ATOM     70  C   UNL A   1      34.342  33.981  28.544  1.00  0.00     0.006 A 
ENDBRANCH  49  63
BRANCH  50  71
ATOM     71  C   UNL A   1      44.019  28.843  35.226  1.00  0.00     0.057 A 
ATOM     72  C   UNL A   1      45.351  29.228  35.009  1.00  0.00     0.134 A 
ATOM     73  C   UNL A   1      43.811  27.805  36.146  1.00  0.00     0.134 A 
ATOM     74  F   UNL A   1      45.640  30.189  34.119  1.00  0.00    -0.206 F 
ATOM     75  C   UNL A   1      46.421  28.597  35.654  1.00  0.00     0.040 A 
ATOM     76  C   UNL A   1      44.867  27.192  36.827  1.00  0.00     0.040 A 
ATOM     77  F   UNL A   1      42.570  27.364  36.400  1.00  0.00    -0.206 F 
ATOM     78  C   UNL A   1      46.180  27.579  36.573  1.00  0.00     0.006 A 
ENDBRANCH  50  71
BRANCH  62  79
ATOM     79  C   UNL A   1      39.892  34.335  36.412  1.00  0.00     0.057 A 
ATOM     80  C   UNL A   1      40.519  35.586  36.367  1.00  0.00     0.134 A 
ATOM     81  C   UNL A   1      39.110  34.040  37.537  1.00  0.00     0.134 A 
ATOM     82  F   UNL A   1      41.283  35.928  35.318  1.00  0.00    -0.206 F 
ATOM     83  C   UNL A   1      40.397  36.496  37.417  1.00  0.00     0.040 A 
ATOM     84  C   UNL A   1      38.945  34.959  38.572  1.00  0.00     0.040 A 
ATOM     85  F   UNL A   1      38.465  32.867  37.632  1.00  0.00    -0.206 F 
ATOM     86  C   UNL A   1      39.600  36.187  38.517  1.00  0.00     0.006 A 
ENDBRANCH  62  79
ENDBRANCH  36  37
ENDBRANCH  29  31
ENDBRANCH  28  29
ENDBRANCH  27  28
ENDBRANCH   1  27
TORSDOF 14
ENDMDL
