MODEL 1
REMARK VINA RESULT:     -10.2      0.000      0.000
REMARK SMILES CCc1cccc(NC(=O)NCC(=O)OCCOC(=O)c2ccc(-c3c4nc(c(-c5c(F)cccc5F)c5ccc([nH]5)c(-c5c(F)cccc5F)c5nc(c(-c6c(F)cccc6F)c6ccc3[nH]6)C=C5)C=C4)cc2)c1
REMARK SMILES IDX 16 1 15 2 13 3 14 4 12 5 11 6 8 7 9 8 10 10 7 12 3 13 4 14
REMARK SMILES IDX 75 15 5 16 6 17 2 18 1 19 17 20 18 21 19 22 20 23 21 24
REMARK SMILES IDX 22 25 74 26 23 27 73 28 24 29 25 30 26 31 67 32 27 33 72 34
REMARK SMILES IDX 66 35 68 36 28 37 71 38 65 39 64 40 29 42 55 43 38 44 54 45
REMARK SMILES IDX 39 46 42 47 53 48 69 49 40 50 41 51 52 53 70 54 43 55 30 56
REMARK SMILES IDX 31 57 36 58 32 59 33 60 35 61 37 62 34 63 56 64 57 65 62 66
REMARK SMILES IDX 58 67 59 68 61 69 63 70 60 71 44 72 45 73 50 74 46 75 47 76
REMARK SMILES IDX 49 77 51 78 48 79
REMARK H PARENT 8 9 11 11 68 41 42 52
REMARK Flexibility Score: inf
ROOT
ATOM      1  C   UNL A   1      33.911  34.645  28.322  1.00  0.00     0.274 C 
ENDROOT
BRANCH   1   2
ATOM      2  O   UNL A   1      32.732  35.361  28.732  1.00  0.00    -0.461 OA
BRANCH   2   3
ATOM      3  C   UNL A   1      32.905  36.283  29.720  1.00  0.00     0.325 C 
ATOM      4  O   UNL A   1      33.268  37.438  29.531  1.00  0.00    -0.250 OA
BRANCH   3   5
ATOM      5  C   UNL A   1      32.506  35.745  31.097  1.00  0.00     0.240 C 
BRANCH   5   6
ATOM      6  N   UNL A   1      32.793  36.634  32.210  1.00  0.00    -0.327 N 
ATOM      7  N   UNL A   1      35.064  36.195  32.781  1.00  0.00    -0.308 N 
ATOM      8  C   UNL A   1      33.934  36.929  32.852  1.00  0.00     0.319 C 
ATOM      9  H   UNL A   1      35.874  36.728  32.946  1.00  0.00     0.171 HD
ATOM     10  O   UNL A   1      33.968  37.989  33.485  1.00  0.00    -0.248 OA
ATOM     11  H   UNL A   1      32.004  37.108  32.558  1.00  0.00     0.166 HD
BRANCH   7  12
ATOM     12  C   UNL A   1      35.345  34.844  32.523  1.00  0.00     0.043 A 
ATOM     13  C   UNL A   1      36.510  33.189  31.152  1.00  0.00    -0.046 A 
ATOM     14  C   UNL A   1      35.805  32.174  31.807  1.00  0.00     0.004 A 
ATOM     15  C   UNL A   1      36.218  34.528  31.477  1.00  0.00     0.029 A 
ATOM     16  C   UNL A   1      35.012  32.478  32.905  1.00  0.00     0.002 A 
ATOM     17  C   UNL A   1      34.874  33.804  33.308  1.00  0.00     0.026 A 
BRANCH  13  18
ATOM     18  C   UNL A   1      37.599  32.896  30.145  1.00  0.00     0.032 C 
ATOM     19  C   UNL A   1      37.813  33.979  29.091  1.00  0.00     0.009 C 
ENDBRANCH  13  18
ENDBRANCH   7  12
ENDBRANCH   5   6
ENDBRANCH   3   5
ENDBRANCH   2   3
ENDBRANCH   1   2
BRANCH   1  20
ATOM     20  C   UNL A   1      33.628  33.157  28.087  1.00  0.00     0.275 C 
BRANCH  20  21
ATOM     21  O   UNL A   1      34.836  32.377  27.994  1.00  0.00    -0.458 OA
BRANCH  21  22
ATOM     22  C   UNL A   1      34.656  31.046  27.862  1.00  0.00     0.338 C 
ATOM     23  O   UNL A   1      33.679  30.471  27.388  1.00  0.00    -0.246 OA
BRANCH  22  24
ATOM     24  C   UNL A   1      35.888  30.333  28.214  1.00  0.00     0.060 A 
ATOM     25  C   UNL A   1      35.928  29.651  29.435  1.00  0.00     0.016 A 
ATOM     26  C   UNL A   1      37.023  30.411  27.408  1.00  0.00     0.016 A 
ATOM     27  C   UNL A   1      37.096  29.046  29.865  1.00  0.00     0.010 A 
ATOM     28  C   UNL A   1      38.205  29.808  27.845  1.00  0.00     0.010 A 
ATOM     29  C   UNL A   1      38.247  29.137  29.080  1.00  0.00    -0.014 A 
BRANCH  29  30
ATOM     30  C   UNL A   1      39.514  28.610  29.621  1.00  0.00     0.031 A 
ATOM     31  C   UNL A   1      40.102  29.242  30.844  1.00  0.00     0.074 A 
ATOM     32  C   UNL A   1      40.085  27.534  29.053  1.00  0.00     0.049 A 
ATOM     33  N   UNL A   1      41.253  29.018  31.417  1.00  0.00    -0.248 NA
ATOM     34  C   UNL A   1      39.279  30.262  31.514  1.00  0.00     0.031 C 
ATOM     35  C   UNL A   1      39.540  26.789  27.918  1.00  0.00     0.029 A 
ATOM     36  N   UNL A   1      41.250  26.882  29.357  1.00  0.00    -0.354 N 
ATOM     37  C   UNL A   1      41.310  29.890  32.495  1.00  0.00     0.074 A 
ATOM     38  C   UNL A   1      40.078  30.648  32.497  1.00  0.00     0.031 C 
ATOM     39  C   UNL A   1      40.378  25.783  27.615  1.00  0.00     0.029 A 
ATOM     40  C   UNL A   1      41.537  25.851  28.498  1.00  0.00     0.049 A 
ATOM     41  H   UNL A   1      41.826  27.129  30.117  1.00  0.00     0.167 HD
ATOM     42  C   UNL A   1      42.309  30.043  33.395  1.00  0.00     0.037 A 
ATOM     43  C   UNL A   1      42.636  25.079  28.413  1.00  0.00     0.037 A 
ATOM     44  C   UNL A   1      43.520  29.267  33.385  1.00  0.00     0.049 A 
ATOM     45  C   UNL A   1      43.760  25.312  29.383  1.00  0.00     0.074 A 
ATOM     46  C   UNL A   1      44.608  29.351  34.234  1.00  0.00     0.029 A 
ATOM     47  N   UNL A   1      43.795  28.254  32.477  1.00  0.00    -0.354 N 
ATOM     48  N   UNL A   1      43.837  26.178  30.366  1.00  0.00    -0.248 NA
ATOM     49  C   UNL A   1      44.954  24.472  29.227  1.00  0.00     0.031 C 
ATOM     50  C   UNL A   1      45.557  28.408  33.819  1.00  0.00     0.029 A 
ATOM     51  C   UNL A   1      45.042  27.712  32.736  1.00  0.00     0.049 A 
ATOM     52  H   UNL A   1      43.193  27.964  31.754  1.00  0.00     0.167 HD
ATOM     53  C   UNL A   1      45.078  25.980  30.952  1.00  0.00     0.074 A 
ATOM     54  C   UNL A   1      45.714  24.899  30.225  1.00  0.00     0.031 C 
ATOM     55  C   UNL A   1      45.646  26.634  31.995  1.00  0.00     0.037 A 
BRANCH  42  56
ATOM     56  C   UNL A   1      42.147  31.118  34.426  1.00  0.00     0.057 A 
ATOM     57  C   UNL A   1      42.597  32.427  34.213  1.00  0.00     0.134 A 
ATOM     58  C   UNL A   1      41.528  30.837  35.650  1.00  0.00     0.134 A 
ATOM     59  F   UNL A   1      43.218  32.754  33.070  1.00  0.00    -0.206 F 
ATOM     60  C   UNL A   1      42.449  33.416  35.188  1.00  0.00     0.040 A 
ATOM     61  C   UNL A   1      41.356  31.822  36.624  1.00  0.00     0.040 A 
ATOM     62  F   UNL A   1      41.078  29.603  35.919  1.00  0.00    -0.206 F 
ATOM     63  C   UNL A   1      41.823  33.115  36.396  1.00  0.00     0.006 A 
ENDBRANCH  42  56
BRANCH  43  64
ATOM     64  C   UNL A   1      42.739  24.054  27.346  1.00  0.00     0.057 A 
ATOM     65  C   UNL A   1      43.239  24.372  26.079  1.00  0.00     0.134 A 
ATOM     66  C   UNL A   1      42.346  22.729  27.572  1.00  0.00     0.134 A 
ATOM     67  F   UNL A   1      43.611  25.628  25.795  1.00  0.00    -0.206 F 
ATOM     68  C   UNL A   1      43.336  23.410  25.071  1.00  0.00     0.040 A 
ATOM     69  C   UNL A   1      42.461  21.753  26.582  1.00  0.00     0.040 A 
ATOM     70  F   UNL A   1      41.860  22.360  28.767  1.00  0.00    -0.206 F 
ATOM     71  C   UNL A   1      42.953  22.094  25.324  1.00  0.00     0.006 A 
ENDBRANCH  43  64
BRANCH  55  72
ATOM     72  C   UNL A   1      47.007  26.178  32.420  1.00  0.00     0.057 A 
ATOM     73  C   UNL A   1      48.171  26.715  31.856  1.00  0.00     0.134 A 
ATOM     74  C   UNL A   1      47.154  25.219  33.430  1.00  0.00     0.134 A 
ATOM     75  F   UNL A   1      48.093  27.626  30.875  1.00  0.00    -0.206 F 
ATOM     76  C   UNL A   1      49.437  26.299  32.271  1.00  0.00     0.040 A 
ATOM     77  C   UNL A   1      48.414  24.812  33.868  1.00  0.00     0.040 A 
ATOM     78  F   UNL A   1      46.076  24.675  34.014  1.00  0.00    -0.206 F 
ATOM     79  C   UNL A   1      49.560  25.350  33.284  1.00  0.00     0.006 A 
ENDBRANCH  55  72
ENDBRANCH  29  30
ENDBRANCH  22  24
ENDBRANCH  21  22
ENDBRANCH  20  21
ENDBRANCH   1  20
TORSDOF 14
ENDMDL
MODEL 2
REMARK VINA RESULT:     -10.1      5.101     11.671
REMARK SMILES CCc1cccc(NC(=O)NCC(=O)OCCOC(=O)c2ccc(-c3c4nc(c(-c5c(F)cccc5F)c5ccc([nH]5)c(-c5c(F)cccc5F)c5nc(c(-c6c(F)cccc6F)c6ccc3[nH]6)C=C5)C=C4)cc2)c1
REMARK SMILES IDX 16 1 15 2 13 3 14 4 12 5 11 6 8 7 9 8 10 10 7 12 3 13 4 14
REMARK SMILES IDX 75 15 5 16 6 17 2 18 1 19 17 20 18 21 19 22 20 23 21 24
REMARK SMILES IDX 22 25 74 26 23 27 73 28 24 29 25 30 26 31 67 32 27 33 72 34
REMARK SMILES IDX 66 35 68 36 28 37 71 38 65 39 64 40 29 42 55 43 38 44 54 45
REMARK SMILES IDX 39 46 42 47 53 48 69 49 40 50 41 51 52 53 70 54 43 55 30 56
REMARK SMILES IDX 31 57 36 58 32 59 33 60 35 61 37 62 34 63 56 64 57 65 62 66
REMARK SMILES IDX 58 67 59 68 61 69 63 70 60 71 44 72 45 73 50 74 46 75 47 76
REMARK SMILES IDX 49 77 51 78 48 79
REMARK H PARENT 8 9 11 11 68 41 42 52
REMARK Flexibility Score: inf
ROOT
ATOM      1  C   UNL A   1      45.559  22.613  25.538  1.00  0.00     0.274 C 
ENDROOT
BRANCH   1   2
ATOM      2  O   UNL A   1      46.424  21.573  25.048  1.00  0.00    -0.461 OA
BRANCH   2   3
ATOM      3  C   UNL A   1      45.819  20.397  24.719  1.00  0.00     0.325 C 
ATOM      4  O   UNL A   1      46.388  19.455  24.178  1.00  0.00    -0.250 OA
BRANCH   3   5
ATOM      5  C   UNL A   1      44.362  20.339  25.186  1.00  0.00     0.240 C 
BRANCH   5   6
ATOM      6  N   UNL A   1      43.933  19.050  25.700  1.00  0.00    -0.327 N 
ATOM      7  N   UNL A   1      41.653  19.359  26.315  1.00  0.00    -0.308 N 
ATOM      8  C   UNL A   1      42.729  18.583  26.063  1.00  0.00     0.319 C 
ATOM      9  H   UNL A   1      40.802  18.890  26.160  1.00  0.00     0.171 HD
ATOM     10  O   UNL A   1      42.581  17.358  26.086  1.00  0.00    -0.248 OA
ATOM     11  H   UNL A   1      44.662  18.396  25.801  1.00  0.00     0.166 HD
BRANCH   7  12
ATOM     12  C   UNL A   1      41.473  20.682  26.748  1.00  0.00     0.043 A 
ATOM     13  C   UNL A   1      42.028  22.435  28.359  1.00  0.00    -0.046 A 
ATOM     14  C   UNL A   1      41.027  23.239  27.804  1.00  0.00     0.004 A 
ATOM     15  C   UNL A   1      42.194  21.128  27.860  1.00  0.00     0.029 A 
ATOM     16  C   UNL A   1      40.377  22.836  26.646  1.00  0.00     0.002 A 
ATOM     17  C   UNL A   1      40.684  21.603  26.078  1.00  0.00     0.026 A 
BRANCH  13  18
ATOM     18  C   UNL A   1      42.960  22.936  29.439  1.00  0.00     0.032 C 
ATOM     19  C   UNL A   1      44.406  23.148  28.998  1.00  0.00     0.009 C 
ENDBRANCH  13  18
ENDBRANCH   7  12
ENDBRANCH   5   6
ENDBRANCH   3   5
ENDBRANCH   2   3
ENDBRANCH   1   2
BRANCH   1  20
ATOM     20  C   UNL A   1      45.797  23.946  24.819  1.00  0.00     0.275 C 
BRANCH  20  21
ATOM     21  O   UNL A   1      44.704  24.868  24.997  1.00  0.00    -0.458 OA
BRANCH  21  22
ATOM     22  C   UNL A   1      45.060  26.150  25.218  1.00  0.00     0.338 C 
ATOM     23  O   UNL A   1      45.851  26.826  24.565  1.00  0.00    -0.246 OA
BRANCH  22  24
ATOM     24  C   UNL A   1      44.232  26.727  26.282  1.00  0.00     0.060 A 
ATOM     25  C   UNL A   1      44.440  28.067  26.625  1.00  0.00     0.016 A 
ATOM     26  C   UNL A   1      43.333  25.943  27.003  1.00  0.00     0.016 A 
ATOM     27  C   UNL A   1      43.760  28.635  27.689  1.00  0.00     0.010 A 
ATOM     28  C   UNL A   1      42.652  26.512  28.082  1.00  0.00     0.010 A 
ATOM     29  C   UNL A   1      42.875  27.855  28.434  1.00  0.00    -0.014 A 
BRANCH  29  30
ATOM     30  C   UNL A   1      42.269  28.437  29.646  1.00  0.00     0.031 A 
ATOM     31  C   UNL A   1      40.944  29.126  29.538  1.00  0.00     0.074 A 
ATOM     32  C   UNL A   1      42.876  28.286  30.835  1.00  0.00     0.049 A 
ATOM     33  N   UNL A   1      40.289  29.803  30.441  1.00  0.00    -0.248 NA
ATOM     34  C   UNL A   1      40.264  29.036  28.235  1.00  0.00     0.031 C 
ATOM     35  C   UNL A   1      44.120  27.548  31.060  1.00  0.00     0.029 A 
ATOM     36  N   UNL A   1      42.525  28.743  32.077  1.00  0.00    -0.354 N 
ATOM     37  C   UNL A   1      39.135  30.249  29.811  1.00  0.00     0.074 A 
ATOM     38  C   UNL A   1      39.180  29.767  28.448  1.00  0.00     0.031 C 
ATOM     39  C   UNL A   1      44.434  27.611  32.365  1.00  0.00     0.029 A 
ATOM     40  C   UNL A   1      43.444  28.436  33.050  1.00  0.00     0.049 A 
ATOM     41  H   UNL A   1      41.695  29.242  32.255  1.00  0.00     0.167 HD
ATOM     42  C   UNL A   1      38.136  31.000  30.329  1.00  0.00     0.037 A 
ATOM     43  C   UNL A   1      43.496  28.818  34.339  1.00  0.00     0.037 A 
ATOM     44  C   UNL A   1      38.104  31.457  31.692  1.00  0.00     0.049 A 
ATOM     45  C   UNL A   1      42.408  29.706  34.874  1.00  0.00     0.074 A 
ATOM     46  C   UNL A   1      37.153  32.240  32.320  1.00  0.00     0.029 A 
ATOM     47  N   UNL A   1      39.071  31.159  32.643  1.00  0.00    -0.354 N 
ATOM     48  N   UNL A   1      41.348  30.176  34.260  1.00  0.00    -0.248 NA
ATOM     49  C   UNL A   1      42.528  30.128  36.275  1.00  0.00     0.031 C 
ATOM     50  C   UNL A   1      37.561  32.443  33.644  1.00  0.00     0.029 A 
ATOM     51  C   UNL A   1      38.746  31.753  33.850  1.00  0.00     0.049 A 
ATOM     52  H   UNL A   1      39.869  30.606  32.482  1.00  0.00     0.167 HD
ATOM     53  C   UNL A   1      40.669  30.937  35.199  1.00  0.00     0.074 A 
ATOM     54  C   UNL A   1      41.429  30.852  36.431  1.00  0.00     0.031 C 
ATOM     55  C   UNL A   1      39.523  31.647  35.059  1.00  0.00     0.037 A 
BRANCH  42  56
ATOM     56  C   UNL A   1      37.032  31.409  29.403  1.00  0.00     0.057 A 
ATOM     57  C   UNL A   1      36.982  32.681  28.820  1.00  0.00     0.134 A 
ATOM     58  C   UNL A   1      36.004  30.511  29.088  1.00  0.00     0.134 A 
ATOM     59  F   UNL A   1      37.925  33.593  29.098  1.00  0.00    -0.206 F 
ATOM     60  C   UNL A   1      35.940  33.051  27.967  1.00  0.00     0.040 A 
ATOM     61  C   UNL A   1      34.968  30.863  28.221  1.00  0.00     0.040 A 
ATOM     62  F   UNL A   1      35.990  29.279  29.616  1.00  0.00    -0.206 F 
ATOM     63  C   UNL A   1      34.931  32.139  27.662  1.00  0.00     0.006 A 
ENDBRANCH  42  56
BRANCH  43  64
ATOM     64  C   UNL A   1      44.637  28.400  35.189  1.00  0.00     0.057 A 
ATOM     65  C   UNL A   1      45.796  29.177  35.284  1.00  0.00     0.134 A 
ATOM     66  C   UNL A   1      44.592  27.214  35.933  1.00  0.00     0.134 A 
ATOM     67  F   UNL A   1      45.907  30.313  34.580  1.00  0.00    -0.206 F 
ATOM     68  C   UNL A   1      46.873  28.787  36.082  1.00  0.00     0.040 A 
ATOM     69  C   UNL A   1      45.651  26.823  36.752  1.00  0.00     0.040 A 
ATOM     70  F   UNL A   1      43.508  26.425  35.885  1.00  0.00    -0.206 F 
ATOM     71  C   UNL A   1      46.799  27.610  36.825  1.00  0.00     0.006 A 
ENDBRANCH  43  64
BRANCH  55  72
ATOM     72  C   UNL A   1      39.016  32.362  36.273  1.00  0.00     0.057 A 
ATOM     73  C   UNL A   1      39.378  33.686  36.551  1.00  0.00     0.134 A 
ATOM     74  C   UNL A   1      38.127  31.731  37.152  1.00  0.00     0.134 A 
ATOM     75  F   UNL A   1      40.237  34.337  35.753  1.00  0.00    -0.206 F 
ATOM     76  C   UNL A   1      38.886  34.352  37.673  1.00  0.00     0.040 A 
ATOM     77  C   UNL A   1      37.612  32.394  38.266  1.00  0.00     0.040 A 
ATOM     78  F   UNL A   1      37.738  30.466  36.935  1.00  0.00    -0.206 F 
ATOM     79  C   UNL A   1      37.996  33.708  38.530  1.00  0.00     0.006 A 
ENDBRANCH  55  72
ENDBRANCH  29  30
ENDBRANCH  22  24
ENDBRANCH  21  22
ENDBRANCH  20  21
ENDBRANCH   1  20
TORSDOF 14
ENDMDL
MODEL 3
REMARK VINA RESULT:      -9.9      4.722     11.592
REMARK SMILES CCc1cccc(NC(=O)NCC(=O)OCCOC(=O)c2ccc(-c3c4nc(c(-c5c(F)cccc5F)c5ccc([nH]5)c(-c5c(F)cccc5F)c5nc(c(-c6c(F)cccc6F)c6ccc3[nH]6)C=C5)C=C4)cc2)c1
REMARK SMILES IDX 16 1 15 2 13 3 14 4 12 5 11 6 8 7 9 8 10 10 7 12 3 13 4 14
REMARK SMILES IDX 75 15 5 16 6 17 2 18 1 19 17 20 18 21 19 22 20 23 21 24
REMARK SMILES IDX 22 25 74 26 23 27 73 28 24 29 25 30 26 31 67 32 27 33 72 34
REMARK SMILES IDX 66 35 68 36 28 37 71 38 65 39 64 40 29 42 55 43 38 44 54 45
REMARK SMILES IDX 39 46 42 47 53 48 69 49 40 50 41 51 52 53 70 54 43 55 30 56
REMARK SMILES IDX 31 57 36 58 32 59 33 60 35 61 37 62 34 63 56 64 57 65 62 66
REMARK SMILES IDX 58 67 59 68 61 69 63 70 60 71 44 72 45 73 50 74 46 75 47 76
REMARK SMILES IDX 49 77 51 78 48 79
REMARK H PARENT 8 9 11 11 68 41 42 52
REMARK Flexibility Score: inf
ROOT
ATOM      1  C   UNL A   1      44.324  23.246  25.740  1.00  0.00     0.274 C 
ENDROOT
BRANCH   1   2
ATOM      2  O   UNL A   1      45.111  22.469  24.819  1.00  0.00    -0.461 OA
BRANCH   2   3
ATOM      3  C   UNL A   1      45.249  21.146  25.117  1.00  0.00     0.325 C 
ATOM      4  O   UNL A   1      46.317  20.606  25.382  1.00  0.00    -0.250 OA
BRANCH   3   5
ATOM      5  C   UNL A   1      43.904  20.417  25.178  1.00  0.00     0.240 C 
BRANCH   5   6
ATOM      6  N   UNL A   1      43.910  19.181  25.940  1.00  0.00    -0.327 N 
ATOM      7  N   UNL A   1      41.660  18.892  26.665  1.00  0.00    -0.308 N 
ATOM      8  C   UNL A   1      42.919  18.448  26.470  1.00  0.00     0.319 C 
ATOM      9  H   UNL A   1      40.996  18.165  26.660  1.00  0.00     0.171 HD
ATOM     10  O   UNL A   1      43.163  17.263  26.718  1.00  0.00    -0.248 OA
ATOM     11  H   UNL A   1      44.809  18.812  26.098  1.00  0.00     0.166 HD
BRANCH   7  12
ATOM     12  C   UNL A   1      41.082  20.154  26.873  1.00  0.00     0.043 A 
ATOM     13  C   UNL A   1      39.348  21.770  26.273  1.00  0.00    -0.046 A 
ATOM     14  C   UNL A   1      39.985  22.725  27.072  1.00  0.00     0.004 A 
ATOM     15  C   UNL A   1      39.949  20.503  26.131  1.00  0.00     0.029 A 
ATOM     16  C   UNL A   1      41.052  22.354  27.879  1.00  0.00     0.002 A 
ATOM     17  C   UNL A   1      41.520  21.044  27.840  1.00  0.00     0.026 A 
BRANCH  13  18
ATOM     18  C   UNL A   1      38.022  22.036  25.597  1.00  0.00     0.032 C 
ATOM     19  C   UNL A   1      37.463  20.869  24.788  1.00  0.00     0.009 C 
ENDBRANCH  13  18
ENDBRANCH   7  12
ENDBRANCH   5   6
ENDBRANCH   3   5
ENDBRANCH   2   3
ENDBRANCH   1   2
BRANCH   1  20
ATOM     20  C   UNL A   1      43.139  23.930  25.049  1.00  0.00     0.275 C 
BRANCH  20  21
ATOM     21  O   UNL A   1      42.398  24.780  25.945  1.00  0.00    -0.458 OA
BRANCH  21  22
ATOM     22  C   UNL A   1      42.474  26.102  25.682  1.00  0.00     0.338 C 
ATOM     23  O   UNL A   1      42.803  26.632  24.624  1.00  0.00    -0.246 OA
BRANCH  22  24
ATOM     24  C   UNL A   1      41.935  26.872  26.807  1.00  0.00     0.060 A 
ATOM     25  C   UNL A   1      42.333  28.206  26.944  1.00  0.00     0.016 A 
ATOM     26  C   UNL A   1      41.128  26.271  27.772  1.00  0.00     0.016 A 
ATOM     27  C   UNL A   1      41.937  28.950  28.041  1.00  0.00     0.010 A 
ATOM     28  C   UNL A   1      40.733  27.019  28.885  1.00  0.00     0.010 A 
ATOM     29  C   UNL A   1      41.149  28.354  29.028  1.00  0.00    -0.014 A 
BRANCH  29  30
ATOM     30  C   UNL A   1      40.855  29.119  30.254  1.00  0.00     0.031 A 
ATOM     31  C   UNL A   1      39.706  30.078  30.256  1.00  0.00     0.074 A 
ATOM     32  C   UNL A   1      41.575  28.897  31.367  1.00  0.00     0.049 A 
ATOM     33  N   UNL A   1      39.342  30.930  31.177  1.00  0.00    -0.248 NA
ATOM     34  C   UNL A   1      38.848  30.075  29.060  1.00  0.00     0.031 C 
ATOM     35  C   UNL A   1      42.652  27.914  31.495  1.00  0.00     0.029 A 
ATOM     36  N   UNL A   1      41.506  29.484  32.602  1.00  0.00    -0.354 N 
ATOM     37  C   UNL A   1      38.235  31.588  30.660  1.00  0.00     0.074 A 
ATOM     38  C   UNL A   1      37.985  31.038  29.346  1.00  0.00     0.031 C 
ATOM     39  C   UNL A   1      43.150  27.973  32.741  1.00  0.00     0.029 A 
ATOM     40  C   UNL A   1      42.464  29.032  33.475  1.00  0.00     0.049 A 
ATOM     41  H   UNL A   1      40.835  30.165  32.841  1.00  0.00     0.167 HD
ATOM     42  C   UNL A   1      37.501  32.568  31.236  1.00  0.00     0.037 A 
ATOM     43  C   UNL A   1      42.775  29.458  34.713  1.00  0.00     0.037 A 
ATOM     44  C   UNL A   1      37.757  33.091  32.552  1.00  0.00     0.049 A 
ATOM     45  C   UNL A   1      41.987  30.593  35.305  1.00  0.00     0.074 A 
ATOM     46  C   UNL A   1      37.092  34.097  33.227  1.00  0.00     0.029 A 
ATOM     47  N   UNL A   1      38.760  32.634  33.395  1.00  0.00    -0.354 N 
ATOM     48  N   UNL A   1      40.977  31.254  34.791  1.00  0.00    -0.248 NA
ATOM     49  C   UNL A   1      42.388  31.049  36.642  1.00  0.00     0.031 C 
ATOM     50  C   UNL A   1      37.714  34.272  34.470  1.00  0.00     0.029 A 
ATOM     51  C   UNL A   1      38.741  33.347  34.582  1.00  0.00     0.049 A 
ATOM     52  H   UNL A   1      39.392  31.910  33.182  1.00  0.00     0.167 HD
ATOM     53  C   UNL A   1      40.613  32.194  35.743  1.00  0.00     0.074 A 
ATOM     54  C   UNL A   1      41.501  32.006  36.874  1.00  0.00     0.031 C 
ATOM     55  C   UNL A   1      39.637  33.133  35.690  1.00  0.00     0.037 A 
BRANCH  42  56
ATOM     56  C   UNL A   1      36.392  33.164  30.425  1.00  0.00     0.057 A 
ATOM     57  C   UNL A   1      36.633  34.082  29.395  1.00  0.00     0.134 A 
ATOM     58  C   UNL A   1      35.061  32.809  30.677  1.00  0.00     0.134 A 
ATOM     59  F   UNL A   1      37.884  34.480  29.119  1.00  0.00    -0.206 F 
ATOM     60  C   UNL A   1      35.587  34.638  28.655  1.00  0.00     0.040 A 
ATOM     61  C   UNL A   1      34.009  33.341  29.930  1.00  0.00     0.040 A 
ATOM     62  F   UNL A   1      34.761  31.938  31.652  1.00  0.00    -0.206 F 
ATOM     63  C   UNL A   1      34.271  34.264  28.919  1.00  0.00     0.006 A 
ENDBRANCH  42  56
BRANCH  43  64
ATOM     64  C   UNL A   1      43.908  28.841  35.445  1.00  0.00     0.057 A 
ATOM     65  C   UNL A   1      45.220  29.289  35.264  1.00  0.00     0.134 A 
ATOM     66  C   UNL A   1      43.701  27.792  36.350  1.00  0.00     0.134 A 
ATOM     67  F   UNL A   1      45.484  30.275  34.395  1.00  0.00    -0.206 F 
ATOM     68  C   UNL A   1      46.289  28.709  35.950  1.00  0.00     0.040 A 
ATOM     69  C   UNL A   1      44.757  27.220  37.060  1.00  0.00     0.040 A 
ATOM     70  F   UNL A   1      42.465  27.319  36.568  1.00  0.00    -0.206 F 
ATOM     71  C   UNL A   1      46.058  27.677  36.857  1.00  0.00     0.006 A 
ENDBRANCH  43  64
BRANCH  55  72
ATOM     72  C   UNL A   1      39.468  34.005  36.896  1.00  0.00     0.057 A 
ATOM     73  C   UNL A   1      40.013  35.294  36.953  1.00  0.00     0.134 A 
ATOM     74  C   UNL A   1      38.722  33.563  37.995  1.00  0.00     0.134 A 
ATOM     75  F   UNL A   1      40.750  35.766  35.936  1.00  0.00    -0.206 F 
ATOM     76  C   UNL A   1      39.835  36.107  38.072  1.00  0.00     0.040 A 
ATOM     77  C   UNL A   1      38.519  34.376  39.110  1.00  0.00     0.040 A 
ATOM     78  F   UNL A   1      38.169  32.341  37.995  1.00  0.00    -0.206 F 
ATOM     79  C   UNL A   1      39.081  35.651  39.151  1.00  0.00     0.006 A 
ENDBRANCH  55  72
ENDBRANCH  29  30
ENDBRANCH  22  24
ENDBRANCH  21  22
ENDBRANCH  20  21
ENDBRANCH   1  20
TORSDOF 14
ENDMDL
