MODEL 1
REMARK VINA RESULT:     -13.2      0.000      0.000
REMARK SMILES Cc1ccc(-c2cc(OCC(=O)OCCOC(=O)c3ccc(-c4c5nc(c(-c6c(F)cccc6F)c6ccc([nH]6)c(-c6c(F)cccc6F)c6nc(c(-c7c(F)cccc7F)c7ccc4[nH]7)C=C6)C=C5)cc3)nc(NCc3ccc4c(c3)OCO4)n2)cc1
REMARK SMILES IDX 13 1 11 2 12 3 10 4 9 5 8 6 6 7 7 8 86 9 74 10 73 11 5 12
REMARK SMILES IDX 1 13 2 14 3 15 88 16 4 17 87 18 75 19 76 21 77 22 78 23
REMARK SMILES IDX 82 24 79 25 81 26 80 27 83 28 85 29 84 30 14 31 15 32 16 33
REMARK SMILES IDX 17 34 18 35 19 36 20 37 72 38 21 39 71 40 22 41 23 42 24 43
REMARK SMILES IDX 65 44 25 45 70 46 64 47 66 48 26 49 69 50 63 51 62 52 27 54
REMARK SMILES IDX 53 55 36 56 52 57 37 58 40 59 51 60 67 61 38 62 39 63 50 65
REMARK SMILES IDX 68 66 41 67 28 68 29 69 34 70 30 71 31 72 33 73 35 74 32 75
REMARK SMILES IDX 54 76 55 77 60 78 56 79 57 80 59 81 61 82 58 83 42 84 43 85
REMARK SMILES IDX 48 86 44 87 45 88 47 89 49 90 46 91
REMARK H PARENT 75 20 66 53 40 64
REMARK Flexibility Score: inf
ROOT
ATOM      1  O   UNL A   1      31.351  29.328  26.398  1.00  0.00    -0.460 OA
ENDROOT
BRANCH   1   2
ATOM      2  C   UNL A   1      31.859  28.086  26.960  1.00  0.00     0.344 C 
ATOM      3  O   UNL A   1      31.171  27.899  28.004  1.00  0.00    -0.248 OA
BRANCH   2   4
ATOM      4  C   UNL A   1      33.294  26.787  25.941  1.00  0.00     0.353 C 
BRANCH   4   5
ATOM      5  O   UNL A   1      33.334  25.805  24.697  1.00  0.00    -0.466 OA
BRANCH   5   6
ATOM      6  C   UNL A   1      33.795  24.481  24.759  1.00  0.00     0.219 A 
ATOM      7  C   UNL A   1      35.697  23.147  25.004  1.00  0.00     0.080 A 
ATOM      8  C   UNL A   1      35.150  24.321  24.535  1.00  0.00     0.097 A 
ATOM      9  N   UNL A   1      34.922  22.121  25.360  1.00  0.00    -0.213 NA
ATOM     10  C   UNL A   1      33.596  22.265  25.260  1.00  0.00     0.226 A 
ATOM     11  N   UNL A   1      32.979  23.459  25.092  1.00  0.00    -0.177 NA
BRANCH   7  12
ATOM     12  C   UNL A   1      37.116  23.049  25.384  1.00  0.00     0.000 A 
ATOM     13  C   UNL A   1      40.778  22.184  27.516  1.00  0.00     0.044 C 
ATOM     14  C   UNL A   1      39.565  22.514  26.699  1.00  0.00    -0.051 A 
ATOM     15  C   UNL A   1      38.983  23.786  26.755  1.00  0.00     0.004 A 
ATOM     16  C   UNL A   1      39.000  21.559  25.857  1.00  0.00     0.004 A 
ATOM     17  C   UNL A   1      37.755  24.041  26.130  1.00  0.00     0.010 A 
ATOM     18  C   UNL A   1      37.825  21.854  25.154  1.00  0.00     0.010 A 
ENDBRANCH   7  12
BRANCH  10  19
ATOM     19  N   UNL A   1      32.852  21.105  25.306  1.00  0.00    -0.350 N 
ATOM     20  H   UNL A   1      32.265  20.914  26.073  1.00  0.00     0.164 HD
BRANCH  19  21
ATOM     21  C   UNL A   1      32.955  20.163  24.191  1.00  0.00     0.152 C 
BRANCH  21  22
ATOM     22  C   UNL A   1      33.357  18.755  24.610  1.00  0.00    -0.025 A 
ATOM     23  C   UNL A   1      34.681  18.299  24.353  1.00  0.00     0.009 A 
ATOM     24  C   UNL A   1      32.448  17.874  25.217  1.00  0.00     0.056 A 
ATOM     25  C   UNL A   1      35.068  16.977  24.626  1.00  0.00     0.051 A 
ATOM     26  C   UNL A   1      32.840  16.570  25.424  1.00  0.00     0.166 A 
ATOM     27  C   UNL A   1      34.107  16.128  25.123  1.00  0.00     0.165 A 
ATOM     28  O   UNL A   1      32.033  15.567  25.863  1.00  0.00    -0.454 OA
ATOM     29  O   UNL A   1      34.237  14.786  25.322  1.00  0.00    -0.454 OA
ATOM     30  C   UNL A   1      32.850  14.433  25.513  1.00  0.00     0.468 C 
ENDBRANCH  21  22
ENDBRANCH  19  21
ENDBRANCH  10  19
ENDBRANCH   5   6
ENDBRANCH   4   5
ENDBRANCH   2   4
ENDBRANCH   1   2
BRANCH   1  31
ATOM     31  C   UNL A   1      32.262  30.438  26.264  1.00  0.00     0.274 C 
BRANCH  31  32
ATOM     32  C   UNL A   1      33.499  30.207  27.145  1.00  0.00     0.275 C 
BRANCH  32  33
ATOM     33  O   UNL A   1      34.109  31.363  27.767  1.00  0.00    -0.458 OA
BRANCH  33  34
ATOM     34  C   UNL A   1      35.398  31.537  28.104  1.00  0.00     0.338 C 
ATOM     35  O   UNL A   1      36.286  30.926  27.520  1.00  0.00    -0.246 OA
BRANCH  34  36
ATOM     36  C   UNL A   1      35.814  32.285  29.330  1.00  0.00     0.060 A 
ATOM     37  C   UNL A   1      37.214  33.343  28.803  1.00  0.00     0.016 A 
ATOM     38  C   UNL A   1      35.891  31.447  30.931  1.00  0.00     0.016 A 
ATOM     39  C   UNL A   1      38.763  33.277  29.677  1.00  0.00     0.010 A 
ATOM     40  C   UNL A   1      37.479  31.431  31.832  1.00  0.00     0.010 A 
ATOM     41  C   UNL A   1      38.912  32.247  31.113  1.00  0.00    -0.014 A 
BRANCH  41  42
ATOM     42  C   UNL A   1      40.138  31.434  31.225  1.00  0.00     0.031 A 
ATOM     43  C   UNL A   1      40.155  30.232  30.407  1.00  0.00     0.074 A 
ATOM     44  C   UNL A   1      41.231  31.859  31.924  1.00  0.00     0.049 A 
ATOM     45  N   UNL A   1      40.878  29.208  30.666  1.00  0.00    -0.248 NA
ATOM     46  C   UNL A   1      39.233  30.020  29.297  1.00  0.00     0.031 C 
ATOM     47  C   UNL A   1      42.643  31.508  31.760  1.00  0.00     0.029 A 
ATOM     48  N   UNL A   1      41.305  32.738  32.987  1.00  0.00    -0.354 N 
ATOM     49  C   UNL A   1      40.848  28.432  29.535  1.00  0.00     0.074 A 
ATOM     50  C   UNL A   1      39.653  28.839  28.845  1.00  0.00     0.031 C 
ATOM     51  C   UNL A   1      43.361  31.991  32.799  1.00  0.00     0.029 A 
ATOM     52  C   UNL A   1      42.439  32.567  33.758  1.00  0.00     0.049 A 
ATOM     53  H   UNL A   1      40.620  33.419  33.176  1.00  0.00     0.167 HD
ATOM     54  C   UNL A   1      41.974  27.730  29.226  1.00  0.00     0.037 A 
ATOM     55  C   UNL A   1      42.310  32.245  35.079  1.00  0.00     0.037 A 
ATOM     56  C   UNL A   1      42.979  27.908  30.293  1.00  0.00     0.049 A 
ATOM     57  C   UNL A   1      42.612  30.771  35.287  1.00  0.00     0.074 A 
ATOM     58  C   UNL A   1      44.139  28.657  30.423  1.00  0.00     0.029 A 
ATOM     59  N   UNL A   1      42.628  27.566  31.592  1.00  0.00    -0.354 N 
ATOM     60  N   UNL A   1      42.919  29.949  34.319  1.00  0.00    -0.248 NA
ATOM     61  C   UNL A   1      42.547  30.090  36.572  1.00  0.00     0.031 C 
ATOM     62  C   UNL A   1      44.486  28.715  31.811  1.00  0.00     0.029 A 
ATOM     63  C   UNL A   1      43.553  27.985  32.526  1.00  0.00     0.049 A 
ATOM     64  H   UNL A   1      41.806  27.077  31.822  1.00  0.00     0.167 HD
ATOM     65  C   UNL A   1      43.047  28.669  34.783  1.00  0.00     0.074 A 
ATOM     66  C   UNL A   1      42.767  28.812  36.207  1.00  0.00     0.031 C 
ATOM     67  C   UNL A   1      43.340  27.628  33.932  1.00  0.00     0.037 A 
BRANCH  54  68
ATOM     68  C   UNL A   1      42.271  27.128  27.867  1.00  0.00     0.057 A 
ATOM     69  C   UNL A   1      42.498  27.967  26.759  1.00  0.00     0.134 A 
ATOM     70  C   UNL A   1      42.334  25.753  27.556  1.00  0.00     0.134 A 
ATOM     71  F   UNL A   1      42.531  29.300  26.881  1.00  0.00    -0.206 F 
ATOM     72  C   UNL A   1      42.714  27.485  25.460  1.00  0.00     0.040 A 
ATOM     73  C   UNL A   1      42.516  25.257  26.257  1.00  0.00     0.040 A 
ATOM     74  F   UNL A   1      42.280  24.800  28.486  1.00  0.00    -0.206 F 
ATOM     75  C   UNL A   1      42.708  26.125  25.199  1.00  0.00     0.006 A 
ENDBRANCH  54  68
BRANCH  55  76
ATOM     76  C   UNL A   1      41.241  33.054  35.758  1.00  0.00     0.057 A 
ATOM     77  C   UNL A   1      41.543  34.394  36.085  1.00  0.00     0.134 A 
ATOM     78  C   UNL A   1      39.883  32.722  35.689  1.00  0.00     0.134 A 
ATOM     79  F   UNL A   1      42.821  34.784  36.204  1.00  0.00    -0.206 F 
ATOM     80  C   UNL A   1      40.556  35.382  36.172  1.00  0.00     0.040 A 
ATOM     81  C   UNL A   1      38.883  33.702  35.805  1.00  0.00     0.040 A 
ATOM     82  F   UNL A   1      39.500  31.480  35.361  1.00  0.00    -0.206 F 
ATOM     83  C   UNL A   1      39.221  35.041  35.999  1.00  0.00     0.006 A 
ENDBRANCH  55  76
BRANCH  67  84
ATOM     84  C   UNL A   1      43.389  26.152  34.307  1.00  0.00     0.057 A 
ATOM     85  C   UNL A   1      44.495  25.321  34.096  1.00  0.00     0.134 A 
ATOM     86  C   UNL A   1      42.275  25.477  34.875  1.00  0.00     0.134 A 
ATOM     87  F   UNL A   1      45.530  25.709  33.343  1.00  0.00    -0.206 F 
ATOM     88  C   UNL A   1      44.558  24.006  34.583  1.00  0.00     0.040 A 
ATOM     89  C   UNL A   1      42.311  24.160  35.331  1.00  0.00     0.040 A 
ATOM     90  F   UNL A   1      41.068  26.034  35.010  1.00  0.00    -0.206 F 
ATOM     91  C   UNL A   1      43.472  23.428  35.224  1.00  0.00     0.006 A 
ENDBRANCH  67  84
ENDBRANCH  41  42
ENDBRANCH  34  36
ENDBRANCH  33  34
ENDBRANCH  32  33
ENDBRANCH  31  32
ENDBRANCH   1  31
TORSDOF 17
ENDMDL
MODEL 2
REMARK VINA RESULT:     -13.0      3.047      7.956
REMARK SMILES Cc1ccc(-c2cc(OCC(=O)OCCOC(=O)c3ccc(-c4c5nc(c(-c6c(F)cccc6F)c6ccc([nH]6)c(-c6c(F)cccc6F)c6nc(c(-c7c(F)cccc7F)c7ccc4[nH]7)C=C6)C=C5)cc3)nc(NCc3ccc4c(c3)OCO4)n2)cc1
REMARK SMILES IDX 13 1 11 2 12 3 10 4 9 5 8 6 6 7 7 8 86 9 74 10 73 11 5 12
REMARK SMILES IDX 1 13 2 14 3 15 88 16 4 17 87 18 75 19 76 21 77 22 78 23
REMARK SMILES IDX 82 24 79 25 81 26 80 27 83 28 85 29 84 30 14 31 15 32 16 33
REMARK SMILES IDX 17 34 18 35 19 36 20 37 72 38 21 39 71 40 22 41 23 42 24 43
REMARK SMILES IDX 65 44 25 45 70 46 64 47 66 48 26 49 69 50 63 51 62 52 27 54
REMARK SMILES IDX 53 55 36 56 52 57 37 58 40 59 51 60 67 61 38 62 39 63 50 65
REMARK SMILES IDX 68 66 41 67 28 68 29 69 34 70 30 71 31 72 33 73 35 74 32 75
REMARK SMILES IDX 54 76 55 77 60 78 56 79 57 80 59 81 61 82 58 83 42 84 43 85
REMARK SMILES IDX 48 86 44 87 45 88 47 89 49 90 46 91
REMARK H PARENT 75 20 66 53 40 64
REMARK Flexibility Score: inf
ROOT
ATOM      1  O   UNL A   1      41.352  21.578  26.554  1.00  0.00    -0.460 OA
ENDROOT
BRANCH   1   2
ATOM      2  C   UNL A   1      40.237  20.762  26.099  1.00  0.00     0.344 C 
ATOM      3  O   UNL A   1      40.639  19.570  26.219  1.00  0.00    -0.248 OA
BRANCH   2   4
ATOM      4  C   UNL A   1      38.256  21.564  25.631  1.00  0.00     0.353 C 
BRANCH   4   5
ATOM      5  O   UNL A   1      37.396  22.862  25.932  1.00  0.00    -0.466 OA
BRANCH   5   6
ATOM      6  C   UNL A   1      36.011  22.948  25.727  1.00  0.00     0.219 A 
ATOM      7  C   UNL A   1      34.283  24.356  25.027  1.00  0.00     0.080 A 
ATOM      8  C   UNL A   1      35.509  24.233  25.644  1.00  0.00     0.097 A 
ATOM      9  N   UNL A   1      33.510  23.290  24.816  1.00  0.00    -0.213 NA
ATOM     10  C   UNL A   1      33.961  22.093  25.208  1.00  0.00     0.226 A 
ATOM     11  N   UNL A   1      35.249  21.848  25.547  1.00  0.00    -0.177 NA
BRANCH   7  12
ATOM     12  C   UNL A   1      33.879  25.595  24.342  1.00  0.00     0.000 A 
ATOM     13  C   UNL A   1      31.539  28.833  22.688  1.00  0.00     0.044 C 
ATOM     14  C   UNL A   1      32.433  27.762  23.238  1.00  0.00    -0.051 A 
ATOM     15  C   UNL A   1      32.880  26.712  22.429  1.00  0.00     0.004 A 
ATOM     16  C   UNL A   1      32.845  27.802  24.568  1.00  0.00     0.004 A 
ATOM     17  C   UNL A   1      33.569  25.623  22.982  1.00  0.00     0.010 A 
ATOM     18  C   UNL A   1      33.621  26.760  25.091  1.00  0.00     0.010 A 
ENDBRANCH   7  12
BRANCH  10  19
ATOM     19  N   UNL A   1      33.023  21.085  25.288  1.00  0.00    -0.350 N 
ATOM     20  H   UNL A   1      32.418  21.022  26.062  1.00  0.00     0.164 HD
BRANCH  19  21
ATOM     21  C   UNL A   1      32.946  20.113  24.198  1.00  0.00     0.152 C 
BRANCH  21  22
ATOM     22  C   UNL A   1      33.314  18.694  24.611  1.00  0.00    -0.025 A 
ATOM     23  C   UNL A   1      34.598  18.177  24.280  1.00  0.00     0.009 A 
ATOM     24  C   UNL A   1      32.407  17.860  25.286  1.00  0.00     0.056 A 
ATOM     25  C   UNL A   1      34.944  16.843  24.548  1.00  0.00     0.051 A 
ATOM     26  C   UNL A   1      32.755  16.543  25.488  1.00  0.00     0.166 A 
ATOM     27  C   UNL A   1      33.981  16.042  25.115  1.00  0.00     0.165 A 
ATOM     28  O   UNL A   1      31.935  15.581  25.990  1.00  0.00    -0.454 OA
ATOM     29  O   UNL A   1      34.066  14.699  25.326  1.00  0.00    -0.454 OA
ATOM     30  C   UNL A   1      32.679  14.408  25.607  1.00  0.00     0.468 C 
ENDBRANCH  21  22
ENDBRANCH  19  21
ENDBRANCH  10  19
ENDBRANCH   5   6
ENDBRANCH   4   5
ENDBRANCH   2   4
ENDBRANCH   1   2
BRANCH   1  31
ATOM     31  C   UNL A   1      42.688  21.064  26.380  1.00  0.00     0.274 C 
BRANCH  31  32
ATOM     32  C   UNL A   1      43.592  22.152  25.780  1.00  0.00     0.275 C 
BRANCH  32  33
ATOM     33  O   UNL A   1      42.969  23.389  25.358  1.00  0.00    -0.458 OA
BRANCH  33  34
ATOM     34  C   UNL A   1      42.651  24.455  26.113  1.00  0.00     0.338 C 
ATOM     35  O   UNL A   1      43.334  24.759  27.084  1.00  0.00    -0.246 OA
BRANCH  34  36
ATOM     36  C   UNL A   1      41.354  25.183  25.969  1.00  0.00     0.060 A 
ATOM     37  C   UNL A   1      41.807  26.896  25.504  1.00  0.00     0.016 A 
ATOM     38  C   UNL A   1      40.015  24.911  27.154  1.00  0.00     0.016 A 
ATOM     39  C   UNL A   1      41.190  28.272  26.450  1.00  0.00     0.010 A 
ATOM     40  C   UNL A   1      39.366  26.344  28.081  1.00  0.00     0.010 A 
ATOM     41  C   UNL A   1      40.065  27.977  27.788  1.00  0.00    -0.014 A 
BRANCH  41  42
ATOM     42  C   UNL A   1      40.310  28.717  29.041  1.00  0.00     0.031 A 
ATOM     43  C   UNL A   1      39.487  29.902  29.225  1.00  0.00     0.074 A 
ATOM     44  C   UNL A   1      41.135  28.240  30.017  1.00  0.00     0.049 A 
ATOM     45  N   UNL A   1      39.818  30.885  29.975  1.00  0.00    -0.248 NA
ATOM     46  C   UNL A   1      38.276  30.150  28.451  1.00  0.00     0.031 C 
ATOM     47  C   UNL A   1      41.132  28.502  31.458  1.00  0.00     0.029 A 
ATOM     48  N   UNL A   1      42.207  27.375  29.915  1.00  0.00    -0.354 N 
ATOM     49  C   UNL A   1      38.684  31.643  30.123  1.00  0.00     0.074 A 
ATOM     50  C   UNL A   1      37.864  31.296  28.993  1.00  0.00     0.031 C 
ATOM     51  C   UNL A   1      42.251  27.995  32.021  1.00  0.00     0.029 A 
ATOM     52  C   UNL A   1      43.103  27.492  30.961  1.00  0.00     0.049 A 
ATOM     53  H   UNL A   1      42.323  26.740  29.172  1.00  0.00     0.167 HD
ATOM     54  C   UNL A   1      38.500  32.271  31.318  1.00  0.00     0.037 A 
ATOM     55  C   UNL A   1      44.397  27.842  30.701  1.00  0.00     0.037 A 
ATOM     56  C   UNL A   1      39.678  32.050  32.181  1.00  0.00     0.049 A 
ATOM     57  C   UNL A   1      44.624  29.299  31.068  1.00  0.00     0.074 A 
ATOM     58  C   UNL A   1      39.948  31.236  33.270  1.00  0.00     0.029 A 
ATOM     59  N   UNL A   1      40.924  32.435  31.705  1.00  0.00    -0.354 N 
ATOM     60  N   UNL A   1      43.690  30.085  31.534  1.00  0.00    -0.248 NA
ATOM     61  C   UNL A   1      45.886  30.005  30.897  1.00  0.00     0.031 C 
ATOM     62  C   UNL A   1      41.368  31.181  33.451  1.00  0.00     0.029 A 
ATOM     63  C   UNL A   1      41.963  31.977  32.489  1.00  0.00     0.049 A 
ATOM     64  H   UNL A   1      41.053  32.975  30.893  1.00  0.00     0.167 HD
ATOM     65  C   UNL A   1      44.153  31.362  31.685  1.00  0.00     0.074 A 
ATOM     66  C   UNL A   1      45.536  31.261  31.236  1.00  0.00     0.031 C 
ATOM     67  C   UNL A   1      43.332  32.369  32.138  1.00  0.00     0.037 A 
BRANCH  54  68
ATOM     68  C   UNL A   1      37.179  32.830  31.805  1.00  0.00     0.057 A 
ATOM     69  C   UNL A   1      36.097  31.966  32.057  1.00  0.00     0.134 A 
ATOM     70  C   UNL A   1      36.879  34.190  32.035  1.00  0.00     0.134 A 
ATOM     71  F   UNL A   1      36.217  30.637  31.945  1.00  0.00    -0.206 F 
ATOM     72  C   UNL A   1      34.827  32.414  32.446  1.00  0.00     0.040 A 
ATOM     73  C   UNL A   1      35.606  34.656  32.392  1.00  0.00     0.040 A 
ATOM     74  F   UNL A   1      37.802  35.150  31.984  1.00  0.00    -0.206 F 
ATOM     75  C   UNL A   1      34.570  33.767  32.601  1.00  0.00     0.006 A 
ENDBRANCH  54  68
BRANCH  55  76
ATOM     76  C   UNL A   1      44.956  27.111  29.513  1.00  0.00     0.057 A 
ATOM     77  C   UNL A   1      44.981  27.793  28.278  1.00  0.00     0.134 A 
ATOM     78  C   UNL A   1      45.819  26.017  29.637  1.00  0.00     0.134 A 
ATOM     79  F   UNL A   1      44.159  28.833  28.068  1.00  0.00    -0.206 F 
ATOM     80  C   UNL A   1      45.927  27.510  27.287  1.00  0.00     0.040 A 
ATOM     81  C   UNL A   1      46.753  25.704  28.635  1.00  0.00     0.040 A 
ATOM     82  F   UNL A   1      45.883  25.323  30.782  1.00  0.00    -0.206 F 
ATOM     83  C   UNL A   1      46.840  26.481  27.479  1.00  0.00     0.006 A 
ENDBRANCH  55  76
BRANCH  67  84
ATOM     84  C   UNL A   1      43.695  33.847  32.235  1.00  0.00     0.057 A 
ATOM     85  C   UNL A   1      44.245  34.450  33.370  1.00  0.00     0.134 A 
ATOM     86  C   UNL A   1      43.459  34.756  31.168  1.00  0.00     0.134 A 
ATOM     87  F   UNL A   1      44.294  33.817  34.547  1.00  0.00    -0.206 F 
ATOM     88  C   UNL A   1      44.699  35.779  33.377  1.00  0.00     0.040 A 
ATOM     89  C   UNL A   1      43.873  36.087  31.173  1.00  0.00     0.040 A 
ATOM     90  F   UNL A   1      42.794  34.428  30.056  1.00  0.00    -0.206 F 
ATOM     91  C   UNL A   1      44.536  36.596  32.267  1.00  0.00     0.006 A 
ENDBRANCH  67  84
ENDBRANCH  41  42
ENDBRANCH  34  36
ENDBRANCH  33  34
ENDBRANCH  32  33
ENDBRANCH  31  32
ENDBRANCH   1  31
TORSDOF 17
ENDMDL
MODEL 3
REMARK VINA RESULT:     -12.9      2.553      5.059
REMARK SMILES Cc1ccc(-c2cc(OCC(=O)OCCOC(=O)c3ccc(-c4c5nc(c(-c6c(F)cccc6F)c6ccc([nH]6)c(-c6c(F)cccc6F)c6nc(c(-c7c(F)cccc7F)c7ccc4[nH]7)C=C6)C=C5)cc3)nc(NCc3ccc4c(c3)OCO4)n2)cc1
REMARK SMILES IDX 13 1 11 2 12 3 10 4 9 5 8 6 6 7 7 8 86 9 74 10 73 11 5 12
REMARK SMILES IDX 1 13 2 14 3 15 88 16 4 17 87 18 75 19 76 21 77 22 78 23
REMARK SMILES IDX 82 24 79 25 81 26 80 27 83 28 85 29 84 30 14 31 15 32 16 33
REMARK SMILES IDX 17 34 18 35 19 36 20 37 72 38 21 39 71 40 22 41 23 42 24 43
REMARK SMILES IDX 65 44 25 45 70 46 64 47 66 48 26 49 69 50 63 51 62 52 27 54
REMARK SMILES IDX 53 55 36 56 52 57 37 58 40 59 51 60 67 61 38 62 39 63 50 65
REMARK SMILES IDX 68 66 41 67 28 68 29 69 34 70 30 71 31 72 33 73 35 74 32 75
REMARK SMILES IDX 54 76 55 77 60 78 56 79 57 80 59 81 61 82 58 83 42 84 43 85
REMARK SMILES IDX 48 86 44 87 45 88 47 89 49 90 46 91
REMARK H PARENT 75 20 66 53 40 64
REMARK Flexibility Score: inf
ROOT
ATOM      1  O   UNL A   1      32.437  33.914  28.002  1.00  0.00    -0.460 OA
ENDROOT
BRANCH   1   2
ATOM      2  C   UNL A   1      32.109  32.718  27.242  1.00  0.00     0.344 C 
ATOM      3  O   UNL A   1      31.121  33.051  26.528  1.00  0.00    -0.248 OA
BRANCH   2   4
ATOM      4  C   UNL A   1      33.342  30.912  27.226  1.00  0.00     0.353 C 
BRANCH   4   5
ATOM      5  O   UNL A   1      33.219  29.384  27.632  1.00  0.00    -0.466 OA
BRANCH   5   6
ATOM      6  C   UNL A   1      32.951  28.351  26.721  1.00  0.00     0.219 A 
ATOM      7  C   UNL A   1      31.648  27.739  24.880  1.00  0.00     0.080 A 
ATOM      8  C   UNL A   1      31.746  28.458  26.052  1.00  0.00     0.097 A 
ATOM      9  N   UNL A   1      32.526  26.779  24.588  1.00  0.00    -0.213 NA
ATOM     10  C   UNL A   1      33.514  26.537  25.458  1.00  0.00     0.226 A 
ATOM     11  N   UNL A   1      33.847  27.374  26.469  1.00  0.00    -0.177 NA
BRANCH   7  12
ATOM     12  C   UNL A   1      30.756  28.155  23.786  1.00  0.00     0.000 A 
ATOM     13  C   UNL A   1      28.076  30.436  21.273  1.00  0.00     0.044 C 
ATOM     14  C   UNL A   1      29.009  29.576  22.071  1.00  0.00    -0.051 A 
ATOM     15  C   UNL A   1      28.518  28.605  22.952  1.00  0.00     0.004 A 
ATOM     16  C   UNL A   1      30.388  29.722  21.941  1.00  0.00     0.004 A 
ATOM     17  C   UNL A   1      29.380  27.924  23.823  1.00  0.00     0.010 A 
ATOM     18  C   UNL A   1      31.251  28.964  22.744  1.00  0.00     0.010 A 
ENDBRANCH   7  12
BRANCH  10  19
ATOM     19  N   UNL A   1      34.185  25.343  25.301  1.00  0.00    -0.350 N 
ATOM     20  H   UNL A   1      34.793  25.012  26.001  1.00  0.00     0.164 HD
BRANCH  19  21
ATOM     21  C   UNL A   1      33.975  24.578  24.072  1.00  0.00     0.152 C 
BRANCH  21  22
ATOM     22  C   UNL A   1      33.365  23.201  24.300  1.00  0.00    -0.025 A 
ATOM     23  C   UNL A   1      32.065  23.095  24.870  1.00  0.00     0.009 A 
ATOM     24  C   UNL A   1      34.063  22.022  23.993  1.00  0.00     0.056 A 
ATOM     25  C   UNL A   1      31.505  21.849  25.195  1.00  0.00     0.051 A 
ATOM     26  C   UNL A   1      33.511  20.818  24.370  1.00  0.00     0.166 A 
ATOM     27  C   UNL A   1      32.276  20.732  24.969  1.00  0.00     0.165 A 
ATOM     28  O   UNL A   1      34.125  19.607  24.277  1.00  0.00    -0.454 OA
ATOM     29  O   UNL A   1      31.978  19.455  25.338  1.00  0.00    -0.454 OA
ATOM     30  C   UNL A   1      33.268  18.838  25.144  1.00  0.00     0.468 C 
ENDBRANCH  21  22
ENDBRANCH  19  21
ENDBRANCH  10  19
ENDBRANCH   5   6
ENDBRANCH   4   5
ENDBRANCH   2   4
ENDBRANCH   1   2
BRANCH   1  31
ATOM     31  C   UNL A   1      33.816  34.137  28.360  1.00  0.00     0.274 C 
BRANCH  31  32
ATOM     32  C   UNL A   1      34.052  33.713  29.817  1.00  0.00     0.275 C 
BRANCH  32  33
ATOM     33  O   UNL A   1      35.405  33.779  30.329  1.00  0.00    -0.458 OA
BRANCH  33  34
ATOM     34  C   UNL A   1      36.318  32.795  30.382  1.00  0.00     0.338 C 
ATOM     35  O   UNL A   1      37.433  33.001  30.848  1.00  0.00    -0.246 OA
BRANCH  34  36
ATOM     36  C   UNL A   1      36.129  31.485  29.687  1.00  0.00     0.060 A 
ATOM     37  C   UNL A   1      36.426  30.208  30.966  1.00  0.00     0.016 A 
ATOM     38  C   UNL A   1      36.776  31.234  28.017  1.00  0.00     0.016 A 
ATOM     39  C   UNL A   1      37.617  28.916  30.679  1.00  0.00     0.010 A 
ATOM     40  C   UNL A   1      37.961  29.874  27.735  1.00  0.00     0.010 A 
ATOM     41  C   UNL A   1      38.446  28.824  29.114  1.00  0.00    -0.014 A 
BRANCH  41  42
ATOM     42  C   UNL A   1      39.898  28.568  29.144  1.00  0.00     0.031 A 
ATOM     43  C   UNL A   1      40.288  27.199  28.841  1.00  0.00     0.074 A 
ATOM     44  C   UNL A   1      40.811  29.572  29.291  1.00  0.00     0.049 A 
ATOM     45  N   UNL A   1      41.390  26.675  29.224  1.00  0.00    -0.248 NA
ATOM     46  C   UNL A   1      39.387  26.246  28.203  1.00  0.00     0.031 C 
ATOM     47  C   UNL A   1      42.207  29.641  28.856  1.00  0.00     0.029 A 
ATOM     48  N   UNL A   1      40.668  30.804  29.898  1.00  0.00    -0.354 N 
ATOM     49  C   UNL A   1      41.522  25.513  28.506  1.00  0.00     0.074 A 
ATOM     50  C   UNL A   1      40.183  25.181  28.100  1.00  0.00     0.031 C 
ATOM     51  C   UNL A   1      42.804  30.729  29.394  1.00  0.00     0.029 A 
ATOM     52  C   UNL A   1      41.869  31.351  30.311  1.00  0.00     0.049 A 
ATOM     53  H   UNL A   1      39.799  31.249  30.025  1.00  0.00     0.167 HD
ATOM     54  C   UNL A   1      42.782  25.133  28.151  1.00  0.00     0.037 A 
ATOM     55  C   UNL A   1      42.063  31.623  31.635  1.00  0.00     0.037 A 
ATOM     56  C   UNL A   1      43.765  26.066  28.739  1.00  0.00     0.049 A 
ATOM     57  C   UNL A   1      42.960  30.566  32.256  1.00  0.00     0.074 A 
ATOM     58  C   UNL A   1      44.529  27.113  28.246  1.00  0.00     0.029 A 
ATOM     59  N   UNL A   1      43.764  26.242  30.116  1.00  0.00    -0.354 N 
ATOM     60  N   UNL A   1      43.438  29.542  31.600  1.00  0.00    -0.248 NA
ATOM     61  C   UNL A   1      43.353  30.539  33.658  1.00  0.00     0.031 C 
ATOM     62  C   UNL A   1      45.010  27.881  29.355  1.00  0.00     0.029 A 
ATOM     63  C   UNL A   1      44.559  27.293  30.524  1.00  0.00     0.049 A 
ATOM     64  H   UNL A   1      43.249  25.677  30.736  1.00  0.00     0.167 HD
ATOM     65  C   UNL A   1      44.134  28.708  32.431  1.00  0.00     0.074 A 
ATOM     66  C   UNL A   1      44.019  29.370  33.724  1.00  0.00     0.031 C 
ATOM     67  C   UNL A   1      44.703  27.547  31.961  1.00  0.00     0.037 A 
BRANCH  54  68
ATOM     68  C   UNL A   1      43.107  24.120  27.073  1.00  0.00     0.057 A 
ATOM     69  C   UNL A   1      43.385  24.549  25.762  1.00  0.00     0.134 A 
ATOM     70  C   UNL A   1      43.151  22.717  27.228  1.00  0.00     0.134 A 
ATOM     71  F   UNL A   1      43.442  25.849  25.445  1.00  0.00    -0.206 F 
ATOM     72  C   UNL A   1      43.630  23.669  24.699  1.00  0.00     0.040 A 
ATOM     73  C   UNL A   1      43.362  21.824  26.169  1.00  0.00     0.040 A 
ATOM     74  F   UNL A   1      43.049  22.120  28.415  1.00  0.00    -0.206 F 
ATOM     75  C   UNL A   1      43.604  22.297  24.894  1.00  0.00     0.006 A 
ENDBRANCH  54  68
BRANCH  55  76
ATOM     76  C   UNL A   1      40.862  32.272  32.263  1.00  0.00     0.057 A 
ATOM     77  C   UNL A   1      40.000  31.454  33.024  1.00  0.00     0.134 A 
ATOM     78  C   UNL A   1      40.787  33.649  32.504  1.00  0.00     0.134 A 
ATOM     79  F   UNL A   1      39.987  30.127  32.829  1.00  0.00    -0.206 F 
ATOM     80  C   UNL A   1      39.230  31.958  34.079  1.00  0.00     0.040 A 
ATOM     81  C   UNL A   1      39.994  34.168  33.541  1.00  0.00     0.040 A 
ATOM     82  F   UNL A   1      41.585  34.502  31.847  1.00  0.00    -0.206 F 
ATOM     83  C   UNL A   1      39.251  33.317  34.361  1.00  0.00     0.006 A 
ENDBRANCH  55  76
BRANCH  67  84
ATOM     84  C   UNL A   1      45.396  26.483  32.805  1.00  0.00     0.057 A 
ATOM     85  C   UNL A   1      46.733  26.103  32.652  1.00  0.00     0.134 A 
ATOM     86  C   UNL A   1      44.711  25.749  33.809  1.00  0.00     0.134 A 
ATOM     87  F   UNL A   1      47.457  26.493  31.597  1.00  0.00    -0.206 F 
ATOM     88  C   UNL A   1      47.378  25.225  33.538  1.00  0.00     0.040 A 
ATOM     89  C   UNL A   1      45.328  24.847  34.675  1.00  0.00     0.040 A 
ATOM     90  F   UNL A   1      43.392  25.833  34.011  1.00  0.00    -0.206 F 
ATOM     91  C   UNL A   1      46.681  24.612  34.569  1.00  0.00     0.006 A 
ENDBRANCH  67  84
ENDBRANCH  41  42
ENDBRANCH  34  36
ENDBRANCH  33  34
ENDBRANCH  32  33
ENDBRANCH  31  32
ENDBRANCH   1  31
TORSDOF 17
ENDMDL
