MODEL 1
REMARK VINA RESULT:     -10.4      0.000      0.000
REMARK SMILES C=CC[N@H+](CC(=O)OCCOC(=O)c1ccc(-c2c3nc(c(-c4c(F)cccc4F)c4ccc([nH]4)c(-c4c(F)cccc4F)c4nc(c(-c5c(F)cccc5F)c5ccc2[nH]5)C=C4)C=C3)cc1)[C@H](C)c1ccc(F)cc1O
REMARK SMILES IDX 9 1 8 2 6 3 7 4 5 5 4 6 3 8 2 9 1 10 68 11 69 12 70 13 71 14
REMARK SMILES IDX 76 15 72 16 75 17 73 18 74 19 77 20 10 22 11 23 12 24 13 25
REMARK SMILES IDX 14 26 15 27 67 28 16 29 66 30 17 31 18 32 19 33 60 34 20 35
REMARK SMILES IDX 65 36 59 37 61 38 21 39 64 40 58 41 57 42 22 44 48 45 31 46
REMARK SMILES IDX 47 47 32 48 35 49 46 50 62 51 33 52 34 53 45 55 63 56 36 57
REMARK SMILES IDX 23 58 24 59 29 60 25 61 26 62 28 63 30 64 27 65 49 66 50 67
REMARK SMILES IDX 55 68 51 69 52 70 54 71 56 72 53 73 37 74 38 75 43 76 39 77
REMARK SMILES IDX 40 78 42 79 44 80 41 81
REMARK H PARENT 4 7 77 21 61 43 35 54
REMARK Flexibility Score: inf
ROOT
ATOM      1  C   UNL A   1      36.571  20.192  24.937  1.00  0.00     0.274 C 
ENDROOT
BRANCH   1   2
ATOM      2  O   UNL A   1      36.260  21.561  25.256  1.00  0.00    -0.458 OA
BRANCH   2   3
ATOM      3  C   UNL A   1      35.993  22.372  24.202  1.00  0.00     0.361 C 
ATOM      4  O   UNL A   1      36.794  22.613  23.303  1.00  0.00    -0.245 OA
BRANCH   3   5
ATOM      5  C   UNL A   1      34.645  23.078  24.273  1.00  0.00     0.387 C 
BRANCH   5   6
ATOM      6  N   UNL A   1      33.776  22.747  25.438  1.00  0.00    -0.316 N 
ATOM      7  H   UNL A   1      34.217  22.045  26.034  1.00  0.00     0.349 HD
BRANCH   6   8
ATOM      8  C   UNL A   1      33.594  23.944  26.280  1.00  0.00     0.291 C 
BRANCH   8   9
ATOM      9  C   UNL A   1      33.925  25.253  25.616  1.00  0.00     0.025 C 
ATOM     10  C   UNL A   1      33.036  26.092  25.068  1.00  0.00     0.010 C 
ENDBRANCH   8   9
ENDBRANCH   6   8
BRANCH   6  11
ATOM     11  C   UNL A   1      32.491  22.138  24.951  1.00  0.00     0.216 C 
ATOM     12  C   UNL A   1      31.240  22.542  25.763  1.00  0.00     0.081 C 
BRANCH  11  13
ATOM     13  C   UNL A   1      32.584  20.648  24.597  1.00  0.00     0.051 A 
ATOM     14  C   UNL A   1      32.260  20.259  23.278  1.00  0.00     0.017 A 
ATOM     15  C   UNL A   1      32.977  19.635  25.488  1.00  0.00     0.127 A 
ATOM     16  C   UNL A   1      32.346  18.923  22.873  1.00  0.00     0.040 A 
ATOM     17  C   UNL A   1      33.073  18.301  25.088  1.00  0.00     0.085 A 
ATOM     18  C   UNL A   1      32.760  17.960  23.781  1.00  0.00     0.126 A 
ATOM     19  F   UNL A   1      32.868  16.682  23.391  1.00  0.00    -0.207 F 
BRANCH  15  20
ATOM     20  O   UNL A   1      33.316  19.927  26.777  1.00  0.00    -0.507 OA
ATOM     21  H   UNL A   1      32.874  20.616  27.232  1.00  0.00     0.293 HD
ENDBRANCH  15  20
ENDBRANCH  11  13
ENDBRANCH   6  11
ENDBRANCH   5   6
ENDBRANCH   3   5
ENDBRANCH   2   3
ENDBRANCH   1   2
BRANCH   1  22
ATOM     22  C   UNL A   1      38.080  19.938  24.916  1.00  0.00     0.275 C 
BRANCH  22  23
ATOM     23  O   UNL A   1      38.645  20.016  26.238  1.00  0.00    -0.458 OA
BRANCH  23  24
ATOM     24  C   UNL A   1      39.989  20.157  26.280  1.00  0.00     0.338 C 
ATOM     25  O   UNL A   1      40.829  19.364  25.876  1.00  0.00    -0.246 OA
BRANCH  24  26
ATOM     26  C   UNL A   1      40.340  21.485  26.805  1.00  0.00     0.060 A 
ATOM     27  C   UNL A   1      39.709  22.602  26.248  1.00  0.00     0.016 A 
ATOM     28  C   UNL A   1      41.344  21.640  27.764  1.00  0.00     0.016 A 
ATOM     29  C   UNL A   1      40.098  23.883  26.631  1.00  0.00     0.010 A 
ATOM     30  C   UNL A   1      41.737  22.927  28.143  1.00  0.00     0.010 A 
ATOM     31  C   UNL A   1      41.134  24.056  27.560  1.00  0.00    -0.014 A 
BRANCH  31  32
ATOM     32  C   UNL A   1      41.649  25.418  27.833  1.00  0.00     0.031 A 
ATOM     33  C   UNL A   1      43.005  25.815  27.321  1.00  0.00     0.074 A 
ATOM     34  C   UNL A   1      40.893  26.311  28.498  1.00  0.00     0.049 A 
ATOM     35  N   UNL A   1      43.637  26.955  27.440  1.00  0.00    -0.248 NA
ATOM     36  C   UNL A   1      43.752  24.788  26.575  1.00  0.00     0.031 C 
ATOM     37  C   UNL A   1      39.555  26.055  29.026  1.00  0.00     0.029 A 
ATOM     38  N   UNL A   1      41.147  27.616  28.838  1.00  0.00    -0.354 N 
ATOM     39  C   UNL A   1      44.854  26.782  26.794  1.00  0.00     0.074 A 
ATOM     40  C   UNL A   1      44.885  25.420  26.307  1.00  0.00     0.031 C 
ATOM     41  C   UNL A   1      39.100  27.172  29.620  1.00  0.00     0.029 A 
ATOM     42  C   UNL A   1      40.125  28.211  29.533  1.00  0.00     0.049 A 
ATOM     43  H   UNL A   1      41.984  28.080  28.604  1.00  0.00     0.167 HD
ATOM     44  C   UNL A   1      45.852  27.681  26.612  1.00  0.00     0.037 A 
ATOM     45  C   UNL A   1      40.030  29.452  30.046  1.00  0.00     0.037 A 
ATOM     46  C   UNL A   1      45.821  29.039  27.088  1.00  0.00     0.049 A 
ATOM     47  C   UNL A   1      41.164  30.421  29.857  1.00  0.00     0.074 A 
ATOM     48  C   UNL A   1      46.780  30.027  26.941  1.00  0.00     0.029 A 
ATOM     49  N   UNL A   1      44.774  29.600  27.802  1.00  0.00    -0.354 N 
ATOM     50  N   UNL A   1      42.301  30.253  29.227  1.00  0.00    -0.248 NA
ATOM     51  C   UNL A   1      40.998  31.757  30.448  1.00  0.00     0.031 C 
ATOM     52  C   UNL A   1      46.326  31.178  27.598  1.00  0.00     0.029 A 
ATOM     53  C   UNL A   1      45.069  30.917  28.117  1.00  0.00     0.049 A 
ATOM     54  H   UNL A   1      43.944  29.131  28.051  1.00  0.00     0.167 HD
ATOM     55  C   UNL A   1      42.974  31.464  29.325  1.00  0.00     0.074 A 
ATOM     56  C   UNL A   1      42.112  32.363  30.062  1.00  0.00     0.031 C 
ATOM     57  C   UNL A   1      44.197  31.800  28.848  1.00  0.00     0.037 A 
BRANCH  44  58
ATOM     58  C   UNL A   1      47.072  27.211  25.880  1.00  0.00     0.057 A 
ATOM     59  C   UNL A   1      48.119  26.551  26.536  1.00  0.00     0.134 A 
ATOM     60  C   UNL A   1      47.193  27.400  24.497  1.00  0.00     0.134 A 
ATOM     61  F   UNL A   1      48.071  26.352  27.862  1.00  0.00    -0.206 F 
ATOM     62  C   UNL A   1      49.252  26.115  25.848  1.00  0.00     0.040 A 
ATOM     63  C   UNL A   1      48.311  26.950  23.794  1.00  0.00     0.040 A 
ATOM     64  F   UNL A   1      46.224  28.022  23.807  1.00  0.00    -0.206 F 
ATOM     65  C   UNL A   1      49.348  26.310  24.470  1.00  0.00     0.006 A 
ENDBRANCH  44  58
BRANCH  45  66
ATOM     66  C   UNL A   1      38.810  29.855  30.787  1.00  0.00     0.057 A 
ATOM     67  C   UNL A   1      38.665  29.578  32.151  1.00  0.00     0.134 A 
ATOM     68  C   UNL A   1      37.753  30.512  30.146  1.00  0.00     0.134 A 
ATOM     69  F   UNL A   1      39.634  28.929  32.813  1.00  0.00    -0.206 F 
ATOM     70  C   UNL A   1      37.508  29.923  32.848  1.00  0.00     0.040 A 
ATOM     71  C   UNL A   1      36.599  30.885  30.836  1.00  0.00     0.040 A 
ATOM     72  F   UNL A   1      37.832  30.806  28.840  1.00  0.00    -0.206 F 
ATOM     73  C   UNL A   1      36.472  30.585  32.190  1.00  0.00     0.006 A 
ENDBRANCH  45  66
BRANCH  57  74
ATOM     74  C   UNL A   1      44.659  33.208  29.085  1.00  0.00     0.057 A 
ATOM     75  C   UNL A   1      44.368  34.242  28.186  1.00  0.00     0.134 A 
ATOM     76  C   UNL A   1      45.386  33.535  30.237  1.00  0.00     0.134 A 
ATOM     77  F   UNL A   1      43.686  33.991  27.059  1.00  0.00    -0.206 F 
ATOM     78  C   UNL A   1      44.806  35.549  28.413  1.00  0.00     0.040 A 
ATOM     79  C   UNL A   1      45.810  34.842  30.485  1.00  0.00     0.040 A 
ATOM     80  F   UNL A   1      45.692  32.593  31.141  1.00  0.00    -0.206 F 
ATOM     81  C   UNL A   1      45.525  35.852  29.567  1.00  0.00     0.006 A 
ENDBRANCH  57  74
ENDBRANCH  31  32
ENDBRANCH  24  26
ENDBRANCH  23  24
ENDBRANCH  22  23
ENDBRANCH   1  22
TORSDOF 17
ENDMDL
MODEL 2
REMARK VINA RESULT:     -10.1      5.908     10.680
REMARK SMILES C=CC[N@H+](CC(=O)OCCOC(=O)c1ccc(-c2c3nc(c(-c4c(F)cccc4F)c4ccc([nH]4)c(-c4c(F)cccc4F)c4nc(c(-c5c(F)cccc5F)c5ccc2[nH]5)C=C4)C=C3)cc1)[C@H](C)c1ccc(F)cc1O
REMARK SMILES IDX 9 1 8 2 6 3 7 4 5 5 4 6 3 8 2 9 1 10 68 11 69 12 70 13 71 14
REMARK SMILES IDX 76 15 72 16 75 17 73 18 74 19 77 20 10 22 11 23 12 24 13 25
REMARK SMILES IDX 14 26 15 27 67 28 16 29 66 30 17 31 18 32 19 33 60 34 20 35
REMARK SMILES IDX 65 36 59 37 61 38 21 39 64 40 58 41 57 42 22 44 48 45 31 46
REMARK SMILES IDX 47 47 32 48 35 49 46 50 62 51 33 52 34 53 45 55 63 56 36 57
REMARK SMILES IDX 23 58 24 59 29 60 25 61 26 62 28 63 30 64 27 65 49 66 50 67
REMARK SMILES IDX 55 68 51 69 52 70 54 71 56 72 53 73 37 74 38 75 43 76 39 77
REMARK SMILES IDX 40 78 42 79 44 80 41 81
REMARK H PARENT 4 7 77 21 61 43 35 54
REMARK Flexibility Score: inf
ROOT
ATOM      1  C   UNL A   1      31.614  31.966  27.059  1.00  0.00     0.274 C 
ENDROOT
BRANCH   1   2
ATOM      2  O   UNL A   1      31.927  31.064  25.982  1.00  0.00    -0.458 OA
BRANCH   2   3
ATOM      3  C   UNL A   1      31.794  29.742  26.254  1.00  0.00     0.361 C 
ATOM      4  O   UNL A   1      31.784  29.273  27.390  1.00  0.00    -0.245 OA
BRANCH   3   5
ATOM      5  C   UNL A   1      31.779  28.840  25.026  1.00  0.00     0.387 C 
BRANCH   5   6
ATOM      6  N   UNL A   1      31.369  29.471  23.738  1.00  0.00    -0.316 N 
ATOM      7  H   UNL A   1      31.581  30.469  23.737  1.00  0.00     0.349 HD
BRANCH   6   8
ATOM      8  C   UNL A   1      32.145  28.885  22.628  1.00  0.00     0.291 C 
BRANCH   8   9
ATOM      9  C   UNL A   1      32.903  27.631  22.965  1.00  0.00     0.025 C 
ATOM     10  C   UNL A   1      33.608  26.892  22.098  1.00  0.00     0.010 C 
ENDBRANCH   8   9
ENDBRANCH   6   8
BRANCH   6  11
ATOM     11  C   UNL A   1      29.879  29.356  23.574  1.00  0.00     0.216 C 
ATOM     12  C   UNL A   1      29.381  27.941  23.203  1.00  0.00     0.081 C 
BRANCH  11  13
ATOM     13  C   UNL A   1      29.234  30.501  22.781  1.00  0.00     0.051 A 
ATOM     14  C   UNL A   1      28.603  30.186  21.557  1.00  0.00     0.017 A 
ATOM     15  C   UNL A   1      29.216  31.846  23.187  1.00  0.00     0.127 A 
ATOM     16  C   UNL A   1      27.971  31.171  20.792  1.00  0.00     0.040 A 
ATOM     17  C   UNL A   1      28.579  32.833  22.432  1.00  0.00     0.085 A 
ATOM     18  C   UNL A   1      27.959  32.483  21.242  1.00  0.00     0.126 A 
ATOM     19  F   UNL A   1      27.333  33.426  20.524  1.00  0.00    -0.207 F 
BRANCH  15  20
ATOM     20  O   UNL A   1      29.795  32.233  24.361  1.00  0.00    -0.507 OA
ATOM     21  H   UNL A   1      29.708  33.117  24.656  1.00  0.00     0.293 HD
ENDBRANCH  15  20
ENDBRANCH  11  13
ENDBRANCH   6  11
ENDBRANCH   5   6
ENDBRANCH   3   5
ENDBRANCH   2   3
ENDBRANCH   1   2
BRANCH   1  22
ATOM     22  C   UNL A   1      32.799  32.868  27.411  1.00  0.00     0.275 C 
BRANCH  22  23
ATOM     23  O   UNL A   1      32.451  33.817  28.436  1.00  0.00    -0.458 OA
BRANCH  23  24
ATOM     24  C   UNL A   1      33.386  34.761  28.684  1.00  0.00     0.338 C 
ATOM     25  O   UNL A   1      33.319  35.956  28.428  1.00  0.00    -0.246 OA
BRANCH  24  26
ATOM     26  C   UNL A   1      34.512  34.173  29.424  1.00  0.00     0.060 A 
ATOM     27  C   UNL A   1      35.810  34.505  29.023  1.00  0.00     0.016 A 
ATOM     28  C   UNL A   1      34.300  33.235  30.437  1.00  0.00     0.016 A 
ATOM     29  C   UNL A   1      36.903  33.879  29.617  1.00  0.00     0.010 A 
ATOM     30  C   UNL A   1      35.398  32.603  31.029  1.00  0.00     0.010 A 
ATOM     31  C   UNL A   1      36.704  32.903  30.604  1.00  0.00    -0.014 A 
BRANCH  31  32
ATOM     32  C   UNL A   1      37.863  32.128  31.107  1.00  0.00     0.031 A 
ATOM     33  C   UNL A   1      38.386  32.391  32.491  1.00  0.00     0.074 A 
ATOM     34  C   UNL A   1      38.419  31.165  30.349  1.00  0.00     0.049 A 
ATOM     35  N   UNL A   1      39.380  31.822  33.125  1.00  0.00    -0.248 NA
ATOM     36  C   UNL A   1      37.700  33.439  33.265  1.00  0.00     0.031 C 
ATOM     37  C   UNL A   1      37.989  30.801  29.001  1.00  0.00     0.029 A 
ATOM     38  N   UNL A   1      39.465  30.317  30.612  1.00  0.00    -0.354 N 
ATOM     39  C   UNL A   1      39.442  32.443  34.366  1.00  0.00     0.074 A 
ATOM     40  C   UNL A   1      38.405  33.453  34.386  1.00  0.00     0.031 C 
ATOM     41  C   UNL A   1      38.762  29.796  28.555  1.00  0.00     0.029 A 
ATOM     42  C   UNL A   1      39.753  29.464  29.577  1.00  0.00     0.049 A 
ATOM     43  H   UNL A   1      39.960  30.320  31.463  1.00  0.00     0.167 HD
ATOM     44  C   UNL A   1      40.281  32.189  35.399  1.00  0.00     0.037 A 
ATOM     45  C   UNL A   1      40.713  28.527  29.465  1.00  0.00     0.037 A 
ATOM     46  C   UNL A   1      41.309  31.181  35.385  1.00  0.00     0.049 A 
ATOM     47  C   UNL A   1      41.651  28.285  30.614  1.00  0.00     0.074 A 
ATOM     48  C   UNL A   1      42.199  30.842  36.390  1.00  0.00     0.029 A 
ATOM     49  N   UNL A   1      41.581  30.348  34.312  1.00  0.00    -0.354 N 
ATOM     50  N   UNL A   1      41.688  28.865  31.789  1.00  0.00    -0.248 NA
ATOM     51  C   UNL A   1      42.680  27.252  30.423  1.00  0.00     0.031 C 
ATOM     52  C   UNL A   1      43.033  29.825  35.910  1.00  0.00     0.029 A 
ATOM     53  C   UNL A   1      42.635  29.505  34.622  1.00  0.00     0.049 A 
ATOM     54  H   UNL A   1      41.097  30.356  33.454  1.00  0.00     0.167 HD
ATOM     55  C   UNL A   1      42.724  28.254  32.484  1.00  0.00     0.074 A 
ATOM     56  C   UNL A   1      43.281  27.248  31.605  1.00  0.00     0.031 C 
ATOM     57  C   UNL A   1      43.175  28.505  33.738  1.00  0.00     0.037 A 
BRANCH  44  58
ATOM     58  C   UNL A   1      40.130  33.035  36.628  1.00  0.00     0.057 A 
ATOM     59  C   UNL A   1      40.956  34.139  36.871  1.00  0.00     0.134 A 
ATOM     60  C   UNL A   1      39.132  32.755  37.570  1.00  0.00     0.134 A 
ATOM     61  F   UNL A   1      41.941  34.452  36.014  1.00  0.00    -0.206 F 
ATOM     62  C   UNL A   1      40.809  34.923  38.016  1.00  0.00     0.040 A 
ATOM     63  C   UNL A   1      38.961  33.543  38.708  1.00  0.00     0.040 A 
ATOM     64  F   UNL A   1      38.304  31.712  37.396  1.00  0.00    -0.206 F 
ATOM     65  C   UNL A   1      39.805  34.628  38.937  1.00  0.00     0.006 A 
ENDBRANCH  44  58
BRANCH  45  66
ATOM     66  C   UNL A   1      40.836  27.738  28.214  1.00  0.00     0.057 A 
ATOM     67  C   UNL A   1      41.569  28.219  27.123  1.00  0.00     0.134 A 
ATOM     68  C   UNL A   1      40.209  26.494  28.074  1.00  0.00     0.134 A 
ATOM     69  F   UNL A   1      42.172  29.415  27.190  1.00  0.00    -0.206 F 
ATOM     70  C   UNL A   1      41.662  27.499  25.932  1.00  0.00     0.040 A 
ATOM     71  C   UNL A   1      40.312  25.753  26.897  1.00  0.00     0.040 A 
ATOM     72  F   UNL A   1      39.492  25.981  29.084  1.00  0.00    -0.206 F 
ATOM     73  C   UNL A   1      41.036  26.258  25.818  1.00  0.00     0.006 A 
ENDBRANCH  45  66
BRANCH  57  74
ATOM     74  C   UNL A   1      44.306  27.656  34.239  1.00  0.00     0.057 A 
ATOM     75  C   UNL A   1      44.083  26.418  34.855  1.00  0.00     0.134 A 
ATOM     76  C   UNL A   1      45.634  28.076  34.086  1.00  0.00     0.134 A 
ATOM     77  F   UNL A   1      42.834  25.967  35.043  1.00  0.00    -0.206 F 
ATOM     78  C   UNL A   1      45.142  25.637  35.323  1.00  0.00     0.040 A 
ATOM     79  C   UNL A   1      46.701  27.293  34.530  1.00  0.00     0.040 A 
ATOM     80  F   UNL A   1      45.915  29.248  33.498  1.00  0.00    -0.206 F 
ATOM     81  C   UNL A   1      46.456  26.072  35.156  1.00  0.00     0.006 A 
ENDBRANCH  57  74
ENDBRANCH  31  32
ENDBRANCH  24  26
ENDBRANCH  23  24
ENDBRANCH  22  23
ENDBRANCH   1  22
TORSDOF 17
ENDMDL
MODEL 3
REMARK VINA RESULT:     -10.1      5.988      9.706
REMARK SMILES C=CC[N@H+](CC(=O)OCCOC(=O)c1ccc(-c2c3nc(c(-c4c(F)cccc4F)c4ccc([nH]4)c(-c4c(F)cccc4F)c4nc(c(-c5c(F)cccc5F)c5ccc2[nH]5)C=C4)C=C3)cc1)[C@H](C)c1ccc(F)cc1O
REMARK SMILES IDX 9 1 8 2 6 3 7 4 5 5 4 6 3 8 2 9 1 10 68 11 69 12 70 13 71 14
REMARK SMILES IDX 76 15 72 16 75 17 73 18 74 19 77 20 10 22 11 23 12 24 13 25
REMARK SMILES IDX 14 26 15 27 67 28 16 29 66 30 17 31 18 32 19 33 60 34 20 35
REMARK SMILES IDX 65 36 59 37 61 38 21 39 64 40 58 41 57 42 22 44 48 45 31 46
REMARK SMILES IDX 47 47 32 48 35 49 46 50 62 51 33 52 34 53 45 55 63 56 36 57
REMARK SMILES IDX 23 58 24 59 29 60 25 61 26 62 28 63 30 64 27 65 49 66 50 67
REMARK SMILES IDX 55 68 51 69 52 70 54 71 56 72 53 73 37 74 38 75 43 76 39 77
REMARK SMILES IDX 40 78 42 79 44 80 41 81
REMARK H PARENT 4 7 77 21 61 43 35 54
REMARK Flexibility Score: inf
ROOT
ATOM      1  C   UNL A   1      32.861  31.528  27.231  1.00  0.00     0.274 C 
ENDROOT
BRANCH   1   2
ATOM      2  O   UNL A   1      32.043  30.683  26.400  1.00  0.00    -0.458 OA
BRANCH   2   3
ATOM      3  C   UNL A   1      32.439  29.391  26.292  1.00  0.00     0.361 C 
ATOM      4  O   UNL A   1      33.354  28.897  26.947  1.00  0.00    -0.245 OA
BRANCH   3   5
ATOM      5  C   UNL A   1      31.740  28.604  25.191  1.00  0.00     0.387 C 
BRANCH   5   6
ATOM      6  N   UNL A   1      31.423  29.346  23.937  1.00  0.00    -0.316 N 
ATOM      7  H   UNL A   1      31.547  30.351  24.066  1.00  0.00     0.349 HD
BRANCH   6   8
ATOM      8  C   UNL A   1      32.364  28.950  22.872  1.00  0.00     0.291 C 
BRANCH   8   9
ATOM      9  C   UNL A   1      33.304  27.832  23.229  1.00  0.00     0.025 C 
ATOM     10  C   UNL A   1      33.224  26.574  22.777  1.00  0.00     0.010 C 
ENDBRANCH   8   9
ENDBRANCH   6   8
BRANCH   6  11
ATOM     11  C   UNL A   1      29.976  29.142  23.584  1.00  0.00     0.216 C 
ATOM     12  C   UNL A   1      29.648  27.753  22.993  1.00  0.00     0.081 C 
BRANCH  11  13
ATOM     13  C   UNL A   1      29.322  30.328  22.862  1.00  0.00     0.051 A 
ATOM     14  C   UNL A   1      28.676  30.078  21.630  1.00  0.00     0.017 A 
ATOM     15  C   UNL A   1      29.309  31.650  23.338  1.00  0.00     0.127 A 
ATOM     16  C   UNL A   1      28.035  31.102  20.926  1.00  0.00     0.040 A 
ATOM     17  C   UNL A   1      28.663  32.675  22.644  1.00  0.00     0.085 A 
ATOM     18  C   UNL A   1      28.029  32.388  21.445  1.00  0.00     0.126 A 
ATOM     19  F   UNL A   1      27.394  33.367  20.786  1.00  0.00    -0.207 F 
BRANCH  15  20
ATOM     20  O   UNL A   1      29.902  31.974  24.524  1.00  0.00    -0.507 OA
ATOM     21  H   UNL A   1      30.718  31.582  24.761  1.00  0.00     0.293 HD
ENDBRANCH  15  20
ENDBRANCH  11  13
ENDBRANCH   6  11
ENDBRANCH   5   6
ENDBRANCH   3   5
ENDBRANCH   2   3
ENDBRANCH   1   2
BRANCH   1  22
ATOM     22  C   UNL A   1      32.205  32.886  27.487  1.00  0.00     0.275 C 
BRANCH  22  23
ATOM     23  O   UNL A   1      33.158  33.960  27.384  1.00  0.00    -0.458 OA
BRANCH  23  24
ATOM     24  C   UNL A   1      33.233  34.766  28.466  1.00  0.00     0.338 C 
ATOM     25  O   UNL A   1      32.488  35.694  28.751  1.00  0.00    -0.246 OA
BRANCH  24  26
ATOM     26  C   UNL A   1      34.311  34.314  29.358  1.00  0.00     0.060 A 
ATOM     27  C   UNL A   1      35.630  34.414  28.901  1.00  0.00     0.016 A 
ATOM     28  C   UNL A   1      34.029  33.712  30.586  1.00  0.00     0.016 A 
ATOM     29  C   UNL A   1      36.671  33.888  29.663  1.00  0.00     0.010 A 
ATOM     30  C   UNL A   1      35.074  33.180  31.347  1.00  0.00     0.010 A 
ATOM     31  C   UNL A   1      36.398  33.242  30.877  1.00  0.00    -0.014 A 
BRANCH  31  32
ATOM     32  C   UNL A   1      37.492  32.544  31.593  1.00  0.00     0.031 A 
ATOM     33  C   UNL A   1      38.195  31.392  30.931  1.00  0.00     0.074 A 
ATOM     34  C   UNL A   1      37.883  32.961  32.811  1.00  0.00     0.049 A 
ATOM     35  N   UNL A   1      39.179  30.654  31.377  1.00  0.00    -0.248 NA
ATOM     36  C   UNL A   1      37.726  31.022  29.585  1.00  0.00     0.031 C 
ATOM     37  C   UNL A   1      37.294  34.077  33.548  1.00  0.00     0.029 A 
ATOM     38  N   UNL A   1      38.872  32.492  33.638  1.00  0.00    -0.354 N 
ATOM     39  C   UNL A   1      39.442  29.730  30.374  1.00  0.00     0.074 A 
ATOM     40  C   UNL A   1      38.497  29.982  29.308  1.00  0.00     0.031 C 
ATOM     41  C   UNL A   1      37.940  34.212  34.720  1.00  0.00     0.029 A 
ATOM     42  C   UNL A   1      38.968  33.179  34.822  1.00  0.00     0.049 A 
ATOM     43  H   UNL A   1      39.457  31.736  33.403  1.00  0.00     0.167 HD
ATOM     44  C   UNL A   1      40.392  28.764  30.340  1.00  0.00     0.037 A 
ATOM     45  C   UNL A   1      39.790  32.990  35.872  1.00  0.00     0.037 A 
ATOM     46  C   UNL A   1      41.339  28.515  31.396  1.00  0.00     0.049 A 
ATOM     47  C   UNL A   1      40.816  31.892  35.822  1.00  0.00     0.074 A 
ATOM     48  C   UNL A   1      42.347  27.568  31.445  1.00  0.00     0.029 A 
ATOM     49  N   UNL A   1      41.395  29.222  32.586  1.00  0.00    -0.354 N 
ATOM     50  N   UNL A   1      41.069  31.037  34.860  1.00  0.00    -0.248 NA
ATOM     51  C   UNL A   1      41.677  31.736  37.004  1.00  0.00     0.031 C 
ATOM     52  C   UNL A   1      42.992  27.680  32.684  1.00  0.00     0.029 A 
ATOM     53  C   UNL A   1      42.410  28.722  33.386  1.00  0.00     0.049 A 
ATOM     54  H   UNL A   1      40.799  29.968  32.829  1.00  0.00     0.167 HD
ATOM     55  C   UNL A   1      42.128  30.260  35.310  1.00  0.00     0.074 A 
ATOM     56  C   UNL A   1      42.482  30.754  36.624  1.00  0.00     0.031 C 
ATOM     57  C   UNL A   1      42.752  29.228  34.690  1.00  0.00     0.037 A 
BRANCH  44  58
ATOM     58  C   UNL A   1      40.439  27.891  29.122  1.00  0.00     0.057 A 
ATOM     59  C   UNL A   1      39.678  26.720  29.023  1.00  0.00     0.134 A 
ATOM     60  C   UNL A   1      41.238  28.237  28.025  1.00  0.00     0.134 A 
ATOM     61  F   UNL A   1      38.903  26.325  30.046  1.00  0.00    -0.206 F 
ATOM     62  C   UNL A   1      39.725  25.913  27.886  1.00  0.00     0.040 A 
ATOM     63  C   UNL A   1      41.278  27.450  26.874  1.00  0.00     0.040 A 
ATOM     64  F   UNL A   1      41.990  29.349  28.053  1.00  0.00    -0.206 F 
ATOM     65  C   UNL A   1      40.524  26.280  26.804  1.00  0.00     0.006 A 
ENDBRANCH  44  58
BRANCH  45  66
ATOM     66  C   UNL A   1      39.681  33.865  37.064  1.00  0.00     0.057 A 
ATOM     67  C   UNL A   1      40.367  35.083  37.135  1.00  0.00     0.134 A 
ATOM     68  C   UNL A   1      38.904  33.497  38.169  1.00  0.00     0.134 A 
ATOM     69  F   UNL A   1      41.147  35.477  36.117  1.00  0.00    -0.206 F 
ATOM     70  C   UNL A   1      40.297  35.896  38.266  1.00  0.00     0.040 A 
ATOM     71  C   UNL A   1      38.806  34.311  39.298  1.00  0.00     0.040 A 
ATOM     72  F   UNL A   1      38.223  32.341  38.161  1.00  0.00    -0.206 F 
ATOM     73  C   UNL A   1      39.509  35.513  39.350  1.00  0.00     0.006 A 
ENDBRANCH  45  66
BRANCH  57  74
ATOM     74  C   UNL A   1      43.898  28.588  35.416  1.00  0.00     0.057 A 
ATOM     75  C   UNL A   1      45.218  29.024  35.244  1.00  0.00     0.134 A 
ATOM     76  C   UNL A   1      43.674  27.535  36.313  1.00  0.00     0.134 A 
ATOM     77  F   UNL A   1      45.499  30.019  34.390  1.00  0.00    -0.206 F 
ATOM     78  C   UNL A   1      46.279  28.418  35.921  1.00  0.00     0.040 A 
ATOM     79  C   UNL A   1      44.724  26.937  37.012  1.00  0.00     0.040 A 
ATOM     80  F   UNL A   1      42.433  27.075  36.529  1.00  0.00    -0.206 F 
ATOM     81  C   UNL A   1      46.032  27.375  36.812  1.00  0.00     0.006 A 
ENDBRANCH  57  74
ENDBRANCH  31  32
ENDBRANCH  24  26
ENDBRANCH  23  24
ENDBRANCH  22  23
ENDBRANCH   1  22
TORSDOF 17
ENDMDL
