MODEL 1
REMARK VINA RESULT:     -11.5      0.000      0.000
REMARK SMILES CCc1nn(-c2ccc(Cl)nn2)c(CC)c1CC(=O)OCCOC(=O)c1ccc(-c2c3nc(c(-c4c(F)cccc4F)c4ccc([nH]4)c(-c4c(F)cccc4F)c4nc(c(-c5c(F)cccc5F)c5ccc2[nH]5)C=C4)C=C3)cc1
REMARK SMILES IDX 21 1 20 2 18 3 19 4 17 5 16 6 3 7 4 8 5 9 13 10 2 11 1 12
REMARK SMILES IDX 6 13 7 14 12 15 8 16 11 17 9 18 10 19 14 20 15 21 22 22
REMARK SMILES IDX 23 23 24 24 25 25 26 26 27 27 79 28 28 29 78 30 29 31 30 32
REMARK SMILES IDX 31 33 72 34 32 35 77 36 71 37 73 38 33 39 76 40 70 41 69 42
REMARK SMILES IDX 34 44 60 45 43 46 59 47 44 48 47 49 58 50 74 51 45 52 46 53
REMARK SMILES IDX 57 55 75 56 48 57 35 58 36 59 41 60 37 61 38 62 40 63 42 64
REMARK SMILES IDX 39 65 61 66 62 67 67 68 63 69 64 70 66 71 68 72 65 73 49 74
REMARK SMILES IDX 50 75 55 76 51 77 52 78 54 79 56 80 53 81
REMARK H PARENT 73 43 47 54
REMARK Flexibility Score: inf
ROOT
ATOM      1  C   UNL A   1      33.053  28.299  27.143  1.00  0.00     0.274 C 
ENDROOT
BRANCH   1   2
ATOM      2  O   UNL A   1      32.895  27.620  25.886  1.00  0.00    -0.462 OA
BRANCH   2   3
ATOM      3  C   UNL A   1      33.244  26.305  25.856  1.00  0.00     0.310 C 
ATOM      4  O   UNL A   1      34.378  25.889  25.642  1.00  0.00    -0.252 OA
BRANCH   3   5
ATOM      5  C   UNL A   1      32.086  25.408  26.234  1.00  0.00     0.162 C 
BRANCH   5   6
ATOM      6  C   UNL A   1      32.082  24.058  25.576  1.00  0.00     0.008 A 
ATOM      7  C   UNL A   1      31.744  23.758  24.226  1.00  0.00     0.067 A 
ATOM      8  N   UNL A   1      31.936  22.464  23.934  1.00  0.00    -0.171 NA
ATOM      9  N   UNL A   1      32.410  21.917  25.074  1.00  0.00    -0.217 N 
ATOM     10  C   UNL A   1      32.509  22.844  26.097  1.00  0.00     0.050 A 
BRANCH   7  11
ATOM     11  C   UNL A   1      31.312  24.717  23.162  1.00  0.00     0.055 C 
ATOM     12  C   UNL A   1      32.455  25.235  22.307  1.00  0.00     0.011 C 
ENDBRANCH   7  11
BRANCH   9  13
ATOM     13  C   UNL A   1      32.863  20.575  25.134  1.00  0.00     0.176 A 
ATOM     14  C   UNL A   1      34.209  20.318  24.890  1.00  0.00     0.054 A 
ATOM     15  N   UNL A   1      31.927  19.597  25.066  1.00  0.00    -0.129 NA
ATOM     16  C   UNL A   1      34.583  19.027  24.521  1.00  0.00     0.047 A 
ATOM     17  N   UNL A   1      32.305  18.321  24.730  1.00  0.00    -0.136 NA
ATOM     18  C   UNL A   1      33.597  18.065  24.444  1.00  0.00     0.151 A 
ATOM     19  Cl  UNL A   1      33.938  16.476  23.910  1.00  0.00    -0.060 Cl
ENDBRANCH   9  13
BRANCH  10  20
ATOM     20  C   UNL A   1      33.096  22.515  27.431  1.00  0.00     0.053 C 
ATOM     21  C   UNL A   1      34.569  22.882  27.548  1.00  0.00     0.011 C 
ENDBRANCH  10  20
ENDBRANCH   5   6
ENDBRANCH   3   5
ENDBRANCH   2   3
ENDBRANCH   1   2
BRANCH   1  22
ATOM     22  C   UNL A   1      34.131  29.359  26.948  1.00  0.00     0.275 C 
BRANCH  22  23
ATOM     23  O   UNL A   1      35.413  28.965  27.482  1.00  0.00    -0.458 OA
BRANCH  23  24
ATOM     24  C   UNL A   1      36.255  29.981  27.799  1.00  0.00     0.338 C 
ATOM     25  O   UNL A   1      36.001  31.164  27.735  1.00  0.00    -0.246 OA
BRANCH  24  26
ATOM     26  C   UNL A   1      37.608  29.453  28.084  1.00  0.00     0.060 A 
ATOM     27  C   UNL A   1      38.622  29.754  27.168  1.00  0.00     0.016 A 
ATOM     28  C   UNL A   1      37.824  28.530  29.111  1.00  0.00     0.016 A 
ATOM     29  C   UNL A   1      39.779  28.991  27.162  1.00  0.00     0.010 A 
ATOM     30  C   UNL A   1      39.010  27.817  29.146  1.00  0.00     0.010 A 
ATOM     31  C   UNL A   1      39.956  27.993  28.130  1.00  0.00    -0.014 A 
BRANCH  31  32
ATOM     32  C   UNL A   1      41.251  27.312  28.184  1.00  0.00     0.031 A 
ATOM     33  C   UNL A   1      42.018  27.580  29.442  1.00  0.00     0.074 A 
ATOM     34  C   UNL A   1      41.618  26.351  27.312  1.00  0.00     0.049 A 
ATOM     35  N   UNL A   1      43.262  27.899  29.597  1.00  0.00    -0.248 NA
ATOM     36  C   UNL A   1      41.237  27.594  30.697  1.00  0.00     0.031 C 
ATOM     37  C   UNL A   1      40.826  25.789  26.213  1.00  0.00     0.029 A 
ATOM     38  N   UNL A   1      42.719  25.548  27.334  1.00  0.00    -0.354 N 
ATOM     39  C   UNL A   1      43.456  27.992  30.976  1.00  0.00     0.074 A 
ATOM     40  C   UNL A   1      42.156  27.961  31.585  1.00  0.00     0.031 C 
ATOM     41  C   UNL A   1      41.341  24.590  25.867  1.00  0.00     0.029 A 
ATOM     42  C   UNL A   1      42.552  24.358  26.637  1.00  0.00     0.049 A 
ATOM     43  H   UNL A   1      43.554  25.787  27.799  1.00  0.00     0.167 HD
ATOM     44  C   UNL A   1      44.677  27.851  31.555  1.00  0.00     0.037 A 
ATOM     45  C   UNL A   1      43.287  23.226  26.769  1.00  0.00     0.037 A 
ATOM     46  C   UNL A   1      45.745  28.136  30.637  1.00  0.00     0.049 A 
ATOM     47  C   UNL A   1      44.544  23.572  27.476  1.00  0.00     0.074 A 
ATOM     48  C   UNL A   1      46.115  29.235  29.885  1.00  0.00     0.029 A 
ATOM     49  N   UNL A   1      46.475  27.088  30.138  1.00  0.00    -0.354 N 
ATOM     50  N   UNL A   1      45.511  24.274  26.962  1.00  0.00    -0.248 NA
ATOM     51  C   UNL A   1      44.555  23.465  28.929  1.00  0.00     0.031 C 
ATOM     52  C   UNL A   1      46.657  28.696  28.683  1.00  0.00     0.029 A 
ATOM     53  C   UNL A   1      46.607  27.306  28.792  1.00  0.00     0.049 A 
ATOM     54  H   UNL A   1      46.835  26.327  30.647  1.00  0.00     0.167 HD
ATOM     55  C   UNL A   1      45.994  25.035  28.015  1.00  0.00     0.074 A 
ATOM     56  C   UNL A   1      45.445  24.417  29.217  1.00  0.00     0.031 C 
ATOM     57  C   UNL A   1      46.560  26.259  27.802  1.00  0.00     0.037 A 
BRANCH  44  58
ATOM     58  C   UNL A   1      44.888  27.100  32.849  1.00  0.00     0.057 A 
ATOM     59  C   UNL A   1      44.467  25.762  32.949  1.00  0.00     0.134 A 
ATOM     60  C   UNL A   1      45.213  27.715  34.078  1.00  0.00     0.134 A 
ATOM     61  F   UNL A   1      44.113  25.069  31.857  1.00  0.00    -0.206 F 
ATOM     62  C   UNL A   1      44.307  25.116  34.182  1.00  0.00     0.040 A 
ATOM     63  C   UNL A   1      45.112  27.061  35.308  1.00  0.00     0.040 A 
ATOM     64  F   UNL A   1      45.546  29.008  34.172  1.00  0.00    -0.206 F 
ATOM     65  C   UNL A   1      44.623  25.768  35.366  1.00  0.00     0.006 A 
ENDBRANCH  44  58
BRANCH  45  66
ATOM     66  C   UNL A   1      42.848  21.823  26.592  1.00  0.00     0.057 A 
ATOM     67  C   UNL A   1      43.496  20.967  25.690  1.00  0.00     0.134 A 
ATOM     68  C   UNL A   1      41.940  21.211  27.476  1.00  0.00     0.134 A 
ATOM     69  F   UNL A   1      44.416  21.445  24.841  1.00  0.00    -0.206 F 
ATOM     70  C   UNL A   1      43.261  19.586  25.673  1.00  0.00     0.040 A 
ATOM     71  C   UNL A   1      41.684  19.837  27.460  1.00  0.00     0.040 A 
ATOM     72  F   UNL A   1      41.332  21.914  28.443  1.00  0.00    -0.206 F 
ATOM     73  C   UNL A   1      42.356  19.016  26.563  1.00  0.00     0.006 A 
ENDBRANCH  45  66
BRANCH  57  74
ATOM     74  C   UNL A   1      46.884  26.646  26.387  1.00  0.00     0.057 A 
ATOM     75  C   UNL A   1      46.015  27.372  25.559  1.00  0.00     0.134 A 
ATOM     76  C   UNL A   1      48.171  26.403  25.895  1.00  0.00     0.134 A 
ATOM     77  F   UNL A   1      44.803  27.750  25.985  1.00  0.00    -0.206 F 
ATOM     78  C   UNL A   1      46.390  27.787  24.279  1.00  0.00     0.040 A 
ATOM     79  C   UNL A   1      48.572  26.846  24.632  1.00  0.00     0.040 A 
ATOM     80  F   UNL A   1      49.078  25.769  26.656  1.00  0.00    -0.206 F 
ATOM     81  C   UNL A   1      47.676  27.530  23.815  1.00  0.00     0.006 A 
ENDBRANCH  57  74
ENDBRANCH  31  32
ENDBRANCH  24  26
ENDBRANCH  23  24
ENDBRANCH  22  23
ENDBRANCH   1  22
TORSDOF 15
ENDMDL
MODEL 2
REMARK VINA RESULT:     -11.5      1.408      2.192
REMARK SMILES CCc1nn(-c2ccc(Cl)nn2)c(CC)c1CC(=O)OCCOC(=O)c1ccc(-c2c3nc(c(-c4c(F)cccc4F)c4ccc([nH]4)c(-c4c(F)cccc4F)c4nc(c(-c5c(F)cccc5F)c5ccc2[nH]5)C=C4)C=C3)cc1
REMARK SMILES IDX 21 1 20 2 18 3 19 4 17 5 16 6 3 7 4 8 5 9 13 10 2 11 1 12
REMARK SMILES IDX 6 13 7 14 12 15 8 16 11 17 9 18 10 19 14 20 15 21 22 22
REMARK SMILES IDX 23 23 24 24 25 25 26 26 27 27 79 28 28 29 78 30 29 31 30 32
REMARK SMILES IDX 31 33 72 34 32 35 77 36 71 37 73 38 33 39 76 40 70 41 69 42
REMARK SMILES IDX 34 44 60 45 43 46 59 47 44 48 47 49 58 50 74 51 45 52 46 53
REMARK SMILES IDX 57 55 75 56 48 57 35 58 36 59 41 60 37 61 38 62 40 63 42 64
REMARK SMILES IDX 39 65 61 66 62 67 67 68 63 69 64 70 66 71 68 72 65 73 49 74
REMARK SMILES IDX 50 75 55 76 51 77 52 78 54 79 56 80 53 81
REMARK H PARENT 73 43 47 54
REMARK Flexibility Score: inf
ROOT
ATOM      1  C   UNL A   1      33.742  29.796  26.683  1.00  0.00     0.274 C 
ENDROOT
BRANCH   1   2
ATOM      2  O   UNL A   1      32.541  29.587  27.446  1.00  0.00    -0.462 OA
BRANCH   2   3
ATOM      3  C   UNL A   1      31.748  28.551  27.058  1.00  0.00     0.310 C 
ATOM      4  O   UNL A   1      31.061  27.877  27.818  1.00  0.00    -0.252 OA
BRANCH   3   5
ATOM      5  C   UNL A   1      31.721  28.399  25.553  1.00  0.00     0.162 C 
BRANCH   5   6
ATOM      6  C   UNL A   1      31.195  27.083  25.054  1.00  0.00     0.008 A 
ATOM      7  C   UNL A   1      30.103  26.873  24.165  1.00  0.00     0.067 A 
ATOM      8  N   UNL A   1      29.954  25.579  23.847  1.00  0.00    -0.171 NA
ATOM      9  N   UNL A   1      30.945  24.942  24.508  1.00  0.00    -0.217 N 
ATOM     10  C   UNL A   1      31.718  25.813  25.257  1.00  0.00     0.050 A 
BRANCH   7  11
ATOM     11  C   UNL A   1      29.232  27.911  23.531  1.00  0.00     0.055 C 
ATOM     12  C   UNL A   1      29.921  28.696  22.429  1.00  0.00     0.011 C 
ENDBRANCH   7  11
BRANCH   9  13
ATOM     13  C   UNL A   1      31.207  23.561  24.325  1.00  0.00     0.176 A 
ATOM     14  C   UNL A   1      31.053  22.708  25.413  1.00  0.00     0.054 A 
ATOM     15  N   UNL A   1      31.925  23.202  23.233  1.00  0.00    -0.129 NA
ATOM     16  C   UNL A   1      31.698  21.473  25.386  1.00  0.00     0.047 A 
ATOM     17  N   UNL A   1      32.536  21.972  23.199  1.00  0.00    -0.136 NA
ATOM     18  C   UNL A   1      32.437  21.153  24.265  1.00  0.00     0.151 A 
ATOM     19  Cl  UNL A   1      33.342  19.704  24.173  1.00  0.00    -0.060 Cl
ENDBRANCH   9  13
BRANCH  10  20
ATOM     20  C   UNL A   1      32.935  25.375  26.003  1.00  0.00     0.053 C 
ATOM     21  C   UNL A   1      34.219  25.515  25.196  1.00  0.00     0.011 C 
ENDBRANCH  10  20
ENDBRANCH   5   6
ENDBRANCH   3   5
ENDBRANCH   2   3
ENDBRANCH   1   2
BRANCH   1  22
ATOM     22  C   UNL A   1      34.909  29.331  27.546  1.00  0.00     0.275 C 
BRANCH  22  23
ATOM     23  O   UNL A   1      35.880  30.372  27.792  1.00  0.00    -0.458 OA
BRANCH  23  24
ATOM     24  C   UNL A   1      36.644  30.213  28.902  1.00  0.00     0.338 C 
ATOM     25  O   UNL A   1      36.487  30.781  29.961  1.00  0.00    -0.246 OA
BRANCH  24  26
ATOM     26  C   UNL A   1      37.816  29.363  28.599  1.00  0.00     0.060 A 
ATOM     27  C   UNL A   1      38.081  28.299  29.468  1.00  0.00     0.016 A 
ATOM     28  C   UNL A   1      38.734  29.721  27.608  1.00  0.00     0.016 A 
ATOM     29  C   UNL A   1      39.342  27.725  29.472  1.00  0.00     0.010 A 
ATOM     30  C   UNL A   1      39.970  29.097  27.567  1.00  0.00     0.010 A 
ATOM     31  C   UNL A   1      40.301  28.152  28.544  1.00  0.00    -0.014 A 
BRANCH  31  32
ATOM     32  C   UNL A   1      41.568  27.419  28.481  1.00  0.00     0.031 A 
ATOM     33  C   UNL A   1      42.436  27.615  29.685  1.00  0.00     0.074 A 
ATOM     34  C   UNL A   1      41.829  26.472  27.557  1.00  0.00     0.049 A 
ATOM     35  N   UNL A   1      43.700  27.880  29.756  1.00  0.00    -0.248 NA
ATOM     36  C   UNL A   1      41.750  27.620  30.995  1.00  0.00     0.031 C 
ATOM     37  C   UNL A   1      40.935  25.978  26.503  1.00  0.00     0.029 A 
ATOM     38  N   UNL A   1      42.895  25.626  27.472  1.00  0.00    -0.354 N 
ATOM     39  C   UNL A   1      43.999  27.921  31.118  1.00  0.00     0.074 A 
ATOM     40  C   UNL A   1      42.747  27.921  31.822  1.00  0.00     0.031 C 
ATOM     41  C   UNL A   1      41.373  24.772  26.085  1.00  0.00     0.029 A 
ATOM     42  C   UNL A   1      42.626  24.467  26.755  1.00  0.00     0.049 A 
ATOM     43  H   UNL A   1      43.770  25.818  27.880  1.00  0.00     0.167 HD
ATOM     44  C   UNL A   1      45.253  27.714  31.600  1.00  0.00     0.037 A 
ATOM     45  C   UNL A   1      43.322  23.304  26.798  1.00  0.00     0.037 A 
ATOM     46  C   UNL A   1      46.260  27.986  30.613  1.00  0.00     0.049 A 
ATOM     47  C   UNL A   1      44.641  23.576  27.419  1.00  0.00     0.074 A 
ATOM     48  C   UNL A   1      46.620  29.093  29.868  1.00  0.00     0.029 A 
ATOM     49  N   UNL A   1      46.908  26.926  30.030  1.00  0.00    -0.354 N 
ATOM     50  N   UNL A   1      45.596  24.256  26.854  1.00  0.00    -0.248 NA
ATOM     51  C   UNL A   1      44.754  23.423  28.863  1.00  0.00     0.031 C 
ATOM     52  C   UNL A   1      47.049  28.572  28.613  1.00  0.00     0.029 A 
ATOM     53  C   UNL A   1      46.949  27.183  28.685  1.00  0.00     0.049 A 
ATOM     54  H   UNL A   1      47.273  26.136  30.488  1.00  0.00     0.167 HD
ATOM     55  C   UNL A   1      46.186  24.964  27.890  1.00  0.00     0.074 A 
ATOM     56  C   UNL A   1      45.702  24.329  29.111  1.00  0.00     0.031 C 
ATOM     57  C   UNL A   1      46.785  26.171  27.671  1.00  0.00     0.037 A 
BRANCH  44  58
ATOM     58  C   UNL A   1      45.526  26.913  32.852  1.00  0.00     0.057 A 
ATOM     59  C   UNL A   1      46.403  27.426  33.823  1.00  0.00     0.134 A 
ATOM     60  C   UNL A   1      45.200  25.548  33.006  1.00  0.00     0.134 A 
ATOM     61  F   UNL A   1      46.805  28.705  33.781  1.00  0.00    -0.206 F 
ATOM     62  C   UNL A   1      46.971  26.622  34.821  1.00  0.00     0.040 A 
ATOM     63  C   UNL A   1      45.717  24.751  34.030  1.00  0.00     0.040 A 
ATOM     64  F   UNL A   1      44.450  24.881  32.120  1.00  0.00    -0.206 F 
ATOM     65  C   UNL A   1      46.634  25.279  34.921  1.00  0.00     0.006 A 
ENDBRANCH  44  58
BRANCH  45  66
ATOM     66  C   UNL A   1      42.813  21.925  26.614  1.00  0.00     0.057 A 
ATOM     67  C   UNL A   1      43.422  21.040  25.713  1.00  0.00     0.134 A 
ATOM     68  C   UNL A   1      41.869  21.358  27.490  1.00  0.00     0.134 A 
ATOM     69  F   UNL A   1      44.370  21.473  24.870  1.00  0.00    -0.206 F 
ATOM     70  C   UNL A   1      43.117  19.673  25.689  1.00  0.00     0.040 A 
ATOM     71  C   UNL A   1      41.544  19.998  27.468  1.00  0.00     0.040 A 
ATOM     72  F   UNL A   1      41.292  22.087  28.456  1.00  0.00    -0.206 F 
ATOM     73  C   UNL A   1      42.178  19.147  26.572  1.00  0.00     0.006 A 
ENDBRANCH  45  66
BRANCH  57  74
ATOM     74  C   UNL A   1      47.020  26.590  26.248  1.00  0.00     0.057 A 
ATOM     75  C   UNL A   1      46.119  27.369  25.506  1.00  0.00     0.134 A 
ATOM     76  C   UNL A   1      48.259  26.320  25.657  1.00  0.00     0.134 A 
ATOM     77  F   UNL A   1      44.955  27.773  26.030  1.00  0.00    -0.206 F 
ATOM     78  C   UNL A   1      46.415  27.810  24.214  1.00  0.00     0.040 A 
ATOM     79  C   UNL A   1      48.583  26.788  24.381  1.00  0.00     0.040 A 
ATOM     80  F   UNL A   1      49.195  25.634  26.331  1.00  0.00    -0.206 F 
ATOM     81  C   UNL A   1      47.655  27.526  23.650  1.00  0.00     0.006 A 
ENDBRANCH  57  74
ENDBRANCH  31  32
ENDBRANCH  24  26
ENDBRANCH  23  24
ENDBRANCH  22  23
ENDBRANCH   1  22
TORSDOF 15
ENDMDL
MODEL 3
REMARK VINA RESULT:     -11.4      5.461     10.025
REMARK SMILES CCc1nn(-c2ccc(Cl)nn2)c(CC)c1CC(=O)OCCOC(=O)c1ccc(-c2c3nc(c(-c4c(F)cccc4F)c4ccc([nH]4)c(-c4c(F)cccc4F)c4nc(c(-c5c(F)cccc5F)c5ccc2[nH]5)C=C4)C=C3)cc1
REMARK SMILES IDX 21 1 20 2 18 3 19 4 17 5 16 6 3 7 4 8 5 9 13 10 2 11 1 12
REMARK SMILES IDX 6 13 7 14 12 15 8 16 11 17 9 18 10 19 14 20 15 21 22 22
REMARK SMILES IDX 23 23 24 24 25 25 26 26 27 27 79 28 28 29 78 30 29 31 30 32
REMARK SMILES IDX 31 33 72 34 32 35 77 36 71 37 73 38 33 39 76 40 70 41 69 42
REMARK SMILES IDX 34 44 60 45 43 46 59 47 44 48 47 49 58 50 74 51 45 52 46 53
REMARK SMILES IDX 57 55 75 56 48 57 35 58 36 59 41 60 37 61 38 62 40 63 42 64
REMARK SMILES IDX 39 65 61 66 62 67 67 68 63 69 64 70 66 71 68 72 65 73 49 74
REMARK SMILES IDX 50 75 55 76 51 77 52 78 54 79 56 80 53 81
REMARK H PARENT 73 43 47 54
REMARK Flexibility Score: inf
ROOT
ATOM      1  C   UNL A   1      36.856  23.884  25.425  1.00  0.00     0.274 C 
ENDROOT
BRANCH   1   2
ATOM      2  O   UNL A   1      36.310  22.710  24.800  1.00  0.00    -0.462 OA
BRANCH   2   3
ATOM      3  C   UNL A   1      35.591  22.905  23.662  1.00  0.00     0.310 C 
ATOM      4  O   UNL A   1      36.078  23.054  22.546  1.00  0.00    -0.252 OA
BRANCH   3   5
ATOM      5  C   UNL A   1      34.103  22.802  23.915  1.00  0.00     0.162 C 
BRANCH   5   6
ATOM      6  C   UNL A   1      33.491  23.983  24.612  1.00  0.00     0.008 A 
ATOM      7  C   UNL A   1      32.932  24.017  25.921  1.00  0.00     0.067 A 
ATOM      8  N   UNL A   1      32.557  25.253  26.277  1.00  0.00    -0.171 NA
ATOM      9  N   UNL A   1      32.876  26.032  25.221  1.00  0.00    -0.217 N 
ATOM     10  C   UNL A   1      33.438  25.303  24.187  1.00  0.00     0.050 A 
BRANCH   7  11
ATOM     11  C   UNL A   1      32.824  22.885  26.894  1.00  0.00     0.055 C 
ATOM     12  C   UNL A   1      34.125  22.571  27.613  1.00  0.00     0.011 C 
ENDBRANCH   7  11
BRANCH   9  13
ATOM     13  C   UNL A   1      32.752  27.443  25.260  1.00  0.00     0.176 A 
ATOM     14  C   UNL A   1      33.620  28.163  26.075  1.00  0.00     0.054 A 
ATOM     15  N   UNL A   1      31.595  27.980  24.802  1.00  0.00    -0.129 NA
ATOM     16  C   UNL A   1      33.256  29.451  26.460  1.00  0.00     0.047 A 
ATOM     17  N   UNL A   1      31.254  29.260  25.161  1.00  0.00    -0.136 NA
ATOM     18  C   UNL A   1      32.060  29.954  25.989  1.00  0.00     0.151 A 
ATOM     19  Cl  UNL A   1      31.479  31.487  26.479  1.00  0.00    -0.060 Cl
ENDBRANCH   9  13
BRANCH  10  20
ATOM     20  C   UNL A   1      33.968  25.942  22.944  1.00  0.00     0.053 C 
ATOM     21  C   UNL A   1      32.964  25.957  21.799  1.00  0.00     0.011 C 
ENDBRANCH  10  20
ENDBRANCH   5   6
ENDBRANCH   3   5
ENDBRANCH   2   3
ENDBRANCH   1   2
BRANCH   1  22
ATOM     22  C   UNL A   1      38.187  23.484  26.049  1.00  0.00     0.275 C 
BRANCH  22  23
ATOM     23  O   UNL A   1      39.095  24.596  26.205  1.00  0.00    -0.458 OA
BRANCH  23  24
ATOM     24  C   UNL A   1      39.769  24.646  27.382  1.00  0.00     0.338 C 
ATOM     25  O   UNL A   1      40.441  23.756  27.854  1.00  0.00    -0.246 OA
BRANCH  24  26
ATOM     26  C   UNL A   1      39.438  25.891  28.108  1.00  0.00     0.060 A 
ATOM     27  C   UNL A   1      39.503  27.091  27.390  1.00  0.00     0.016 A 
ATOM     28  C   UNL A   1      39.265  25.898  29.495  1.00  0.00     0.016 A 
ATOM     29  C   UNL A   1      39.591  28.290  28.079  1.00  0.00     0.010 A 
ATOM     30  C   UNL A   1      39.281  27.103  30.177  1.00  0.00     0.010 A 
ATOM     31  C   UNL A   1      39.518  28.292  29.478  1.00  0.00    -0.014 A 
BRANCH  31  32
ATOM     32  C   UNL A   1      39.463  29.587  30.160  1.00  0.00     0.031 A 
ATOM     33  C   UNL A   1      40.765  30.328  30.146  1.00  0.00     0.074 A 
ATOM     34  C   UNL A   1      38.311  30.171  30.546  1.00  0.00     0.049 A 
ATOM     35  N   UNL A   1      41.380  30.929  31.112  1.00  0.00    -0.248 NA
ATOM     36  C   UNL A   1      41.530  30.289  28.883  1.00  0.00     0.031 C 
ATOM     37  C   UNL A   1      36.944  29.677  30.342  1.00  0.00     0.029 A 
ATOM     38  N   UNL A   1      38.110  31.420  31.054  1.00  0.00    -0.354 N 
ATOM     39  C   UNL A   1      42.527  31.482  30.539  1.00  0.00     0.074 A 
ATOM     40  C   UNL A   1      42.649  30.921  29.223  1.00  0.00     0.031 C 
ATOM     41  C   UNL A   1      36.081  30.708  30.463  1.00  0.00     0.029 A 
ATOM     42  C   UNL A   1      36.819  31.896  30.859  1.00  0.00     0.049 A 
ATOM     43  H   UNL A   1      38.811  31.936  31.514  1.00  0.00     0.167 HD
ATOM     44  C   UNL A   1      43.178  32.543  31.083  1.00  0.00     0.037 A 
ATOM     45  C   UNL A   1      36.412  33.189  30.909  1.00  0.00     0.037 A 
ATOM     46  C   UNL A   1      42.919  32.672  32.489  1.00  0.00     0.049 A 
ATOM     47  C   UNL A   1      37.464  33.979  31.593  1.00  0.00     0.074 A 
ATOM     48  C   UNL A   1      43.109  31.861  33.593  1.00  0.00     0.029 A 
ATOM     49  N   UNL A   1      42.085  33.676  32.912  1.00  0.00    -0.354 N 
ATOM     50  N   UNL A   1      37.739  33.899  32.863  1.00  0.00    -0.248 NA
ATOM     51  C   UNL A   1      38.500  34.585  30.768  1.00  0.00     0.031 C 
ATOM     52  C   UNL A   1      42.006  32.139  34.451  1.00  0.00     0.029 A 
ATOM     53  C   UNL A   1      41.232  33.118  33.829  1.00  0.00     0.049 A 
ATOM     54  H   UNL A   1      42.096  34.613  32.615  1.00  0.00     0.167 HD
ATOM     55  C   UNL A   1      39.116  34.046  32.936  1.00  0.00     0.074 A 
ATOM     56  C   UNL A   1      39.514  34.573  31.635  1.00  0.00     0.031 C 
ATOM     57  C   UNL A   1      39.837  33.463  33.938  1.00  0.00     0.037 A 
BRANCH  44  58
ATOM     58  C   UNL A   1      43.752  33.666  30.249  1.00  0.00     0.057 A 
ATOM     59  C   UNL A   1      45.077  34.080  30.464  1.00  0.00     0.134 A 
ATOM     60  C   UNL A   1      42.975  34.542  29.459  1.00  0.00     0.134 A 
ATOM     61  F   UNL A   1      45.915  33.346  31.211  1.00  0.00    -0.206 F 
ATOM     62  C   UNL A   1      45.565  35.307  29.995  1.00  0.00     0.040 A 
ATOM     63  C   UNL A   1      43.468  35.740  28.939  1.00  0.00     0.040 A 
ATOM     64  F   UNL A   1      41.671  34.343  29.231  1.00  0.00    -0.206 F 
ATOM     65  C   UNL A   1      44.758  36.144  29.237  1.00  0.00     0.006 A 
ENDBRANCH  44  58
BRANCH  45  66
ATOM     66  C   UNL A   1      35.319  33.835  30.147  1.00  0.00     0.057 A 
ATOM     67  C   UNL A   1      34.259  34.480  30.801  1.00  0.00     0.134 A 
ATOM     68  C   UNL A   1      35.406  34.049  28.759  1.00  0.00     0.134 A 
ATOM     69  F   UNL A   1      34.119  34.379  32.130  1.00  0.00    -0.206 F 
ATOM     70  C   UNL A   1      33.347  35.294  30.118  1.00  0.00     0.040 A 
ATOM     71  C   UNL A   1      34.493  34.847  28.063  1.00  0.00     0.040 A 
ATOM     72  F   UNL A   1      36.429  33.560  28.044  1.00  0.00    -0.206 F 
ATOM     73  C   UNL A   1      33.465  35.484  28.745  1.00  0.00     0.006 A 
ENDBRANCH  45  66
BRANCH  57  74
ATOM     74  C   UNL A   1      39.082  32.881  35.099  1.00  0.00     0.057 A 
ATOM     75  C   UNL A   1      38.680  31.539  35.175  1.00  0.00     0.134 A 
ATOM     76  C   UNL A   1      38.883  33.667  36.240  1.00  0.00     0.134 A 
ATOM     77  F   UNL A   1      38.930  30.682  34.176  1.00  0.00    -0.206 F 
ATOM     78  C   UNL A   1      38.056  31.019  36.311  1.00  0.00     0.040 A 
ATOM     79  C   UNL A   1      38.295  33.148  37.397  1.00  0.00     0.040 A 
ATOM     80  F   UNL A   1      39.298  34.943  36.265  1.00  0.00    -0.206 F 
ATOM     81  C   UNL A   1      37.869  31.823  37.431  1.00  0.00     0.006 A 
ENDBRANCH  57  74
ENDBRANCH  31  32
ENDBRANCH  24  26
ENDBRANCH  23  24
ENDBRANCH  22  23
ENDBRANCH   1  22
TORSDOF 15
ENDMDL
