MODEL 1
REMARK VINA RESULT:     -12.6      0.000      0.000
REMARK SMILES NS(=O)(=O)c1ccc(-n2nc(C(F)(F)F)cc2-c2ccc(C(=O)OCCOC(=O)c3ccc(-c4c5nc(c(-c6c(F)cccc6F)c6ccc([nH]6)c(-c6c(F)cccc6F)c6nc(c(-c7c(F)cccc7F)c7ccc4[nH]7)C=C6)C=C5)cc3)cc2)cc1
REMARK SMILES IDX 25 1 24 2 22 3 23 4 21 5 18 6 19 7 85 8 20 9 84 10 17 11
REMARK SMILES IDX 9 12 10 13 11 14 16 15 8 16 5 17 6 18 87 19 7 20 86 21 2 22
REMARK SMILES IDX 3 23 4 24 1 25 12 28 13 29 14 30 15 31 26 32 27 33 28 34
REMARK SMILES IDX 29 35 30 36 31 37 83 38 32 39 82 40 33 41 34 42 35 43 76 44
REMARK SMILES IDX 36 45 81 46 75 47 77 48 37 49 80 50 74 51 73 52 38 54 64 55
REMARK SMILES IDX 47 56 63 57 48 58 51 59 62 60 78 61 49 62 50 63 61 65 79 66
REMARK SMILES IDX 52 67 39 68 40 69 45 70 41 71 42 72 44 73 46 74 43 75 65 76
REMARK SMILES IDX 66 77 71 78 67 79 68 80 70 81 72 82 69 83 53 84 54 85 59 86
REMARK SMILES IDX 55 87 56 88 58 89 60 90 57 91
REMARK H PARENT 1 26 1 27 77 53 51 64
REMARK Flexibility Score: inf
ROOT
ATOM      1  C   UNL A   1      40.526  20.124  26.707  1.00  0.00     0.275 C 
ENDROOT
BRANCH   1   2
ATOM      2  O   UNL A   1      39.512  20.733  25.893  1.00  0.00    -0.458 OA
BRANCH   2   3
ATOM      3  C   UNL A   1      39.301  22.056  26.111  1.00  0.00     0.338 C 
ATOM      4  O   UNL A   1      40.097  22.847  26.593  1.00  0.00    -0.246 OA
BRANCH   3   5
ATOM      5  C   UNL A   1      37.978  22.464  25.581  1.00  0.00     0.060 A 
ATOM      6  C   UNL A   1      35.403  23.165  24.729  1.00  0.00     0.000 A 
ATOM      7  C   UNL A   1      35.907  23.666  25.938  1.00  0.00     0.011 A 
ATOM      8  C   UNL A   1      36.215  22.356  23.927  1.00  0.00     0.011 A 
ATOM      9  C   UNL A   1      37.189  23.319  26.362  1.00  0.00     0.016 A 
ATOM     10  C   UNL A   1      37.501  22.013  24.345  1.00  0.00     0.016 A 
BRANCH   6  11
ATOM     11  C   UNL A   1      34.009  23.397  24.361  1.00  0.00     0.075 A 
ATOM     12  N   UNL A   1      33.090  22.431  23.975  1.00  0.00    -0.233 N 
ATOM     13  N   UNL A   1      32.005  22.984  23.368  1.00  0.00    -0.163 NA
ATOM     14  C   UNL A   1      32.143  24.313  23.546  1.00  0.00     0.167 A 
ATOM     15  C   UNL A   1      33.390  24.611  24.142  1.00  0.00     0.064 A 
BRANCH  12  16
ATOM     16  C   UNL A   1      33.189  21.023  24.128  1.00  0.00     0.065 A 
ATOM     17  C   UNL A   1      33.471  18.257  24.317  1.00  0.00     0.082 A 
ATOM     18  C   UNL A   1      34.200  19.083  25.176  1.00  0.00     0.024 A 
ATOM     19  C   UNL A   1      32.572  18.804  23.392  1.00  0.00     0.024 A 
ATOM     20  C   UNL A   1      34.071  20.470  25.069  1.00  0.00     0.030 A 
ATOM     21  C   UNL A   1      32.413  20.190  23.313  1.00  0.00     0.030 A 
BRANCH  17  22
ATOM     22  S   UNL A   1      33.609  16.495  24.444  1.00  0.00     0.238 S 
ATOM     23  O   UNL A   1      34.027  15.966  23.170  1.00  0.00    -0.207 OA
ATOM     24  O   UNL A   1      32.459  15.983  25.160  1.00  0.00    -0.207 OA
BRANCH  22  25
ATOM     25  N   UNL A   1      34.917  16.313  25.481  1.00  0.00    -0.225 NA
ATOM     26  H   UNL A   1      35.147  17.214  25.901  1.00  0.00     0.137 HD
ATOM     27  H   UNL A   1      35.721  15.966  24.957  1.00  0.00     0.137 HD
ENDBRANCH  22  25
ENDBRANCH  17  22
ENDBRANCH  12  16
BRANCH  14  28
ATOM     28  C   UNL A   1      31.110  25.323  23.123  1.00  0.00     0.435 C 
ATOM     29  F   UNL A   1      31.081  26.424  23.918  1.00  0.00    -0.164 F 
ATOM     30  F   UNL A   1      31.306  25.752  21.847  1.00  0.00    -0.164 F 
ATOM     31  F   UNL A   1      29.853  24.794  23.155  1.00  0.00    -0.164 F 
ENDBRANCH  14  28
ENDBRANCH   6  11
ENDBRANCH   3   5
ENDBRANCH   2   3
ENDBRANCH   1   2
BRANCH   1  32
ATOM     32  C   UNL A   1      41.750  19.766  25.877  1.00  0.00     0.275 C 
BRANCH  32  33
ATOM     33  O   UNL A   1      42.894  20.499  26.307  1.00  0.00    -0.458 OA
BRANCH  33  34
ATOM     34  C   UNL A   1      43.681  20.973  25.316  1.00  0.00     0.338 C 
ATOM     35  O   UNL A   1      44.271  20.333  24.462  1.00  0.00    -0.246 OA
BRANCH  34  36
ATOM     36  C   UNL A   1      43.963  22.385  25.581  1.00  0.00     0.060 A 
ATOM     37  C   UNL A   1      44.722  22.676  26.718  1.00  0.00     0.016 A 
ATOM     38  C   UNL A   1      43.182  23.354  24.935  1.00  0.00     0.016 A 
ATOM     39  C   UNL A   1      44.518  23.889  27.336  1.00  0.00     0.010 A 
ATOM     40  C   UNL A   1      42.971  24.556  25.560  1.00  0.00     0.010 A 
ATOM     41  C   UNL A   1      43.571  24.768  26.796  1.00  0.00    -0.014 A 
BRANCH  41  42
ATOM     42  C   UNL A   1      43.319  26.015  27.481  1.00  0.00     0.031 A 
ATOM     43  C   UNL A   1      44.338  27.034  27.142  1.00  0.00     0.074 A 
ATOM     44  C   UNL A   1      42.204  26.228  28.205  1.00  0.00     0.049 A 
ATOM     45  N   UNL A   1      45.250  27.518  27.916  1.00  0.00    -0.248 NA
ATOM     46  C   UNL A   1      44.509  27.382  25.720  1.00  0.00     0.031 C 
ATOM     47  C   UNL A   1      41.035  25.359  28.362  1.00  0.00     0.029 A 
ATOM     48  N   UNL A   1      41.842  27.349  28.885  1.00  0.00    -0.354 N 
ATOM     49  C   UNL A   1      45.941  28.433  27.129  1.00  0.00     0.074 A 
ATOM     50  C   UNL A   1      45.610  28.131  25.764  1.00  0.00     0.031 C 
ATOM     51  C   UNL A   1      40.012  26.074  28.886  1.00  0.00     0.029 A 
ATOM     52  C   UNL A   1      40.490  27.403  29.218  1.00  0.00     0.049 A 
ATOM     53  H   UNL A   1      42.479  28.061  29.120  1.00  0.00     0.167 HD
ATOM     54  C   UNL A   1      46.474  29.555  27.680  1.00  0.00     0.037 A 
ATOM     55  C   UNL A   1      39.837  28.514  29.650  1.00  0.00     0.037 A 
ATOM     56  C   UNL A   1      46.631  29.408  29.106  1.00  0.00     0.049 A 
ATOM     57  C   UNL A   1      40.873  29.465  30.142  1.00  0.00     0.074 A 
ATOM     58  C   UNL A   1      47.303  28.508  29.913  1.00  0.00     0.029 A 
ATOM     59  N   UNL A   1      45.704  30.015  29.918  1.00  0.00    -0.354 N 
ATOM     60  N   UNL A   1      41.594  29.248  31.209  1.00  0.00    -0.248 NA
ATOM     61  C   UNL A   1      41.458  30.376  29.167  1.00  0.00     0.031 C 
ATOM     62  C   UNL A   1      46.414  28.258  30.999  1.00  0.00     0.029 A 
ATOM     63  C   UNL A   1      45.304  29.088  30.848  1.00  0.00     0.049 A 
ATOM     64  H   UNL A   1      45.386  30.945  29.848  1.00  0.00     0.167 HD
ATOM     65  C   UNL A   1      42.880  29.628  30.849  1.00  0.00     0.074 A 
ATOM     66  C   UNL A   1      42.724  30.363  29.594  1.00  0.00     0.031 C 
ATOM     67  C   UNL A   1      43.979  29.058  31.424  1.00  0.00     0.037 A 
BRANCH  54  68
ATOM     68  C   UNL A   1      46.453  30.897  26.992  1.00  0.00     0.057 A 
ATOM     69  C   UNL A   1      47.626  31.667  26.966  1.00  0.00     0.134 A 
ATOM     70  C   UNL A   1      45.279  31.583  26.609  1.00  0.00     0.134 A 
ATOM     71  F   UNL A   1      48.804  31.136  27.330  1.00  0.00    -0.206 F 
ATOM     72  C   UNL A   1      47.621  33.030  26.647  1.00  0.00     0.040 A 
ATOM     73  C   UNL A   1      45.271  32.928  26.236  1.00  0.00     0.040 A 
ATOM     74  F   UNL A   1      44.063  31.031  26.671  1.00  0.00    -0.206 F 
ATOM     75  C   UNL A   1      46.439  33.666  26.285  1.00  0.00     0.006 A 
ENDBRANCH  54  68
BRANCH  55  76
ATOM     76  C   UNL A   1      38.452  28.948  29.336  1.00  0.00     0.057 A 
ATOM     77  C   UNL A   1      37.491  29.107  30.346  1.00  0.00     0.134 A 
ATOM     78  C   UNL A   1      38.116  29.487  28.082  1.00  0.00     0.134 A 
ATOM     79  F   UNL A   1      37.733  28.670  31.591  1.00  0.00    -0.206 F 
ATOM     80  C   UNL A   1      36.277  29.776  30.126  1.00  0.00     0.040 A 
ATOM     81  C   UNL A   1      36.908  30.152  27.847  1.00  0.00     0.040 A 
ATOM     82  F   UNL A   1      38.986  29.466  27.062  1.00  0.00    -0.206 F 
ATOM     83  C   UNL A   1      35.987  30.311  28.875  1.00  0.00     0.006 A 
ENDBRANCH  55  76
BRANCH  67  84
ATOM     84  C   UNL A   1      43.775  28.151  32.608  1.00  0.00     0.057 A 
ATOM     85  C   UNL A   1      43.702  26.750  32.530  1.00  0.00     0.134 A 
ATOM     86  C   UNL A   1      43.822  28.705  33.892  1.00  0.00     0.134 A 
ATOM     87  F   UNL A   1      43.758  26.118  31.351  1.00  0.00    -0.206 F 
ATOM     88  C   UNL A   1      43.635  25.947  33.673  1.00  0.00     0.040 A 
ATOM     89  C   UNL A   1      43.792  27.914  35.042  1.00  0.00     0.040 A 
ATOM     90  F   UNL A   1      43.952  30.032  34.048  1.00  0.00    -0.206 F 
ATOM     91  C   UNL A   1      43.687  26.529  34.935  1.00  0.00     0.006 A 
ENDBRANCH  67  84
ENDBRANCH  41  42
ENDBRANCH  34  36
ENDBRANCH  33  34
ENDBRANCH  32  33
ENDBRANCH   1  32
TORSDOF 16
ENDMDL
MODEL 2
REMARK VINA RESULT:     -12.4      4.753      8.854
REMARK SMILES NS(=O)(=O)c1ccc(-n2nc(C(F)(F)F)cc2-c2ccc(C(=O)OCCOC(=O)c3ccc(-c4c5nc(c(-c6c(F)cccc6F)c6ccc([nH]6)c(-c6c(F)cccc6F)c6nc(c(-c7c(F)cccc7F)c7ccc4[nH]7)C=C6)C=C5)cc3)cc2)cc1
REMARK SMILES IDX 25 1 24 2 22 3 23 4 21 5 18 6 19 7 85 8 20 9 84 10 17 11
REMARK SMILES IDX 9 12 10 13 11 14 16 15 8 16 5 17 6 18 87 19 7 20 86 21 2 22
REMARK SMILES IDX 3 23 4 24 1 25 12 28 13 29 14 30 15 31 26 32 27 33 28 34
REMARK SMILES IDX 29 35 30 36 31 37 83 38 32 39 82 40 33 41 34 42 35 43 76 44
REMARK SMILES IDX 36 45 81 46 75 47 77 48 37 49 80 50 74 51 73 52 38 54 64 55
REMARK SMILES IDX 47 56 63 57 48 58 51 59 62 60 78 61 49 62 50 63 61 65 79 66
REMARK SMILES IDX 52 67 39 68 40 69 45 70 41 71 42 72 44 73 46 74 43 75 65 76
REMARK SMILES IDX 66 77 71 78 67 79 68 80 70 81 72 82 69 83 53 84 54 85 59 86
REMARK SMILES IDX 55 87 56 88 58 89 60 90 57 91
REMARK H PARENT 1 26 1 27 77 53 51 64
REMARK Flexibility Score: inf
ROOT
ATOM      1  C   UNL A   1      33.887  33.404  28.480  1.00  0.00     0.275 C 
ENDROOT
BRANCH   1   2
ATOM      2  O   UNL A   1      33.464  32.065  28.173  1.00  0.00    -0.458 OA
BRANCH   2   3
ATOM      3  C   UNL A   1      34.380  31.292  27.537  1.00  0.00     0.338 C 
ATOM      4  O   UNL A   1      35.545  31.585  27.311  1.00  0.00    -0.246 OA
BRANCH   3   5
ATOM      5  C   UNL A   1      33.808  29.959  27.229  1.00  0.00     0.060 A 
ATOM      6  C   UNL A   1      32.767  27.471  26.472  1.00  0.00     0.000 A 
ATOM      7  C   UNL A   1      34.107  27.786  26.205  1.00  0.00     0.011 A 
ATOM      8  C   UNL A   1      31.969  28.387  27.167  1.00  0.00     0.011 A 
ATOM      9  C   UNL A   1      34.626  29.024  26.583  1.00  0.00     0.016 A 
ATOM     10  C   UNL A   1      32.489  29.624  27.552  1.00  0.00     0.016 A 
BRANCH   6  11
ATOM     11  C   UNL A   1      32.179  26.246  25.940  1.00  0.00     0.075 A 
ATOM     12  N   UNL A   1      31.063  26.159  25.119  1.00  0.00    -0.233 N 
ATOM     13  N   UNL A   1      30.562  24.894  25.083  1.00  0.00    -0.163 NA
ATOM     14  C   UNL A   1      31.476  24.137  25.722  1.00  0.00     0.167 A 
ATOM     15  C   UNL A   1      32.488  24.946  26.288  1.00  0.00     0.064 A 
BRANCH  12  16
ATOM     16  C   UNL A   1      30.434  27.203  24.391  1.00  0.00     0.065 A 
ATOM     17  C   UNL A   1      29.128  29.284  23.075  1.00  0.00     0.082 A 
ATOM     18  C   UNL A   1      30.430  29.476  23.543  1.00  0.00     0.024 A 
ATOM     19  C   UNL A   1      28.491  28.045  23.225  1.00  0.00     0.024 A 
ATOM     20  C   UNL A   1      31.078  28.438  24.218  1.00  0.00     0.030 A 
ATOM     21  C   UNL A   1      29.154  26.995  23.863  1.00  0.00     0.030 A 
BRANCH  17  22
ATOM     22  S   UNL A   1      28.292  30.582  22.206  1.00  0.00     0.238 S 
ATOM     23  O   UNL A   1      27.293  31.156  23.071  1.00  0.00    -0.207 OA
ATOM     24  O   UNL A   1      27.993  30.132  20.863  1.00  0.00    -0.207 OA
BRANCH  22  25
ATOM     25  N   UNL A   1      29.498  31.740  22.048  1.00  0.00    -0.225 NA
ATOM     26  H   UNL A   1      29.233  32.580  22.563  1.00  0.00     0.137 HD
ATOM     27  H   UNL A   1      29.621  31.971  21.062  1.00  0.00     0.137 HD
ENDBRANCH  22  25
ENDBRANCH  17  22
ENDBRANCH  12  16
BRANCH  14  28
ATOM     28  C   UNL A   1      31.388  22.639  25.833  1.00  0.00     0.435 C 
ATOM     29  F   UNL A   1      32.118  22.134  26.861  1.00  0.00    -0.164 F 
ATOM     30  F   UNL A   1      30.107  22.213  26.001  1.00  0.00    -0.164 F 
ATOM     31  F   UNL A   1      31.843  22.027  24.702  1.00  0.00    -0.164 F 
ENDBRANCH  14  28
ENDBRANCH   6  11
ENDBRANCH   3   5
ENDBRANCH   2   3
ENDBRANCH   1   2
BRANCH   1  32
ATOM     32  C   UNL A   1      34.427  33.494  29.899  1.00  0.00     0.275 C 
BRANCH  32  33
ATOM     33  O   UNL A   1      34.396  32.222  30.542  1.00  0.00    -0.458 OA
BRANCH  33  34
ATOM     34  C   UNL A   1      35.436  31.967  31.367  1.00  0.00     0.338 C 
ATOM     35  O   UNL A   1      35.605  32.379  32.502  1.00  0.00    -0.246 OA
BRANCH  34  36
ATOM     36  C   UNL A   1      36.502  31.331  30.589  1.00  0.00     0.060 A 
ATOM     37  C   UNL A   1      36.468  29.938  30.492  1.00  0.00     0.016 A 
ATOM     38  C   UNL A   1      37.659  32.073  30.313  1.00  0.00     0.016 A 
ATOM     39  C   UNL A   1      37.663  29.274  30.333  1.00  0.00     0.010 A 
ATOM     40  C   UNL A   1      38.849  31.409  30.168  1.00  0.00     0.010 A 
ATOM     41  C   UNL A   1      38.845  30.023  30.271  1.00  0.00    -0.014 A 
BRANCH  41  42
ATOM     42  C   UNL A   1      40.102  29.318  30.162  1.00  0.00     0.031 A 
ATOM     43  C   UNL A   1      40.757  29.174  31.480  1.00  0.00     0.074 A 
ATOM     44  C   UNL A   1      40.513  28.749  29.013  1.00  0.00     0.049 A 
ATOM     45  N   UNL A   1      41.836  29.754  31.888  1.00  0.00    -0.248 NA
ATOM     46  C   UNL A   1      40.003  28.491  32.547  1.00  0.00     0.031 C 
ATOM     47  C   UNL A   1      39.792  28.626  27.743  1.00  0.00     0.029 A 
ATOM     48  N   UNL A   1      41.659  28.054  28.779  1.00  0.00    -0.354 N 
ATOM     49  C   UNL A   1      42.028  29.288  33.184  1.00  0.00     0.074 A 
ATOM     50  C   UNL A   1      40.774  28.729  33.607  1.00  0.00     0.031 C 
ATOM     51  C   UNL A   1      40.410  27.708  26.964  1.00  0.00     0.029 A 
ATOM     52  C   UNL A   1      41.631  27.280  27.620  1.00  0.00     0.049 A 
ATOM     53  H   UNL A   1      42.439  28.093  29.378  1.00  0.00     0.167 HD
ATOM     54  C   UNL A   1      43.282  29.118  33.679  1.00  0.00     0.037 A 
ATOM     55  C   UNL A   1      42.527  26.306  27.313  1.00  0.00     0.037 A 
ATOM     56  C   UNL A   1      44.245  29.882  32.926  1.00  0.00     0.049 A 
ATOM     57  C   UNL A   1      43.738  26.548  28.145  1.00  0.00     0.074 A 
ATOM     58  C   UNL A   1      44.383  31.224  32.620  1.00  0.00     0.029 A 
ATOM     59  N   UNL A   1      45.021  29.212  32.012  1.00  0.00    -0.354 N 
ATOM     60  N   UNL A   1      44.524  27.579  27.983  1.00  0.00    -0.248 NA
ATOM     61  C   UNL A   1      43.768  25.941  29.470  1.00  0.00     0.031 C 
ATOM     62  C   UNL A   1      44.800  31.247  31.257  1.00  0.00     0.029 A 
ATOM     63  C   UNL A   1      44.989  29.930  30.842  1.00  0.00     0.049 A 
ATOM     64  H   UNL A   1      45.511  28.372  32.166  1.00  0.00     0.167 HD
ATOM     65  C   UNL A   1      44.803  28.015  29.271  1.00  0.00     0.074 A 
ATOM     66  C   UNL A   1      44.350  26.935  30.147  1.00  0.00     0.031 C 
ATOM     67  C   UNL A   1      45.087  29.325  29.533  1.00  0.00     0.037 A 
BRANCH  54  68
ATOM     68  C   UNL A   1      43.666  27.954  34.558  1.00  0.00     0.057 A 
ATOM     69  C   UNL A   1      43.524  26.648  34.061  1.00  0.00     0.134 A 
ATOM     70  C   UNL A   1      43.895  28.042  35.949  1.00  0.00     0.134 A 
ATOM     71  F   UNL A   1      43.280  26.433  32.759  1.00  0.00    -0.206 F 
ATOM     72  C   UNL A   1      43.542  25.524  34.894  1.00  0.00     0.040 A 
ATOM     73  C   UNL A   1      43.970  26.923  36.781  1.00  0.00     0.040 A 
ATOM     74  F   UNL A   1      43.954  29.207  36.603  1.00  0.00    -0.206 F 
ATOM     75  C   UNL A   1      43.762  25.659  36.259  1.00  0.00     0.006 A 
ENDBRANCH  54  68
BRANCH  55  76
ATOM     76  C   UNL A   1      42.278  25.005  26.641  1.00  0.00     0.057 A 
ATOM     77  C   UNL A   1      43.034  24.600  25.530  1.00  0.00     0.134 A 
ATOM     78  C   UNL A   1      41.487  24.008  27.238  1.00  0.00     0.134 A 
ATOM     79  F   UNL A   1      43.857  25.463  24.917  1.00  0.00    -0.206 F 
ATOM     80  C   UNL A   1      43.018  23.280  25.055  1.00  0.00     0.040 A 
ATOM     81  C   UNL A   1      41.457  22.689  26.772  1.00  0.00     0.040 A 
ATOM     82  F   UNL A   1      40.782  24.255  28.351  1.00  0.00    -0.206 F 
ATOM     83  C   UNL A   1      42.236  22.316  25.683  1.00  0.00     0.006 A 
ENDBRANCH  55  76
BRANCH  67  84
ATOM     84  C   UNL A   1      45.295  30.257  28.370  1.00  0.00     0.057 A 
ATOM     85  C   UNL A   1      44.270  30.990  27.748  1.00  0.00     0.134 A 
ATOM     86  C   UNL A   1      46.604  30.551  27.973  1.00  0.00     0.134 A 
ATOM     87  F   UNL A   1      42.994  30.859  28.132  1.00  0.00    -0.206 F 
ATOM     88  C   UNL A   1      44.535  31.934  26.751  1.00  0.00     0.040 A 
ATOM     89  C   UNL A   1      46.885  31.516  27.004  1.00  0.00     0.040 A 
ATOM     90  F   UNL A   1      47.641  29.935  28.563  1.00  0.00    -0.206 F 
ATOM     91  C   UNL A   1      45.848  32.205  26.381  1.00  0.00     0.006 A 
ENDBRANCH  67  84
ENDBRANCH  41  42
ENDBRANCH  34  36
ENDBRANCH  33  34
ENDBRANCH  32  33
ENDBRANCH   1  32
TORSDOF 16
ENDMDL
MODEL 3
REMARK VINA RESULT:     -12.4      4.631      8.359
REMARK SMILES NS(=O)(=O)c1ccc(-n2nc(C(F)(F)F)cc2-c2ccc(C(=O)OCCOC(=O)c3ccc(-c4c5nc(c(-c6c(F)cccc6F)c6ccc([nH]6)c(-c6c(F)cccc6F)c6nc(c(-c7c(F)cccc7F)c7ccc4[nH]7)C=C6)C=C5)cc3)cc2)cc1
REMARK SMILES IDX 25 1 24 2 22 3 23 4 21 5 18 6 19 7 85 8 20 9 84 10 17 11
REMARK SMILES IDX 9 12 10 13 11 14 16 15 8 16 5 17 6 18 87 19 7 20 86 21 2 22
REMARK SMILES IDX 3 23 4 24 1 25 12 28 13 29 14 30 15 31 26 32 27 33 28 34
REMARK SMILES IDX 29 35 30 36 31 37 83 38 32 39 82 40 33 41 34 42 35 43 76 44
REMARK SMILES IDX 36 45 81 46 75 47 77 48 37 49 80 50 74 51 73 52 38 54 64 55
REMARK SMILES IDX 47 56 63 57 48 58 51 59 62 60 78 61 49 62 50 63 61 65 79 66
REMARK SMILES IDX 52 67 39 68 40 69 45 70 41 71 42 72 44 73 46 74 43 75 65 76
REMARK SMILES IDX 66 77 71 78 67 79 68 80 70 81 72 82 69 83 53 84 54 85 59 86
REMARK SMILES IDX 55 87 56 88 58 89 60 90 57 91
REMARK H PARENT 1 26 1 27 77 53 51 64
REMARK Flexibility Score: inf
ROOT
ATOM      1  C   UNL A   1      35.552  32.604  29.116  1.00  0.00     0.275 C 
ENDROOT
BRANCH   1   2
ATOM      2  O   UNL A   1      35.205  31.787  27.987  1.00  0.00    -0.458 OA
BRANCH   2   3
ATOM      3  C   UNL A   1      33.877  31.673  27.731  1.00  0.00     0.338 C 
ATOM      4  O   UNL A   1      33.046  32.567  27.800  1.00  0.00    -0.246 OA
BRANCH   3   5
ATOM      5  C   UNL A   1      33.559  30.311  27.240  1.00  0.00     0.060 A 
ATOM      6  C   UNL A   1      33.037  27.782  26.155  1.00  0.00     0.000 A 
ATOM      7  C   UNL A   1      34.355  28.249  26.253  1.00  0.00     0.011 A 
ATOM      8  C   UNL A   1      31.989  28.566  26.650  1.00  0.00     0.011 A 
ATOM      9  C   UNL A   1      34.616  29.507  26.795  1.00  0.00     0.016 A 
ATOM     10  C   UNL A   1      32.248  29.822  27.200  1.00  0.00     0.016 A 
BRANCH   6  11
ATOM     11  C   UNL A   1      32.748  26.538  25.446  1.00  0.00     0.075 A 
ATOM     12  N   UNL A   1      31.716  26.328  24.543  1.00  0.00    -0.233 N 
ATOM     13  N   UNL A   1      31.497  25.002  24.328  1.00  0.00    -0.163 NA
ATOM     14  C   UNL A   1      32.520  24.375  24.941  1.00  0.00     0.167 A 
ATOM     15  C   UNL A   1      33.309  25.297  25.666  1.00  0.00     0.064 A 
BRANCH  12  16
ATOM     16  C   UNL A   1      30.914  27.304  23.893  1.00  0.00     0.065 A 
ATOM     17  C   UNL A   1      29.329  29.285  22.740  1.00  0.00     0.082 A 
ATOM     18  C   UNL A   1      30.716  29.336  22.583  1.00  0.00     0.024 A 
ATOM     19  C   UNL A   1      28.727  28.227  23.435  1.00  0.00     0.024 A 
ATOM     20  C   UNL A   1      31.512  28.352  23.176  1.00  0.00     0.030 A 
ATOM     21  C   UNL A   1      29.520  27.222  23.992  1.00  0.00     0.030 A 
BRANCH  17  22
ATOM     22  S   UNL A   1      28.300  30.515  21.987  1.00  0.00     0.238 S 
ATOM     23  O   UNL A   1      27.267  30.893  22.916  1.00  0.00    -0.207 OA
ATOM     24  O   UNL A   1      28.014  30.118  20.623  1.00  0.00    -0.207 OA
BRANCH  22  25
ATOM     25  N   UNL A   1      29.338  31.831  21.876  1.00  0.00    -0.225 NA
ATOM     26  H   UNL A   1      28.861  32.670  22.206  1.00  0.00     0.137 HD
ATOM     27  H   UNL A   1      29.621  31.960  20.905  1.00  0.00     0.137 HD
ENDBRANCH  22  25
ENDBRANCH  17  22
ENDBRANCH  12  16
BRANCH  14  28
ATOM     28  C   UNL A   1      32.747  22.888  24.876  1.00  0.00     0.435 C 
ATOM     29  F   UNL A   1      31.631  22.163  25.146  1.00  0.00    -0.164 F 
ATOM     30  F   UNL A   1      33.200  22.493  23.656  1.00  0.00    -0.164 F 
ATOM     31  F   UNL A   1      33.691  22.488  25.776  1.00  0.00    -0.164 F 
ENDBRANCH  14  28
ENDBRANCH   6  11
ENDBRANCH   3   5
ENDBRANCH   2   3
ENDBRANCH   1   2
BRANCH   1  32
ATOM     32  C   UNL A   1      35.723  31.758  30.369  1.00  0.00     0.275 C 
BRANCH  32  33
ATOM     33  O   UNL A   1      35.915  30.385  30.040  1.00  0.00    -0.458 OA
BRANCH  33  34
ATOM     34  C   UNL A   1      36.587  29.659  30.962  1.00  0.00     0.338 C 
ATOM     35  O   UNL A   1      36.547  29.776  32.175  1.00  0.00    -0.246 OA
BRANCH  34  36
ATOM     36  C   UNL A   1      37.612  28.870  30.276  1.00  0.00     0.060 A 
ATOM     37  C   UNL A   1      38.335  27.960  31.052  1.00  0.00     0.016 A 
ATOM     38  C   UNL A   1      38.062  29.307  29.022  1.00  0.00     0.016 A 
ATOM     39  C   UNL A   1      39.621  27.663  30.665  1.00  0.00     0.010 A 
ATOM     40  C   UNL A   1      39.349  29.020  28.647  1.00  0.00     0.010 A 
ATOM     41  C   UNL A   1      40.137  28.277  29.518  1.00  0.00    -0.014 A 
BRANCH  41  42
ATOM     42  C   UNL A   1      41.507  28.006  29.148  1.00  0.00     0.031 A 
ATOM     43  C   UNL A   1      41.639  26.692  28.482  1.00  0.00     0.074 A 
ATOM     44  C   UNL A   1      42.484  28.925  29.274  1.00  0.00     0.049 A 
ATOM     45  N   UNL A   1      42.213  25.632  28.944  1.00  0.00    -0.248 NA
ATOM     46  C   UNL A   1      40.839  26.460  27.266  1.00  0.00     0.031 C 
ATOM     47  C   UNL A   1      42.372  30.330  29.677  1.00  0.00     0.029 A 
ATOM     48  N   UNL A   1      43.801  28.805  28.956  1.00  0.00    -0.354 N 
ATOM     49  C   UNL A   1      42.067  24.678  27.943  1.00  0.00     0.074 A 
ATOM     50  C   UNL A   1      41.030  25.156  27.071  1.00  0.00     0.031 C 
ATOM     51  C   UNL A   1      43.514  30.981  29.353  1.00  0.00     0.029 A 
ATOM     52  C   UNL A   1      44.476  30.019  28.846  1.00  0.00     0.049 A 
ATOM     53  H   UNL A   1      44.240  27.935  28.816  1.00  0.00     0.167 HD
ATOM     54  C   UNL A   1      43.025  23.736  27.741  1.00  0.00     0.037 A 
ATOM     55  C   UNL A   1      45.703  30.181  28.287  1.00  0.00     0.037 A 
ATOM     56  C   UNL A   1      43.860  23.587  28.907  1.00  0.00     0.049 A 
ATOM     57  C   UNL A   1      46.355  28.841  28.271  1.00  0.00     0.074 A 
ATOM     58  C   UNL A   1      43.617  23.276  30.233  1.00  0.00     0.029 A 
ATOM     59  N   UNL A   1      45.101  24.178  28.886  1.00  0.00    -0.354 N 
ATOM     60  N   UNL A   1      46.727  28.213  29.355  1.00  0.00    -0.248 NA
ATOM     61  C   UNL A   1      46.110  27.994  27.111  1.00  0.00     0.031 C 
ATOM     62  C   UNL A   1      44.468  24.148  30.975  1.00  0.00     0.029 A 
ATOM     63  C   UNL A   1      45.249  24.863  30.067  1.00  0.00     0.049 A 
ATOM     64  H   UNL A   1      45.762  24.122  28.159  1.00  0.00     0.167 HD
ATOM     65  C   UNL A   1      46.341  26.896  29.149  1.00  0.00     0.074 A 
ATOM     66  C   UNL A   1      46.011  26.812  27.726  1.00  0.00     0.031 C 
ATOM     67  C   UNL A   1      46.027  26.074  30.194  1.00  0.00     0.037 A 
BRANCH  54  68
ATOM     68  C   UNL A   1      43.444  23.272  26.369  1.00  0.00     0.057 A 
ATOM     69  C   UNL A   1      43.472  21.895  26.094  1.00  0.00     0.134 A 
ATOM     70  C   UNL A   1      44.086  24.086  25.409  1.00  0.00     0.134 A 
ATOM     71  F   UNL A   1      42.916  21.015  26.941  1.00  0.00    -0.206 F 
ATOM     72  C   UNL A   1      44.143  21.366  24.985  1.00  0.00     0.040 A 
ATOM     73  C   UNL A   1      44.711  23.573  24.271  1.00  0.00     0.040 A 
ATOM     74  F   UNL A   1      44.240  25.406  25.564  1.00  0.00    -0.206 F 
ATOM     75  C   UNL A   1      44.769  22.205  24.072  1.00  0.00     0.006 A 
ENDBRANCH  54  68
BRANCH  55  76
ATOM     76  C   UNL A   1      46.195  31.307  27.454  1.00  0.00     0.057 A 
ATOM     77  C   UNL A   1      45.339  32.000  26.584  1.00  0.00     0.134 A 
ATOM     78  C   UNL A   1      47.441  31.911  27.694  1.00  0.00     0.134 A 
ATOM     79  F   UNL A   1      44.109  31.532  26.324  1.00  0.00    -0.206 F 
ATOM     80  C   UNL A   1      45.694  33.228  26.004  1.00  0.00     0.040 A 
ATOM     81  C   UNL A   1      47.810  33.133  27.119  1.00  0.00     0.040 A 
ATOM     82  F   UNL A   1      48.311  31.384  28.567  1.00  0.00    -0.206 F 
ATOM     83  C   UNL A   1      46.930  33.803  26.280  1.00  0.00     0.006 A 
ENDBRANCH  55  76
BRANCH  67  84
ATOM     84  C   UNL A   1      46.303  26.559  31.591  1.00  0.00     0.057 A 
ATOM     85  C   UNL A   1      45.387  27.278  32.377  1.00  0.00     0.134 A 
ATOM     86  C   UNL A   1      47.477  26.139  32.226  1.00  0.00     0.134 A 
ATOM     87  F   UNL A   1      44.189  27.633  31.894  1.00  0.00    -0.206 F 
ATOM     88  C   UNL A   1      45.648  27.598  33.713  1.00  0.00     0.040 A 
ATOM     89  C   UNL A   1      47.735  26.421  33.569  1.00  0.00     0.040 A 
ATOM     90  F   UNL A   1      48.375  25.397  31.558  1.00  0.00    -0.206 F 
ATOM     91  C   UNL A   1      46.823  27.163  34.315  1.00  0.00     0.006 A 
ENDBRANCH  67  84
ENDBRANCH  41  42
ENDBRANCH  34  36
ENDBRANCH  33  34
ENDBRANCH  32  33
ENDBRANCH   1  32
TORSDOF 16
ENDMDL
