MODEL 1
REMARK VINA RESULT:     -10.6      0.000      0.000
REMARK SMILES CC(=O)N[C@H](C(=O)NC1(CC(=O)OCCOC(=O)c2ccc(-c3c4nc(c(-c5c(F)cccc5F)c5ccc([nH]5)c(-c5c(F)cccc5F)c5nc(c(-c6c(F)cccc6F)c6ccc3[nH]6)C=C5)C=C4)cc2)CCC1)C(C)C
REMARK SMILES IDX 14 1 13 2 11 3 12 4 10 5 9 6 73 7 75 8 74 9 8 10 6 11 7 12
REMARK SMILES IDX 5 14 4 15 1 16 2 17 3 18 76 20 77 21 78 22 15 23 16 24 17 25
REMARK SMILES IDX 18 26 19 27 20 28 72 29 21 30 71 31 22 32 23 33 24 34 65 35
REMARK SMILES IDX 25 36 70 37 64 38 66 39 26 40 69 41 63 42 62 43 27 45 53 46
REMARK SMILES IDX 36 47 52 48 37 49 40 50 51 51 67 52 38 53 39 54 50 56 68 57
REMARK SMILES IDX 41 58 28 59 29 60 34 61 30 62 31 63 33 64 35 65 32 66 54 67
REMARK SMILES IDX 55 68 60 69 56 70 57 71 59 72 61 73 58 74 42 75 43 76 48 77
REMARK SMILES IDX 44 78 45 79 47 80 49 81 46 82
REMARK H PARENT 8 13 4 19 66 44 40 55
REMARK Flexibility Score: inf
ROOT
ATOM      1  C   UNL A   1      41.028  21.958  27.061  1.00  0.00     0.274 C 
ENDROOT
BRANCH   1   2
ATOM      2  O   UNL A   1      39.680  22.459  27.165  1.00  0.00    -0.462 OA
BRANCH   2   3
ATOM      3  C   UNL A   1      38.806  22.072  26.206  1.00  0.00     0.308 C 
ATOM      4  O   UNL A   1      38.771  20.953  25.706  1.00  0.00    -0.252 OA
BRANCH   3   5
ATOM      5  C   UNL A   1      37.898  23.176  25.730  1.00  0.00     0.151 C 
BRANCH   5   6
ATOM      6  C   UNL A   1      36.451  22.849  25.346  1.00  0.00     0.051 C 
ATOM      7  C   UNL A   1      36.328  21.995  24.042  1.00  0.00     0.029 C 
ATOM      8  C   UNL A   1      35.652  23.939  24.533  1.00  0.00     0.029 C 
ATOM      9  C   UNL A   1      36.203  23.303  23.246  1.00  0.00     0.005 C 
BRANCH   6  10
ATOM     10  N   UNL A   1      35.670  22.337  26.505  1.00  0.00    -0.348 N 
ATOM     11  C   UNL A   1      34.514  21.602  26.599  1.00  0.00     0.243 C 
ATOM     12  O   UNL A   1      34.067  21.360  27.726  1.00  0.00    -0.273 OA
ATOM     13  H   UNL A   1      36.060  22.572  27.378  1.00  0.00     0.164 HD
BRANCH  11  14
ATOM     14  C   UNL A   1      33.817  21.023  25.351  1.00  0.00     0.173 C 
BRANCH  14  15
ATOM     15  N   UNL A   1      33.095  19.842  25.863  1.00  0.00    -0.344 N 
ATOM     16  C   UNL A   1      34.003  18.147  24.333  1.00  0.00     0.114 C 
ATOM     17  C   UNL A   1      33.028  18.573  25.389  1.00  0.00     0.217 C 
ATOM     18  O   UNL A   1      32.211  17.790  25.866  1.00  0.00    -0.275 OA
ATOM     19  H   UNL A   1      32.577  20.002  26.683  1.00  0.00     0.164 HD
ENDBRANCH  14  15
BRANCH  14  20
ATOM     20  C   UNL A   1      32.754  21.995  24.768  1.00  0.00     0.015 C 
ATOM     21  C   UNL A   1      32.445  21.799  23.284  1.00  0.00     0.010 C 
ATOM     22  C   UNL A   1      31.439  21.906  25.555  1.00  0.00     0.010 C 
ENDBRANCH  14  20
ENDBRANCH  11  14
ENDBRANCH   6  10
ENDBRANCH   5   6
ENDBRANCH   3   5
ENDBRANCH   2   3
ENDBRANCH   1   2
BRANCH   1  23
ATOM     23  C   UNL A   1      41.859  22.814  26.107  1.00  0.00     0.275 C 
BRANCH  23  24
ATOM     24  O   UNL A   1      42.346  23.993  26.771  1.00  0.00    -0.458 OA
BRANCH  24  25
ATOM     25  C   UNL A   1      42.000  25.162  26.183  1.00  0.00     0.338 C 
ATOM     26  O   UNL A   1      41.936  25.400  24.989  1.00  0.00    -0.246 OA
BRANCH  25  27
ATOM     27  C   UNL A   1      41.563  26.099  27.227  1.00  0.00     0.060 A 
ATOM     28  C   UNL A   1      42.239  27.311  27.350  1.00  0.00     0.016 A 
ATOM     29  C   UNL A   1      40.554  25.758  28.127  1.00  0.00     0.016 A 
ATOM     30  C   UNL A   1      41.938  28.166  28.403  1.00  0.00     0.010 A 
ATOM     31  C   UNL A   1      40.232  26.642  29.167  1.00  0.00     0.010 A 
ATOM     32  C   UNL A   1      40.943  27.843  29.334  1.00  0.00    -0.014 A 
BRANCH  32  33
ATOM     33  C   UNL A   1      40.701  28.740  30.500  1.00  0.00     0.031 A 
ATOM     34  C   UNL A   1      39.579  29.745  30.465  1.00  0.00     0.074 A 
ATOM     35  C   UNL A   1      41.449  28.634  31.616  1.00  0.00     0.049 A 
ATOM     36  N   UNL A   1      39.318  30.726  31.293  1.00  0.00    -0.248 NA
ATOM     37  C   UNL A   1      38.638  29.647  29.338  1.00  0.00     0.031 C 
ATOM     38  C   UNL A   1      42.522  27.663  31.831  1.00  0.00     0.029 A 
ATOM     39  N   UNL A   1      41.405  29.344  32.791  1.00  0.00    -0.354 N 
ATOM     40  C   UNL A   1      38.222  31.392  30.761  1.00  0.00     0.074 A 
ATOM     41  C   UNL A   1      37.865  30.705  29.538  1.00  0.00     0.031 C 
ATOM     42  C   UNL A   1      43.001  27.804  33.076  1.00  0.00     0.029 A 
ATOM     43  C   UNL A   1      42.329  28.929  33.719  1.00  0.00     0.049 A 
ATOM     44  H   UNL A   1      40.773  30.080  32.953  1.00  0.00     0.167 HD
ATOM     45  C   UNL A   1      37.576  32.480  31.247  1.00  0.00     0.037 A 
ATOM     46  C   UNL A   1      42.628  29.415  34.939  1.00  0.00     0.037 A 
ATOM     47  C   UNL A   1      37.878  33.118  32.502  1.00  0.00     0.049 A 
ATOM     48  C   UNL A   1      41.909  30.630  35.450  1.00  0.00     0.074 A 
ATOM     49  C   UNL A   1      37.273  34.223  33.076  1.00  0.00     0.029 A 
ATOM     50  N   UNL A   1      38.851  32.689  33.391  1.00  0.00    -0.354 N 
ATOM     51  N   UNL A   1      40.942  31.313  34.891  1.00  0.00    -0.248 NA
ATOM     52  C   UNL A   1      42.347  31.159  36.750  1.00  0.00     0.031 C 
ATOM     53  C   UNL A   1      37.895  34.478  34.304  1.00  0.00     0.029 A 
ATOM     54  C   UNL A   1      38.869  33.513  34.505  1.00  0.00     0.049 A 
ATOM     55  H   UNL A   1      39.441  31.914  33.251  1.00  0.00     0.167 HD
ATOM     56  C   UNL A   1      40.656  32.351  35.766  1.00  0.00     0.074 A 
ATOM     57  C   UNL A   1      41.535  32.195  36.906  1.00  0.00     0.031 C 
ATOM     58  C   UNL A   1      39.752  33.351  35.630  1.00  0.00     0.037 A 
BRANCH  45  59
ATOM     59  C   UNL A   1      36.496  33.079  30.397  1.00  0.00     0.057 A 
ATOM     60  C   UNL A   1      36.776  33.903  29.302  1.00  0.00     0.134 A 
ATOM     61  C   UNL A   1      35.150  32.785  30.660  1.00  0.00     0.134 A 
ATOM     62  F   UNL A   1      38.041  34.231  29.003  1.00  0.00    -0.206 F 
ATOM     63  C   UNL A   1      35.754  34.429  28.507  1.00  0.00     0.040 A 
ATOM     64  C   UNL A   1      34.123  33.288  29.861  1.00  0.00     0.040 A 
ATOM     65  F   UNL A   1      34.814  31.995  31.691  1.00  0.00    -0.206 F 
ATOM     66  C   UNL A   1      34.424  34.117  28.783  1.00  0.00     0.006 A 
ENDBRANCH  45  59
BRANCH  46  67
ATOM     67  C   UNL A   1      43.697  28.775  35.743  1.00  0.00     0.057 A 
ATOM     68  C   UNL A   1      45.021  29.219  35.666  1.00  0.00     0.134 A 
ATOM     69  C   UNL A   1      43.419  27.712  36.610  1.00  0.00     0.134 A 
ATOM     70  F   UNL A   1      45.353  30.215  34.832  1.00  0.00    -0.206 F 
ATOM     71  C   UNL A   1      46.033  28.627  36.423  1.00  0.00     0.040 A 
ATOM     72  C   UNL A   1      44.415  27.127  37.390  1.00  0.00     0.040 A 
ATOM     73  F   UNL A   1      42.169  27.240  36.724  1.00  0.00    -0.206 F 
ATOM     74  C   UNL A   1      45.728  27.582  37.295  1.00  0.00     0.006 A 
ENDBRANCH  46  67
BRANCH  58  75
ATOM     75  C   UNL A   1      39.667  34.346  36.746  1.00  0.00     0.057 A 
ATOM     76  C   UNL A   1      40.323  35.582  36.675  1.00  0.00     0.134 A 
ATOM     77  C   UNL A   1      38.904  34.079  37.888  1.00  0.00     0.134 A 
ATOM     78  F   UNL A   1      41.080  35.889  35.611  1.00  0.00    -0.206 F 
ATOM     79  C   UNL A   1      40.237  36.511  37.712  1.00  0.00     0.040 A 
ATOM     80  C   UNL A   1      38.797  35.008  38.924  1.00  0.00     0.040 A 
ATOM     81  F   UNL A   1      38.249  32.916  38.015  1.00  0.00    -0.206 F 
ATOM     82  C   UNL A   1      39.468  36.227  38.840  1.00  0.00     0.006 A 
ENDBRANCH  58  75
ENDBRANCH  32  33
ENDBRANCH  25  27
ENDBRANCH  24  25
ENDBRANCH  23  24
ENDBRANCH   1  23
TORSDOF 16
ENDMDL
MODEL 2
REMARK VINA RESULT:     -10.6      4.550      7.534
REMARK SMILES CC(=O)N[C@H](C(=O)NC1(CC(=O)OCCOC(=O)c2ccc(-c3c4nc(c(-c5c(F)cccc5F)c5ccc([nH]5)c(-c5c(F)cccc5F)c5nc(c(-c6c(F)cccc6F)c6ccc3[nH]6)C=C5)C=C4)cc2)CCC1)C(C)C
REMARK SMILES IDX 14 1 13 2 11 3 12 4 10 5 9 6 73 7 75 8 74 9 8 10 6 11 7 12
REMARK SMILES IDX 5 14 4 15 1 16 2 17 3 18 76 20 77 21 78 22 15 23 16 24 17 25
REMARK SMILES IDX 18 26 19 27 20 28 72 29 21 30 71 31 22 32 23 33 24 34 65 35
REMARK SMILES IDX 25 36 70 37 64 38 66 39 26 40 69 41 63 42 62 43 27 45 53 46
REMARK SMILES IDX 36 47 52 48 37 49 40 50 51 51 67 52 38 53 39 54 50 56 68 57
REMARK SMILES IDX 41 58 28 59 29 60 34 61 30 62 31 63 33 64 35 65 32 66 54 67
REMARK SMILES IDX 55 68 60 69 56 70 57 71 59 72 61 73 58 74 42 75 43 76 48 77
REMARK SMILES IDX 44 78 45 79 47 80 49 81 46 82
REMARK H PARENT 8 13 4 19 66 44 40 55
REMARK Flexibility Score: inf
ROOT
ATOM      1  C   UNL A   1      34.597  20.866  25.393  1.00  0.00     0.274 C 
ENDROOT
BRANCH   1   2
ATOM      2  O   UNL A   1      34.547  21.756  26.527  1.00  0.00    -0.462 OA
BRANCH   2   3
ATOM      3  C   UNL A   1      33.600  22.723  26.507  1.00  0.00     0.308 C 
ATOM      4  O   UNL A   1      32.644  22.778  27.272  1.00  0.00    -0.252 OA
BRANCH   3   5
ATOM      5  C   UNL A   1      33.772  23.720  25.389  1.00  0.00     0.151 C 
BRANCH   5   6
ATOM      6  C   UNL A   1      32.615  23.969  24.416  1.00  0.00     0.051 C 
ATOM      7  C   UNL A   1      32.356  22.779  23.435  1.00  0.00     0.029 C 
ATOM      8  C   UNL A   1      32.931  24.789  23.108  1.00  0.00     0.029 C 
ATOM      9  C   UNL A   1      33.297  23.459  22.428  1.00  0.00     0.005 C 
BRANCH   6  10
ATOM     10  N   UNL A   1      31.403  24.480  25.113  1.00  0.00    -0.348 N 
ATOM     11  C   UNL A   1      31.058  25.717  25.599  1.00  0.00     0.243 C 
ATOM     12  O   UNL A   1      29.977  25.833  26.185  1.00  0.00    -0.273 OA
ATOM     13  H   UNL A   1      30.710  23.794  25.253  1.00  0.00     0.164 HD
BRANCH  11  14
ATOM     14  C   UNL A   1      31.947  26.956  25.365  1.00  0.00     0.173 C 
BRANCH  14  15
ATOM     15  N   UNL A   1      30.989  28.020  25.010  1.00  0.00    -0.344 N 
ATOM     16  C   UNL A   1      31.074  27.811  22.563  1.00  0.00     0.114 C 
ATOM     17  C   UNL A   1      30.650  28.539  23.804  1.00  0.00     0.217 C 
ATOM     18  O   UNL A   1      29.964  29.556  23.752  1.00  0.00    -0.275 OA
ATOM     19  H   UNL A   1      30.517  28.419  25.776  1.00  0.00     0.164 HD
ENDBRANCH  14  15
BRANCH  14  20
ATOM     20  C   UNL A   1      32.677  27.408  26.661  1.00  0.00     0.015 C 
ATOM     21  C   UNL A   1      34.004  28.132  26.435  1.00  0.00     0.010 C 
ATOM     22  C   UNL A   1      31.772  28.305  27.516  1.00  0.00     0.010 C 
ENDBRANCH  14  20
ENDBRANCH  11  14
ENDBRANCH   6  10
ENDBRANCH   5   6
ENDBRANCH   3   5
ENDBRANCH   2   3
ENDBRANCH   1   2
BRANCH   1  23
ATOM     23  C   UNL A   1      36.041  20.530  25.024  1.00  0.00     0.275 C 
BRANCH  23  24
ATOM     24  O   UNL A   1      36.927  21.595  25.406  1.00  0.00    -0.458 OA
BRANCH  24  25
ATOM     25  C   UNL A   1      38.196  21.211  25.681  1.00  0.00     0.338 C 
ATOM     26  O   UNL A   1      38.729  20.154  25.390  1.00  0.00    -0.246 OA
BRANCH  25  27
ATOM     27  C   UNL A   1      38.909  22.347  26.281  1.00  0.00     0.060 A 
ATOM     28  C   UNL A   1      38.432  23.631  26.027  1.00  0.00     0.016 A 
ATOM     29  C   UNL A   1      40.078  22.159  27.017  1.00  0.00     0.016 A 
ATOM     30  C   UNL A   1      39.151  24.734  26.472  1.00  0.00     0.010 A 
ATOM     31  C   UNL A   1      40.779  23.277  27.492  1.00  0.00     0.010 A 
ATOM     32  C   UNL A   1      40.339  24.579  27.197  1.00  0.00    -0.014 A 
BRANCH  32  33
ATOM     33  C   UNL A   1      41.130  25.780  27.587  1.00  0.00     0.031 A 
ATOM     34  C   UNL A   1      40.534  26.819  28.500  1.00  0.00     0.074 A 
ATOM     35  C   UNL A   1      42.404  25.929  27.170  1.00  0.00     0.049 A 
ATOM     36  N   UNL A   1      40.987  28.009  28.811  1.00  0.00    -0.248 NA
ATOM     37  C   UNL A   1      39.247  26.486  29.130  1.00  0.00     0.031 C 
ATOM     38  C   UNL A   1      43.145  24.975  26.344  1.00  0.00     0.029 A 
ATOM     39  N   UNL A   1      43.307  26.938  27.401  1.00  0.00    -0.354 N 
ATOM     40  C   UNL A   1      40.020  28.585  29.624  1.00  0.00     0.074 A 
ATOM     41  C   UNL A   1      38.954  27.615  29.760  1.00  0.00     0.031 C 
ATOM     42  C   UNL A   1      44.400  25.419  26.179  1.00  0.00     0.029 A 
ATOM     43  C   UNL A   1      44.530  26.726  26.815  1.00  0.00     0.049 A 
ATOM     44  H   UNL A   1      43.097  27.737  27.935  1.00  0.00     0.167 HD
ATOM     45  C   UNL A   1      40.021  29.811  30.200  1.00  0.00     0.037 A 
ATOM     46  C   UNL A   1      45.626  27.506  26.763  1.00  0.00     0.037 A 
ATOM     47  C   UNL A   1      41.113  30.746  30.132  1.00  0.00     0.049 A 
ATOM     48  C   UNL A   1      45.599  28.867  27.396  1.00  0.00     0.074 A 
ATOM     49  C   UNL A   1      41.203  32.011  30.689  1.00  0.00     0.029 A 
ATOM     50  N   UNL A   1      42.318  30.507  29.491  1.00  0.00    -0.354 N 
ATOM     51  N   UNL A   1      44.639  29.442  28.077  1.00  0.00    -0.248 NA
ATOM     52  C   UNL A   1      46.798  29.700  27.226  1.00  0.00     0.031 C 
ATOM     53  C   UNL A   1      42.455  32.547  30.365  1.00  0.00     0.029 A 
ATOM     54  C   UNL A   1      43.154  31.603  29.630  1.00  0.00     0.049 A 
ATOM     55  H   UNL A   1      42.546  29.679  29.008  1.00  0.00     0.167 HD
ATOM     56  C   UNL A   1      45.114  30.701  28.415  1.00  0.00     0.074 A 
ATOM     57  C   UNL A   1      46.459  30.799  27.885  1.00  0.00     0.031 C 
ATOM     58  C   UNL A   1      44.487  31.691  29.094  1.00  0.00     0.037 A 
BRANCH  45  59
ATOM     59  C   UNL A   1      38.780  30.233  30.929  1.00  0.00     0.057 A 
ATOM     60  C   UNL A   1      38.593  29.985  32.292  1.00  0.00     0.134 A 
ATOM     61  C   UNL A   1      37.775  30.941  30.254  1.00  0.00     0.134 A 
ATOM     62  F   UNL A   1      39.511  29.302  32.993  1.00  0.00    -0.206 F 
ATOM     63  C   UNL A   1      37.440  30.410  32.958  1.00  0.00     0.040 A 
ATOM     64  C   UNL A   1      36.630  31.389  30.913  1.00  0.00     0.040 A 
ATOM     65  F   UNL A   1      37.897  31.219  28.948  1.00  0.00    -0.206 F 
ATOM     66  C   UNL A   1      36.458  31.120  32.269  1.00  0.00     0.006 A 
ENDBRANCH  45  59
BRANCH  46  67
ATOM     67  C   UNL A   1      46.831  27.033  26.040  1.00  0.00     0.057 A 
ATOM     68  C   UNL A   1      47.820  26.290  26.694  1.00  0.00     0.134 A 
ATOM     69  C   UNL A   1      47.019  27.307  24.681  1.00  0.00     0.134 A 
ATOM     70  F   UNL A   1      47.709  26.021  28.003  1.00  0.00    -0.206 F 
ATOM     71  C   UNL A   1      48.955  25.836  26.020  1.00  0.00     0.040 A 
ATOM     72  C   UNL A   1      48.136  26.839  23.989  1.00  0.00     0.040 A 
ATOM     73  F   UNL A   1      46.108  28.017  24.000  1.00  0.00    -0.206 F 
ATOM     74  C   UNL A   1      49.111  26.104  24.661  1.00  0.00     0.006 A 
ENDBRANCH  46  67
BRANCH  58  75
ATOM     75  C   UNL A   1      45.254  32.960  29.307  1.00  0.00     0.057 A 
ATOM     76  C   UNL A   1      46.093  33.129  30.416  1.00  0.00     0.134 A 
ATOM     77  C   UNL A   1      45.171  34.010  28.387  1.00  0.00     0.134 A 
ATOM     78  F   UNL A   1      46.202  32.163  31.340  1.00  0.00    -0.206 F 
ATOM     79  C   UNL A   1      46.811  34.310  30.610  1.00  0.00     0.040 A 
ATOM     80  C   UNL A   1      45.899  35.189  28.562  1.00  0.00     0.040 A 
ATOM     81  F   UNL A   1      44.388  33.909  27.303  1.00  0.00    -0.206 F 
ATOM     82  C   UNL A   1      46.719  35.342  29.678  1.00  0.00     0.006 A 
ENDBRANCH  58  75
ENDBRANCH  32  33
ENDBRANCH  25  27
ENDBRANCH  24  25
ENDBRANCH  23  24
ENDBRANCH   1  23
TORSDOF 16
ENDMDL
MODEL 3
REMARK VINA RESULT:     -10.6      4.417      8.553
REMARK SMILES CC(=O)N[C@H](C(=O)NC1(CC(=O)OCCOC(=O)c2ccc(-c3c4nc(c(-c5c(F)cccc5F)c5ccc([nH]5)c(-c5c(F)cccc5F)c5nc(c(-c6c(F)cccc6F)c6ccc3[nH]6)C=C5)C=C4)cc2)CCC1)C(C)C
REMARK SMILES IDX 14 1 13 2 11 3 12 4 10 5 9 6 73 7 75 8 74 9 8 10 6 11 7 12
REMARK SMILES IDX 5 14 4 15 1 16 2 17 3 18 76 20 77 21 78 22 15 23 16 24 17 25
REMARK SMILES IDX 18 26 19 27 20 28 72 29 21 30 71 31 22 32 23 33 24 34 65 35
REMARK SMILES IDX 25 36 70 37 64 38 66 39 26 40 69 41 63 42 62 43 27 45 53 46
REMARK SMILES IDX 36 47 52 48 37 49 40 50 51 51 67 52 38 53 39 54 50 56 68 57
REMARK SMILES IDX 41 58 28 59 29 60 34 61 30 62 31 63 33 64 35 65 32 66 54 67
REMARK SMILES IDX 55 68 60 69 56 70 57 71 59 72 61 73 58 74 42 75 43 76 48 77
REMARK SMILES IDX 44 78 45 79 47 80 49 81 46 82
REMARK H PARENT 8 13 4 19 66 44 40 55
REMARK Flexibility Score: inf
ROOT
ATOM      1  C   UNL A   1      31.780  31.781  26.956  1.00  0.00     0.274 C 
ENDROOT
BRANCH   1   2
ATOM      2  O   UNL A   1      32.583  30.858  26.192  1.00  0.00    -0.462 OA
BRANCH   2   3
ATOM      3  C   UNL A   1      33.464  30.095  26.880  1.00  0.00     0.308 C 
ATOM      4  O   UNL A   1      34.567  30.473  27.259  1.00  0.00    -0.252 OA
BRANCH   3   5
ATOM      5  C   UNL A   1      33.005  28.674  27.087  1.00  0.00     0.151 C 
BRANCH   5   6
ATOM      6  C   UNL A   1      32.798  27.763  25.872  1.00  0.00     0.051 C 
ATOM      7  C   UNL A   1      31.369  27.135  25.797  1.00  0.00     0.029 C 
ATOM      8  C   UNL A   1      33.290  26.270  25.994  1.00  0.00     0.029 C 
ATOM      9  C   UNL A   1      31.907  25.920  26.568  1.00  0.00     0.005 C 
BRANCH   6  10
ATOM     10  N   UNL A   1      33.268  28.402  24.613  1.00  0.00    -0.348 N 
ATOM     11  C   UNL A   1      32.827  28.338  23.314  1.00  0.00     0.243 C 
ATOM     12  O   UNL A   1      33.461  28.958  22.451  1.00  0.00    -0.273 OA
ATOM     13  H   UNL A   1      34.050  28.988  24.735  1.00  0.00     0.164 HD
BRANCH  11  14
ATOM     14  C   UNL A   1      31.539  27.582  22.931  1.00  0.00     0.173 C 
BRANCH  14  15
ATOM     15  N   UNL A   1      30.867  28.485  21.977  1.00  0.00    -0.344 N 
ATOM     16  C   UNL A   1      29.747  29.972  23.580  1.00  0.00     0.114 C 
ATOM     17  C   UNL A   1      29.964  29.476  22.182  1.00  0.00     0.217 C 
ATOM     18  O   UNL A   1      29.387  29.979  21.222  1.00  0.00    -0.275 OA
ATOM     19  H   UNL A   1      31.114  28.344  21.035  1.00  0.00     0.164 HD
ENDBRANCH  14  15
BRANCH  14  20
ATOM     20  C   UNL A   1      31.838  26.256  22.178  1.00  0.00     0.015 C 
ATOM     21  C   UNL A   1      33.319  25.893  22.073  1.00  0.00     0.010 C 
ATOM     22  C   UNL A   1      31.091  25.079  22.822  1.00  0.00     0.010 C 
ENDBRANCH  14  20
ENDBRANCH  11  14
ENDBRANCH   6  10
ENDBRANCH   5   6
ENDBRANCH   3   5
ENDBRANCH   2   3
ENDBRANCH   1   2
BRANCH   1  23
ATOM     23  C   UNL A   1      32.346  33.198  26.873  1.00  0.00     0.275 C 
BRANCH  23  24
ATOM     24  O   UNL A   1      32.163  33.893  28.118  1.00  0.00    -0.458 OA
BRANCH  24  25
ATOM     25  C   UNL A   1      33.189  34.700  28.476  1.00  0.00     0.338 C 
ATOM     26  O   UNL A   1      33.177  35.915  28.573  1.00  0.00    -0.246 OA
BRANCH  25  27
ATOM     27  C   UNL A   1      34.325  33.860  28.883  1.00  0.00     0.060 A 
ATOM     28  C   UNL A   1      34.069  32.754  29.689  1.00  0.00     0.016 A 
ATOM     29  C   UNL A   1      35.633  34.201  28.542  1.00  0.00     0.016 A 
ATOM     30  C   UNL A   1      35.128  32.010  30.196  1.00  0.00     0.010 A 
ATOM     31  C   UNL A   1      36.695  33.424  29.030  1.00  0.00     0.010 A 
ATOM     32  C   UNL A   1      36.454  32.338  29.889  1.00  0.00    -0.014 A 
BRANCH  32  33
ATOM     33  C   UNL A   1      37.570  31.573  30.515  1.00  0.00     0.031 A 
ATOM     34  C   UNL A   1      37.893  31.758  31.974  1.00  0.00     0.074 A 
ATOM     35  C   UNL A   1      38.273  30.673  29.799  1.00  0.00     0.049 A 
ATOM     36  N   UNL A   1      38.925  31.326  32.657  1.00  0.00    -0.248 NA
ATOM     37  C   UNL A   1      36.941  32.551  32.767  1.00  0.00     0.031 C 
ATOM     38  C   UNL A   1      38.034  30.328  28.397  1.00  0.00     0.029 A 
ATOM     39  N   UNL A   1      39.326  29.869  30.161  1.00  0.00    -0.354 N 
ATOM     40  C   UNL A   1      38.775  31.838  33.939  1.00  0.00     0.074 A 
ATOM     41  C   UNL A   1      37.553  32.614  33.941  1.00  0.00     0.031 C 
ATOM     42  C   UNL A   1      38.878  29.352  28.033  1.00  0.00     0.029 A 
ATOM     43  C   UNL A   1      39.774  29.059  29.147  1.00  0.00     0.049 A 
ATOM     44  H   UNL A   1      39.722  29.873  31.062  1.00  0.00     0.167 HD
ATOM     45  C   UNL A   1      39.585  31.679  35.013  1.00  0.00     0.037 A 
ATOM     46  C   UNL A   1      40.809  28.199  29.102  1.00  0.00     0.037 A 
ATOM     47  C   UNL A   1      40.759  30.845  35.036  1.00  0.00     0.049 A 
ATOM     48  C   UNL A   1      41.703  28.050  30.300  1.00  0.00     0.074 A 
ATOM     49  C   UNL A   1      41.639  30.621  36.082  1.00  0.00     0.029 A 
ATOM     50  N   UNL A   1      41.200  30.075  33.972  1.00  0.00    -0.354 N 
ATOM     51  N   UNL A   1      41.609  28.619  31.476  1.00  0.00    -0.248 NA
ATOM     52  C   UNL A   1      42.865  27.161  30.152  1.00  0.00     0.031 C 
ATOM     53  C   UNL A   1      42.626  29.731  35.644  1.00  0.00     0.029 A 
ATOM     54  C   UNL A   1      42.344  29.381  34.333  1.00  0.00     0.049 A 
ATOM     55  H   UNL A   1      40.765  30.027  33.090  1.00  0.00     0.167 HD
ATOM     56  C   UNL A   1      42.696  28.161  32.207  1.00  0.00     0.074 A 
ATOM     57  C   UNL A   1      43.424  27.248  31.351  1.00  0.00     0.031 C 
ATOM     58  C   UNL A   1      43.062  28.480  33.471  1.00  0.00     0.037 A 
BRANCH  45  59
ATOM     59  C   UNL A   1      39.253  32.456  36.251  1.00  0.00     0.057 A 
ATOM     60  C   UNL A   1      39.783  33.726  36.502  1.00  0.00     0.134 A 
ATOM     61  C   UNL A   1      38.348  31.935  37.187  1.00  0.00     0.134 A 
ATOM     62  F   UNL A   1      40.662  34.278  35.652  1.00  0.00    -0.206 F 
ATOM     63  C   UNL A   1      39.439  34.445  37.650  1.00  0.00     0.040 A 
ATOM     64  C   UNL A   1      37.981  32.652  38.326  1.00  0.00     0.040 A 
ATOM     65  F   UNL A   1      37.798  30.726  37.002  1.00  0.00    -0.206 F 
ATOM     66  C   UNL A   1      38.531  33.910  38.563  1.00  0.00     0.006 A 
ENDBRANCH  45  59
BRANCH  46  67
ATOM     67  C   UNL A   1      41.085  27.445  27.856  1.00  0.00     0.057 A 
ATOM     68  C   UNL A   1      41.878  27.993  26.842  1.00  0.00     0.134 A 
ATOM     69  C   UNL A   1      40.570  26.160  27.653  1.00  0.00     0.134 A 
ATOM     70  F   UNL A   1      42.377  29.231  26.968  1.00  0.00    -0.206 F 
ATOM     71  C   UNL A   1      42.148  27.289  25.668  1.00  0.00     0.040 A 
ATOM     72  C   UNL A   1      40.851  25.435  26.494  1.00  0.00     0.040 A 
ATOM     73  F   UNL A   1      39.800  25.583  28.587  1.00  0.00    -0.206 F 
ATOM     74  C   UNL A   1      41.640  26.002  25.496  1.00  0.00     0.006 A 
ENDBRANCH  46  67
BRANCH  58  75
ATOM     75  C   UNL A   1      44.302  27.828  34.004  1.00  0.00     0.057 A 
ATOM     76  C   UNL A   1      45.555  28.444  33.897  1.00  0.00     0.134 A 
ATOM     77  C   UNL A   1      44.240  26.588  34.649  1.00  0.00     0.134 A 
ATOM     78  F   UNL A   1      45.680  29.627  33.276  1.00  0.00    -0.206 F 
ATOM     79  C   UNL A   1      46.708  27.840  34.399  1.00  0.00     0.040 A 
ATOM     80  C   UNL A   1      45.384  25.982  35.171  1.00  0.00     0.040 A 
ATOM     81  F   UNL A   1      43.069  25.949  34.786  1.00  0.00    -0.206 F 
ATOM     82  C   UNL A   1      46.623  26.606  35.042  1.00  0.00     0.006 A 
ENDBRANCH  58  75
ENDBRANCH  32  33
ENDBRANCH  25  27
ENDBRANCH  24  25
ENDBRANCH  23  24
ENDBRANCH   1  23
TORSDOF 16
ENDMDL
