MODEL 1
REMARK VINA RESULT:     -10.7      0.000      0.000
REMARK SMILES CC(C)(C)c1ccc(NC(=O)CCC(=O)OCCOC(=O)c2ccc(-c3c4nc(c(-c5c(F)cccc5F)c5ccc([nH]5)c(-c5c(F)cccc5F)c5nc(c(-c6c(F)cccc6F)c6ccc3[nH]6)C=C5)C=C4)cc2)cc1
REMARK SMILES IDX 17 1 16 2 14 3 15 4 13 5 12 6 10 7 9 8 11 10 8 11 5 12 6 13
REMARK SMILES IDX 77 14 7 15 76 16 2 17 1 18 3 19 4 20 18 21 19 22 20 23 21 24
REMARK SMILES IDX 22 25 23 26 75 27 24 28 74 29 25 30 26 31 27 32 68 33 28 34
REMARK SMILES IDX 73 35 67 36 69 37 29 38 72 39 66 40 65 41 30 43 56 44 39 45
REMARK SMILES IDX 55 46 40 47 43 48 54 49 70 50 41 51 42 52 53 54 71 55 44 56
REMARK SMILES IDX 31 57 32 58 37 59 33 60 34 61 36 62 38 63 35 64 57 65 58 66
REMARK SMILES IDX 63 67 59 68 60 69 62 70 64 71 61 72 45 73 46 74 51 75 47 76
REMARK SMILES IDX 48 77 50 78 52 79 49 80
REMARK H PARENT 9 9 69 42 43 53
REMARK Flexibility Score: inf
ROOT
ATOM      1  C   UNL A   1      45.887  22.154  24.140  1.00  0.00     0.274 C 
ENDROOT
BRANCH   1   2
ATOM      2  O   UNL A   1      46.655  21.042  24.645  1.00  0.00    -0.462 OA
BRANCH   2   3
ATOM      3  C   UNL A   1      45.947  19.954  25.045  1.00  0.00     0.306 C 
ATOM      4  O   UNL A   1      46.357  18.800  24.994  1.00  0.00    -0.252 OA
BRANCH   3   5
ATOM      5  C   UNL A   1      44.547  20.304  25.499  1.00  0.00     0.132 C 
BRANCH   5   6
ATOM      6  C   UNL A   1      43.444  19.313  25.119  1.00  0.00     0.112 C 
BRANCH   6   7
ATOM      7  C   UNL A   1      42.894  18.601  26.331  1.00  0.00     0.224 C 
ATOM      8  N   UNL A   1      41.983  19.129  27.193  1.00  0.00    -0.326 N 
ATOM      9  H   UNL A   1      41.696  18.484  27.878  1.00  0.00     0.169 HD
ATOM     10  O   UNL A   1      43.231  17.426  26.533  1.00  0.00    -0.275 OA
BRANCH   8  11
ATOM     11  C   UNL A   1      41.354  20.378  27.332  1.00  0.00     0.041 A 
ATOM     12  C   UNL A   1      40.097  22.938  27.152  1.00  0.00    -0.042 A 
ATOM     13  C   UNL A   1      41.193  22.715  27.999  1.00  0.00     0.006 A 
ATOM     14  C   UNL A   1      39.550  21.803  26.530  1.00  0.00     0.006 A 
ATOM     15  C   UNL A   1      41.804  21.444  28.099  1.00  0.00     0.026 A 
ATOM     16  C   UNL A   1      40.163  20.547  26.623  1.00  0.00     0.026 A 
BRANCH  12  17
ATOM     17  C   UNL A   1      39.512  24.331  26.852  1.00  0.00    -0.013 C 
ATOM     18  C   UNL A   1      40.465  25.104  25.904  1.00  0.00     0.016 C 
ATOM     19  C   UNL A   1      39.328  25.238  28.087  1.00  0.00     0.016 C 
ATOM     20  C   UNL A   1      38.134  24.186  26.185  1.00  0.00     0.016 C 
ENDBRANCH  12  17
ENDBRANCH   8  11
ENDBRANCH   6   7
ENDBRANCH   5   6
ENDBRANCH   3   5
ENDBRANCH   2   3
ENDBRANCH   1   2
BRANCH   1  21
ATOM     21  C   UNL A   1      46.168  23.460  24.893  1.00  0.00     0.275 C 
BRANCH  21  22
ATOM     22  O   UNL A   1      44.983  24.221  25.202  1.00  0.00    -0.458 OA
BRANCH  22  23
ATOM     23  C   UNL A   1      45.201  25.544  25.311  1.00  0.00     0.338 C 
ATOM     24  O   UNL A   1      45.962  26.230  24.651  1.00  0.00    -0.246 OA
BRANCH  23  25
ATOM     25  C   UNL A   1      44.465  26.171  26.385  1.00  0.00     0.060 A 
ATOM     26  C   UNL A   1      43.720  25.389  27.262  1.00  0.00     0.016 A 
ATOM     27  C   UNL A   1      44.364  27.561  26.374  1.00  0.00     0.016 A 
ATOM     28  C   UNL A   1      42.921  26.027  28.202  1.00  0.00     0.010 A 
ATOM     29  C   UNL A   1      43.607  28.201  27.338  1.00  0.00     0.010 A 
ATOM     30  C   UNL A   1      42.911  27.433  28.276  1.00  0.00    -0.014 A 
BRANCH  30  31
ATOM     31  C   UNL A   1      42.376  28.100  29.476  1.00  0.00     0.031 A 
ATOM     32  C   UNL A   1      43.046  27.999  30.805  1.00  0.00     0.074 A 
ATOM     33  C   UNL A   1      41.188  28.714  29.325  1.00  0.00     0.049 A 
ATOM     34  N   UNL A   1      42.688  28.540  31.939  1.00  0.00    -0.248 NA
ATOM     35  C   UNL A   1      44.250  27.159  30.888  1.00  0.00     0.031 C 
ATOM     36  C   UNL A   1      40.410  28.744  28.080  1.00  0.00     0.029 A 
ATOM     37  N   UNL A   1      40.429  29.428  30.207  1.00  0.00    -0.354 N 
ATOM     38  C   UNL A   1      43.610  28.098  32.877  1.00  0.00     0.074 A 
ATOM     39  C   UNL A   1      44.530  27.221  32.185  1.00  0.00     0.031 C 
ATOM     40  C   UNL A   1      39.313  29.488  28.263  1.00  0.00     0.029 A 
ATOM     41  C   UNL A   1      39.297  29.959  29.641  1.00  0.00     0.049 A 
ATOM     42  H   UNL A   1      40.668  29.549  31.154  1.00  0.00     0.167 HD
ATOM     43  C   UNL A   1      43.671  28.411  34.193  1.00  0.00     0.037 A 
ATOM     44  C   UNL A   1      38.360  30.759  30.173  1.00  0.00     0.037 A 
ATOM     45  C   UNL A   1      42.743  29.300  34.846  1.00  0.00     0.049 A 
ATOM     46  C   UNL A   1      38.522  31.184  31.596  1.00  0.00     0.074 A 
ATOM     47  C   UNL A   1      42.740  29.740  36.157  1.00  0.00     0.029 A 
ATOM     48  N   UNL A   1      41.648  29.886  34.225  1.00  0.00    -0.354 N 
ATOM     49  N   UNL A   1      39.447  30.832  32.455  1.00  0.00    -0.248 NA
ATOM     50  C   UNL A   1      37.526  32.121  32.123  1.00  0.00     0.031 C 
ATOM     51  C   UNL A   1      41.632  30.577  36.336  1.00  0.00     0.029 A 
ATOM     52  C   UNL A   1      40.960  30.680  35.127  1.00  0.00     0.049 A 
ATOM     53  H   UNL A   1      41.397  29.757  33.282  1.00  0.00     0.167 HD
ATOM     54  C   UNL A   1      39.149  31.504  33.628  1.00  0.00     0.074 A 
ATOM     55  C   UNL A   1      37.970  32.308  33.358  1.00  0.00     0.031 C 
ATOM     56  C   UNL A   1      39.784  31.456  34.824  1.00  0.00     0.037 A 
BRANCH  43  57
ATOM     57  C   UNL A   1      44.771  27.795  35.005  1.00  0.00     0.057 A 
ATOM     58  C   UNL A   1      44.605  26.567  35.658  1.00  0.00     0.134 A 
ATOM     59  C   UNL A   1      46.024  28.413  35.104  1.00  0.00     0.134 A 
ATOM     60  F   UNL A   1      43.426  25.927  35.612  1.00  0.00    -0.206 F 
ATOM     61  C   UNL A   1      45.639  25.983  36.393  1.00  0.00     0.040 A 
ATOM     62  C   UNL A   1      47.072  27.831  35.821  1.00  0.00     0.040 A 
ATOM     63  F   UNL A   1      46.253  29.590  34.501  1.00  0.00    -0.206 F 
ATOM     64  C   UNL A   1      46.879  26.614  36.472  1.00  0.00     0.006 A 
ENDBRANCH  43  57
BRANCH  44  65
ATOM     65  C   UNL A   1      37.254  31.247  29.317  1.00  0.00     0.057 A 
ATOM     66  C   UNL A   1      36.113  30.467  29.110  1.00  0.00     0.134 A 
ATOM     67  C   UNL A   1      37.271  32.533  28.764  1.00  0.00     0.134 A 
ATOM     68  F   UNL A   1      36.041  29.228  29.619  1.00  0.00    -0.206 F 
ATOM     69  C   UNL A   1      35.027  30.943  28.374  1.00  0.00     0.040 A 
ATOM     70  C   UNL A   1      36.185  33.029  28.044  1.00  0.00     0.040 A 
ATOM     71  F   UNL A   1      38.327  33.338  28.955  1.00  0.00    -0.206 F 
ATOM     72  C   UNL A   1      35.059  32.232  27.845  1.00  0.00     0.006 A 
ENDBRANCH  44  65
BRANCH  56  73
ATOM     73  C   UNL A   1      39.199  32.295  35.915  1.00  0.00     0.057 A 
ATOM     74  C   UNL A   1      39.576  33.632  36.086  1.00  0.00     0.134 A 
ATOM     75  C   UNL A   1      38.249  31.762  36.794  1.00  0.00     0.134 A 
ATOM     76  F   UNL A   1      40.496  34.187  35.283  1.00  0.00    -0.206 F 
ATOM     77  C   UNL A   1      39.039  34.410  37.111  1.00  0.00     0.040 A 
ATOM     78  C   UNL A   1      37.693  32.536  37.811  1.00  0.00     0.040 A 
ATOM     79  F   UNL A   1      37.851  30.488  36.677  1.00  0.00    -0.206 F 
ATOM     80  C   UNL A   1      38.092  33.862  37.975  1.00  0.00     0.006 A 
ENDBRANCH  56  73
ENDBRANCH  30  31
ENDBRANCH  23  25
ENDBRANCH  22  23
ENDBRANCH  21  22
ENDBRANCH   1  21
TORSDOF 15
ENDMDL
MODEL 2
REMARK VINA RESULT:     -10.7      5.879     12.195
REMARK SMILES CC(C)(C)c1ccc(NC(=O)CCC(=O)OCCOC(=O)c2ccc(-c3c4nc(c(-c5c(F)cccc5F)c5ccc([nH]5)c(-c5c(F)cccc5F)c5nc(c(-c6c(F)cccc6F)c6ccc3[nH]6)C=C5)C=C4)cc2)cc1
REMARK SMILES IDX 17 1 16 2 14 3 15 4 13 5 12 6 10 7 9 8 11 10 8 11 5 12 6 13
REMARK SMILES IDX 77 14 7 15 76 16 2 17 1 18 3 19 4 20 18 21 19 22 20 23 21 24
REMARK SMILES IDX 22 25 23 26 75 27 24 28 74 29 25 30 26 31 27 32 68 33 28 34
REMARK SMILES IDX 73 35 67 36 69 37 29 38 72 39 66 40 65 41 30 43 56 44 39 45
REMARK SMILES IDX 55 46 40 47 43 48 54 49 70 50 41 51 42 52 53 54 71 55 44 56
REMARK SMILES IDX 31 57 32 58 37 59 33 60 34 61 36 62 38 63 35 64 57 65 58 66
REMARK SMILES IDX 63 67 59 68 60 69 62 70 64 71 61 72 45 73 46 74 51 75 47 76
REMARK SMILES IDX 48 77 50 78 52 79 49 80
REMARK H PARENT 9 9 69 42 43 53
REMARK Flexibility Score: inf
ROOT
ATOM      1  C   UNL A   1      34.411  33.827  32.195  1.00  0.00     0.274 C 
ENDROOT
BRANCH   1   2
ATOM      2  O   UNL A   1      33.367  34.784  32.472  1.00  0.00    -0.462 OA
BRANCH   2   3
ATOM      3  C   UNL A   1      33.754  36.083  32.573  1.00  0.00     0.306 C 
ATOM      4  O   UNL A   1      34.365  36.554  33.527  1.00  0.00    -0.252 OA
BRANCH   3   5
ATOM      5  C   UNL A   1      33.285  36.924  31.407  1.00  0.00     0.132 C 
BRANCH   5   6
ATOM      6  C   UNL A   1      32.686  36.166  30.221  1.00  0.00     0.112 C 
BRANCH   6   7
ATOM      7  C   UNL A   1      33.403  36.494  28.933  1.00  0.00     0.224 C 
ATOM      8  N   UNL A   1      34.090  35.594  28.178  1.00  0.00    -0.326 N 
ATOM      9  H   UNL A   1      34.426  35.984  27.340  1.00  0.00     0.169 HD
ATOM     10  O   UNL A   1      33.311  37.643  28.478  1.00  0.00    -0.275 OA
BRANCH   8  11
ATOM     11  C   UNL A   1      34.431  34.237  28.314  1.00  0.00     0.041 A 
ATOM     12  C   UNL A   1      35.432  31.561  28.251  1.00  0.00    -0.042 A 
ATOM     13  C   UNL A   1      34.057  31.834  28.180  1.00  0.00     0.006 A 
ATOM     14  C   UNL A   1      36.270  32.654  28.524  1.00  0.00     0.006 A 
ATOM     15  C   UNL A   1      33.563  33.157  28.227  1.00  0.00     0.026 A 
ATOM     16  C   UNL A   1      35.779  33.966  28.560  1.00  0.00     0.026 A 
BRANCH  12  17
ATOM     17  C   UNL A   1      36.045  30.168  28.013  1.00  0.00    -0.013 C 
ATOM     18  C   UNL A   1      36.218  29.436  29.369  1.00  0.00     0.016 C 
ATOM     19  C   UNL A   1      37.444  30.177  27.363  1.00  0.00     0.016 C 
ATOM     20  C   UNL A   1      35.124  29.342  27.100  1.00  0.00     0.016 C 
ENDBRANCH  12  17
ENDBRANCH   8  11
ENDBRANCH   6   7
ENDBRANCH   5   6
ENDBRANCH   3   5
ENDBRANCH   2   3
ENDBRANCH   1   2
BRANCH   1  21
ATOM     21  C   UNL A   1      35.072  33.286  33.469  1.00  0.00     0.275 C 
BRANCH  21  22
ATOM     22  O   UNL A   1      35.748  32.026  33.284  1.00  0.00    -0.458 OA
BRANCH  22  23
ATOM     23  C   UNL A   1      37.006  32.011  33.761  1.00  0.00     0.338 C 
ATOM     24  O   UNL A   1      37.396  32.407  34.845  1.00  0.00    -0.246 OA
BRANCH  23  25
ATOM     25  C   UNL A   1      37.981  31.506  32.820  1.00  0.00     0.060 A 
ATOM     26  C   UNL A   1      37.936  31.914  31.491  1.00  0.00     0.016 A 
ATOM     27  C   UNL A   1      38.807  30.465  33.242  1.00  0.00     0.016 A 
ATOM     28  C   UNL A   1      38.802  31.315  30.586  1.00  0.00     0.010 A 
ATOM     29  C   UNL A   1      39.704  29.899  32.355  1.00  0.00     0.010 A 
ATOM     30  C   UNL A   1      39.726  30.349  31.032  1.00  0.00    -0.014 A 
BRANCH  30  31
ATOM     31  C   UNL A   1      40.873  29.986  30.182  1.00  0.00     0.031 A 
ATOM     32  C   UNL A   1      41.957  30.958  29.855  1.00  0.00     0.074 A 
ATOM     33  C   UNL A   1      40.830  28.760  29.630  1.00  0.00     0.049 A 
ATOM     34  N   UNL A   1      43.026  30.769  29.126  1.00  0.00    -0.248 NA
ATOM     35  C   UNL A   1      41.813  32.325  30.376  1.00  0.00     0.031 C 
ATOM     36  C   UNL A   1      39.733  27.799  29.805  1.00  0.00     0.029 A 
ATOM     37  N   UNL A   1      41.716  28.108  28.821  1.00  0.00    -0.354 N 
ATOM     38  C   UNL A   1      43.677  31.993  29.087  1.00  0.00     0.074 A 
ATOM     39  C   UNL A   1      42.870  32.927  29.843  1.00  0.00     0.031 C 
ATOM     40  C   UNL A   1      40.039  26.661  29.170  1.00  0.00     0.029 A 
ATOM     41  C   UNL A   1      41.333  26.824  28.523  1.00  0.00     0.049 A 
ATOM     42  H   UNL A   1      42.545  28.517  28.484  1.00  0.00     0.167 HD
ATOM     43  C   UNL A   1      44.848  32.291  28.475  1.00  0.00     0.037 A 
ATOM     44  C   UNL A   1      41.971  25.875  27.821  1.00  0.00     0.037 A 
ATOM     45  C   UNL A   1      45.632  31.331  27.741  1.00  0.00     0.049 A 
ATOM     46  C   UNL A   1      43.317  26.199  27.259  1.00  0.00     0.074 A 
ATOM     47  C   UNL A   1      46.862  31.500  27.131  1.00  0.00     0.029 A 
ATOM     48  N   UNL A   1      45.254  30.013  27.521  1.00  0.00    -0.354 N 
ATOM     49  N   UNL A   1      43.970  27.335  27.301  1.00  0.00    -0.248 NA
ATOM     50  C   UNL A   1      44.022  25.116  26.567  1.00  0.00     0.031 C 
ATOM     51  C   UNL A   1      47.219  30.290  26.524  1.00  0.00     0.029 A 
ATOM     52  C   UNL A   1      46.225  29.359  26.780  1.00  0.00     0.049 A 
ATOM     53  H   UNL A   1      44.420  29.603  27.844  1.00  0.00     0.167 HD
ATOM     54  C   UNL A   1      45.166  27.108  26.641  1.00  0.00     0.074 A 
ATOM     55  C   UNL A   1      45.158  25.714  26.234  1.00  0.00     0.031 C 
ATOM     56  C   UNL A   1      46.176  27.974  26.385  1.00  0.00     0.037 A 
BRANCH  43  57
ATOM     57  C   UNL A   1      45.346  33.702  28.576  1.00  0.00     0.057 A 
ATOM     58  C   UNL A   1      46.208  34.107  29.603  1.00  0.00     0.134 A 
ATOM     59  C   UNL A   1      44.995  34.660  27.616  1.00  0.00     0.134 A 
ATOM     60  F   UNL A   1      46.576  33.242  30.562  1.00  0.00    -0.206 F 
ATOM     61  C   UNL A   1      46.691  35.415  29.682  1.00  0.00     0.040 A 
ATOM     62  C   UNL A   1      45.486  35.967  27.673  1.00  0.00     0.040 A 
ATOM     63  F   UNL A   1      44.175  34.340  26.603  1.00  0.00    -0.206 F 
ATOM     64  C   UNL A   1      46.333  36.348  28.711  1.00  0.00     0.006 A 
ENDBRANCH  43  57
BRANCH  44  65
ATOM     65  C   UNL A   1      41.359  24.532  27.695  1.00  0.00     0.057 A 
ATOM     66  C   UNL A   1      40.359  24.289  26.748  1.00  0.00     0.134 A 
ATOM     67  C   UNL A   1      41.817  23.446  28.449  1.00  0.00     0.134 A 
ATOM     68  F   UNL A   1      39.883  25.292  25.996  1.00  0.00    -0.206 F 
ATOM     69  C   UNL A   1      39.828  23.012  26.560  1.00  0.00     0.040 A 
ATOM     70  C   UNL A   1      41.310  22.161  28.258  1.00  0.00     0.040 A 
ATOM     71  F   UNL A   1      42.795  23.614  29.352  1.00  0.00    -0.206 F 
ATOM     72  C   UNL A   1      40.309  21.942  27.312  1.00  0.00     0.006 A 
ENDBRANCH  44  65
BRANCH  56  73
ATOM     73  C   UNL A   1      47.340  27.422  25.625  1.00  0.00     0.057 A 
ATOM     74  C   UNL A   1      47.425  27.549  24.234  1.00  0.00     0.134 A 
ATOM     75  C   UNL A   1      48.382  26.769  26.291  1.00  0.00     0.134 A 
ATOM     76  F   UNL A   1      46.445  28.150  23.544  1.00  0.00    -0.206 F 
ATOM     77  C   UNL A   1      48.504  27.023  23.525  1.00  0.00     0.040 A 
ATOM     78  C   UNL A   1      49.475  26.255  25.594  1.00  0.00     0.040 A 
ATOM     79  F   UNL A   1      48.353  26.619  27.623  1.00  0.00    -0.206 F 
ATOM     80  C   UNL A   1      49.535  26.377  24.206  1.00  0.00     0.006 A 
ENDBRANCH  56  73
ENDBRANCH  30  31
ENDBRANCH  23  25
ENDBRANCH  22  23
ENDBRANCH  21  22
ENDBRANCH   1  21
TORSDOF 15
ENDMDL
MODEL 3
REMARK VINA RESULT:     -10.6      5.941     11.737
REMARK SMILES CC(C)(C)c1ccc(NC(=O)CCC(=O)OCCOC(=O)c2ccc(-c3c4nc(c(-c5c(F)cccc5F)c5ccc([nH]5)c(-c5c(F)cccc5F)c5nc(c(-c6c(F)cccc6F)c6ccc3[nH]6)C=C5)C=C4)cc2)cc1
REMARK SMILES IDX 17 1 16 2 14 3 15 4 13 5 12 6 10 7 9 8 11 10 8 11 5 12 6 13
REMARK SMILES IDX 77 14 7 15 76 16 2 17 1 18 3 19 4 20 18 21 19 22 20 23 21 24
REMARK SMILES IDX 22 25 23 26 75 27 24 28 74 29 25 30 26 31 27 32 68 33 28 34
REMARK SMILES IDX 73 35 67 36 69 37 29 38 72 39 66 40 65 41 30 43 56 44 39 45
REMARK SMILES IDX 55 46 40 47 43 48 54 49 70 50 41 51 42 52 53 54 71 55 44 56
REMARK SMILES IDX 31 57 32 58 37 59 33 60 34 61 36 62 38 63 35 64 57 65 58 66
REMARK SMILES IDX 63 67 59 68 60 69 62 70 64 71 61 72 45 73 46 74 51 75 47 76
REMARK SMILES IDX 48 77 50 78 52 79 49 80
REMARK H PARENT 9 9 69 42 43 53
REMARK Flexibility Score: inf
ROOT
ATOM      1  C   UNL A   1      34.368  34.632  31.948  1.00  0.00     0.274 C 
ENDROOT
BRANCH   1   2
ATOM      2  O   UNL A   1      33.155  34.684  31.168  1.00  0.00    -0.462 OA
BRANCH   2   3
ATOM      3  C   UNL A   1      33.001  35.772  30.369  1.00  0.00     0.306 C 
ATOM      4  O   UNL A   1      32.503  36.834  30.728  1.00  0.00    -0.252 OA
BRANCH   3   5
ATOM      5  C   UNL A   1      33.443  35.519  28.945  1.00  0.00     0.132 C 
BRANCH   5   6
ATOM      6  C   UNL A   1      33.455  34.058  28.488  1.00  0.00     0.112 C 
BRANCH   6   7
ATOM      7  C   UNL A   1      34.857  33.500  28.446  1.00  0.00     0.224 C 
ATOM      8  N   UNL A   1      35.182  32.256  28.002  1.00  0.00    -0.326 N 
ATOM      9  H   UNL A   1      36.155  32.105  27.985  1.00  0.00     0.169 HD
ATOM     10  O   UNL A   1      35.799  34.238  28.766  1.00  0.00    -0.275 OA
BRANCH   8  11
ATOM     11  C   UNL A   1      34.456  31.136  27.560  1.00  0.00     0.041 A 
ATOM     12  C   UNL A   1      33.305  28.827  26.331  1.00  0.00    -0.042 A 
ATOM     13  C   UNL A   1      32.542  29.974  26.601  1.00  0.00     0.006 A 
ATOM     14  C   UNL A   1      34.611  28.813  26.848  1.00  0.00     0.006 A 
ATOM     15  C   UNL A   1      33.109  31.110  27.223  1.00  0.00     0.026 A 
ATOM     16  C   UNL A   1      35.173  29.943  27.455  1.00  0.00     0.026 A 
BRANCH  12  17
ATOM     17  C   UNL A   1      32.802  27.640  25.489  1.00  0.00    -0.013 C 
ATOM     18  C   UNL A   1      33.034  26.316  26.263  1.00  0.00     0.016 C 
ATOM     19  C   UNL A   1      33.514  27.458  24.132  1.00  0.00     0.016 C 
ATOM     20  C   UNL A   1      31.301  27.805  25.197  1.00  0.00     0.016 C 
ENDBRANCH  12  17
ENDBRANCH   8  11
ENDBRANCH   6   7
ENDBRANCH   5   6
ENDBRANCH   3   5
ENDBRANCH   2   3
ENDBRANCH   1   2
BRANCH   1  21
ATOM     21  C   UNL A   1      34.388  33.458  32.934  1.00  0.00     0.275 C 
BRANCH  21  22
ATOM     22  O   UNL A   1      35.127  32.313  32.463  1.00  0.00    -0.458 OA
BRANCH  22  23
ATOM     23  C   UNL A   1      36.271  32.093  33.134  1.00  0.00     0.338 C 
ATOM     24  O   UNL A   1      36.507  32.341  34.304  1.00  0.00    -0.246 OA
BRANCH  23  25
ATOM     25  C   UNL A   1      37.332  31.545  32.319  1.00  0.00     0.060 A 
ATOM     26  C   UNL A   1      37.193  31.513  30.935  1.00  0.00     0.016 A 
ATOM     27  C   UNL A   1      38.370  30.880  32.969  1.00  0.00     0.016 A 
ATOM     28  C   UNL A   1      38.169  30.866  30.188  1.00  0.00     0.010 A 
ATOM     29  C   UNL A   1      39.368  30.275  32.227  1.00  0.00     0.010 A 
ATOM     30  C   UNL A   1      39.285  30.298  30.832  1.00  0.00    -0.014 A 
BRANCH  30  31
ATOM     31  C   UNL A   1      40.482  29.946  30.049  1.00  0.00     0.031 A 
ATOM     32  C   UNL A   1      41.563  30.934  29.764  1.00  0.00     0.074 A 
ATOM     33  C   UNL A   1      40.492  28.712  29.514  1.00  0.00     0.049 A 
ATOM     34  N   UNL A   1      42.672  30.757  29.096  1.00  0.00    -0.248 NA
ATOM     35  C   UNL A   1      41.366  32.306  30.258  1.00  0.00     0.031 C 
ATOM     36  C   UNL A   1      39.406  27.732  29.645  1.00  0.00     0.029 A 
ATOM     37  N   UNL A   1      41.431  28.066  28.762  1.00  0.00    -0.354 N 
ATOM     38  C   UNL A   1      43.302  31.993  29.073  1.00  0.00     0.074 A 
ATOM     39  C   UNL A   1      42.438  32.921  29.772  1.00  0.00     0.031 C 
ATOM     40  C   UNL A   1      39.766  26.592  29.044  1.00  0.00     0.029 A 
ATOM     41  C   UNL A   1      41.089  26.771  28.463  1.00  0.00     0.049 A 
ATOM     42  H   UNL A   1      42.269  28.488  28.463  1.00  0.00     0.167 HD
ATOM     43  C   UNL A   1      44.497  32.306  28.519  1.00  0.00     0.037 A 
ATOM     44  C   UNL A   1      41.780  25.826  27.809  1.00  0.00     0.037 A 
ATOM     45  C   UNL A   1      45.336  31.351  27.841  1.00  0.00     0.049 A 
ATOM     46  C   UNL A   1      43.148  26.169  27.314  1.00  0.00     0.074 A 
ATOM     47  C   UNL A   1      46.593  31.537  27.293  1.00  0.00     0.029 A 
ATOM     48  N   UNL A   1      44.996  30.023  27.620  1.00  0.00    -0.354 N 
ATOM     49  N   UNL A   1      43.776  27.318  27.373  1.00  0.00    -0.248 NA
ATOM     50  C   UNL A   1      43.909  25.091  26.675  1.00  0.00     0.031 C 
ATOM     51  C   UNL A   1      47.005  30.325  26.724  1.00  0.00     0.029 A 
ATOM     52  C   UNL A   1      46.016  29.378  26.941  1.00  0.00     0.049 A 
ATOM     53  H   UNL A   1      44.154  29.601  27.905  1.00  0.00     0.167 HD
ATOM     54  C   UNL A   1      45.009  27.106  26.780  1.00  0.00     0.074 A 
ATOM     55  C   UNL A   1      45.049  25.707  26.394  1.00  0.00     0.031 C 
ATOM     56  C   UNL A   1      46.015  27.988  26.565  1.00  0.00     0.037 A 
BRANCH  43  57
ATOM     57  C   UNL A   1      44.962  33.728  28.625  1.00  0.00     0.057 A 
ATOM     58  C   UNL A   1      44.621  34.688  27.664  1.00  0.00     0.134 A 
ATOM     59  C   UNL A   1      45.726  34.154  29.718  1.00  0.00     0.134 A 
ATOM     60  F   UNL A   1      43.900  34.344  26.585  1.00  0.00    -0.206 F 
ATOM     61  C   UNL A   1      45.036  36.017  27.777  1.00  0.00     0.040 A 
ATOM     62  C   UNL A   1      46.131  35.485  29.853  1.00  0.00     0.040 A 
ATOM     63  F   UNL A   1      46.087  33.288  30.677  1.00  0.00    -0.206 F 
ATOM     64  C   UNL A   1      45.790  36.419  28.878  1.00  0.00     0.006 A 
ENDBRANCH  43  57
BRANCH  44  65
ATOM     65  C   UNL A   1      41.201  24.470  27.671  1.00  0.00     0.057 A 
ATOM     66  C   UNL A   1      40.221  24.206  26.710  1.00  0.00     0.134 A 
ATOM     67  C   UNL A   1      41.675  23.392  28.429  1.00  0.00     0.134 A 
ATOM     68  F   UNL A   1      39.732  25.200  25.953  1.00  0.00    -0.206 F 
ATOM     69  C   UNL A   1      39.722  22.918  26.511  1.00  0.00     0.040 A 
ATOM     70  C   UNL A   1      41.200  22.096  28.227  1.00  0.00     0.040 A 
ATOM     71  F   UNL A   1      42.635  23.580  29.345  1.00  0.00    -0.206 F 
ATOM     72  C   UNL A   1      40.218  21.857  27.267  1.00  0.00     0.006 A 
ENDBRANCH  44  65
BRANCH  56  73
ATOM     73  C   UNL A   1      47.227  27.449  25.875  1.00  0.00     0.057 A 
ATOM     74  C   UNL A   1      48.269  26.854  26.595  1.00  0.00     0.134 A 
ATOM     75  C   UNL A   1      47.348  27.520  24.483  1.00  0.00     0.134 A 
ATOM     76  F   UNL A   1      48.214  26.776  27.933  1.00  0.00    -0.206 F 
ATOM     77  C   UNL A   1      49.405  26.363  25.953  1.00  0.00     0.040 A 
ATOM     78  C   UNL A   1      48.471  27.016  23.828  1.00  0.00     0.040 A 
ATOM     79  F   UNL A   1      46.380  28.078  23.742  1.00  0.00    -0.206 F 
ATOM     80  C   UNL A   1      49.506  26.440  24.565  1.00  0.00     0.006 A 
ENDBRANCH  56  73
ENDBRANCH  30  31
ENDBRANCH  23  25
ENDBRANCH  22  23
ENDBRANCH  21  22
ENDBRANCH   1  21
TORSDOF 15
ENDMDL
