MODEL 1
REMARK VINA RESULT:     -14.0      0.000      0.000
REMARK SMILES C[C@]12C(=O)N(c3ccc(C(=O)OCCOC(=O)c4ccc(-c5c6nc(c(-c7c(F)cccc7F)c7ccc([nH]7)c(-c7c(F)cccc7F)c7nc(c(-c8c(F)cccc8F)c8ccc5[nH]8)C=C7)C=C6)cc4)cc3)C(=O)[C@H]1[C@H]1c3ccccc3[C@@H]2c2ccccc21
REMARK SMILES IDX 14 1 13 2 12 3 10 4 11 5 9 6 6 7 7 8 73 9 8 10 72 11 5 12
REMARK SMILES IDX 1 13 2 14 3 15 76 16 84 17 4 18 74 19 77 20 83 21 85 22
REMARK SMILES IDX 75 23 78 24 90 25 82 26 86 27 79 28 89 29 81 30 87 31 80 32
REMARK SMILES IDX 88 33 15 34 16 35 17 36 18 37 19 38 71 39 20 40 70 41 21 42
REMARK SMILES IDX 22 43 23 44 64 45 24 46 69 47 63 48 65 49 25 50 68 51 62 52
REMARK SMILES IDX 61 53 26 55 52 56 35 57 51 58 36 59 39 60 50 61 66 62 37 63
REMARK SMILES IDX 38 64 49 66 67 67 40 68 27 69 28 70 33 71 29 72 30 73 32 74
REMARK SMILES IDX 34 75 31 76 53 77 54 78 59 79 55 80 56 81 58 82 60 83 57 84
REMARK SMILES IDX 41 85 42 86 47 87 43 88 44 89 46 90 48 91 45 92
REMARK H PARENT 65 54 39 65
REMARK Flexibility Score: inf
ROOT
ATOM      1  C   UNL A   1      39.660  20.012  25.716  1.00  0.00     0.275 C 
ENDROOT
BRANCH   1   2
ATOM      2  C   UNL A   1      39.277  21.429  26.149  1.00  0.00     0.275 C 
BRANCH   2   3
ATOM      3  O   UNL A   1      38.077  21.873  25.479  1.00  0.00    -0.458 OA
BRANCH   3   4
ATOM      4  C   UNL A   1      37.670  23.124  25.784  1.00  0.00     0.338 C 
ATOM      5  O   UNL A   1      38.329  23.996  26.330  1.00  0.00    -0.246 OA
BRANCH   4   6
ATOM      6  C   UNL A   1      36.331  23.392  25.218  1.00  0.00     0.060 A 
ATOM      7  C   UNL A   1      33.928  23.965  23.815  1.00  0.00     0.052 A 
ATOM      8  C   UNL A   1      34.814  22.960  23.393  1.00  0.00     0.028 A 
ATOM      9  C   UNL A   1      34.251  24.642  25.004  1.00  0.00     0.028 A 
ATOM     10  C   UNL A   1      36.004  22.704  24.060  1.00  0.00     0.018 A 
ATOM     11  C   UNL A   1      35.440  24.346  25.714  1.00  0.00     0.018 A 
BRANCH   7  12
ATOM     12  N   UNL A   1      32.903  24.403  22.903  1.00  0.00    -0.250 N 
ATOM     13  C   UNL A   1      31.194  26.263  20.816  1.00  0.00     0.024 C 
ATOM     14  C   UNL A   1      31.778  26.349  22.241  1.00  0.00     0.071 C 
ATOM     15  C   UNL A   1      33.072  25.588  22.198  1.00  0.00     0.241 C 
ATOM     16  C   UNL A   1      30.967  25.544  23.281  1.00  0.00     0.107 C 
ATOM     17  C   UNL A   1      31.935  27.806  22.792  1.00  0.00     0.066 C 
ATOM     18  O   UNL A   1      34.049  25.976  21.572  1.00  0.00    -0.273 OA
ATOM     19  C   UNL A   1      31.529  24.148  23.123  1.00  0.00     0.238 C 
ATOM     20  C   UNL A   1      30.031  26.488  24.116  1.00  0.00     0.063 C 
ATOM     21  C   UNL A   1      32.173  27.758  24.320  1.00  0.00    -0.036 A 
ATOM     22  C   UNL A   1      30.545  28.419  22.635  1.00  0.00    -0.036 A 
ATOM     23  O   UNL A   1      30.941  23.095  23.287  1.00  0.00    -0.274 OA
ATOM     24  C   UNL A   1      31.096  27.159  25.065  1.00  0.00    -0.036 A 
ATOM     25  C   UNL A   1      29.516  27.681  23.292  1.00  0.00    -0.036 A 
ATOM     26  C   UNL A   1      33.361  28.081  24.957  1.00  0.00     0.005 A 
ATOM     27  C   UNL A   1      30.284  29.624  21.996  1.00  0.00     0.005 A 
ATOM     28  C   UNL A   1      31.220  26.886  26.420  1.00  0.00     0.004 A 
ATOM     29  C   UNL A   1      28.223  28.184  23.310  1.00  0.00     0.004 A 
ATOM     30  C   UNL A   1      33.482  27.794  26.321  1.00  0.00     0.000 A 
ATOM     31  C   UNL A   1      28.983  30.115  22.017  1.00  0.00     0.000 A 
ATOM     32  C   UNL A   1      32.427  27.207  27.042  1.00  0.00     0.000 A 
ATOM     33  C   UNL A   1      27.962  29.402  22.668  1.00  0.00     0.000 A 
ENDBRANCH   7  12
ENDBRANCH   4   6
ENDBRANCH   3   4
ENDBRANCH   2   3
ENDBRANCH   1   2
BRANCH   1  34
ATOM     34  O   UNL A   1      40.800  19.541  26.462  1.00  0.00    -0.458 OA
BRANCH  34  35
ATOM     35  C   UNL A   1      42.005  19.844  25.934  1.00  0.00     0.338 C 
ATOM     36  O   UNL A   1      42.644  19.208  25.114  1.00  0.00    -0.246 OA
BRANCH  35  37
ATOM     37  C   UNL A   1      42.463  21.138  26.462  1.00  0.00     0.060 A 
ATOM     38  C   UNL A   1      42.780  22.186  25.602  1.00  0.00     0.016 A 
ATOM     39  C   UNL A   1      42.424  21.345  27.838  1.00  0.00     0.016 A 
ATOM     40  C   UNL A   1      43.054  23.451  26.135  1.00  0.00     0.010 A 
ATOM     41  C   UNL A   1      42.567  22.630  28.354  1.00  0.00     0.010 A 
ATOM     42  C   UNL A   1      42.908  23.699  27.514  1.00  0.00    -0.014 A 
BRANCH  42  43
ATOM     43  C   UNL A   1      43.115  25.057  28.094  1.00  0.00     0.031 A 
ATOM     44  C   UNL A   1      44.493  25.509  28.512  1.00  0.00     0.074 A 
ATOM     45  C   UNL A   1      42.058  25.868  28.308  1.00  0.00     0.049 A 
ATOM     46  N   UNL A   1      44.861  26.625  29.093  1.00  0.00    -0.248 NA
ATOM     47  C   UNL A   1      45.602  24.569  28.279  1.00  0.00     0.031 C 
ATOM     48  C   UNL A   1      40.661  25.535  28.026  1.00  0.00     0.029 A 
ATOM     49  N   UNL A   1      41.996  27.140  28.822  1.00  0.00    -0.354 N 
ATOM     50  C   UNL A   1      46.228  26.506  29.316  1.00  0.00     0.074 A 
ATOM     51  C   UNL A   1      46.615  25.188  28.865  1.00  0.00     0.031 C 
ATOM     52  C   UNL A   1      39.885  26.589  28.329  1.00  0.00     0.029 A 
ATOM     53  C   UNL A   1      40.722  27.656  28.868  1.00  0.00     0.049 A 
ATOM     54  H   UNL A   1      42.788  27.636  29.130  1.00  0.00     0.167 HD
ATOM     55  C   UNL A   1      47.093  27.419  29.819  1.00  0.00     0.037 A 
ATOM     56  C   UNL A   1      40.276  28.852  29.297  1.00  0.00     0.037 A 
ATOM     57  C   UNL A   1      46.723  28.749  30.227  1.00  0.00     0.049 A 
ATOM     58  C   UNL A   1      41.257  29.854  29.838  1.00  0.00     0.074 A 
ATOM     59  C   UNL A   1      47.538  29.777  30.667  1.00  0.00     0.029 A 
ATOM     60  N   UNL A   1      45.424  29.235  30.242  1.00  0.00    -0.354 N 
ATOM     61  N   UNL A   1      42.558  29.753  29.966  1.00  0.00    -0.248 NA
ATOM     62  C   UNL A   1      40.706  31.138  30.296  1.00  0.00     0.031 C 
ATOM     63  C   UNL A   1      46.730  30.873  30.984  1.00  0.00     0.029 A 
ATOM     64  C   UNL A   1      45.414  30.541  30.705  1.00  0.00     0.049 A 
ATOM     65  H   UNL A   1      44.628  28.727  29.965  1.00  0.00     0.167 HD
ATOM     66  C   UNL A   1      42.981  30.960  30.506  1.00  0.00     0.074 A 
ATOM     67  C   UNL A   1      41.802  31.788  30.654  1.00  0.00     0.031 C 
ATOM     68  C   UNL A   1      44.232  31.348  30.854  1.00  0.00     0.037 A 
BRANCH  55  69
ATOM     69  C   UNL A   1      48.534  27.015  29.940  1.00  0.00     0.057 A 
ATOM     70  C   UNL A   1      49.017  26.414  31.109  1.00  0.00     0.134 A 
ATOM     71  C   UNL A   1      49.453  27.246  28.907  1.00  0.00     0.134 A 
ATOM     72  F   UNL A   1      48.195  26.172  32.141  1.00  0.00    -0.206 F 
ATOM     73  C   UNL A   1      50.360  26.055  31.245  1.00  0.00     0.040 A 
ATOM     74  C   UNL A   1      50.792  26.865  29.020  1.00  0.00     0.040 A 
ATOM     75  F   UNL A   1      49.055  27.807  27.755  1.00  0.00    -0.206 F 
ATOM     76  C   UNL A   1      51.249  26.273  30.195  1.00  0.00     0.006 A 
ENDBRANCH  55  69
BRANCH  56  77
ATOM     77  C   UNL A   1      38.830  29.184  29.221  1.00  0.00     0.057 A 
ATOM     78  C   UNL A   1      37.995  29.081  30.338  1.00  0.00     0.134 A 
ATOM     79  C   UNL A   1      38.260  29.643  28.028  1.00  0.00     0.134 A 
ATOM     80  F   UNL A   1      38.481  28.647  31.510  1.00  0.00    -0.206 F 
ATOM     81  C   UNL A   1      36.642  29.420  30.272  1.00  0.00     0.040 A 
ATOM     82  C   UNL A   1      36.915  30.009  27.953  1.00  0.00     0.040 A 
ATOM     83  F   UNL A   1      39.015  29.785  26.929  1.00  0.00    -0.206 F 
ATOM     84  C   UNL A   1      36.101  29.893  29.078  1.00  0.00     0.006 A 
ENDBRANCH  56  77
BRANCH  68  85
ATOM     85  C   UNL A   1      44.382  32.728  31.420  1.00  0.00     0.057 A 
ATOM     86  C   UNL A   1      44.314  32.947  32.802  1.00  0.00     0.134 A 
ATOM     87  C   UNL A   1      44.583  33.842  30.595  1.00  0.00     0.134 A 
ATOM     88  F   UNL A   1      44.117  31.923  33.645  1.00  0.00    -0.206 F 
ATOM     89  C   UNL A   1      44.443  34.227  33.343  1.00  0.00     0.040 A 
ATOM     90  C   UNL A   1      44.738  35.123  31.127  1.00  0.00     0.040 A 
ATOM     91  F   UNL A   1      44.672  33.696  29.265  1.00  0.00    -0.206 F 
ATOM     92  C   UNL A   1      44.663  35.318  32.505  1.00  0.00     0.006 A 
ENDBRANCH  68  85
ENDBRANCH  42  43
ENDBRANCH  35  37
ENDBRANCH  34  35
ENDBRANCH   1  34
TORSDOF 12
ENDMDL
MODEL 2
REMARK VINA RESULT:     -13.9      3.894      8.959
REMARK SMILES C[C@]12C(=O)N(c3ccc(C(=O)OCCOC(=O)c4ccc(-c5c6nc(c(-c7c(F)cccc7F)c7ccc([nH]7)c(-c7c(F)cccc7F)c7nc(c(-c8c(F)cccc8F)c8ccc5[nH]8)C=C7)C=C6)cc4)cc3)C(=O)[C@H]1[C@H]1c3ccccc3[C@@H]2c2ccccc21
REMARK SMILES IDX 14 1 13 2 12 3 10 4 11 5 9 6 6 7 7 8 73 9 8 10 72 11 5 12
REMARK SMILES IDX 1 13 2 14 3 15 76 16 84 17 4 18 74 19 77 20 83 21 85 22
REMARK SMILES IDX 75 23 78 24 90 25 82 26 86 27 79 28 89 29 81 30 87 31 80 32
REMARK SMILES IDX 88 33 15 34 16 35 17 36 18 37 19 38 71 39 20 40 70 41 21 42
REMARK SMILES IDX 22 43 23 44 64 45 24 46 69 47 63 48 65 49 25 50 68 51 62 52
REMARK SMILES IDX 61 53 26 55 52 56 35 57 51 58 36 59 39 60 50 61 66 62 37 63
REMARK SMILES IDX 38 64 49 66 67 67 40 68 27 69 28 70 33 71 29 72 30 73 32 74
REMARK SMILES IDX 34 75 31 76 53 77 54 78 59 79 55 80 56 81 58 82 60 83 57 84
REMARK SMILES IDX 41 85 42 86 47 87 43 88 44 89 46 90 48 91 45 92
REMARK H PARENT 65 54 39 65
REMARK Flexibility Score: inf
ROOT
ATOM      1  C   UNL A   1      31.028  32.512  26.132  1.00  0.00     0.275 C 
ENDROOT
BRANCH   1   2
ATOM      2  C   UNL A   1      30.423  31.356  25.333  1.00  0.00     0.275 C 
BRANCH   2   3
ATOM      3  O   UNL A   1      29.659  31.843  24.208  1.00  0.00    -0.458 OA
BRANCH   3   4
ATOM      4  C   UNL A   1      28.761  30.974  23.696  1.00  0.00     0.338 C 
ATOM      5  O   UNL A   1      27.559  31.154  23.565  1.00  0.00    -0.246 OA
BRANCH   4   6
ATOM      6  C   UNL A   1      29.440  29.787  23.137  1.00  0.00     0.060 A 
ATOM      7  C   UNL A   1      30.763  27.382  22.403  1.00  0.00     0.052 A 
ATOM      8  C   UNL A   1      29.559  27.377  23.126  1.00  0.00     0.028 A 
ATOM      9  C   UNL A   1      31.261  28.634  22.001  1.00  0.00     0.028 A 
ATOM     10  C   UNL A   1      28.931  28.553  23.512  1.00  0.00     0.018 A 
ATOM     11  C   UNL A   1      30.594  29.833  22.351  1.00  0.00     0.018 A 
BRANCH   7  12
ATOM     12  N   UNL A   1      31.526  26.163  22.333  1.00  0.00    -0.250 N 
ATOM     13  C   UNL A   1      32.579  23.121  22.947  1.00  0.00     0.024 C 
ATOM     14  C   UNL A   1      32.311  24.436  23.708  1.00  0.00     0.071 C 
ATOM     15  C   UNL A   1      31.108  25.049  23.052  1.00  0.00     0.241 C 
ATOM     16  C   UNL A   1      33.393  25.511  23.466  1.00  0.00     0.107 C 
ATOM     17  C   UNL A   1      32.153  24.269  25.257  1.00  0.00     0.066 C 
ATOM     18  O   UNL A   1      29.990  24.559  23.126  1.00  0.00    -0.273 OA
ATOM     19  C   UNL A   1      32.932  26.152  22.174  1.00  0.00     0.238 C 
ATOM     20  C   UNL A   1      34.403  25.573  24.666  1.00  0.00     0.063 C 
ATOM     21  C   UNL A   1      32.254  25.654  25.939  1.00  0.00    -0.036 A 
ATOM     22  C   UNL A   1      33.419  23.531  25.688  1.00  0.00    -0.036 A 
ATOM     23  O   UNL A   1      33.629  26.644  21.307  1.00  0.00    -0.274 OA
ATOM     24  C   UNL A   1      33.515  26.320  25.732  1.00  0.00    -0.036 A 
ATOM     25  C   UNL A   1      34.624  24.198  25.317  1.00  0.00    -0.036 A 
ATOM     26  C   UNL A   1      31.209  26.323  26.555  1.00  0.00     0.005 A 
ATOM     27  C   UNL A   1      33.431  22.366  26.444  1.00  0.00     0.005 A 
ATOM     28  C   UNL A   1      33.709  27.635  26.132  1.00  0.00     0.004 A 
ATOM     29  C   UNL A   1      35.843  23.682  25.735  1.00  0.00     0.004 A 
ATOM     30  C   UNL A   1      31.411  27.652  26.947  1.00  0.00     0.000 A 
ATOM     31  C   UNL A   1      34.660  21.856  26.851  1.00  0.00     0.000 A 
ATOM     32  C   UNL A   1      32.643  28.298  26.739  1.00  0.00     0.000 A 
ATOM     33  C   UNL A   1      35.853  22.508  26.501  1.00  0.00     0.000 A 
ENDBRANCH   7  12
ENDBRANCH   4   6
ENDBRANCH   3   4
ENDBRANCH   2   3
ENDBRANCH   1   2
BRANCH   1  34
ATOM     34  O   UNL A   1      32.167  32.065  26.894  1.00  0.00    -0.458 OA
BRANCH  34  35
ATOM     35  C   UNL A   1      32.861  33.037  27.524  1.00  0.00     0.338 C 
ATOM     36  O   UNL A   1      32.512  34.182  27.746  1.00  0.00    -0.246 OA
BRANCH  35  37
ATOM     37  C   UNL A   1      34.152  32.500  27.983  1.00  0.00     0.060 A 
ATOM     38  C   UNL A   1      35.164  33.354  28.416  1.00  0.00     0.016 A 
ATOM     39  C   UNL A   1      34.286  31.122  28.124  1.00  0.00     0.016 A 
ATOM     40  C   UNL A   1      36.315  32.810  28.999  1.00  0.00     0.010 A 
ATOM     41  C   UNL A   1      35.370  30.595  28.820  1.00  0.00     0.010 A 
ATOM     42  C   UNL A   1      36.413  31.428  29.247  1.00  0.00    -0.014 A 
BRANCH  42  43
ATOM     43  C   UNL A   1      37.594  30.836  29.940  1.00  0.00     0.031 A 
ATOM     44  C   UNL A   1      37.881  31.170  31.384  1.00  0.00     0.074 A 
ATOM     45  C   UNL A   1      38.452  30.049  29.259  1.00  0.00     0.049 A 
ATOM     46  N   UNL A   1      38.892  30.807  32.136  1.00  0.00    -0.248 NA
ATOM     47  C   UNL A   1      36.925  32.058  32.066  1.00  0.00     0.031 C 
ATOM     48  C   UNL A   1      38.345  29.703  27.840  1.00  0.00     0.029 A 
ATOM     49  N   UNL A   1      39.591  29.400  29.671  1.00  0.00    -0.354 N 
ATOM     50  C   UNL A   1      38.704  31.441  33.359  1.00  0.00     0.074 A 
ATOM     51  C   UNL A   1      37.519  32.259  33.231  1.00  0.00     0.031 C 
ATOM     52  C   UNL A   1      39.348  28.874  27.510  1.00  0.00     0.029 A 
ATOM     53  C   UNL A   1      40.195  28.662  28.680  1.00  0.00     0.049 A 
ATOM     54  H   UNL A   1      39.942  29.458  30.588  1.00  0.00     0.167 HD
ATOM     55  C   UNL A   1      39.430  31.331  34.497  1.00  0.00     0.037 A 
ATOM     56  C   UNL A   1      41.307  27.904  28.707  1.00  0.00     0.037 A 
ATOM     57  C   UNL A   1      40.583  30.483  34.645  1.00  0.00     0.049 A 
ATOM     58  C   UNL A   1      42.088  27.785  29.987  1.00  0.00     0.074 A 
ATOM     59  C   UNL A   1      41.334  30.235  35.781  1.00  0.00     0.029 A 
ATOM     60  N   UNL A   1      41.152  29.741  33.621  1.00  0.00    -0.354 N 
ATOM     61  N   UNL A   1      41.849  28.329  31.156  1.00  0.00    -0.248 NA
ATOM     62  C   UNL A   1      43.295  26.947  29.949  1.00  0.00     0.031 C 
ATOM     63  C   UNL A   1      42.379  29.372  35.436  1.00  0.00     0.029 A 
ATOM     64  C   UNL A   1      42.257  29.053  34.094  1.00  0.00     0.049 A 
ATOM     65  H   UNL A   1      40.819  29.710  32.695  1.00  0.00     0.167 HD
ATOM     66  C   UNL A   1      42.866  27.890  31.993  1.00  0.00     0.074 A 
ATOM     67  C   UNL A   1      43.707  27.013  31.206  1.00  0.00     0.031 C 
ATOM     68  C   UNL A   1      43.088  28.191  33.295  1.00  0.00     0.037 A 
BRANCH  55  69
ATOM     69  C   UNL A   1      38.983  32.136  35.684  1.00  0.00     0.057 A 
ATOM     70  C   UNL A   1      39.369  33.475  35.830  1.00  0.00     0.134 A 
ATOM     71  C   UNL A   1      38.193  31.579  36.698  1.00  0.00     0.134 A 
ATOM     72  F   UNL A   1      40.133  34.069  34.902  1.00  0.00    -0.206 F 
ATOM     73  C   UNL A   1      38.983  34.229  36.940  1.00  0.00     0.040 A 
ATOM     74  C   UNL A   1      37.777  32.331  37.798  1.00  0.00     0.040 A 
ATOM     75  F   UNL A   1      37.778  30.305  36.614  1.00  0.00    -0.206 F 
ATOM     76  C   UNL A   1      38.177  33.660  37.923  1.00  0.00     0.006 A 
ENDBRANCH  55  69
BRANCH  56  77
ATOM     77  C   UNL A   1      41.749  27.176  27.490  1.00  0.00     0.057 A 
ATOM     78  C   UNL A   1      42.540  27.793  26.515  1.00  0.00     0.134 A 
ATOM     79  C   UNL A   1      41.411  25.833  27.292  1.00  0.00     0.134 A 
ATOM     80  F   UNL A   1      42.898  29.079  26.645  1.00  0.00    -0.206 F 
ATOM     81  C   UNL A   1      42.978  27.101  25.384  1.00  0.00     0.040 A 
ATOM     82  C   UNL A   1      41.861  25.121  26.179  1.00  0.00     0.040 A 
ATOM     83  F   UNL A   1      40.674  25.181  28.203  1.00  0.00    -0.206 F 
ATOM     84  C   UNL A   1      42.644  25.757  25.219  1.00  0.00     0.006 A 
ENDBRANCH  56  77
BRANCH  68  85
ATOM     85  C   UNL A   1      44.283  27.557  33.943  1.00  0.00     0.057 A 
ATOM     86  C   UNL A   1      45.522  28.210  33.954  1.00  0.00     0.134 A 
ATOM     87  C   UNL A   1      44.208  26.296  34.548  1.00  0.00     0.134 A 
ATOM     88  F   UNL A   1      45.661  29.417  33.387  1.00  0.00    -0.206 F 
ATOM     89  C   UNL A   1      46.645  27.630  34.546  1.00  0.00     0.040 A 
ATOM     90  C   UNL A   1      45.318  25.717  35.164  1.00  0.00     0.040 A 
ATOM     91  F   UNL A   1      43.045  25.627  34.584  1.00  0.00    -0.206 F 
ATOM     92  C   UNL A   1      46.542  26.383  35.160  1.00  0.00     0.006 A 
ENDBRANCH  68  85
ENDBRANCH  42  43
ENDBRANCH  35  37
ENDBRANCH  34  35
ENDBRANCH   1  34
TORSDOF 12
ENDMDL
MODEL 3
REMARK VINA RESULT:     -13.9      0.840      5.880
REMARK SMILES C[C@]12C(=O)N(c3ccc(C(=O)OCCOC(=O)c4ccc(-c5c6nc(c(-c7c(F)cccc7F)c7ccc([nH]7)c(-c7c(F)cccc7F)c7nc(c(-c8c(F)cccc8F)c8ccc5[nH]8)C=C7)C=C6)cc4)cc3)C(=O)[C@H]1[C@H]1c3ccccc3[C@@H]2c2ccccc21
REMARK SMILES IDX 14 1 13 2 12 3 10 4 11 5 9 6 6 7 7 8 73 9 8 10 72 11 5 12
REMARK SMILES IDX 1 13 2 14 3 15 76 16 84 17 4 18 74 19 77 20 83 21 85 22
REMARK SMILES IDX 75 23 78 24 90 25 82 26 86 27 79 28 89 29 81 30 87 31 80 32
REMARK SMILES IDX 88 33 15 34 16 35 17 36 18 37 19 38 71 39 20 40 70 41 21 42
REMARK SMILES IDX 22 43 23 44 64 45 24 46 69 47 63 48 65 49 25 50 68 51 62 52
REMARK SMILES IDX 61 53 26 55 52 56 35 57 51 58 36 59 39 60 50 61 66 62 37 63
REMARK SMILES IDX 38 64 49 66 67 67 40 68 27 69 28 70 33 71 29 72 30 73 32 74
REMARK SMILES IDX 34 75 31 76 53 77 54 78 59 79 55 80 56 81 58 82 60 83 57 84
REMARK SMILES IDX 41 85 42 86 47 87 43 88 44 89 46 90 48 91 45 92
REMARK H PARENT 65 54 39 65
REMARK Flexibility Score: inf
ROOT
ATOM      1  C   UNL A   1      39.647  20.114  25.768  1.00  0.00     0.275 C 
ENDROOT
BRANCH   1   2
ATOM      2  C   UNL A   1      39.297  21.554  26.148  1.00  0.00     0.275 C 
BRANCH   2   3
ATOM      3  O   UNL A   1      38.075  21.981  25.505  1.00  0.00    -0.458 OA
BRANCH   3   4
ATOM      4  C   UNL A   1      37.629  23.206  25.861  1.00  0.00     0.338 C 
ATOM      5  O   UNL A   1      38.256  24.069  26.457  1.00  0.00    -0.246 OA
BRANCH   4   6
ATOM      6  C   UNL A   1      36.292  23.464  25.286  1.00  0.00     0.060 A 
ATOM      7  C   UNL A   1      33.894  24.014  23.866  1.00  0.00     0.052 A 
ATOM      8  C   UNL A   1      34.786  23.008  23.457  1.00  0.00     0.028 A 
ATOM      9  C   UNL A   1      34.209  24.704  25.049  1.00  0.00     0.028 A 
ATOM     10  C   UNL A   1      35.973  22.763  24.133  1.00  0.00     0.018 A 
ATOM     11  C   UNL A   1      35.395  24.419  25.768  1.00  0.00     0.018 A 
BRANCH   7  12
ATOM     12  N   UNL A   1      32.873  24.440  22.944  1.00  0.00    -0.250 N 
ATOM     13  C   UNL A   1      31.170  26.272  20.828  1.00  0.00     0.024 C 
ATOM     14  C   UNL A   1      31.747  26.376  22.255  1.00  0.00     0.071 C 
ATOM     15  C   UNL A   1      33.042  25.617  22.226  1.00  0.00     0.241 C 
ATOM     16  C   UNL A   1      30.933  25.582  23.301  1.00  0.00     0.107 C 
ATOM     17  C   UNL A   1      31.899  27.840  22.789  1.00  0.00     0.066 C 
ATOM     18  O   UNL A   1      34.022  26.000  21.600  1.00  0.00    -0.273 OA
ATOM     19  C   UNL A   1      31.498  24.185  23.161  1.00  0.00     0.238 C 
ATOM     20  C   UNL A   1      29.992  26.534  24.120  1.00  0.00     0.063 C 
ATOM     21  C   UNL A   1      32.131  27.810  24.319  1.00  0.00    -0.036 A 
ATOM     22  C   UNL A   1      30.509  28.449  22.620  1.00  0.00    -0.036 A 
ATOM     23  O   UNL A   1      30.911  23.133  23.335  1.00  0.00    -0.274 OA
ATOM     24  C   UNL A   1      31.051  27.218  25.066  1.00  0.00    -0.036 A 
ATOM     25  C   UNL A   1      29.479  27.716  23.281  1.00  0.00    -0.036 A 
ATOM     26  C   UNL A   1      33.315  28.142  24.957  1.00  0.00     0.005 A 
ATOM     27  C   UNL A   1      30.248  29.646  21.966  1.00  0.00     0.005 A 
ATOM     28  C   UNL A   1      31.171  26.960  26.425  1.00  0.00     0.004 A 
ATOM     29  C   UNL A   1      28.184  28.217  23.288  1.00  0.00     0.004 A 
ATOM     30  C   UNL A   1      33.431  27.872  26.325  1.00  0.00     0.000 A 
ATOM     31  C   UNL A   1      28.946  30.134  21.975  1.00  0.00     0.000 A 
ATOM     32  C   UNL A   1      32.374  27.290  27.048  1.00  0.00     0.000 A 
ATOM     33  C   UNL A   1      27.924  29.427  22.630  1.00  0.00     0.000 A 
ENDBRANCH   7  12
ENDBRANCH   4   6
ENDBRANCH   3   4
ENDBRANCH   2   3
ENDBRANCH   1   2
BRANCH   1  34
ATOM     34  O   UNL A   1      40.702  19.607  26.608  1.00  0.00    -0.458 OA
BRANCH  34  35
ATOM     35  C   UNL A   1      41.951  19.723  26.106  1.00  0.00     0.338 C 
ATOM     36  O   UNL A   1      42.548  18.933  25.396  1.00  0.00    -0.246 OA
BRANCH  35  37
ATOM     37  C   UNL A   1      42.521  21.020  26.501  1.00  0.00     0.060 A 
ATOM     38  C   UNL A   1      42.840  21.979  25.542  1.00  0.00     0.016 A 
ATOM     39  C   UNL A   1      42.589  21.331  27.856  1.00  0.00     0.016 A 
ATOM     40  C   UNL A   1      43.226  23.260  25.957  1.00  0.00     0.010 A 
ATOM     41  C   UNL A   1      42.845  22.638  28.259  1.00  0.00     0.010 A 
ATOM     42  C   UNL A   1      43.191  23.618  27.318  1.00  0.00    -0.014 A 
BRANCH  42  43
ATOM     43  C   UNL A   1      43.518  24.999  27.775  1.00  0.00     0.031 A 
ATOM     44  C   UNL A   1      42.417  25.972  28.120  1.00  0.00     0.074 A 
ATOM     45  C   UNL A   1      44.803  25.407  27.822  1.00  0.00     0.049 A 
ATOM     46  N   UNL A   1      42.503  27.232  28.471  1.00  0.00    -0.248 NA
ATOM     47  C   UNL A   1      41.034  25.477  28.021  1.00  0.00     0.031 C 
ATOM     48  C   UNL A   1      45.966  24.601  27.445  1.00  0.00     0.029 A 
ATOM     49  N   UNL A   1      45.346  26.611  28.202  1.00  0.00    -0.354 N 
ATOM     50  C   UNL A   1      41.193  27.679  28.608  1.00  0.00     0.074 A 
ATOM     51  C   UNL A   1      40.332  26.577  28.243  1.00  0.00     0.031 C 
ATOM     52  C   UNL A   1      47.084  25.315  27.652  1.00  0.00     0.029 A 
ATOM     53  C   UNL A   1      46.719  26.643  28.135  1.00  0.00     0.049 A 
ATOM     54  H   UNL A   1      44.804  27.378  28.494  1.00  0.00     0.167 HD
ATOM     55  C   UNL A   1      40.743  28.885  29.030  1.00  0.00     0.037 A 
ATOM     56  C   UNL A   1      47.587  27.630  28.425  1.00  0.00     0.037 A 
ATOM     57  C   UNL A   1      41.594  29.971  29.439  1.00  0.00     0.049 A 
ATOM     58  C   UNL A   1      47.064  28.955  28.906  1.00  0.00     0.074 A 
ATOM     59  C   UNL A   1      41.235  31.200  29.965  1.00  0.00     0.029 A 
ATOM     60  N   UNL A   1      42.978  29.955  29.370  1.00  0.00    -0.354 N 
ATOM     61  N   UNL A   1      45.824  29.332  29.106  1.00  0.00    -0.248 NA
ATOM     62  C   UNL A   1      48.063  29.992  29.201  1.00  0.00     0.031 C 
ATOM     63  C   UNL A   1      42.400  31.943  30.179  1.00  0.00     0.029 A 
ATOM     64  C   UNL A   1      43.487  31.162  29.822  1.00  0.00     0.049 A 
ATOM     65  H   UNL A   1      43.519  29.199  29.046  1.00  0.00     0.167 HD
ATOM     66  C   UNL A   1      45.895  30.642  29.560  1.00  0.00     0.074 A 
ATOM     67  C   UNL A   1      47.300  30.985  29.633  1.00  0.00     0.031 C 
ATOM     68  C   UNL A   1      44.888  31.489  29.882  1.00  0.00     0.037 A 
BRANCH  55  69
ATOM     69  C   UNL A   1      39.255  29.087  29.088  1.00  0.00     0.057 A 
ATOM     70  C   UNL A   1      38.540  29.494  27.955  1.00  0.00     0.134 A 
ATOM     71  C   UNL A   1      38.533  28.905  30.275  1.00  0.00     0.134 A 
ATOM     72  F   UNL A   1      39.170  29.696  26.788  1.00  0.00    -0.206 F 
ATOM     73  C   UNL A   1      37.162  29.710  28.000  1.00  0.00     0.040 A 
ATOM     74  C   UNL A   1      37.150  29.090  30.326  1.00  0.00     0.040 A 
ATOM     75  F   UNL A   1      39.155  28.504  31.395  1.00  0.00    -0.206 F 
ATOM     76  C   UNL A   1      36.461  29.500  29.186  1.00  0.00     0.006 A 
ENDBRANCH  55  69
BRANCH  56  77
ATOM     77  C   UNL A   1      49.050  27.407  28.289  1.00  0.00     0.057 A 
ATOM     78  C   UNL A   1      49.809  26.870  29.335  1.00  0.00     0.134 A 
ATOM     79  C   UNL A   1      49.714  27.700  27.093  1.00  0.00     0.134 A 
ATOM     80  F   UNL A   1      49.231  26.568  30.507  1.00  0.00    -0.206 F 
ATOM     81  C   UNL A   1      51.178  26.636  29.197  1.00  0.00     0.040 A 
ATOM     82  C   UNL A   1      51.078  27.449  26.932  1.00  0.00     0.040 A 
ATOM     83  F   UNL A   1      49.036  28.195  26.047  1.00  0.00    -0.206 F 
ATOM     84  C   UNL A   1      51.815  26.918  27.989  1.00  0.00     0.006 A 
ENDBRANCH  56  77
BRANCH  68  85
ATOM     85  C   UNL A   1      45.277  32.860  30.347  1.00  0.00     0.057 A 
ATOM     86  C   UNL A   1      45.524  33.113  31.702  1.00  0.00     0.134 A 
ATOM     87  C   UNL A   1      45.395  33.933  29.455  1.00  0.00     0.134 A 
ATOM     88  F   UNL A   1      45.422  32.130  32.609  1.00  0.00    -0.206 F 
ATOM     89  C   UNL A   1      45.879  34.385  32.153  1.00  0.00     0.040 A 
ATOM     90  C   UNL A   1      45.773  35.204  29.890  1.00  0.00     0.040 A 
ATOM     91  F   UNL A   1      45.186  33.752  28.142  1.00  0.00    -0.206 F 
ATOM     92  C   UNL A   1      46.011  35.433  31.244  1.00  0.00     0.006 A 
ENDBRANCH  68  85
ENDBRANCH  42  43
ENDBRANCH  35  37
ENDBRANCH  34  35
ENDBRANCH   1  34
TORSDOF 12
ENDMDL
