MODEL 1
REMARK VINA RESULT:     -10.9      0.000      0.000
REMARK SMILES C[C@H](Cc1cccs1)N(C)C(=O)N1CCC[C@]1(C)C(=O)OCCOC(=O)c1ccc(-c2c3nc(c(-c4c(F)cccc4F)c4ccc([nH]4)c(-c4c(F)cccc4F)c4nc(c(-c5c(F)cccc5F)c5ccc2[nH]5)C=C4)C=C3)cc1
REMARK SMILES IDX 21 1 19 2 20 3 17 4 13 5 14 6 15 7 16 8 18 9 11 10 12 11
REMARK SMILES IDX 9 12 10 13 2 14 1 15 3 16 4 17 5 18 8 19 6 20 7 21 22 22
REMARK SMILES IDX 23 23 24 24 25 25 26 26 27 27 28 28 80 29 29 30 79 31 30 32
REMARK SMILES IDX 31 33 32 34 73 35 33 36 78 37 72 38 74 39 34 40 77 41 71 42
REMARK SMILES IDX 70 43 35 45 61 46 44 47 60 48 45 49 48 50 59 51 75 52 46 53
REMARK SMILES IDX 47 54 58 56 76 57 49 58 36 59 37 60 42 61 38 62 39 63 41 64
REMARK SMILES IDX 43 65 40 66 62 67 63 68 68 69 64 70 65 71 67 72 69 73 66 74
REMARK SMILES IDX 50 75 51 76 56 77 52 78 53 79 55 80 57 81 54 82
REMARK H PARENT 74 44 48 55
REMARK Flexibility Score: inf
ROOT
ATOM      1  O   UNL A   1      34.150  22.744  24.602  1.00  0.00    -0.460 OA
ENDROOT
BRANCH   1   2
ATOM      2  C   UNL A   1      33.184  23.087  23.716  1.00  0.00     0.331 C 
ATOM      3  O   UNL A   1      33.301  22.960  22.499  1.00  0.00    -0.249 OA
BRANCH   2   4
ATOM      4  C   UNL A   1      31.957  23.792  24.361  1.00  0.00     0.139 C 
ATOM      5  N   UNL A   1      32.053  25.206  24.858  1.00  0.00    -0.308 N 
ATOM      6  C   UNL A   1      31.619  25.265  26.247  1.00  0.00     0.123 C 
ATOM      7  C   UNL A   1      32.004  23.916  26.806  1.00  0.00     0.025 C 
ATOM      8  C   UNL A   1      31.593  23.000  25.665  1.00  0.00     0.042 C 
ATOM      9  C   UNL A   1      30.784  23.590  23.386  1.00  0.00     0.048 C 
BRANCH   5  10
ATOM     10  C   UNL A   1      33.024  26.120  24.493  1.00  0.00     0.320 C 
ATOM     11  O   UNL A   1      34.018  26.250  25.208  1.00  0.00    -0.248 OA
BRANCH  10  12
ATOM     12  N   UNL A   1      32.810  26.912  23.383  1.00  0.00    -0.325 N 
ATOM     13  C   UNL A   1      33.437  26.683  22.095  1.00  0.00     0.149 C 
BRANCH  12  14
ATOM     14  C   UNL A   1      31.783  27.987  23.419  1.00  0.00     0.088 C 
ATOM     15  C   UNL A   1      31.691  28.727  24.755  1.00  0.00     0.031 C 
BRANCH  14  16
ATOM     16  C   UNL A   1      30.427  27.567  22.793  1.00  0.00     0.071 C 
BRANCH  16  17
ATOM     17  C   UNL A   1      29.338  28.603  22.724  1.00  0.00     0.007 A 
ATOM     18  C   UNL A   1      28.021  28.497  23.130  1.00  0.00     0.015 A 
ATOM     19  S   UNL A   1      29.631  30.125  21.981  1.00  0.00    -0.149 S 
ATOM     20  C   UNL A   1      27.279  29.692  22.904  1.00  0.00     0.012 A 
ATOM     21  C   UNL A   1      28.042  30.664  22.300  1.00  0.00     0.065 A 
ENDBRANCH  16  17
ENDBRANCH  14  16
ENDBRANCH  12  14
ENDBRANCH  10  12
ENDBRANCH   5  10
ENDBRANCH   2   4
ENDBRANCH   1   2
BRANCH   1  22
ATOM     22  C   UNL A   1      35.466  22.465  24.082  1.00  0.00     0.274 C 
BRANCH  22  23
ATOM     23  C   UNL A   1      35.972  21.144  24.649  1.00  0.00     0.275 C 
BRANCH  23  24
ATOM     24  O   UNL A   1      36.761  21.449  25.807  1.00  0.00    -0.458 OA
BRANCH  24  25
ATOM     25  C   UNL A   1      38.087  21.235  25.698  1.00  0.00     0.338 C 
ATOM     26  O   UNL A   1      38.649  20.245  25.249  1.00  0.00    -0.246 OA
BRANCH  25  27
ATOM     27  C   UNL A   1      38.799  22.404  26.247  1.00  0.00     0.060 A 
ATOM     28  C   UNL A   1      38.292  23.693  26.072  1.00  0.00     0.016 A 
ATOM     29  C   UNL A   1      40.019  22.216  26.894  1.00  0.00     0.016 A 
ATOM     30  C   UNL A   1      39.034  24.801  26.475  1.00  0.00     0.010 A 
ATOM     31  C   UNL A   1      40.719  23.323  27.380  1.00  0.00     0.010 A 
ATOM     32  C   UNL A   1      40.252  24.631  27.148  1.00  0.00    -0.014 A 
BRANCH  32  33
ATOM     33  C   UNL A   1      41.077  25.801  27.559  1.00  0.00     0.031 A 
ATOM     34  C   UNL A   1      40.486  26.846  28.467  1.00  0.00     0.074 A 
ATOM     35  C   UNL A   1      42.346  25.944  27.130  1.00  0.00     0.049 A 
ATOM     36  N   UNL A   1      40.924  28.047  28.746  1.00  0.00    -0.248 NA
ATOM     37  C   UNL A   1      39.220  26.499  29.134  1.00  0.00     0.031 C 
ATOM     38  C   UNL A   1      43.079  24.990  26.297  1.00  0.00     0.029 A 
ATOM     39  N   UNL A   1      43.251  26.955  27.348  1.00  0.00    -0.354 N 
ATOM     40  C   UNL A   1      39.953  28.626  29.554  1.00  0.00     0.074 A 
ATOM     41  C   UNL A   1      38.909  27.640  29.733  1.00  0.00     0.031 C 
ATOM     42  C   UNL A   1      44.332  25.435  26.117  1.00  0.00     0.029 A 
ATOM     43  C   UNL A   1      44.465  26.747  26.741  1.00  0.00     0.049 A 
ATOM     44  H   UNL A   1      43.048  27.752  27.889  1.00  0.00     0.167 HD
ATOM     45  C   UNL A   1      39.931  29.870  30.090  1.00  0.00     0.037 A 
ATOM     46  C   UNL A   1      45.550  27.538  26.659  1.00  0.00     0.037 A 
ATOM     47  C   UNL A   1      41.004  30.823  29.972  1.00  0.00     0.049 A 
ATOM     48  C   UNL A   1      45.505  28.916  27.255  1.00  0.00     0.074 A 
ATOM     49  C   UNL A   1      41.079  32.109  30.480  1.00  0.00     0.029 A 
ATOM     50  N   UNL A   1      42.204  30.579  29.322  1.00  0.00    -0.354 N 
ATOM     51  N   UNL A   1      44.539  29.494  27.924  1.00  0.00    -0.248 NA
ATOM     52  C   UNL A   1      46.689  29.763  27.050  1.00  0.00     0.031 C 
ATOM     53  C   UNL A   1      42.320  32.649  30.124  1.00  0.00     0.029 A 
ATOM     54  C   UNL A   1      43.027  31.689  29.419  1.00  0.00     0.049 A 
ATOM     55  H   UNL A   1      42.436  29.742  28.860  1.00  0.00     0.167 HD
ATOM     56  C   UNL A   1      44.994  30.773  28.219  1.00  0.00     0.074 A 
ATOM     57  C   UNL A   1      46.333  30.877  27.677  1.00  0.00     0.031 C 
ATOM     58  C   UNL A   1      44.355  31.774  28.871  1.00  0.00     0.037 A 
BRANCH  45  59
ATOM     59  C   UNL A   1      38.690  30.283  30.820  1.00  0.00     0.057 A 
ATOM     60  C   UNL A   1      38.528  30.076  32.195  1.00  0.00     0.134 A 
ATOM     61  C   UNL A   1      37.645  30.916  30.134  1.00  0.00     0.134 A 
ATOM     62  F   UNL A   1      39.484  29.459  32.906  1.00  0.00    -0.206 F 
ATOM     63  C   UNL A   1      37.362  30.465  32.858  1.00  0.00     0.040 A 
ATOM     64  C   UNL A   1      36.484  31.329  30.789  1.00  0.00     0.040 A 
ATOM     65  F   UNL A   1      37.738  31.147  28.816  1.00  0.00    -0.206 F 
ATOM     66  C   UNL A   1      36.339  31.098  32.155  1.00  0.00     0.006 A 
ENDBRANCH  45  59
BRANCH  46  67
ATOM     67  C   UNL A   1      46.762  27.058  25.952  1.00  0.00     0.057 A 
ATOM     68  C   UNL A   1      47.756  26.348  26.634  1.00  0.00     0.134 A 
ATOM     69  C   UNL A   1      46.949  27.278  24.583  1.00  0.00     0.134 A 
ATOM     70  F   UNL A   1      47.644  26.129  27.953  1.00  0.00    -0.206 F 
ATOM     71  C   UNL A   1      48.892  25.871  25.980  1.00  0.00     0.040 A 
ATOM     72  C   UNL A   1      48.068  26.787  23.911  1.00  0.00     0.040 A 
ATOM     73  F   UNL A   1      46.033  27.953  23.874  1.00  0.00    -0.206 F 
ATOM     74  C   UNL A   1      49.045  26.082  24.611  1.00  0.00     0.006 A 
ENDBRANCH  46  67
BRANCH  58  75
ATOM     75  C   UNL A   1      45.107  33.057  29.042  1.00  0.00     0.057 A 
ATOM     76  C   UNL A   1      45.986  33.252  30.114  1.00  0.00     0.134 A 
ATOM     77  C   UNL A   1      44.965  34.098  28.117  1.00  0.00     0.134 A 
ATOM     78  F   UNL A   1      46.152  32.296  31.040  1.00  0.00    -0.206 F 
ATOM     79  C   UNL A   1      46.686  34.449  30.270  1.00  0.00     0.040 A 
ATOM     80  C   UNL A   1      45.672  35.293  28.254  1.00  0.00     0.040 A 
ATOM     81  F   UNL A   1      44.140  33.968  27.067  1.00  0.00    -0.206 F 
ATOM     82  C   UNL A   1      46.532  35.472  29.336  1.00  0.00     0.006 A 
ENDBRANCH  58  75
ENDBRANCH  32  33
ENDBRANCH  25  27
ENDBRANCH  24  25
ENDBRANCH  23  24
ENDBRANCH  22  23
ENDBRANCH   1  22
TORSDOF 16
ENDMDL
MODEL 2
REMARK VINA RESULT:     -10.9      3.883      8.925
REMARK SMILES C[C@H](Cc1cccs1)N(C)C(=O)N1CCC[C@]1(C)C(=O)OCCOC(=O)c1ccc(-c2c3nc(c(-c4c(F)cccc4F)c4ccc([nH]4)c(-c4c(F)cccc4F)c4nc(c(-c5c(F)cccc5F)c5ccc2[nH]5)C=C4)C=C3)cc1
REMARK SMILES IDX 21 1 19 2 20 3 17 4 13 5 14 6 15 7 16 8 18 9 11 10 12 11
REMARK SMILES IDX 9 12 10 13 2 14 1 15 3 16 4 17 5 18 8 19 6 20 7 21 22 22
REMARK SMILES IDX 23 23 24 24 25 25 26 26 27 27 28 28 80 29 29 30 79 31 30 32
REMARK SMILES IDX 31 33 32 34 73 35 33 36 78 37 72 38 74 39 34 40 77 41 71 42
REMARK SMILES IDX 70 43 35 45 61 46 44 47 60 48 45 49 48 50 59 51 75 52 46 53
REMARK SMILES IDX 47 54 58 56 76 57 49 58 36 59 37 60 42 61 38 62 39 63 41 64
REMARK SMILES IDX 43 65 40 66 62 67 63 68 68 69 64 70 65 71 67 72 69 73 66 74
REMARK SMILES IDX 50 75 51 76 56 77 52 78 53 79 55 80 57 81 54 82
REMARK H PARENT 74 44 48 55
REMARK Flexibility Score: inf
ROOT
ATOM      1  O   UNL A   1      30.821  27.594  24.698  1.00  0.00    -0.460 OA
ENDROOT
BRANCH   1   2
ATOM      2  C   UNL A   1      30.701  26.246  24.764  1.00  0.00     0.331 C 
ATOM      3  O   UNL A   1      30.214  25.651  25.723  1.00  0.00    -0.249 OA
BRANCH   2   4
ATOM      4  C   UNL A   1      31.363  25.495  23.573  1.00  0.00     0.139 C 
ATOM      5  N   UNL A   1      32.792  25.038  23.649  1.00  0.00    -0.308 N 
ATOM      6  C   UNL A   1      33.529  25.550  22.501  1.00  0.00     0.123 C 
ATOM      7  C   UNL A   1      32.850  26.861  22.188  1.00  0.00     0.025 C 
ATOM      8  C   UNL A   1      31.388  26.479  22.352  1.00  0.00     0.042 C 
ATOM      9  C   UNL A   1      30.401  24.355  23.195  1.00  0.00     0.048 C 
BRANCH   5  10
ATOM     10  C   UNL A   1      33.525  24.884  24.811  1.00  0.00     0.320 C 
ATOM     11  O   UNL A   1      34.186  25.834  25.229  1.00  0.00    -0.248 OA
BRANCH  10  12
ATOM     12  N   UNL A   1      33.553  23.647  25.422  1.00  0.00    -0.325 N 
ATOM     13  C   UNL A   1      32.833  23.331  26.641  1.00  0.00     0.149 C 
BRANCH  12  14
ATOM     14  C   UNL A   1      34.230  22.501  24.758  1.00  0.00     0.088 C 
ATOM     15  C   UNL A   1      33.294  21.592  23.958  1.00  0.00     0.031 C 
BRANCH  14  16
ATOM     16  C   UNL A   1      35.249  21.771  25.674  1.00  0.00     0.071 C 
BRANCH  16  17
ATOM     17  C   UNL A   1      36.595  22.414  25.874  1.00  0.00     0.007 A 
ATOM     18  C   UNL A   1      36.881  23.716  26.236  1.00  0.00     0.015 A 
ATOM     19  S   UNL A   1      38.036  21.534  25.553  1.00  0.00    -0.149 S 
ATOM     20  C   UNL A   1      38.281  23.965  26.328  1.00  0.00     0.012 A 
ATOM     21  C   UNL A   1      39.023  22.854  25.999  1.00  0.00     0.065 A 
ENDBRANCH  16  17
ENDBRANCH  14  16
ENDBRANCH  12  14
ENDBRANCH  10  12
ENDBRANCH   5  10
ENDBRANCH   2   4
ENDBRANCH   1   2
BRANCH   1  22
ATOM     22  C   UNL A   1      31.524  28.255  25.770  1.00  0.00     0.274 C 
BRANCH  22  23
ATOM     23  C   UNL A   1      31.550  29.757  25.516  1.00  0.00     0.275 C 
BRANCH  23  24
ATOM     24  O   UNL A   1      32.892  30.208  25.748  1.00  0.00    -0.458 OA
BRANCH  24  25
ATOM     25  C   UNL A   1      33.055  31.110  26.736  1.00  0.00     0.338 C 
ATOM     26  O   UNL A   1      32.294  32.014  27.056  1.00  0.00    -0.246 OA
BRANCH  25  27
ATOM     27  C   UNL A   1      34.353  30.861  27.391  1.00  0.00     0.060 A 
ATOM     28  C   UNL A   1      34.782  29.556  27.648  1.00  0.00     0.016 A 
ATOM     29  C   UNL A   1      35.125  31.943  27.807  1.00  0.00     0.016 A 
ATOM     30  C   UNL A   1      35.943  29.331  28.384  1.00  0.00     0.010 A 
ATOM     31  C   UNL A   1      36.336  31.714  28.465  1.00  0.00     0.010 A 
ATOM     32  C   UNL A   1      36.744  30.407  28.791  1.00  0.00    -0.014 A 
BRANCH  32  33
ATOM     33  C   UNL A   1      37.971  30.190  29.606  1.00  0.00     0.031 A 
ATOM     34  C   UNL A   1      39.110  29.385  29.038  1.00  0.00     0.074 A 
ATOM     35  C   UNL A   1      38.082  30.701  30.848  1.00  0.00     0.049 A 
ATOM     36  N   UNL A   1      40.148  28.871  29.647  1.00  0.00    -0.248 NA
ATOM     37  C   UNL A   1      39.062  29.106  27.593  1.00  0.00     0.031 C 
ATOM     38  C   UNL A   1      37.093  31.549  31.514  1.00  0.00     0.029 A 
ATOM     39  N   UNL A   1      39.092  30.582  31.772  1.00  0.00    -0.354 N 
ATOM     40  C   UNL A   1      40.830  28.143  28.680  1.00  0.00     0.074 A 
ATOM     41  C   UNL A   1      40.099  28.295  27.441  1.00  0.00     0.031 C 
ATOM     42  C   UNL A   1      37.566  31.916  32.716  1.00  0.00     0.029 A 
ATOM     43  C   UNL A   1      38.846  31.254  32.945  1.00  0.00     0.049 A 
ATOM     44  H   UNL A   1      39.913  30.065  31.609  1.00  0.00     0.167 HD
ATOM     45  C   UNL A   1      41.961  27.409  28.817  1.00  0.00     0.037 A 
ATOM     46  C   UNL A   1      39.549  31.301  34.091  1.00  0.00     0.037 A 
ATOM     47  C   UNL A   1      42.728  27.319  30.032  1.00  0.00     0.049 A 
ATOM     48  C   UNL A   1      40.796  30.476  34.226  1.00  0.00     0.074 A 
ATOM     49  C   UNL A   1      43.888  26.602  30.272  1.00  0.00     0.029 A 
ATOM     50  N   UNL A   1      42.424  27.994  31.205  1.00  0.00    -0.354 N 
ATOM     51  N   UNL A   1      41.375  29.704  33.339  1.00  0.00    -0.248 NA
ATOM     52  C   UNL A   1      41.466  30.499  35.534  1.00  0.00     0.031 C 
ATOM     53  C   UNL A   1      44.278  26.832  31.597  1.00  0.00     0.029 A 
ATOM     54  C   UNL A   1      43.377  27.713  32.171  1.00  0.00     0.049 A 
ATOM     55  H   UNL A   1      41.647  28.584  31.332  1.00  0.00     0.167 HD
ATOM     56  C   UNL A   1      42.475  29.149  33.980  1.00  0.00     0.074 A 
ATOM     57  C   UNL A   1      42.495  29.690  35.323  1.00  0.00     0.031 C 
ATOM     58  C   UNL A   1      43.379  28.260  33.502  1.00  0.00     0.037 A 
BRANCH  45  59
ATOM     59  C   UNL A   1      42.413  26.614  27.630  1.00  0.00     0.057 A 
ATOM     60  C   UNL A   1      43.317  27.122  26.691  1.00  0.00     0.134 A 
ATOM     61  C   UNL A   1      41.944  25.307  27.437  1.00  0.00     0.134 A 
ATOM     62  F   UNL A   1      43.788  28.373  26.810  1.00  0.00    -0.206 F 
ATOM     63  C   UNL A   1      43.725  26.367  25.589  1.00  0.00     0.040 A 
ATOM     64  C   UNL A   1      42.361  24.535  26.352  1.00  0.00     0.040 A 
ATOM     65  F   UNL A   1      41.078  24.759  28.302  1.00  0.00    -0.206 F 
ATOM     66  C   UNL A   1      43.250  25.067  25.421  1.00  0.00     0.006 A 
ENDBRANCH  45  59
BRANCH  46  67
ATOM     67  C   UNL A   1      39.067  32.135  35.219  1.00  0.00     0.057 A 
ATOM     68  C   UNL A   1      39.364  33.501  35.278  1.00  0.00     0.134 A 
ATOM     69  C   UNL A   1      38.288  31.598  36.249  1.00  0.00     0.134 A 
ATOM     70  F   UNL A   1      40.129  34.066  34.332  1.00  0.00    -0.206 F 
ATOM     71  C   UNL A   1      38.901  34.304  36.320  1.00  0.00     0.040 A 
ATOM     72  C   UNL A   1      37.798  32.393  37.285  1.00  0.00     0.040 A 
ATOM     73  F   UNL A   1      37.970  30.295  36.249  1.00  0.00    -0.206 F 
ATOM     74  C   UNL A   1      38.107  33.751  37.323  1.00  0.00     0.006 A 
ENDBRANCH  46  67
BRANCH  58  75
ATOM     75  C   UNL A   1      44.470  27.837  34.436  1.00  0.00     0.057 A 
ATOM     76  C   UNL A   1      45.647  28.582  34.571  1.00  0.00     0.134 A 
ATOM     77  C   UNL A   1      44.333  26.685  35.219  1.00  0.00     0.134 A 
ATOM     78  F   UNL A   1      45.841  29.688  33.836  1.00  0.00    -0.206 F 
ATOM     79  C   UNL A   1      46.661  28.185  35.443  1.00  0.00     0.040 A 
ATOM     80  C   UNL A   1      45.334  26.287  36.105  1.00  0.00     0.040 A 
ATOM     81  F   UNL A   1      43.226  25.932  35.135  1.00  0.00    -0.206 F 
ATOM     82  C   UNL A   1      46.504  27.036  36.216  1.00  0.00     0.006 A 
ENDBRANCH  58  75
ENDBRANCH  32  33
ENDBRANCH  25  27
ENDBRANCH  24  25
ENDBRANCH  23  24
ENDBRANCH  22  23
ENDBRANCH   1  22
TORSDOF 16
ENDMDL
MODEL 3
REMARK VINA RESULT:     -10.9      3.722      8.170
REMARK SMILES C[C@H](Cc1cccs1)N(C)C(=O)N1CCC[C@]1(C)C(=O)OCCOC(=O)c1ccc(-c2c3nc(c(-c4c(F)cccc4F)c4ccc([nH]4)c(-c4c(F)cccc4F)c4nc(c(-c5c(F)cccc5F)c5ccc2[nH]5)C=C4)C=C3)cc1
REMARK SMILES IDX 21 1 19 2 20 3 17 4 13 5 14 6 15 7 16 8 18 9 11 10 12 11
REMARK SMILES IDX 9 12 10 13 2 14 1 15 3 16 4 17 5 18 8 19 6 20 7 21 22 22
REMARK SMILES IDX 23 23 24 24 25 25 26 26 27 27 28 28 80 29 29 30 79 31 30 32
REMARK SMILES IDX 31 33 32 34 73 35 33 36 78 37 72 38 74 39 34 40 77 41 71 42
REMARK SMILES IDX 70 43 35 45 61 46 44 47 60 48 45 49 48 50 59 51 75 52 46 53
REMARK SMILES IDX 47 54 58 56 76 57 49 58 36 59 37 60 42 61 38 62 39 63 41 64
REMARK SMILES IDX 43 65 40 66 62 67 63 68 68 69 64 70 65 71 67 72 69 73 66 74
REMARK SMILES IDX 50 75 51 76 56 77 52 78 53 79 55 80 57 81 54 82
REMARK H PARENT 74 44 48 55
REMARK Flexibility Score: inf
ROOT
ATOM      1  O   UNL A   1      32.204  27.004  26.112  1.00  0.00    -0.460 OA
ENDROOT
BRANCH   1   2
ATOM      2  C   UNL A   1      31.397  25.915  26.105  1.00  0.00     0.331 C 
ATOM      3  O   UNL A   1      30.189  25.961  26.329  1.00  0.00    -0.249 OA
BRANCH   2   4
ATOM      4  C   UNL A   1      32.156  24.569  25.925  1.00  0.00     0.139 C 
ATOM      5  N   UNL A   1      31.931  23.713  24.712  1.00  0.00    -0.308 N 
ATOM      6  C   UNL A   1      31.573  22.363  25.128  1.00  0.00     0.123 C 
ATOM      7  C   UNL A   1      30.843  22.566  26.433  1.00  0.00     0.025 C 
ATOM      8  C   UNL A   1      31.715  23.621  27.094  1.00  0.00     0.042 C 
ATOM      9  C   UNL A   1      33.645  24.882  26.156  1.00  0.00     0.048 C 
BRANCH   5  10
ATOM     10  C   UNL A   1      31.374  24.140  23.520  1.00  0.00     0.320 C 
ATOM     11  O   UNL A   1      30.158  24.043  23.362  1.00  0.00    -0.248 OA
BRANCH  10  12
ATOM     12  N   UNL A   1      32.211  24.591  22.519  1.00  0.00    -0.325 N 
ATOM     13  C   UNL A   1      33.411  23.896  22.095  1.00  0.00     0.149 C 
BRANCH  12  14
ATOM     14  C   UNL A   1      31.829  25.775  21.704  1.00  0.00     0.088 C 
ATOM     15  C   UNL A   1      32.448  25.804  20.305  1.00  0.00     0.031 C 
BRANCH  14  16
ATOM     16  C   UNL A   1      31.893  27.112  22.490  1.00  0.00     0.071 C 
BRANCH  16  17
ATOM     17  C   UNL A   1      30.609  27.875  22.677  1.00  0.00     0.007 A 
ATOM     18  C   UNL A   1      29.419  27.437  23.227  1.00  0.00     0.015 A 
ATOM     19  S   UNL A   1      30.459  29.482  22.087  1.00  0.00    -0.149 S 
ATOM     20  C   UNL A   1      28.414  28.446  23.235  1.00  0.00     0.012 A 
ATOM     21  C   UNL A   1      28.855  29.615  22.659  1.00  0.00     0.065 A 
ENDBRANCH  16  17
ENDBRANCH  14  16
ENDBRANCH  12  14
ENDBRANCH  10  12
ENDBRANCH   5  10
ENDBRANCH   2   4
ENDBRANCH   1   2
BRANCH   1  22
ATOM     22  C   UNL A   1      31.732  28.180  26.802  1.00  0.00     0.274 C 
BRANCH  22  23
ATOM     23  C   UNL A   1      31.595  29.332  25.815  1.00  0.00     0.275 C 
BRANCH  23  24
ATOM     24  O   UNL A   1      32.847  30.033  25.797  1.00  0.00    -0.458 OA
BRANCH  24  25
ATOM     25  C   UNL A   1      33.009  30.989  26.732  1.00  0.00     0.338 C 
ATOM     26  O   UNL A   1      32.232  31.890  27.020  1.00  0.00    -0.246 OA
BRANCH  25  27
ATOM     27  C   UNL A   1      34.325  30.807  27.370  1.00  0.00     0.060 A 
ATOM     28  C   UNL A   1      34.861  29.528  27.543  1.00  0.00     0.016 A 
ATOM     29  C   UNL A   1      35.007  31.920  27.856  1.00  0.00     0.016 A 
ATOM     30  C   UNL A   1      36.040  29.352  28.264  1.00  0.00     0.010 A 
ATOM     31  C   UNL A   1      36.236  31.750  28.498  1.00  0.00     0.010 A 
ATOM     32  C   UNL A   1      36.752  30.462  28.739  1.00  0.00    -0.014 A 
BRANCH  32  33
ATOM     33  C   UNL A   1      37.997  30.296  29.539  1.00  0.00     0.031 A 
ATOM     34  C   UNL A   1      39.168  29.557  28.949  1.00  0.00     0.074 A 
ATOM     35  C   UNL A   1      38.094  30.793  30.789  1.00  0.00     0.049 A 
ATOM     36  N   UNL A   1      40.237  29.087  29.540  1.00  0.00    -0.248 NA
ATOM     37  C   UNL A   1      39.120  29.297  27.501  1.00  0.00     0.031 C 
ATOM     38  C   UNL A   1      37.071  31.580  31.476  1.00  0.00     0.029 A 
ATOM     39  N   UNL A   1      39.118  30.712  31.701  1.00  0.00    -0.354 N 
ATOM     40  C   UNL A   1      40.945  28.408  28.556  1.00  0.00     0.074 A 
ATOM     41  C   UNL A   1      40.195  28.541  27.327  1.00  0.00     0.031 C 
ATOM     42  C   UNL A   1      37.537  31.953  32.679  1.00  0.00     0.029 A 
ATOM     43  C   UNL A   1      38.851  31.353  32.886  1.00  0.00     0.049 A 
ATOM     44  H   UNL A   1      39.962  30.239  31.522  1.00  0.00     0.167 HD
ATOM     45  C   UNL A   1      42.112  27.730  28.672  1.00  0.00     0.037 A 
ATOM     46  C   UNL A   1      39.562  31.419  34.026  1.00  0.00     0.037 A 
ATOM     47  C   UNL A   1      42.895  27.660  29.878  1.00  0.00     0.049 A 
ATOM     48  C   UNL A   1      40.850  30.655  34.137  1.00  0.00     0.074 A 
ATOM     49  C   UNL A   1      44.092  27.000  30.096  1.00  0.00     0.029 A 
ATOM     50  N   UNL A   1      42.570  28.302  31.063  1.00  0.00    -0.354 N 
ATOM     51  N   UNL A   1      41.458  29.927  33.233  1.00  0.00    -0.248 NA
ATOM     52  C   UNL A   1      41.532  30.693  35.439  1.00  0.00     0.031 C 
ATOM     53  C   UNL A   1      44.484  27.230  31.420  1.00  0.00     0.029 A 
ATOM     54  C   UNL A   1      43.545  28.055  32.016  1.00  0.00     0.049 A 
ATOM     55  H   UNL A   1      41.765  28.850  31.207  1.00  0.00     0.167 HD
ATOM     56  C   UNL A   1      42.591  29.417  33.855  1.00  0.00     0.074 A 
ATOM     57  C   UNL A   1      42.598  29.940  35.206  1.00  0.00     0.031 C 
ATOM     58  C   UNL A   1      43.533  28.583  33.355  1.00  0.00     0.037 A 
BRANCH  45  59
ATOM     59  C   UNL A   1      42.591  26.975  27.469  1.00  0.00     0.057 A 
ATOM     60  C   UNL A   1      42.241  25.640  27.236  1.00  0.00     0.134 A 
ATOM     61  C   UNL A   1      43.404  27.607  26.518  1.00  0.00     0.134 A 
ATOM     62  F   UNL A   1      41.481  24.974  28.118  1.00  0.00    -0.206 F 
ATOM     63  C   UNL A   1      42.701  24.952  26.110  1.00  0.00     0.040 A 
ATOM     64  C   UNL A   1      43.851  26.937  25.378  1.00  0.00     0.040 A 
ATOM     65  F   UNL A   1      43.774  28.886  26.680  1.00  0.00    -0.206 F 
ATOM     66  C   UNL A   1      43.503  25.604  25.175  1.00  0.00     0.006 A 
ENDBRANCH  45  59
BRANCH  46  67
ATOM     67  C   UNL A   1      39.050  32.211  35.171  1.00  0.00     0.057 A 
ATOM     68  C   UNL A   1      38.309  31.601  36.189  1.00  0.00     0.134 A 
ATOM     69  C   UNL A   1      39.303  33.582  35.286  1.00  0.00     0.134 A 
ATOM     70  F   UNL A   1      38.013  30.295  36.119  1.00  0.00    -0.206 F 
ATOM     71  C   UNL A   1      37.838  32.327  37.283  1.00  0.00     0.040 A 
ATOM     72  C   UNL A   1      38.858  34.316  36.386  1.00  0.00     0.040 A 
ATOM     73  F   UNL A   1      40.007  34.223  34.342  1.00  0.00    -0.206 F 
ATOM     74  C   UNL A   1      38.121  33.688  37.388  1.00  0.00     0.006 A 
ENDBRANCH  46  67
BRANCH  58  75
ATOM     75  C   UNL A   1      44.653  28.201  34.272  1.00  0.00     0.057 A 
ATOM     76  C   UNL A   1      45.795  29.000  34.405  1.00  0.00     0.134 A 
ATOM     77  C   UNL A   1      44.581  27.034  35.042  1.00  0.00     0.134 A 
ATOM     78  F   UNL A   1      45.928  30.122  33.681  1.00  0.00    -0.206 F 
ATOM     79  C   UNL A   1      46.837  28.642  35.261  1.00  0.00     0.040 A 
ATOM     80  C   UNL A   1      45.609  26.674  35.913  1.00  0.00     0.040 A 
ATOM     81  F   UNL A   1      43.510  26.230  34.960  1.00  0.00    -0.206 F 
ATOM     82  C   UNL A   1      46.743  27.477  36.021  1.00  0.00     0.006 A 
ENDBRANCH  58  75
ENDBRANCH  32  33
ENDBRANCH  25  27
ENDBRANCH  24  25
ENDBRANCH  23  24
ENDBRANCH  22  23
ENDBRANCH   1  22
TORSDOF 16
ENDMDL
