MODEL 1
REMARK VINA RESULT:     -11.6      0.000      0.000
REMARK SMILES CCCCN(c1ccccc1C(=O)OCCOC(=O)c1ccc(-c2c3nc(c(-c4c(F)cccc4F)c4ccc([nH]4)c(-c4c(F)cccc4F)c4nc(c(-c5c(F)cccc5F)c5ccc2[nH]5)C=C4)C=C3)cc1)S(=O)(=O)c1ccc2c(c1)oc(=O)n2C
REMARK SMILES IDX 15 1 14 2 12 3 13 4 11 5 6 6 7 7 8 8 10 9 9 10 5 11 4 12
REMARK SMILES IDX 3 13 2 14 1 15 74 16 75 17 76 18 77 19 78 20 82 21 79 22
REMARK SMILES IDX 81 23 80 24 83 25 86 26 84 27 87 28 85 29 16 30 17 31 18 32
REMARK SMILES IDX 19 33 20 34 21 35 73 36 22 37 72 38 23 39 24 40 25 41 66 42
REMARK SMILES IDX 26 43 71 44 65 45 67 46 27 47 70 48 64 49 63 50 28 52 54 53
REMARK SMILES IDX 37 54 53 55 38 56 41 57 52 58 68 59 39 60 40 61 51 63 69 64
REMARK SMILES IDX 42 65 29 66 30 67 35 68 31 69 32 70 34 71 36 72 33 73 55 74
REMARK SMILES IDX 56 75 61 76 57 77 58 78 60 79 62 80 59 81 43 82 44 83 49 84
REMARK SMILES IDX 45 85 46 86 48 87 50 88 47 89
REMARK H PARENT 67 51 41 62
REMARK Flexibility Score: inf
ROOT
ATOM      1  C   UNL A   1      32.967  30.433  26.790  1.00  0.00     0.275 C 
ENDROOT
BRANCH   1   2
ATOM      2  O   UNL A   1      33.362  29.060  26.547  1.00  0.00    -0.458 OA
BRANCH   2   3
ATOM      3  C   UNL A   1      32.525  28.339  25.769  1.00  0.00     0.340 C 
ATOM      4  O   UNL A   1      31.344  28.118  25.995  1.00  0.00    -0.246 OA
BRANCH   3   5
ATOM      5  C   UNL A   1      33.167  27.782  24.558  1.00  0.00     0.084 A 
ATOM      6  C   UNL A   1      33.280  26.407  24.303  1.00  0.00     0.066 A 
ATOM      7  C   UNL A   1      33.457  26.001  22.969  1.00  0.00     0.028 A 
ATOM      8  C   UNL A   1      33.668  26.919  21.936  1.00  0.00     0.002 A 
ATOM      9  C   UNL A   1      33.373  28.698  23.508  1.00  0.00     0.018 A 
ATOM     10  C   UNL A   1      33.661  28.276  22.214  1.00  0.00     0.001 A 
BRANCH   6  11
ATOM     11  N   UNL A   1      33.300  25.360  25.300  1.00  0.00    -0.265 N 
BRANCH  11  12
ATOM     12  C   UNL A   1      34.603  24.801  25.760  1.00  0.00     0.136 C 
BRANCH  12  13
ATOM     13  C   UNL A   1      35.474  24.142  24.692  1.00  0.00     0.022 C 
BRANCH  13  14
ATOM     14  C   UNL A   1      36.551  23.155  25.151  1.00  0.00    -0.002 C 
ATOM     15  C   UNL A   1      37.734  23.764  25.891  1.00  0.00     0.004 C 
ENDBRANCH  13  14
ENDBRANCH  12  13
ENDBRANCH  11  12
BRANCH  11  16
ATOM     16  S   UNL A   1      31.920  24.353  25.467  1.00  0.00     0.264 S 
ATOM     17  O   UNL A   1      31.698  24.139  26.883  1.00  0.00    -0.201 OA
ATOM     18  O   UNL A   1      30.877  24.931  24.642  1.00  0.00    -0.201 OA
BRANCH  16  19
ATOM     19  C   UNL A   1      32.230  22.730  24.774  1.00  0.00     0.091 A 
ATOM     20  C   UNL A   1      32.091  22.538  23.378  1.00  0.00     0.025 A 
ATOM     21  C   UNL A   1      32.367  21.630  25.632  1.00  0.00     0.071 A 
ATOM     22  C   UNL A   1      32.193  21.263  22.809  1.00  0.00     0.032 A 
ATOM     23  C   UNL A   1      32.402  20.379  25.047  1.00  0.00     0.157 A 
ATOM     24  C   UNL A   1      32.341  20.204  23.676  1.00  0.00     0.090 A 
ATOM     25  O   UNL A   1      32.468  19.176  25.734  1.00  0.00    -0.408 OA
ATOM     26  N   UNL A   1      32.415  18.848  23.465  1.00  0.00    -0.277 N 
ATOM     27  C   UNL A   1      32.466  18.230  24.699  1.00  0.00     0.419 A 
ATOM     28  C   UNL A   1      32.460  18.167  22.205  1.00  0.00     0.157 C 
ATOM     29  O   UNL A   1      32.506  17.022  24.895  1.00  0.00    -0.223 OA
ENDBRANCH  16  19
ENDBRANCH  11  16
ENDBRANCH   6  11
ENDBRANCH   3   5
ENDBRANCH   2   3
ENDBRANCH   1   2
BRANCH   1  30
ATOM     30  C   UNL A   1      33.989  31.168  27.654  1.00  0.00     0.275 C 
BRANCH  30  31
ATOM     31  O   UNL A   1      34.744  30.222  28.425  1.00  0.00    -0.458 OA
BRANCH  31  32
ATOM     32  C   UNL A   1      35.771  30.767  29.107  1.00  0.00     0.338 C 
ATOM     33  O   UNL A   1      35.746  31.703  29.888  1.00  0.00    -0.246 OA
BRANCH  32  34
ATOM     34  C   UNL A   1      36.978  29.967  28.897  1.00  0.00     0.060 A 
ATOM     35  C   UNL A   1      37.571  29.399  30.018  1.00  0.00     0.016 A 
ATOM     36  C   UNL A   1      37.632  29.969  27.673  1.00  0.00     0.016 A 
ATOM     37  C   UNL A   1      38.894  28.990  29.968  1.00  0.00     0.010 A 
ATOM     38  C   UNL A   1      38.910  29.410  27.590  1.00  0.00     0.010 A 
ATOM     39  C   UNL A   1      39.579  28.968  28.748  1.00  0.00    -0.014 A 
BRANCH  39  40
ATOM     40  C   UNL A   1      40.994  28.509  28.687  1.00  0.00     0.031 A 
ATOM     41  C   UNL A   1      42.115  29.489  28.920  1.00  0.00     0.074 A 
ATOM     42  C   UNL A   1      41.278  27.219  28.419  1.00  0.00     0.049 A 
ATOM     43  N   UNL A   1      43.395  29.354  28.684  1.00  0.00    -0.248 NA
ATOM     44  C   UNL A   1      41.743  30.805  29.466  1.00  0.00     0.031 C 
ATOM     45  C   UNL A   1      40.292  26.152  28.225  1.00  0.00     0.029 A 
ATOM     46  N   UNL A   1      42.484  26.583  28.256  1.00  0.00    -0.354 N 
ATOM     47  C   UNL A   1      43.968  30.585  28.983  1.00  0.00     0.074 A 
ATOM     48  C   UNL A   1      42.897  31.456  29.416  1.00  0.00     0.031 C 
ATOM     49  C   UNL A   1      40.929  24.995  28.003  1.00  0.00     0.029 A 
ATOM     50  C   UNL A   1      42.358  25.256  27.921  1.00  0.00     0.049 A 
ATOM     51  H   UNL A   1      43.352  27.033  28.368  1.00  0.00     0.167 HD
ATOM     52  C   UNL A   1      45.270  30.951  28.899  1.00  0.00     0.037 A 
ATOM     53  C   UNL A   1      43.279  24.359  27.522  1.00  0.00     0.037 A 
ATOM     54  C   UNL A   1      46.332  30.054  28.518  1.00  0.00     0.049 A 
ATOM     55  C   UNL A   1      44.707  24.797  27.395  1.00  0.00     0.074 A 
ATOM     56  C   UNL A   1      47.689  30.311  28.430  1.00  0.00     0.029 A 
ATOM     57  N   UNL A   1      46.155  28.723  28.170  1.00  0.00    -0.354 N 
ATOM     58  N   UNL A   1      45.234  25.973  27.639  1.00  0.00    -0.248 NA
ATOM     59  C   UNL A   1      45.666  23.791  26.923  1.00  0.00     0.031 C 
ATOM     60  C   UNL A   1      48.325  29.151  27.979  1.00  0.00     0.029 A 
ATOM     61  C   UNL A   1      47.374  28.151  27.844  1.00  0.00     0.049 A 
ATOM     62  H   UNL A   1      45.289  28.253  28.156  1.00  0.00     0.167 HD
ATOM     63  C   UNL A   1      46.589  25.845  27.367  1.00  0.00     0.074 A 
ATOM     64  C   UNL A   1      46.803  24.470  26.960  1.00  0.00     0.031 C 
ATOM     65  C   UNL A   1      47.566  26.780  27.446  1.00  0.00     0.037 A 
BRANCH  52  66
ATOM     66  C   UNL A   1      45.613  32.388  29.177  1.00  0.00     0.057 A 
ATOM     67  C   UNL A   1      45.606  33.372  28.180  1.00  0.00     0.134 A 
ATOM     68  C   UNL A   1      45.931  32.797  30.480  1.00  0.00     0.134 A 
ATOM     69  F   UNL A   1      45.324  33.050  26.909  1.00  0.00    -0.206 F 
ATOM     70  C   UNL A   1      45.931  34.702  28.463  1.00  0.00     0.040 A 
ATOM     71  C   UNL A   1      46.226  34.128  30.781  1.00  0.00     0.040 A 
ATOM     72  F   UNL A   1      45.949  31.911  31.488  1.00  0.00    -0.206 F 
ATOM     73  C   UNL A   1      46.236  35.084  29.768  1.00  0.00     0.006 A 
ENDBRANCH  52  66
BRANCH  53  74
ATOM     74  C   UNL A   1      42.859  22.981  27.162  1.00  0.00     0.057 A 
ATOM     75  C   UNL A   1      42.600  22.021  28.146  1.00  0.00     0.134 A 
ATOM     76  C   UNL A   1      42.688  22.594  25.826  1.00  0.00     0.134 A 
ATOM     77  F   UNL A   1      42.762  22.324  29.443  1.00  0.00    -0.206 F 
ATOM     78  C   UNL A   1      42.195  20.726  27.817  1.00  0.00     0.040 A 
ATOM     79  C   UNL A   1      42.253  21.314  25.482  1.00  0.00     0.040 A 
ATOM     80  F   UNL A   1      42.913  23.468  24.833  1.00  0.00    -0.206 F 
ATOM     81  C   UNL A   1      42.012  20.373  26.481  1.00  0.00     0.006 A 
ENDBRANCH  53  74
BRANCH  65  82
ATOM     82  C   UNL A   1      48.962  26.332  27.126  1.00  0.00     0.057 A 
ATOM     83  C   UNL A   1      49.809  25.788  28.100  1.00  0.00     0.134 A 
ATOM     84  C   UNL A   1      49.453  26.424  25.818  1.00  0.00     0.134 A 
ATOM     85  F   UNL A   1      49.404  25.689  29.375  1.00  0.00    -0.206 F 
ATOM     86  C   UNL A   1      51.105  25.375  27.789  1.00  0.00     0.040 A 
ATOM     87  C   UNL A   1      50.736  25.986  25.489  1.00  0.00     0.040 A 
ATOM     88  F   UNL A   1      48.691  26.929  24.837  1.00  0.00    -0.206 F 
ATOM     89  C   UNL A   1      51.569  25.468  26.478  1.00  0.00     0.006 A 
ENDBRANCH  65  82
ENDBRANCH  39  40
ENDBRANCH  32  34
ENDBRANCH  31  32
ENDBRANCH  30  31
ENDBRANCH   1  30
TORSDOF 17
ENDMDL
MODEL 2
REMARK VINA RESULT:     -11.4      4.019      8.132
REMARK SMILES CCCCN(c1ccccc1C(=O)OCCOC(=O)c1ccc(-c2c3nc(c(-c4c(F)cccc4F)c4ccc([nH]4)c(-c4c(F)cccc4F)c4nc(c(-c5c(F)cccc5F)c5ccc2[nH]5)C=C4)C=C3)cc1)S(=O)(=O)c1ccc2c(c1)oc(=O)n2C
REMARK SMILES IDX 15 1 14 2 12 3 13 4 11 5 6 6 7 7 8 8 10 9 9 10 5 11 4 12
REMARK SMILES IDX 3 13 2 14 1 15 74 16 75 17 76 18 77 19 78 20 82 21 79 22
REMARK SMILES IDX 81 23 80 24 83 25 86 26 84 27 87 28 85 29 16 30 17 31 18 32
REMARK SMILES IDX 19 33 20 34 21 35 73 36 22 37 72 38 23 39 24 40 25 41 66 42
REMARK SMILES IDX 26 43 71 44 65 45 67 46 27 47 70 48 64 49 63 50 28 52 54 53
REMARK SMILES IDX 37 54 53 55 38 56 41 57 52 58 68 59 39 60 40 61 51 63 69 64
REMARK SMILES IDX 42 65 29 66 30 67 35 68 31 69 32 70 34 71 36 72 33 73 55 74
REMARK SMILES IDX 56 75 61 76 57 77 58 78 60 79 62 80 59 81 43 82 44 83 49 84
REMARK SMILES IDX 45 85 46 86 48 87 50 88 47 89
REMARK H PARENT 67 51 41 62
REMARK Flexibility Score: inf
ROOT
ATOM      1  C   UNL A   1      32.219  27.195  26.751  1.00  0.00     0.275 C 
ENDROOT
BRANCH   1   2
ATOM      2  O   UNL A   1      31.715  26.114  25.929  1.00  0.00    -0.458 OA
BRANCH   2   3
ATOM      3  C   UNL A   1      31.930  24.867  26.403  1.00  0.00     0.340 C 
ATOM      4  O   UNL A   1      31.225  24.272  27.206  1.00  0.00    -0.246 OA
BRANCH   3   5
ATOM      5  C   UNL A   1      33.154  24.229  25.873  1.00  0.00     0.084 A 
ATOM      6  C   UNL A   1      33.682  24.502  24.601  1.00  0.00     0.066 A 
ATOM      7  C   UNL A   1      35.045  24.232  24.386  1.00  0.00     0.028 A 
ATOM      8  C   UNL A   1      35.829  23.575  25.338  1.00  0.00     0.002 A 
ATOM      9  C   UNL A   1      33.957  23.574  26.827  1.00  0.00     0.018 A 
ATOM     10  C   UNL A   1      35.272  23.213  26.553  1.00  0.00     0.001 A 
BRANCH   6  11
ATOM     11  N   UNL A   1      32.934  24.977  23.458  1.00  0.00    -0.265 N 
BRANCH  11  12
ATOM     12  C   UNL A   1      32.295  23.997  22.534  1.00  0.00     0.136 C 
BRANCH  12  13
ATOM     13  C   UNL A   1      32.932  22.610  22.468  1.00  0.00     0.022 C 
BRANCH  13  14
ATOM     14  C   UNL A   1      32.175  21.441  23.103  1.00  0.00    -0.002 C 
ATOM     15  C   UNL A   1      32.917  20.690  24.201  1.00  0.00     0.004 C 
ENDBRANCH  13  14
ENDBRANCH  12  13
ENDBRANCH  11  12
BRANCH  11  16
ATOM     16  S   UNL A   1      33.302  26.526  22.817  1.00  0.00     0.264 S 
ATOM     17  O   UNL A   1      34.115  27.225  23.790  1.00  0.00    -0.201 OA
ATOM     18  O   UNL A   1      33.792  26.317  21.468  1.00  0.00    -0.201 OA
BRANCH  16  19
ATOM     19  C   UNL A   1      31.813  27.507  22.635  1.00  0.00     0.091 A 
ATOM     20  C   UNL A   1      31.928  28.901  22.409  1.00  0.00     0.025 A 
ATOM     21  C   UNL A   1      30.572  26.940  22.952  1.00  0.00     0.071 A 
ATOM     22  C   UNL A   1      30.799  29.726  22.392  1.00  0.00     0.032 A 
ATOM     23  C   UNL A   1      29.484  27.791  22.990  1.00  0.00     0.157 A 
ATOM     24  C   UNL A   1      29.592  29.138  22.696  1.00  0.00     0.090 A 
ATOM     25  O   UNL A   1      28.194  27.426  23.346  1.00  0.00    -0.408 OA
ATOM     26  N   UNL A   1      28.325  29.654  22.820  1.00  0.00    -0.277 N 
ATOM     27  C   UNL A   1      27.491  28.633  23.234  1.00  0.00     0.419 A 
ATOM     28  C   UNL A   1      27.904  30.997  22.553  1.00  0.00     0.157 C 
ATOM     29  O   UNL A   1      26.296  28.739  23.478  1.00  0.00    -0.223 OA
ENDBRANCH  16  19
ENDBRANCH  11  16
ENDBRANCH   6  11
ENDBRANCH   3   5
ENDBRANCH   2   3
ENDBRANCH   1   2
BRANCH   1  30
ATOM     30  C   UNL A   1      31.872  28.560  26.163  1.00  0.00     0.275 C 
BRANCH  30  31
ATOM     31  O   UNL A   1      33.072  29.324  25.970  1.00  0.00    -0.458 OA
BRANCH  31  32
ATOM     32  C   UNL A   1      33.076  30.509  26.613  1.00  0.00     0.338 C 
ATOM     33  O   UNL A   1      32.274  31.423  26.516  1.00  0.00    -0.246 OA
BRANCH  32  34
ATOM     34  C   UNL A   1      34.146  30.522  27.610  1.00  0.00     0.060 A 
ATOM     35  C   UNL A   1      34.900  31.683  27.724  1.00  0.00     0.016 A 
ATOM     36  C   UNL A   1      34.541  29.354  28.249  1.00  0.00     0.016 A 
ATOM     37  C   UNL A   1      36.148  31.641  28.325  1.00  0.00     0.010 A 
ATOM     38  C   UNL A   1      35.726  29.359  28.990  1.00  0.00     0.010 A 
ATOM     39  C   UNL A   1      36.572  30.484  28.988  1.00  0.00    -0.014 A 
BRANCH  39  40
ATOM     40  C   UNL A   1      37.904  30.443  29.653  1.00  0.00     0.031 A 
ATOM     41  C   UNL A   1      39.059  29.742  28.986  1.00  0.00     0.074 A 
ATOM     42  C   UNL A   1      38.079  31.027  30.856  1.00  0.00     0.049 A 
ATOM     43  N   UNL A   1      40.215  29.391  29.487  1.00  0.00    -0.248 NA
ATOM     44  C   UNL A   1      38.879  29.363  27.574  1.00  0.00     0.031 C 
ATOM     45  C   UNL A   1      37.063  31.784  31.592  1.00  0.00     0.029 A 
ATOM     46  N   UNL A   1      39.178  31.070  31.678  1.00  0.00    -0.354 N 
ATOM     47  C   UNL A   1      40.868  28.690  28.480  1.00  0.00     0.074 A 
ATOM     48  C   UNL A   1      39.979  28.663  27.338  1.00  0.00     0.031 C 
ATOM     49  C   UNL A   1      37.593  32.242  32.734  1.00  0.00     0.029 A 
ATOM     50  C   UNL A   1      38.942  31.714  32.868  1.00  0.00     0.049 A 
ATOM     51  H   UNL A   1      40.049  30.679  31.438  1.00  0.00     0.167 HD
ATOM     52  C   UNL A   1      42.097  28.119  28.511  1.00  0.00     0.037 A 
ATOM     53  C   UNL A   1      39.696  31.814  33.978  1.00  0.00     0.037 A 
ATOM     54  C   UNL A   1      42.991  28.202  29.637  1.00  0.00     0.049 A 
ATOM     55  C   UNL A   1      41.035  31.139  34.006  1.00  0.00     0.074 A 
ATOM     56  C   UNL A   1      44.270  27.687  29.764  1.00  0.00     0.029 A 
ATOM     57  N   UNL A   1      42.702  28.850  30.830  1.00  0.00    -0.354 N 
ATOM     58  N   UNL A   1      41.626  30.443  33.066  1.00  0.00    -0.248 NA
ATOM     59  C   UNL A   1      41.802  31.248  35.252  1.00  0.00     0.031 C 
ATOM     60  C   UNL A   1      44.733  27.980  31.051  1.00  0.00     0.029 A 
ATOM     61  C   UNL A   1      43.768  28.730  31.706  1.00  0.00     0.049 A 
ATOM     62  H   UNL A   1      41.861  29.327  31.024  1.00  0.00     0.167 HD
ATOM     63  C   UNL A   1      42.845  30.045  33.599  1.00  0.00     0.074 A 
ATOM     64  C   UNL A   1      42.912  30.596  34.937  1.00  0.00     0.031 C 
ATOM     65  C   UNL A   1      43.818  29.291  33.032  1.00  0.00     0.037 A 
BRANCH  52  66
ATOM     66  C   UNL A   1      42.527  27.316  27.315  1.00  0.00     0.057 A 
ATOM     67  C   UNL A   1      43.228  27.878  26.241  1.00  0.00     0.134 A 
ATOM     68  C   UNL A   1      42.253  25.941  27.254  1.00  0.00     0.134 A 
ATOM     69  F   UNL A   1      43.513  29.188  26.226  1.00  0.00    -0.206 F 
ATOM     70  C   UNL A   1      43.615  27.111  25.138  1.00  0.00     0.040 A 
ATOM     71  C   UNL A   1      42.662  25.159  26.172  1.00  0.00     0.040 A 
ATOM     72  F   UNL A   1      41.592  25.333  28.250  1.00  0.00    -0.206 F 
ATOM     73  C   UNL A   1      43.338  25.746  25.105  1.00  0.00     0.006 A 
ENDBRANCH  52  66
BRANCH  53  74
ATOM     74  C   UNL A   1      39.170  32.535  35.166  1.00  0.00     0.057 A 
ATOM     75  C   UNL A   1      39.426  33.896  35.360  1.00  0.00     0.134 A 
ATOM     76  C   UNL A   1      38.383  31.885  36.126  1.00  0.00     0.134 A 
ATOM     77  F   UNL A   1      40.188  34.570  34.486  1.00  0.00    -0.206 F 
ATOM     78  C   UNL A   1      38.927  34.584  36.468  1.00  0.00     0.040 A 
ATOM     79  C   UNL A   1      37.850  32.566  37.221  1.00  0.00     0.040 A 
ATOM     80  F   UNL A   1      38.093  30.582  35.996  1.00  0.00    -0.206 F 
ATOM     81  C   UNL A   1      38.129  33.919  37.398  1.00  0.00     0.006 A 
ENDBRANCH  53  74
BRANCH  65  82
ATOM     82  C   UNL A   1      45.056  29.057  33.847  1.00  0.00     0.057 A 
ATOM     83  C   UNL A   1      45.199  27.939  34.678  1.00  0.00     0.134 A 
ATOM     84  C   UNL A   1      46.130  29.954  33.776  1.00  0.00     0.134 A 
ATOM     85  F   UNL A   1      44.200  27.053  34.803  1.00  0.00    -0.206 F 
ATOM     86  C   UNL A   1      46.356  27.735  35.430  1.00  0.00     0.040 A 
ATOM     87  C   UNL A   1      47.304  29.744  34.499  1.00  0.00     0.040 A 
ATOM     88  F   UNL A   1      46.059  31.041  32.993  1.00  0.00    -0.206 F 
ATOM     89  C   UNL A   1      47.415  28.635  35.335  1.00  0.00     0.006 A 
ENDBRANCH  65  82
ENDBRANCH  39  40
ENDBRANCH  32  34
ENDBRANCH  31  32
ENDBRANCH  30  31
ENDBRANCH   1  30
TORSDOF 17
ENDMDL
MODEL 3
REMARK VINA RESULT:     -11.4      4.084      7.868
REMARK SMILES CCCCN(c1ccccc1C(=O)OCCOC(=O)c1ccc(-c2c3nc(c(-c4c(F)cccc4F)c4ccc([nH]4)c(-c4c(F)cccc4F)c4nc(c(-c5c(F)cccc5F)c5ccc2[nH]5)C=C4)C=C3)cc1)S(=O)(=O)c1ccc2c(c1)oc(=O)n2C
REMARK SMILES IDX 15 1 14 2 12 3 13 4 11 5 6 6 7 7 8 8 10 9 9 10 5 11 4 12
REMARK SMILES IDX 3 13 2 14 1 15 74 16 75 17 76 18 77 19 78 20 82 21 79 22
REMARK SMILES IDX 81 23 80 24 83 25 86 26 84 27 87 28 85 29 16 30 17 31 18 32
REMARK SMILES IDX 19 33 20 34 21 35 73 36 22 37 72 38 23 39 24 40 25 41 66 42
REMARK SMILES IDX 26 43 71 44 65 45 67 46 27 47 70 48 64 49 63 50 28 52 54 53
REMARK SMILES IDX 37 54 53 55 38 56 41 57 52 58 68 59 39 60 40 61 51 63 69 64
REMARK SMILES IDX 42 65 29 66 30 67 35 68 31 69 32 70 34 71 36 72 33 73 55 74
REMARK SMILES IDX 56 75 61 76 57 77 58 78 60 79 62 80 59 81 43 82 44 83 49 84
REMARK SMILES IDX 45 85 46 86 48 87 50 88 47 89
REMARK H PARENT 67 51 41 62
REMARK Flexibility Score: inf
ROOT
ATOM      1  C   UNL A   1      31.307  31.645  26.227  1.00  0.00     0.275 C 
ENDROOT
BRANCH   1   2
ATOM      2  O   UNL A   1      31.335  30.199  26.141  1.00  0.00    -0.458 OA
BRANCH   2   3
ATOM      3  C   UNL A   1      31.717  29.691  24.949  1.00  0.00     0.340 C 
ATOM      4  O   UNL A   1      32.869  29.547  24.565  1.00  0.00    -0.246 OA
BRANCH   3   5
ATOM      5  C   UNL A   1      30.589  29.309  24.073  1.00  0.00     0.084 A 
ATOM      6  C   UNL A   1      30.105  27.996  23.959  1.00  0.00     0.066 A 
ATOM      7  C   UNL A   1      28.787  27.821  23.501  1.00  0.00     0.028 A 
ATOM      8  C   UNL A   1      28.020  28.889  23.027  1.00  0.00     0.002 A 
ATOM      9  C   UNL A   1      29.802  30.378  23.599  1.00  0.00     0.018 A 
ATOM     10  C   UNL A   1      28.544  30.170  23.043  1.00  0.00     0.001 A 
BRANCH   6  11
ATOM     11  N   UNL A   1      30.863  26.790  24.207  1.00  0.00    -0.265 N 
BRANCH  11  12
ATOM     12  C   UNL A   1      31.274  25.927  23.062  1.00  0.00     0.136 C 
BRANCH  12  13
ATOM     13  C   UNL A   1      32.630  26.238  22.431  1.00  0.00     0.022 C 
BRANCH  13  14
ATOM     14  C   UNL A   1      33.711  25.155  22.480  1.00  0.00    -0.002 C 
ATOM     15  C   UNL A   1      33.240  23.736  22.189  1.00  0.00     0.004 C 
ENDBRANCH  13  14
ENDBRANCH  12  13
ENDBRANCH  11  12
BRANCH  11  16
ATOM     16  S   UNL A   1      30.737  26.036  25.743  1.00  0.00     0.264 S 
ATOM     17  O   UNL A   1      31.147  27.001  26.744  1.00  0.00    -0.201 OA
ATOM     18  O   UNL A   1      29.422  25.430  25.807  1.00  0.00    -0.201 OA
BRANCH  16  19
ATOM     19  C   UNL A   1      31.895  24.675  25.880  1.00  0.00     0.091 A 
ATOM     20  C   UNL A   1      33.275  24.955  26.035  1.00  0.00     0.025 A 
ATOM     21  C   UNL A   1      31.463  23.373  25.594  1.00  0.00     0.071 A 
ATOM     22  C   UNL A   1      34.228  23.931  26.014  1.00  0.00     0.032 A 
ATOM     23  C   UNL A   1      32.434  22.393  25.517  1.00  0.00     0.157 A 
ATOM     24  C   UNL A   1      33.772  22.661  25.743  1.00  0.00     0.090 A 
ATOM     25  O   UNL A   1      32.206  21.066  25.183  1.00  0.00    -0.408 OA
ATOM     26  N   UNL A   1      34.427  21.462  25.596  1.00  0.00    -0.277 N 
ATOM     27  C   UNL A   1      33.492  20.511  25.236  1.00  0.00     0.419 A 
ATOM     28  C   UNL A   1      35.822  21.205  25.798  1.00  0.00     0.157 C 
ATOM     29  O   UNL A   1      33.726  19.334  24.990  1.00  0.00    -0.223 OA
ENDBRANCH  16  19
ENDBRANCH  11  16
ENDBRANCH   6  11
ENDBRANCH   3   5
ENDBRANCH   2   3
ENDBRANCH   1   2
BRANCH   1  30
ATOM     30  C   UNL A   1      32.282  32.166  27.280  1.00  0.00     0.275 C 
BRANCH  30  31
ATOM     31  O   UNL A   1      32.230  33.600  27.323  1.00  0.00    -0.458 OA
BRANCH  31  32
ATOM     32  C   UNL A   1      32.912  34.142  28.352  1.00  0.00     0.338 C 
ATOM     33  O   UNL A   1      32.546  35.010  29.126  1.00  0.00    -0.246 OA
BRANCH  32  34
ATOM     34  C   UNL A   1      34.174  33.425  28.534  1.00  0.00     0.060 A 
ATOM     35  C   UNL A   1      34.239  32.497  29.566  1.00  0.00     0.016 A 
ATOM     36  C   UNL A   1      35.323  33.819  27.862  1.00  0.00     0.016 A 
ATOM     37  C   UNL A   1      35.471  32.092  30.055  1.00  0.00     0.010 A 
ATOM     38  C   UNL A   1      36.553  33.285  28.256  1.00  0.00     0.010 A 
ATOM     39  C   UNL A   1      36.648  32.462  29.394  1.00  0.00    -0.014 A 
BRANCH  39  40
ATOM     40  C   UNL A   1      37.972  32.011  29.906  1.00  0.00     0.031 A 
ATOM     41  C   UNL A   1      38.616  30.771  29.342  1.00  0.00     0.074 A 
ATOM     42  C   UNL A   1      38.596  32.706  30.878  1.00  0.00     0.049 A 
ATOM     43  N   UNL A   1      39.631  30.085  29.799  1.00  0.00    -0.248 NA
ATOM     44  C   UNL A   1      38.022  30.215  28.114  1.00  0.00     0.031 C 
ATOM     45  C   UNL A   1      38.112  33.952  31.478  1.00  0.00     0.029 A 
ATOM     46  N   UNL A   1      39.773  32.459  31.540  1.00  0.00    -0.354 N 
ATOM     47  C   UNL A   1      39.752  28.982  28.961  1.00  0.00     0.074 A 
ATOM     48  C   UNL A   1      38.705  29.089  27.967  1.00  0.00     0.031 C 
ATOM     49  C   UNL A   1      38.996  34.376  32.391  1.00  0.00     0.029 A 
ATOM     50  C   UNL A   1      40.045  33.376  32.527  1.00  0.00     0.049 A 
ATOM     51  H   UNL A   1      40.363  31.701  31.329  1.00  0.00     0.167 HD
ATOM     52  C   UNL A   1      40.654  27.972  29.021  1.00  0.00     0.037 A 
ATOM     53  C   UNL A   1      40.991  33.384  33.484  1.00  0.00     0.037 A 
ATOM     54  C   UNL A   1      41.723  27.909  29.985  1.00  0.00     0.049 A 
ATOM     55  C   UNL A   1      41.952  32.236  33.558  1.00  0.00     0.074 A 
ATOM     56  C   UNL A   1      42.712  26.949  30.116  1.00  0.00     0.029 A 
ATOM     57  N   UNL A   1      41.950  28.853  30.977  1.00  0.00    -0.354 N 
ATOM     58  N   UNL A   1      42.033  31.177  32.789  1.00  0.00    -0.248 NA
ATOM     59  C   UNL A   1      42.942  32.273  34.641  1.00  0.00     0.031 C 
ATOM     60  C   UNL A   1      43.503  27.285  31.219  1.00  0.00     0.029 A 
ATOM     61  C   UNL A   1      43.047  28.486  31.739  1.00  0.00     0.049 A 
ATOM     62  H   UNL A   1      41.409  29.664  31.118  1.00  0.00     0.167 HD
ATOM     63  C   UNL A   1      43.093  30.430  33.283  1.00  0.00     0.074 A 
ATOM     64  C   UNL A   1      43.636  31.169  34.406  1.00  0.00     0.031 C 
ATOM     65  C   UNL A   1      43.573  29.239  32.849  1.00  0.00     0.037 A 
BRANCH  52  66
ATOM     66  C   UNL A   1      40.496  26.832  28.053  1.00  0.00     0.057 A 
ATOM     67  C   UNL A   1      41.166  26.788  26.824  1.00  0.00     0.134 A 
ATOM     68  C   UNL A   1      39.674  25.742  28.376  1.00  0.00     0.134 A 
ATOM     69  F   UNL A   1      41.958  27.801  26.445  1.00  0.00    -0.206 F 
ATOM     70  C   UNL A   1      41.001  25.718  25.940  1.00  0.00     0.040 A 
ATOM     71  C   UNL A   1      39.526  24.654  27.515  1.00  0.00     0.040 A 
ATOM     72  F   UNL A   1      39.007  25.713  29.540  1.00  0.00    -0.206 F 
ATOM     73  C   UNL A   1      40.184  24.644  26.287  1.00  0.00     0.006 A 
ENDBRANCH  52  66
BRANCH  53  74
ATOM     74  C   UNL A   1      41.029  34.488  34.476  1.00  0.00     0.057 A 
ATOM     75  C   UNL A   1      41.753  35.660  34.229  1.00  0.00     0.134 A 
ATOM     76  C   UNL A   1      40.328  34.408  35.687  1.00  0.00     0.134 A 
ATOM     77  F   UNL A   1      42.459  35.790  33.097  1.00  0.00    -0.206 F 
ATOM     78  C   UNL A   1      41.786  36.707  35.152  1.00  0.00     0.040 A 
ATOM     79  C   UNL A   1      40.325  35.460  36.603  1.00  0.00     0.040 A 
ATOM     80  F   UNL A   1      39.608  33.316  35.982  1.00  0.00    -0.206 F 
ATOM     81  C   UNL A   1      41.062  36.611  36.339  1.00  0.00     0.006 A 
ENDBRANCH  53  74
BRANCH  65  82
ATOM     82  C   UNL A   1      44.771  28.688  33.565  1.00  0.00     0.057 A 
ATOM     83  C   UNL A   1      44.650  27.801  34.641  1.00  0.00     0.134 A 
ATOM     84  C   UNL A   1      46.064  29.033  33.152  1.00  0.00     0.134 A 
ATOM     85  F   UNL A   1      43.439  27.444  35.096  1.00  0.00    -0.206 F 
ATOM     86  C   UNL A   1      45.773  27.295  35.298  1.00  0.00     0.040 A 
ATOM     87  C   UNL A   1      47.194  28.511  33.781  1.00  0.00     0.040 A 
ATOM     88  F   UNL A   1      46.250  29.874  32.123  1.00  0.00    -0.206 F 
ATOM     89  C   UNL A   1      47.049  27.646  34.863  1.00  0.00     0.006 A 
ENDBRANCH  65  82
ENDBRANCH  39  40
ENDBRANCH  32  34
ENDBRANCH  31  32
ENDBRANCH  30  31
ENDBRANCH   1  30
TORSDOF 17
ENDMDL
