MODEL 1
REMARK VINA RESULT:     -12.1      0.000      0.000
REMARK SMILES Cn1cc(C[C@@H](NC(=O)OCC2c3ccccc3-c3ccccc32)C(=O)OCCOC(=O)c2ccc(-c3c4nc(c(-c5c(F)cccc5F)c5ccc([nH]5)c(-c5c(F)cccc5F)c5nc(c(-c6c(F)cccc6F)c6ccc3[nH]6)C=C5)C=C4)cc2)c2ccccc21
REMARK SMILES IDX 28 1 27 2 25 3 26 4 6 5 5 6 4 7 1 8 2 9 3 10 92 11 87 12
REMARK SMILES IDX 91 13 88 14 90 15 89 16 7 17 8 18 9 20 10 21 11 22 12 23
REMARK SMILES IDX 13 24 24 25 14 26 18 27 19 28 23 29 15 30 17 31 20 32 22 33
REMARK SMILES IDX 16 34 21 35 29 36 30 37 31 38 32 39 33 40 34 41 86 42 35 43
REMARK SMILES IDX 85 44 36 45 37 46 38 47 79 48 39 49 84 50 78 51 80 52 40 53
REMARK SMILES IDX 83 54 77 55 76 56 41 58 67 59 50 60 66 61 51 62 54 63 65 64
REMARK SMILES IDX 81 65 52 66 53 67 64 69 82 70 55 71 42 72 43 73 48 74 44 75
REMARK SMILES IDX 45 76 47 77 49 78 46 79 68 80 69 81 74 82 70 83 71 84 73 85
REMARK SMILES IDX 75 86 72 87 56 88 57 89 62 90 58 91 59 92 61 93 63 94 60 95
REMARK H PARENT 7 19 80 57 54 68
REMARK Flexibility Score: inf
ROOT
ATOM      1  C   UNL A   1      32.080  31.417  26.912  1.00  0.00     0.274 C 
ENDROOT
BRANCH   1   2
ATOM      2  O   UNL A   1      33.296  30.756  26.516  1.00  0.00    -0.461 OA
BRANCH   2   3
ATOM      3  C   UNL A   1      33.418  29.455  26.912  1.00  0.00     0.329 C 
ATOM      4  O   UNL A   1      34.047  29.084  27.897  1.00  0.00    -0.250 OA
BRANCH   3   5
ATOM      5  C   UNL A   1      32.787  28.490  25.903  1.00  0.00     0.200 C 
BRANCH   5   6
ATOM      6  C   UNL A   1      31.469  27.830  26.366  1.00  0.00     0.075 C 
BRANCH   6   7
ATOM      7  C   UNL A   1      31.565  26.318  26.406  1.00  0.00    -0.020 A 
ATOM      8  C   UNL A   1      30.269  22.969  26.986  1.00  0.00     0.149 C 
ATOM      9  N   UNL A   1      31.044  24.167  26.741  1.00  0.00    -0.350 N 
ATOM     10  C   UNL A   1      30.554  25.447  26.779  1.00  0.00     0.090 A 
ATOM     11  C   UNL A   1      32.381  24.179  26.412  1.00  0.00     0.048 A 
ATOM     12  C   UNL A   1      32.709  25.503  26.104  1.00  0.00     0.003 A 
ATOM     13  C   UNL A   1      33.322  23.137  26.343  1.00  0.00     0.027 A 
ATOM     14  C   UNL A   1      34.011  25.771  25.632  1.00  0.00     0.010 A 
ATOM     15  C   UNL A   1      34.623  23.449  25.943  1.00  0.00     0.002 A 
ATOM     16  C   UNL A   1      34.962  24.747  25.577  1.00  0.00     0.001 A 
ENDBRANCH   6   7
ENDBRANCH   5   6
BRANCH   5  17
ATOM     17  N   UNL A   1      32.701  29.039  24.552  1.00  0.00    -0.308 N 
ATOM     18  C   UNL A   1      33.510  28.744  23.502  1.00  0.00     0.407 C 
ATOM     19  H   UNL A   1      31.980  29.689  24.386  1.00  0.00     0.168 HD
ATOM     20  O   UNL A   1      33.836  29.602  22.685  1.00  0.00    -0.225 OA
BRANCH  18  21
ATOM     21  O   UNL A   1      33.741  27.416  23.369  1.00  0.00    -0.449 OA
BRANCH  21  22
ATOM     22  C   UNL A   1      33.722  26.917  22.019  1.00  0.00     0.248 C 
BRANCH  22  23
ATOM     23  C   UNL A   1      32.425  26.148  21.665  1.00  0.00     0.088 C 
ATOM     24  C   UNL A   1      32.377  24.713  22.194  1.00  0.00    -0.029 A 
ATOM     25  C   UNL A   1      31.128  26.722  22.229  1.00  0.00    -0.029 A 
ATOM     26  C   UNL A   1      33.230  23.656  21.911  1.00  0.00     0.005 A 
ATOM     27  C   UNL A   1      31.214  24.519  22.969  1.00  0.00    -0.014 A 
ATOM     28  C   UNL A   1      30.480  25.763  23.037  1.00  0.00    -0.014 A 
ATOM     29  C   UNL A   1      30.580  27.983  22.049  1.00  0.00     0.005 A 
ATOM     30  C   UNL A   1      32.905  22.391  22.409  1.00  0.00     0.000 A 
ATOM     31  C   UNL A   1      30.894  23.265  23.466  1.00  0.00     0.009 A 
ATOM     32  C   UNL A   1      29.325  26.087  23.732  1.00  0.00     0.009 A 
ATOM     33  C   UNL A   1      29.428  28.317  22.765  1.00  0.00     0.000 A 
ATOM     34  C   UNL A   1      31.746  22.196  23.176  1.00  0.00     0.001 A 
ATOM     35  C   UNL A   1      28.810  27.380  23.607  1.00  0.00     0.001 A 
ENDBRANCH  22  23
ENDBRANCH  21  22
ENDBRANCH  18  21
ENDBRANCH   5  17
ENDBRANCH   3   5
ENDBRANCH   2   3
ENDBRANCH   1   2
BRANCH   1  36
ATOM     36  C   UNL A   1      32.204  32.942  26.864  1.00  0.00     0.275 C 
BRANCH  36  37
ATOM     37  O   UNL A   1      32.363  33.510  28.175  1.00  0.00    -0.458 OA
BRANCH  37  38
ATOM     38  C   UNL A   1      33.459  34.290  28.323  1.00  0.00     0.338 C 
ATOM     39  O   UNL A   1      33.503  35.510  28.330  1.00  0.00    -0.246 OA
BRANCH  38  40
ATOM     40  C   UNL A   1      34.627  33.460  28.659  1.00  0.00     0.060 A 
ATOM     41  C   UNL A   1      34.399  32.307  29.418  1.00  0.00     0.016 A 
ATOM     42  C   UNL A   1      35.923  33.839  28.309  1.00  0.00     0.016 A 
ATOM     43  C   UNL A   1      35.467  31.530  29.847  1.00  0.00     0.010 A 
ATOM     44  C   UNL A   1      37.000  33.069  28.758  1.00  0.00     0.010 A 
ATOM     45  C   UNL A   1      36.774  31.929  29.549  1.00  0.00    -0.014 A 
BRANCH  45  46
ATOM     46  C   UNL A   1      37.899  31.222  30.197  1.00  0.00     0.031 A 
ATOM     47  C   UNL A   1      38.187  31.497  31.645  1.00  0.00     0.074 A 
ATOM     48  C   UNL A   1      38.611  30.308  29.517  1.00  0.00     0.049 A 
ATOM     49  N   UNL A   1      39.144  31.032  32.404  1.00  0.00    -0.248 NA
ATOM     50  C   UNL A   1      37.266  32.419  32.330  1.00  0.00     0.031 C 
ATOM     51  C   UNL A   1      38.375  29.915  28.129  1.00  0.00     0.029 A 
ATOM     52  N   UNL A   1      39.677  29.541  29.910  1.00  0.00    -0.354 N 
ATOM     53  C   UNL A   1      38.953  31.618  33.648  1.00  0.00     0.074 A 
ATOM     54  C   UNL A   1      37.799  32.483  33.540  1.00  0.00     0.031 C 
ATOM     55  C   UNL A   1      39.278  28.982  27.782  1.00  0.00     0.029 A 
ATOM     56  C   UNL A   1      40.173  28.741  28.911  1.00  0.00     0.049 A 
ATOM     57  H   UNL A   1      40.052  29.563  30.820  1.00  0.00     0.167 HD
ATOM     58  C   UNL A   1      39.677  31.446  34.779  1.00  0.00     0.037 A 
ATOM     59  C   UNL A   1      41.244  27.925  28.909  1.00  0.00     0.037 A 
ATOM     60  C   UNL A   1      40.821  30.579  34.878  1.00  0.00     0.049 A 
ATOM     61  C   UNL A   1      42.064  27.792  30.164  1.00  0.00     0.074 A 
ATOM     62  C   UNL A   1      41.634  30.342  35.972  1.00  0.00     0.029 A 
ATOM     63  N   UNL A   1      41.309  29.801  33.839  1.00  0.00    -0.354 N 
ATOM     64  N   UNL A   1      41.890  28.363  31.331  1.00  0.00    -0.248 NA
ATOM     65  C   UNL A   1      43.228  26.899  30.100  1.00  0.00     0.031 C 
ATOM     66  C   UNL A   1      42.636  29.444  35.583  1.00  0.00     0.029 A 
ATOM     67  C   UNL A   1      42.419  29.090  34.261  1.00  0.00     0.049 A 
ATOM     68  H   UNL A   1      40.923  29.760  32.934  1.00  0.00     0.167 HD
ATOM     69  C   UNL A   1      42.904  27.880  32.147  1.00  0.00     0.074 A 
ATOM     70  C   UNL A   1      43.681  26.959  31.344  1.00  0.00     0.031 C 
ATOM     71  C   UNL A   1      43.169  28.169  33.445  1.00  0.00     0.037 A 
BRANCH  58  72
ATOM     72  C   UNL A   1      39.271  32.244  35.982  1.00  0.00     0.057 A 
ATOM     73  C   UNL A   1      38.353  31.756  36.920  1.00  0.00     0.134 A 
ATOM     74  C   UNL A   1      39.814  33.514  36.209  1.00  0.00     0.134 A 
ATOM     75  F   UNL A   1      37.780  30.554  36.751  1.00  0.00    -0.206 F 
ATOM     76  C   UNL A   1      37.973  32.512  38.031  1.00  0.00     0.040 A 
ATOM     77  C   UNL A   1      39.460  34.270  37.328  1.00  0.00     0.040 A 
ATOM     78  F   UNL A   1      40.699  34.040  35.349  1.00  0.00    -0.206 F 
ATOM     79  C   UNL A   1      38.532  33.771  38.239  1.00  0.00     0.006 A 
ENDBRANCH  58  72
BRANCH  59  80
ATOM     80  C   UNL A   1      41.610  27.183  27.677  1.00  0.00     0.057 A 
ATOM     81  C   UNL A   1      42.401  27.771  26.684  1.00  0.00     0.134 A 
ATOM     82  C   UNL A   1      41.163  25.875  27.456  1.00  0.00     0.134 A 
ATOM     83  F   UNL A   1      42.840  29.031  26.828  1.00  0.00    -0.206 F 
ATOM     84  C   UNL A   1      42.723  27.091  25.508  1.00  0.00     0.040 A 
ATOM     85  C   UNL A   1      41.498  25.174  26.297  1.00  0.00     0.040 A 
ATOM     86  F   UNL A   1      40.401  25.256  28.370  1.00  0.00    -0.206 F 
ATOM     87  C   UNL A   1      42.274  25.786  25.315  1.00  0.00     0.006 A 
ENDBRANCH  59  80
BRANCH  71  88
ATOM     88  C   UNL A   1      44.318  27.447  34.084  1.00  0.00     0.057 A 
ATOM     89  C   UNL A   1      45.611  27.983  34.103  1.00  0.00     0.134 A 
ATOM     90  C   UNL A   1      44.118  26.210  34.710  1.00  0.00     0.134 A 
ATOM     91  F   UNL A   1      45.870  29.157  33.509  1.00  0.00    -0.206 F 
ATOM     92  C   UNL A   1      46.672  27.300  34.700  1.00  0.00     0.040 A 
ATOM     93  C   UNL A   1      45.165  25.530  35.332  1.00  0.00     0.040 A 
ATOM     94  F   UNL A   1      42.900  25.647  34.735  1.00  0.00    -0.206 F 
ATOM     95  C   UNL A   1      46.449  26.071  35.321  1.00  0.00     0.006 A 
ENDBRANCH  71  88
ENDBRANCH  45  46
ENDBRANCH  38  40
ENDBRANCH  37  38
ENDBRANCH  36  37
ENDBRANCH   1  36
TORSDOF 17
ENDMDL
MODEL 2
REMARK VINA RESULT:     -12.0      2.078      7.280
REMARK SMILES Cn1cc(C[C@@H](NC(=O)OCC2c3ccccc3-c3ccccc32)C(=O)OCCOC(=O)c2ccc(-c3c4nc(c(-c5c(F)cccc5F)c5ccc([nH]5)c(-c5c(F)cccc5F)c5nc(c(-c6c(F)cccc6F)c6ccc3[nH]6)C=C5)C=C4)cc2)c2ccccc21
REMARK SMILES IDX 28 1 27 2 25 3 26 4 6 5 5 6 4 7 1 8 2 9 3 10 92 11 87 12
REMARK SMILES IDX 91 13 88 14 90 15 89 16 7 17 8 18 9 20 10 21 11 22 12 23
REMARK SMILES IDX 13 24 24 25 14 26 18 27 19 28 23 29 15 30 17 31 20 32 22 33
REMARK SMILES IDX 16 34 21 35 29 36 30 37 31 38 32 39 33 40 34 41 86 42 35 43
REMARK SMILES IDX 85 44 36 45 37 46 38 47 79 48 39 49 84 50 78 51 80 52 40 53
REMARK SMILES IDX 83 54 77 55 76 56 41 58 67 59 50 60 66 61 51 62 54 63 65 64
REMARK SMILES IDX 81 65 52 66 53 67 64 69 82 70 55 71 42 72 43 73 48 74 44 75
REMARK SMILES IDX 45 76 47 77 49 78 46 79 68 80 69 81 74 82 70 83 71 84 73 85
REMARK SMILES IDX 75 86 72 87 56 88 57 89 62 90 58 91 59 92 61 93 63 94 60 95
REMARK H PARENT 7 19 80 57 54 68
REMARK Flexibility Score: inf
ROOT
ATOM      1  C   UNL A   1      31.747  28.387  27.521  1.00  0.00     0.274 C 
ENDROOT
BRANCH   1   2
ATOM      2  O   UNL A   1      30.794  27.346  27.238  1.00  0.00    -0.461 OA
BRANCH   2   3
ATOM      3  C   UNL A   1      31.296  26.239  26.615  1.00  0.00     0.329 C 
ATOM      4  O   UNL A   1      32.490  25.984  26.502  1.00  0.00    -0.250 OA
BRANCH   3   5
ATOM      5  C   UNL A   1      30.193  25.410  25.949  1.00  0.00     0.200 C 
BRANCH   5   6
ATOM      6  C   UNL A   1      30.288  25.313  24.410  1.00  0.00     0.075 C 
BRANCH   6   7
ATOM      7  C   UNL A   1      30.516  26.663  23.760  1.00  0.00    -0.020 A 
ATOM      8  C   UNL A   1      32.572  29.328  22.384  1.00  0.00     0.149 C 
ATOM      9  N   UNL A   1      31.540  28.466  22.918  1.00  0.00    -0.350 N 
ATOM     10  C   UNL A   1      31.745  27.212  23.432  1.00  0.00     0.090 A 
ATOM     11  C   UNL A   1      30.200  28.784  22.960  1.00  0.00     0.048 A 
ATOM     12  C   UNL A   1      29.527  27.638  23.394  1.00  0.00     0.003 A 
ATOM     13  C   UNL A   1      29.526  29.975  22.637  1.00  0.00     0.027 A 
ATOM     14  C   UNL A   1      28.117  27.670  23.425  1.00  0.00     0.010 A 
ATOM     15  C   UNL A   1      28.134  29.995  22.751  1.00  0.00     0.002 A 
ATOM     16  C   UNL A   1      27.435  28.853  23.125  1.00  0.00     0.001 A 
ENDBRANCH   6   7
ENDBRANCH   5   6
BRANCH   5  17
ATOM     17  N   UNL A   1      29.979  24.112  26.585  1.00  0.00    -0.308 N 
ATOM     18  C   UNL A   1      30.541  22.929  26.225  1.00  0.00     0.407 C 
ATOM     19  H   UNL A   1      29.365  24.094  27.354  1.00  0.00     0.168 HD
ATOM     20  O   UNL A   1      29.912  21.875  26.295  1.00  0.00    -0.225 OA
BRANCH  18  21
ATOM     21  O   UNL A   1      31.868  23.028  25.977  1.00  0.00    -0.449 OA
BRANCH  21  22
ATOM     22  C   UNL A   1      32.627  21.822  26.187  1.00  0.00     0.248 C 
BRANCH  22  23
ATOM     23  C   UNL A   1      33.530  21.447  24.985  1.00  0.00     0.088 C 
ATOM     24  C   UNL A   1      35.016  21.745  25.192  1.00  0.00    -0.029 A 
ATOM     25  C   UNL A   1      33.568  19.967  24.609  1.00  0.00    -0.029 A 
ATOM     26  C   UNL A   1      35.629  22.967  25.432  1.00  0.00     0.005 A 
ATOM     27  C   UNL A   1      35.781  20.579  24.980  1.00  0.00    -0.014 A 
ATOM     28  C   UNL A   1      34.891  19.480  24.680  1.00  0.00    -0.014 A 
ATOM     29  C   UNL A   1      32.523  19.131  24.250  1.00  0.00     0.005 A 
ATOM     30  C   UNL A   1      37.025  23.014  25.452  1.00  0.00     0.000 A 
ATOM     31  C   UNL A   1      37.167  20.626  25.003  1.00  0.00     0.009 A 
ATOM     32  C   UNL A   1      35.163  18.137  24.468  1.00  0.00     0.009 A 
ATOM     33  C   UNL A   1      32.792  17.774  24.057  1.00  0.00     0.000 A 
ATOM     34  C   UNL A   1      37.788  21.856  25.236  1.00  0.00     0.001 A 
ATOM     35  C   UNL A   1      34.100  17.279  24.174  1.00  0.00     0.001 A 
ENDBRANCH  22  23
ENDBRANCH  21  22
ENDBRANCH  18  21
ENDBRANCH   5  17
ENDBRANCH   3   5
ENDBRANCH   2   3
ENDBRANCH   1   2
BRANCH   1  36
ATOM     36  C   UNL A   1      31.777  29.460  26.429  1.00  0.00     0.275 C 
BRANCH  36  37
ATOM     37  O   UNL A   1      33.105  29.965  26.207  1.00  0.00    -0.458 OA
BRANCH  37  38
ATOM     38  C   UNL A   1      33.444  31.020  26.983  1.00  0.00     0.338 C 
ATOM     39  O   UNL A   1      32.744  31.976  27.277  1.00  0.00    -0.246 OA
BRANCH  38  40
ATOM     40  C   UNL A   1      34.762  30.793  27.597  1.00  0.00     0.060 A 
ATOM     41  C   UNL A   1      35.139  29.467  27.834  1.00  0.00     0.016 A 
ATOM     42  C   UNL A   1      35.576  31.850  28.003  1.00  0.00     0.016 A 
ATOM     43  C   UNL A   1      36.329  29.187  28.494  1.00  0.00     0.010 A 
ATOM     44  C   UNL A   1      36.763  31.569  28.686  1.00  0.00     0.010 A 
ATOM     45  C   UNL A   1      37.127  30.238  28.955  1.00  0.00    -0.014 A 
BRANCH  45  46
ATOM     46  C   UNL A   1      38.266  29.930  29.845  1.00  0.00     0.031 A 
ATOM     47  C   UNL A   1      39.356  29.031  29.339  1.00  0.00     0.074 A 
ATOM     48  C   UNL A   1      38.351  30.495  31.062  1.00  0.00     0.049 A 
ATOM     49  N   UNL A   1      40.420  28.589  29.956  1.00  0.00    -0.248 NA
ATOM     50  C   UNL A   1      39.230  28.572  27.946  1.00  0.00     0.031 C 
ATOM     51  C   UNL A   1      37.383  31.434  31.627  1.00  0.00     0.029 A 
ATOM     52  N   UNL A   1      39.301  30.359  32.040  1.00  0.00    -0.354 N 
ATOM     53  C   UNL A   1      41.080  27.785  29.035  1.00  0.00     0.074 A 
ATOM     54  C   UNL A   1      40.290  27.788  27.823  1.00  0.00     0.031 C 
ATOM     55  C   UNL A   1      37.788  31.786  32.859  1.00  0.00     0.029 A 
ATOM     56  C   UNL A   1      39.020  31.070  33.180  1.00  0.00     0.049 A 
ATOM     57  H   UNL A   1      40.107  29.803  31.935  1.00  0.00     0.167 HD
ATOM     58  C   UNL A   1      42.242  27.108  29.189  1.00  0.00     0.037 A 
ATOM     59  C   UNL A   1      39.677  31.115  34.353  1.00  0.00     0.037 A 
ATOM     60  C   UNL A   1      43.024  27.116  30.397  1.00  0.00     0.049 A 
ATOM     61  C   UNL A   1      40.938  30.312  34.517  1.00  0.00     0.074 A 
ATOM     62  C   UNL A   1      44.209  26.454  30.665  1.00  0.00     0.029 A 
ATOM     63  N   UNL A   1      42.696  27.830  31.540  1.00  0.00    -0.354 N 
ATOM     64  N   UNL A   1      41.546  29.539  33.650  1.00  0.00    -0.248 NA
ATOM     65  C   UNL A   1      41.605  30.388  35.824  1.00  0.00     0.031 C 
ATOM     66  C   UNL A   1      44.580  26.741  31.983  1.00  0.00     0.029 A 
ATOM     67  C   UNL A   1      43.650  27.616  32.521  1.00  0.00     0.049 A 
ATOM     68  H   UNL A   1      41.901  28.403  31.640  1.00  0.00     0.167 HD
ATOM     69  C   UNL A   1      42.679  29.059  34.294  1.00  0.00     0.074 A 
ATOM     70  C   UNL A   1      42.679  29.638  35.622  1.00  0.00     0.031 C 
ATOM     71  C   UNL A   1      43.634  28.216  33.831  1.00  0.00     0.037 A 
BRANCH  58  72
ATOM     72  C   UNL A   1      42.710  26.274  28.034  1.00  0.00     0.057 A 
ATOM     73  C   UNL A   1      43.613  26.765  27.083  1.00  0.00     0.134 A 
ATOM     74  C   UNL A   1      42.255  24.960  27.876  1.00  0.00     0.134 A 
ATOM     75  F   UNL A   1      44.070  28.024  27.165  1.00  0.00    -0.206 F 
ATOM     76  C   UNL A   1      44.033  25.985  26.004  1.00  0.00     0.040 A 
ATOM     77  C   UNL A   1      42.686  24.161  26.815  1.00  0.00     0.040 A 
ATOM     78  F   UNL A   1      41.389  24.429  28.752  1.00  0.00    -0.206 F 
ATOM     79  C   UNL A   1      43.573  24.676  25.872  1.00  0.00     0.006 A 
ENDBRANCH  58  72
BRANCH  59  80
ATOM     80  C   UNL A   1      39.147  31.938  35.469  1.00  0.00     0.057 A 
ATOM     81  C   UNL A   1      39.513  33.281  35.618  1.00  0.00     0.134 A 
ATOM     82  C   UNL A   1      38.276  31.397  36.423  1.00  0.00     0.134 A 
ATOM     83  F   UNL A   1      40.363  33.850  34.750  1.00  0.00    -0.206 F 
ATOM     84  C   UNL A   1      39.044  34.052  36.684  1.00  0.00     0.040 A 
ATOM     85  C   UNL A   1      37.780  32.162  37.478  1.00  0.00     0.040 A 
ATOM     86  F   UNL A   1      37.889  30.116  36.335  1.00  0.00    -0.206 F 
ATOM     87  C   UNL A   1      38.171  33.493  37.615  1.00  0.00     0.006 A 
ENDBRANCH  59  80
BRANCH  71  88
ATOM     88  C   UNL A   1      44.779  27.911  34.751  1.00  0.00     0.057 A 
ATOM     89  C   UNL A   1      44.762  26.808  35.614  1.00  0.00     0.134 A 
ATOM     90  C   UNL A   1      45.923  28.719  34.753  1.00  0.00     0.134 A 
ATOM     91  F   UNL A   1      43.690  26.003  35.669  1.00  0.00    -0.206 F 
ATOM     92  C   UNL A   1      45.833  26.536  36.467  1.00  0.00     0.040 A 
ATOM     93  C   UNL A   1      47.010  28.443  35.582  1.00  0.00     0.040 A 
ATOM     94  F   UNL A   1      46.005  29.785  33.942  1.00  0.00    -0.206 F 
ATOM     95  C   UNL A   1      46.964  27.352  36.447  1.00  0.00     0.006 A 
ENDBRANCH  71  88
ENDBRANCH  45  46
ENDBRANCH  38  40
ENDBRANCH  37  38
ENDBRANCH  36  37
ENDBRANCH   1  36
TORSDOF 17
ENDMDL
MODEL 3
REMARK VINA RESULT:     -11.9      3.464      5.993
REMARK SMILES Cn1cc(C[C@@H](NC(=O)OCC2c3ccccc3-c3ccccc32)C(=O)OCCOC(=O)c2ccc(-c3c4nc(c(-c5c(F)cccc5F)c5ccc([nH]5)c(-c5c(F)cccc5F)c5nc(c(-c6c(F)cccc6F)c6ccc3[nH]6)C=C5)C=C4)cc2)c2ccccc21
REMARK SMILES IDX 28 1 27 2 25 3 26 4 6 5 5 6 4 7 1 8 2 9 3 10 92 11 87 12
REMARK SMILES IDX 91 13 88 14 90 15 89 16 7 17 8 18 9 20 10 21 11 22 12 23
REMARK SMILES IDX 13 24 24 25 14 26 18 27 19 28 23 29 15 30 17 31 20 32 22 33
REMARK SMILES IDX 16 34 21 35 29 36 30 37 31 38 32 39 33 40 34 41 86 42 35 43
REMARK SMILES IDX 85 44 36 45 37 46 38 47 79 48 39 49 84 50 78 51 80 52 40 53
REMARK SMILES IDX 83 54 77 55 76 56 41 58 67 59 50 60 66 61 51 62 54 63 65 64
REMARK SMILES IDX 81 65 52 66 53 67 64 69 82 70 55 71 42 72 43 73 48 74 44 75
REMARK SMILES IDX 45 76 47 77 49 78 46 79 68 80 69 81 74 82 70 83 71 84 73 85
REMARK SMILES IDX 75 86 72 87 56 88 57 89 62 90 58 91 59 92 61 93 63 94 60 95
REMARK H PARENT 7 19 80 57 54 68
REMARK Flexibility Score: inf
ROOT
ATOM      1  C   UNL A   1      33.425  27.996  25.783  1.00  0.00     0.274 C 
ENDROOT
BRANCH   1   2
ATOM      2  O   UNL A   1      33.798  26.626  26.023  1.00  0.00    -0.461 OA
BRANCH   2   3
ATOM      3  C   UNL A   1      33.150  25.695  25.264  1.00  0.00     0.329 C 
ATOM      4  O   UNL A   1      33.652  25.095  24.320  1.00  0.00    -0.250 OA
BRANCH   3   5
ATOM      5  C   UNL A   1      31.669  25.581  25.641  1.00  0.00     0.200 C 
BRANCH   5   6
ATOM      6  C   UNL A   1      30.713  25.308  24.459  1.00  0.00     0.075 C 
BRANCH   6   7
ATOM      7  C   UNL A   1      30.316  26.578  23.733  1.00  0.00    -0.020 A 
ATOM      8  C   UNL A   1      30.976  29.584  21.795  1.00  0.00     0.149 C 
ATOM      9  N   UNL A   1      30.449  28.506  22.603  1.00  0.00    -0.350 N 
ATOM     10  C   UNL A   1      31.176  27.448  23.083  1.00  0.00     0.090 A 
ATOM     11  C   UNL A   1      29.129  28.385  22.980  1.00  0.00     0.048 A 
ATOM     12  C   UNL A   1      29.001  27.142  23.607  1.00  0.00     0.003 A 
ATOM     13  C   UNL A   1      28.039  29.256  22.808  1.00  0.00     0.027 A 
ATOM     14  C   UNL A   1      27.711  26.728  24.001  1.00  0.00     0.010 A 
ATOM     15  C   UNL A   1      26.789  28.846  23.277  1.00  0.00     0.002 A 
ATOM     16  C   UNL A   1      26.621  27.592  23.853  1.00  0.00     0.001 A 
ENDBRANCH   6   7
ENDBRANCH   5   6
BRANCH   5  17
ATOM     17  N   UNL A   1      31.428  24.698  26.779  1.00  0.00    -0.308 N 
ATOM     18  C   UNL A   1      30.979  23.417  26.731  1.00  0.00     0.407 C 
ATOM     19  H   UNL A   1      31.610  25.069  27.672  1.00  0.00     0.168 HD
ATOM     20  O   UNL A   1      30.213  22.975  27.585  1.00  0.00    -0.225 OA
BRANCH  18  21
ATOM     21  O   UNL A   1      31.600  22.673  25.785  1.00  0.00    -0.449 OA
BRANCH  21  22
ATOM     22  C   UNL A   1      32.861  22.100  26.178  1.00  0.00     0.248 C 
BRANCH  22  23
ATOM     23  C   UNL A   1      33.722  21.627  24.980  1.00  0.00     0.088 C 
ATOM     24  C   UNL A   1      35.231  21.741  25.200  1.00  0.00    -0.029 A 
ATOM     25  C   UNL A   1      33.582  20.157  24.590  1.00  0.00    -0.029 A 
ATOM     26  C   UNL A   1      35.986  22.877  25.455  1.00  0.00     0.005 A 
ATOM     27  C   UNL A   1      35.850  20.492  24.983  1.00  0.00    -0.014 A 
ATOM     28  C   UNL A   1      34.835  19.512  24.666  1.00  0.00    -0.014 A 
ATOM     29  C   UNL A   1      32.446  19.457  24.216  1.00  0.00     0.005 A 
ATOM     30  C   UNL A   1      37.378  22.754  25.485  1.00  0.00     0.000 A 
ATOM     31  C   UNL A   1      37.231  20.369  25.016  1.00  0.00     0.009 A 
ATOM     32  C   UNL A   1      34.943  18.147  24.444  1.00  0.00     0.009 A 
ATOM     33  C   UNL A   1      32.550  18.079  24.013  1.00  0.00     0.000 A 
ATOM     34  C   UNL A   1      37.995  21.512  25.264  1.00  0.00     0.001 A 
ATOM     35  C   UNL A   1      33.786  17.428  24.135  1.00  0.00     0.001 A 
ENDBRANCH  22  23
ENDBRANCH  21  22
ENDBRANCH  18  21
ENDBRANCH   5  17
ENDBRANCH   3   5
ENDBRANCH   2   3
ENDBRANCH   1   2
BRANCH   1  36
ATOM     36  C   UNL A   1      32.988  28.713  27.063  1.00  0.00     0.275 C 
BRANCH  36  37
ATOM     37  O   UNL A   1      34.073  28.861  27.994  1.00  0.00    -0.458 OA
BRANCH  37  38
ATOM     38  C   UNL A   1      34.732  30.040  27.909  1.00  0.00     0.338 C 
ATOM     39  O   UNL A   1      34.251  31.142  27.699  1.00  0.00    -0.246 OA
BRANCH  38  40
ATOM     40  C   UNL A   1      36.144  29.857  28.282  1.00  0.00     0.060 A 
ATOM     41  C   UNL A   1      37.103  30.062  27.284  1.00  0.00     0.016 A 
ATOM     42  C   UNL A   1      36.518  29.420  29.552  1.00  0.00     0.016 A 
ATOM     43  C   UNL A   1      38.445  29.816  27.545  1.00  0.00     0.010 A 
ATOM     44  C   UNL A   1      37.866  29.152  29.809  1.00  0.00     0.010 A 
ATOM     45  C   UNL A   1      38.827  29.326  28.798  1.00  0.00    -0.014 A 
BRANCH  45  46
ATOM     46  C   UNL A   1      40.217  28.859  28.986  1.00  0.00     0.031 A 
ATOM     47  C   UNL A   1      41.203  29.776  29.650  1.00  0.00     0.074 A 
ATOM     48  C   UNL A   1      40.571  27.615  28.625  1.00  0.00     0.049 A 
ATOM     49  N   UNL A   1      42.478  29.599  29.877  1.00  0.00    -0.248 NA
ATOM     50  C   UNL A   1      40.678  31.066  30.125  1.00  0.00     0.031 C 
ATOM     51  C   UNL A   1      39.678  26.619  28.033  1.00  0.00     0.029 A 
ATOM     52  N   UNL A   1      41.782  26.977  28.706  1.00  0.00    -0.354 N 
ATOM     53  C   UNL A   1      42.912  30.760  30.503  1.00  0.00     0.074 A 
ATOM     54  C   UNL A   1      41.769  31.641  30.607  1.00  0.00     0.031 C 
ATOM     55  C   UNL A   1      40.376  25.494  27.799  1.00  0.00     0.029 A 
ATOM     56  C   UNL A   1      41.767  25.705  28.189  1.00  0.00     0.049 A 
ATOM     57  H   UNL A   1      42.585  27.392  29.096  1.00  0.00     0.167 HD
ATOM     58  C   UNL A   1      44.152  31.061  30.952  1.00  0.00     0.037 A 
ATOM     59  C   UNL A   1      42.773  24.825  28.033  1.00  0.00     0.037 A 
ATOM     60  C   UNL A   1      45.282  30.175  30.849  1.00  0.00     0.049 A 
ATOM     61  C   UNL A   1      44.155  25.204  28.492  1.00  0.00     0.074 A 
ATOM     62  C   UNL A   1      46.586  30.386  31.258  1.00  0.00     0.029 A 
ATOM     63  N   UNL A   1      45.235  28.903  30.298  1.00  0.00    -0.354 N 
ATOM     64  N   UNL A   1      44.563  26.311  29.065  1.00  0.00    -0.248 NA
ATOM     65  C   UNL A   1      45.216  24.210  28.283  1.00  0.00     0.031 C 
ATOM     66  C   UNL A   1      47.337  29.253  30.925  1.00  0.00     0.029 A 
ATOM     67  C   UNL A   1      46.490  28.320  30.347  1.00  0.00     0.049 A 
ATOM     68  H   UNL A   1      44.429  28.477  29.927  1.00  0.00     0.167 HD
ATOM     69  C   UNL A   1      45.919  26.137  29.309  1.00  0.00     0.074 A 
ATOM     70  C   UNL A   1      46.261  24.813  28.833  1.00  0.00     0.031 C 
ATOM     71  C   UNL A   1      46.802  26.994  29.878  1.00  0.00     0.037 A 
BRANCH  58  72
ATOM     72  C   UNL A   1      44.354  32.418  31.556  1.00  0.00     0.057 A 
ATOM     73  C   UNL A   1      44.670  33.538  30.776  1.00  0.00     0.134 A 
ATOM     74  C   UNL A   1      44.223  32.608  32.937  1.00  0.00     0.134 A 
ATOM     75  F   UNL A   1      44.830  33.419  29.449  1.00  0.00    -0.206 F 
ATOM     76  C   UNL A   1      44.868  34.795  31.351  1.00  0.00     0.040 A 
ATOM     77  C   UNL A   1      44.396  33.864  33.521  1.00  0.00     0.040 A 
ATOM     78  F   UNL A   1      43.923  31.576  33.741  1.00  0.00    -0.206 F 
ATOM     79  C   UNL A   1      44.725  34.961  32.728  1.00  0.00     0.006 A 
ENDBRANCH  58  72
BRANCH  59  80
ATOM     80  C   UNL A   1      42.515  23.507  27.401  1.00  0.00     0.057 A 
ATOM     81  C   UNL A   1      42.138  22.397  28.165  1.00  0.00     0.134 A 
ATOM     82  C   UNL A   1      42.657  23.322  26.020  1.00  0.00     0.134 A 
ATOM     83  F   UNL A   1      42.008  22.506  29.496  1.00  0.00    -0.206 F 
ATOM     84  C   UNL A   1      41.924  21.147  27.581  1.00  0.00     0.040 A 
ATOM     85  C   UNL A   1      42.422  22.085  25.421  1.00  0.00     0.040 A 
ATOM     86  F   UNL A   1      43.016  24.348  25.234  1.00  0.00    -0.206 F 
ATOM     87  C   UNL A   1      42.062  20.990  26.204  1.00  0.00     0.006 A 
ENDBRANCH  59  80
BRANCH  71  88
ATOM     88  C   UNL A   1      48.209  26.504  30.056  1.00  0.00     0.057 A 
ATOM     89  C   UNL A   1      49.193  26.709  29.081  1.00  0.00     0.134 A 
ATOM     90  C   UNL A   1      48.586  25.842  31.231  1.00  0.00     0.134 A 
ATOM     91  F   UNL A   1      48.891  27.325  27.928  1.00  0.00    -0.206 F 
ATOM     92  C   UNL A   1      50.498  26.247  29.257  1.00  0.00     0.040 A 
ATOM     93  C   UNL A   1      49.893  25.399  31.430  1.00  0.00     0.040 A 
ATOM     94  F   UNL A   1      47.693  25.624  32.207  1.00  0.00    -0.206 F 
ATOM     95  C   UNL A   1      50.853  25.594  30.438  1.00  0.00     0.006 A 
ENDBRANCH  71  88
ENDBRANCH  45  46
ENDBRANCH  38  40
ENDBRANCH  37  38
ENDBRANCH  36  37
ENDBRANCH   1  36
TORSDOF 17
ENDMDL
