MODEL 1
REMARK VINA RESULT:     -10.7      0.000      0.000
REMARK SMILES CC(C)OCCS(=O)(=O)Nc1ccc(O)c(C(=O)OCCOC(=O)c2ccc(-c3c4nc(c(-c5c(F)cccc5F)c5ccc([nH]5)c(-c5c(F)cccc5F)c5nc(c(-c6c(F)cccc6F)c6ccc3[nH]6)C=C5)C=C4)cc2)c1
REMARK SMILES IDX 17 1 18 2 16 3 11 4 12 5 79 6 13 7 14 8 10 9 7 11 8 12 9 13
REMARK SMILES IDX 6 14 5 15 4 16 2 17 1 18 3 19 15 20 19 22 20 23 21 24 22 25
REMARK SMILES IDX 23 26 24 27 25 28 26 29 78 30 27 31 77 32 28 33 29 34 30 35
REMARK SMILES IDX 71 36 31 37 76 38 70 39 72 40 32 41 75 42 69 43 68 44 33 46
REMARK SMILES IDX 59 47 42 48 58 49 43 50 46 51 57 52 73 53 44 54 45 55 56 57
REMARK SMILES IDX 74 58 47 59 34 60 35 61 40 62 36 63 37 64 39 65 41 66 38 67
REMARK SMILES IDX 60 68 61 69 66 70 62 71 63 72 65 73 67 74 64 75 48 76 49 77
REMARK SMILES IDX 54 78 50 79 51 80 53 81 55 82 52 83
REMARK H PARENT 10 10 15 21 72 45 46 56
REMARK Flexibility Score: inf
ROOT
ATOM      1  C   UNL A   1      32.963  27.168  22.255  1.00  0.00     0.342 C 
ATOM      2  O   UNL A   1      33.790  26.529  21.626  1.00  0.00    -0.246 OA
ENDROOT
BRANCH   1   3
ATOM      3  C   UNL A   1      31.590  26.699  22.577  1.00  0.00     0.103 A 
ATOM      4  C   UNL A   1      30.398  25.327  24.146  1.00  0.00     0.050 A 
ATOM      5  C   UNL A   1      29.477  26.370  24.292  1.00  0.00     0.030 A 
ATOM      6  C   UNL A   1      31.467  25.485  23.272  1.00  0.00     0.046 A 
ATOM      7  C   UNL A   1      29.466  27.449  23.416  1.00  0.00     0.049 A 
ATOM      8  C   UNL A   1      30.510  27.589  22.522  1.00  0.00     0.130 A 
BRANCH   4   9
ATOM      9  N   UNL A   1      30.278  24.183  24.985  1.00  0.00    -0.283 N 
ATOM     10  H   UNL A   1      29.685  23.448  24.706  1.00  0.00     0.180 HD
BRANCH   9  11
ATOM     11  S   UNL A   1      31.115  24.042  26.434  1.00  0.00     0.235 S 
ATOM     12  O   UNL A   1      30.310  23.156  27.250  1.00  0.00    -0.207 OA
ATOM     13  O   UNL A   1      31.404  25.385  26.890  1.00  0.00    -0.207 OA
BRANCH  11  14
ATOM     14  C   UNL A   1      32.682  23.229  26.070  1.00  0.00     0.188 C 
BRANCH  14  15
ATOM     15  C   UNL A   1      32.718  21.711  26.255  1.00  0.00     0.178 C 
BRANCH  15  16
ATOM     16  O   UNL A   1      31.962  21.039  25.235  1.00  0.00    -0.378 OA
BRANCH  16  17
ATOM     17  C   UNL A   1      32.623  20.730  24.001  1.00  0.00     0.112 C 
ATOM     18  C   UNL A   1      32.528  19.266  23.609  1.00  0.00     0.038 C 
ATOM     19  C   UNL A   1      32.155  21.605  22.864  1.00  0.00     0.038 C 
ENDBRANCH  16  17
ENDBRANCH  15  16
ENDBRANCH  14  15
ENDBRANCH  11  14
ENDBRANCH   9  11
ENDBRANCH   4   9
BRANCH   8  20
ATOM     20  O   UNL A   1      30.496  28.618  21.626  1.00  0.00    -0.507 OA
ATOM     21  H   UNL A   1      30.001  28.543  20.834  1.00  0.00     0.293 HD
ENDBRANCH   8  20
ENDBRANCH   1   3
BRANCH   1  22
ATOM     22  O   UNL A   1      33.190  28.268  23.013  1.00  0.00    -0.458 OA
BRANCH  22  23
ATOM     23  C   UNL A   1      33.573  28.129  24.387  1.00  0.00     0.275 C 
BRANCH  23  24
ATOM     24  C   UNL A   1      32.607  28.945  25.250  1.00  0.00     0.275 C 
BRANCH  24  25
ATOM     25  O   UNL A   1      33.090  30.295  25.412  1.00  0.00    -0.458 OA
BRANCH  25  26
ATOM     26  C   UNL A   1      33.076  30.778  26.675  1.00  0.00     0.338 C 
ATOM     27  O   UNL A   1      32.130  31.227  27.300  1.00  0.00    -0.246 OA
BRANCH  26  28
ATOM     28  C   UNL A   1      34.407  30.615  27.277  1.00  0.00     0.060 A 
ATOM     29  C   UNL A   1      34.807  29.330  27.625  1.00  0.00     0.016 A 
ATOM     30  C   UNL A   1      35.195  31.709  27.628  1.00  0.00     0.016 A 
ATOM     31  C   UNL A   1      35.950  29.123  28.392  1.00  0.00     0.010 A 
ATOM     32  C   UNL A   1      36.391  31.494  28.329  1.00  0.00     0.010 A 
ATOM     33  C   UNL A   1      36.770  30.202  28.747  1.00  0.00    -0.014 A 
BRANCH  33  34
ATOM     34  C   UNL A   1      37.994  29.986  29.575  1.00  0.00     0.031 A 
ATOM     35  C   UNL A   1      39.136  29.159  29.042  1.00  0.00     0.074 A 
ATOM     36  C   UNL A   1      38.104  30.540  30.802  1.00  0.00     0.049 A 
ATOM     37  N   UNL A   1      40.192  28.697  29.665  1.00  0.00    -0.248 NA
ATOM     38  C   UNL A   1      39.078  28.795  27.617  1.00  0.00     0.031 C 
ATOM     39  C   UNL A   1      37.116  31.419  31.431  1.00  0.00     0.029 A 
ATOM     40  N   UNL A   1      39.104  30.447  31.741  1.00  0.00    -0.354 N 
ATOM     41  C   UNL A   1      40.894  27.951  28.725  1.00  0.00     0.074 A 
ATOM     42  C   UNL A   1      40.138  28.010  27.492  1.00  0.00     0.031 C 
ATOM     43  C   UNL A   1      37.572  31.810  32.630  1.00  0.00     0.029 A 
ATOM     44  C   UNL A   1      38.837  31.136  32.900  1.00  0.00     0.049 A 
ATOM     45  H   UNL A   1      39.933  29.934  31.597  1.00  0.00     0.167 HD
ATOM     46  C   UNL A   1      42.064  27.280  28.876  1.00  0.00     0.037 A 
ATOM     47  C   UNL A   1      39.504  31.186  34.069  1.00  0.00     0.037 A 
ATOM     48  C   UNL A   1      42.838  27.258  30.090  1.00  0.00     0.049 A 
ATOM     49  C   UNL A   1      40.760  30.376  34.235  1.00  0.00     0.074 A 
ATOM     50  C   UNL A   1      44.029  26.599  30.343  1.00  0.00     0.029 A 
ATOM     51  N   UNL A   1      42.506  27.939  31.252  1.00  0.00    -0.354 N 
ATOM     52  N   UNL A   1      41.379  29.620  33.361  1.00  0.00    -0.248 NA
ATOM     53  C   UNL A   1      41.399  30.410  35.558  1.00  0.00     0.031 C 
ATOM     54  C   UNL A   1      44.398  26.850  31.668  1.00  0.00     0.029 A 
ATOM     55  C   UNL A   1      43.464  27.707  32.226  1.00  0.00     0.049 A 
ATOM     56  H   UNL A   1      41.708  28.504  31.368  1.00  0.00     0.167 HD
ATOM     57  C   UNL A   1      42.492  29.114  34.018  1.00  0.00     0.074 A 
ATOM     58  C   UNL A   1      42.472  29.657  35.360  1.00  0.00     0.031 C 
ATOM     59  C   UNL A   1      43.444  28.270  33.551  1.00  0.00     0.037 A 
BRANCH  46  60
ATOM     60  C   UNL A   1      42.567  26.486  27.703  1.00  0.00     0.057 A 
ATOM     61  C   UNL A   1      42.206  25.149  27.497  1.00  0.00     0.134 A 
ATOM     62  C   UNL A   1      43.393  27.085  26.742  1.00  0.00     0.134 A 
ATOM     63  F   UNL A   1      41.428  24.509  28.383  1.00  0.00    -0.206 F 
ATOM     64  C   UNL A   1      42.667  24.429  26.391  1.00  0.00     0.040 A 
ATOM     65  C   UNL A   1      43.837  26.385  25.619  1.00  0.00     0.040 A 
ATOM     66  F   UNL A   1      43.770  28.366  26.871  1.00  0.00    -0.206 F 
ATOM     67  C   UNL A   1      43.479  25.050  25.445  1.00  0.00     0.006 A 
ENDBRANCH  46  60
BRANCH  47  68
ATOM     68  C   UNL A   1      38.973  31.994  35.199  1.00  0.00     0.057 A 
ATOM     69  C   UNL A   1      39.182  33.376  35.262  1.00  0.00     0.134 A 
ATOM     70  C   UNL A   1      38.268  31.401  36.254  1.00  0.00     0.134 A 
ATOM     71  F   UNL A   1      39.876  34.000  34.299  1.00  0.00    -0.206 F 
ATOM     72  C   UNL A   1      38.721  34.138  36.338  1.00  0.00     0.040 A 
ATOM     73  C   UNL A   1      37.774  32.154  37.320  1.00  0.00     0.040 A 
ATOM     74  F   UNL A   1      38.038  30.080  36.259  1.00  0.00    -0.206 F 
ATOM     75  C   UNL A   1      38.008  33.526  37.368  1.00  0.00     0.006 A 
ENDBRANCH  47  68
BRANCH  59  76
ATOM     76  C   UNL A   1      44.575  27.931  34.477  1.00  0.00     0.057 A 
ATOM     77  C   UNL A   1      44.542  26.805  35.310  1.00  0.00     0.134 A 
ATOM     78  C   UNL A   1      45.728  28.726  34.509  1.00  0.00     0.134 A 
ATOM     79  F   UNL A   1      43.461  26.012  35.337  1.00  0.00    -0.206 F 
ATOM     80  C   UNL A   1      45.607  26.495  36.157  1.00  0.00     0.040 A 
ATOM     81  C   UNL A   1      46.810  28.412  35.333  1.00  0.00     0.040 A 
ATOM     82  F   UNL A   1      45.828  29.815  33.731  1.00  0.00    -0.206 F 
ATOM     83  C   UNL A   1      46.748  27.296  36.165  1.00  0.00     0.006 A 
ENDBRANCH  59  76
ENDBRANCH  33  34
ENDBRANCH  26  28
ENDBRANCH  25  26
ENDBRANCH  24  25
ENDBRANCH  23  24
ENDBRANCH  22  23
ENDBRANCH   1  22
TORSDOF 18
ENDMDL
MODEL 2
REMARK VINA RESULT:     -10.6      3.686      8.670
REMARK SMILES CC(C)OCCS(=O)(=O)Nc1ccc(O)c(C(=O)OCCOC(=O)c2ccc(-c3c4nc(c(-c5c(F)cccc5F)c5ccc([nH]5)c(-c5c(F)cccc5F)c5nc(c(-c6c(F)cccc6F)c6ccc3[nH]6)C=C5)C=C4)cc2)c1
REMARK SMILES IDX 17 1 18 2 16 3 11 4 12 5 79 6 13 7 14 8 10 9 7 11 8 12 9 13
REMARK SMILES IDX 6 14 5 15 4 16 2 17 1 18 3 19 15 20 19 22 20 23 21 24 22 25
REMARK SMILES IDX 23 26 24 27 25 28 26 29 78 30 27 31 77 32 28 33 29 34 30 35
REMARK SMILES IDX 71 36 31 37 76 38 70 39 72 40 32 41 75 42 69 43 68 44 33 46
REMARK SMILES IDX 59 47 42 48 58 49 43 50 46 51 57 52 73 53 44 54 45 55 56 57
REMARK SMILES IDX 74 58 47 59 34 60 35 61 40 62 36 63 37 64 39 65 41 66 38 67
REMARK SMILES IDX 60 68 61 69 66 70 62 71 63 72 65 73 67 74 64 75 48 76 49 77
REMARK SMILES IDX 54 78 50 79 51 80 53 81 55 82 52 83
REMARK H PARENT 10 10 15 21 72 45 46 56
REMARK Flexibility Score: inf
ROOT
ATOM      1  C   UNL A   1      33.025  22.420  26.607  1.00  0.00     0.342 C 
ATOM      2  O   UNL A   1      32.513  22.581  27.703  1.00  0.00    -0.246 OA
ENDROOT
BRANCH   1   3
ATOM      3  C   UNL A   1      32.277  22.262  25.333  1.00  0.00     0.103 A 
ATOM      4  C   UNL A   1      31.945  23.333  23.209  1.00  0.00     0.050 A 
ATOM      5  C   UNL A   1      32.145  22.089  22.600  1.00  0.00     0.030 A 
ATOM      6  C   UNL A   1      32.002  23.424  24.595  1.00  0.00     0.046 A 
ATOM      7  C   UNL A   1      32.158  20.916  23.345  1.00  0.00     0.049 A 
ATOM      8  C   UNL A   1      32.180  21.005  24.724  1.00  0.00     0.130 A 
BRANCH   4   9
ATOM      9  N   UNL A   1      31.805  24.486  22.386  1.00  0.00    -0.283 N 
ATOM     10  H   UNL A   1      30.904  24.754  22.092  1.00  0.00     0.180 HD
BRANCH   9  11
ATOM     11  S   UNL A   1      33.122  25.406  21.900  1.00  0.00     0.235 S 
ATOM     12  O   UNL A   1      32.957  25.577  20.471  1.00  0.00    -0.207 OA
ATOM     13  O   UNL A   1      34.308  24.758  22.420  1.00  0.00    -0.207 OA
BRANCH  11  14
ATOM     14  C   UNL A   1      32.974  27.016  22.697  1.00  0.00     0.188 C 
BRANCH  14  15
ATOM     15  C   UNL A   1      31.926  27.130  23.806  1.00  0.00     0.178 C 
BRANCH  15  16
ATOM     16  O   UNL A   1      30.878  28.044  23.445  1.00  0.00    -0.378 OA
BRANCH  16  17
ATOM     17  C   UNL A   1      29.592  27.498  23.125  1.00  0.00     0.112 C 
ATOM     18  C   UNL A   1      29.187  26.331  24.008  1.00  0.00     0.038 C 
ATOM     19  C   UNL A   1      28.507  28.548  23.123  1.00  0.00     0.038 C 
ENDBRANCH  16  17
ENDBRANCH  15  16
ENDBRANCH  14  15
ENDBRANCH  11  14
ENDBRANCH   9  11
ENDBRANCH   4   9
BRANCH   8  20
ATOM     20  O   UNL A   1      32.151  19.864  25.472  1.00  0.00    -0.507 OA
ATOM     21  H   UNL A   1      32.886  19.635  26.006  1.00  0.00     0.293 HD
ENDBRANCH   8  20
ENDBRANCH   1   3
BRANCH   1  22
ATOM     22  O   UNL A   1      34.323  22.630  26.277  1.00  0.00    -0.458 OA
BRANCH  22  23
ATOM     23  C   UNL A   1      35.293  21.594  26.475  1.00  0.00     0.275 C 
BRANCH  23  24
ATOM     24  C   UNL A   1      35.830  21.158  25.109  1.00  0.00     0.275 C 
BRANCH  24  25
ATOM     25  O   UNL A   1      37.091  21.803  24.832  1.00  0.00    -0.458 OA
BRANCH  25  26
ATOM     26  C   UNL A   1      38.162  21.314  25.497  1.00  0.00     0.338 C 
ATOM     27  O   UNL A   1      38.567  20.164  25.531  1.00  0.00    -0.246 OA
BRANCH  26  28
ATOM     28  C   UNL A   1      38.879  22.417  26.153  1.00  0.00     0.060 A 
ATOM     29  C   UNL A   1      38.375  23.702  25.991  1.00  0.00     0.016 A 
ATOM     30  C   UNL A   1      40.098  22.222  26.796  1.00  0.00     0.016 A 
ATOM     31  C   UNL A   1      39.113  24.812  26.396  1.00  0.00     0.010 A 
ATOM     32  C   UNL A   1      40.804  23.335  27.278  1.00  0.00     0.010 A 
ATOM     33  C   UNL A   1      40.336  24.646  27.058  1.00  0.00    -0.014 A 
BRANCH  33  34
ATOM     34  C   UNL A   1      41.134  25.834  27.488  1.00  0.00     0.031 A 
ATOM     35  C   UNL A   1      40.513  26.889  28.368  1.00  0.00     0.074 A 
ATOM     36  C   UNL A   1      42.423  25.972  27.111  1.00  0.00     0.049 A 
ATOM     37  N   UNL A   1      40.965  28.075  28.692  1.00  0.00    -0.248 NA
ATOM     38  C   UNL A   1      39.202  26.569  28.955  1.00  0.00     0.031 C 
ATOM     39  C   UNL A   1      43.186  25.007  26.317  1.00  0.00     0.029 A 
ATOM     40  N   UNL A   1      43.323  26.983  27.351  1.00  0.00    -0.354 N 
ATOM     41  C   UNL A   1      39.977  28.659  29.476  1.00  0.00     0.074 A 
ATOM     42  C   UNL A   1      38.894  27.702  29.570  1.00  0.00     0.031 C 
ATOM     43  C   UNL A   1      44.442  25.453  26.166  1.00  0.00     0.029 A 
ATOM     44  C   UNL A   1      44.550  26.777  26.766  1.00  0.00     0.049 A 
ATOM     45  H   UNL A   1      43.109  27.779  27.890  1.00  0.00     0.167 HD
ATOM     46  C   UNL A   1      39.974  29.880  30.067  1.00  0.00     0.037 A 
ATOM     47  C   UNL A   1      45.629  27.580  26.675  1.00  0.00     0.037 A 
ATOM     48  C   UNL A   1      41.069  30.814  30.010  1.00  0.00     0.049 A 
ATOM     49  C   UNL A   1      45.574  28.956  27.277  1.00  0.00     0.074 A 
ATOM     50  C   UNL A   1      41.156  32.079  30.568  1.00  0.00     0.029 A 
ATOM     51  N   UNL A   1      42.277  30.578  29.371  1.00  0.00    -0.354 N 
ATOM     52  N   UNL A   1      44.609  29.524  27.958  1.00  0.00    -0.248 NA
ATOM     53  C   UNL A   1      46.752  29.812  27.077  1.00  0.00     0.031 C 
ATOM     54  C   UNL A   1      42.400  32.622  30.234  1.00  0.00     0.029 A 
ATOM     55  C   UNL A   1      43.110  31.677  29.512  1.00  0.00     0.049 A 
ATOM     56  H   UNL A   1      42.509  29.751  28.888  1.00  0.00     0.167 HD
ATOM     57  C   UNL A   1      45.075  30.789  28.293  1.00  0.00     0.074 A 
ATOM     58  C   UNL A   1      46.412  30.902  27.751  1.00  0.00     0.031 C 
ATOM     59  C   UNL A   1      44.447  31.770  28.986  1.00  0.00     0.037 A 
BRANCH  46  60
ATOM     60  C   UNL A   1      38.732  30.293  30.806  1.00  0.00     0.057 A 
ATOM     61  C   UNL A   1      37.683  30.978  30.179  1.00  0.00     0.134 A 
ATOM     62  C   UNL A   1      38.566  29.961  32.158  1.00  0.00     0.134 A 
ATOM     63  F   UNL A   1      37.780  31.339  28.890  1.00  0.00    -0.206 F 
ATOM     64  C   UNL A   1      36.526  31.339  30.875  1.00  0.00     0.040 A 
ATOM     65  C   UNL A   1      37.403  30.291  32.856  1.00  0.00     0.040 A 
ATOM     66  F   UNL A   1      39.526  29.297  32.819  1.00  0.00    -0.206 F 
ATOM     67  C   UNL A   1      36.381  30.988  32.216  1.00  0.00     0.006 A 
ENDBRANCH  46  60
BRANCH  47  68
ATOM     68  C   UNL A   1      46.840  27.124  25.943  1.00  0.00     0.057 A 
ATOM     69  C   UNL A   1      46.990  27.362  24.572  1.00  0.00     0.134 A 
ATOM     70  C   UNL A   1      47.863  26.419  26.590  1.00  0.00     0.134 A 
ATOM     71  F   UNL A   1      46.032  28.004  23.888  1.00  0.00    -0.206 F 
ATOM     72  C   UNL A   1      48.106  26.904  23.868  1.00  0.00     0.040 A 
ATOM     73  C   UNL A   1      48.999  25.983  25.905  1.00  0.00     0.040 A 
ATOM     74  F   UNL A   1      47.780  26.153  27.901  1.00  0.00    -0.206 F 
ATOM     75  C   UNL A   1      49.118  26.218  24.538  1.00  0.00     0.006 A 
ENDBRANCH  47  68
BRANCH  59  76
ATOM     76  C   UNL A   1      45.220  33.028  29.249  1.00  0.00     0.057 A 
ATOM     77  C   UNL A   1      46.048  33.171  30.371  1.00  0.00     0.134 A 
ATOM     78  C   UNL A   1      45.162  34.098  28.347  1.00  0.00     0.134 A 
ATOM     79  F   UNL A   1      46.137  32.189  31.279  1.00  0.00    -0.206 F 
ATOM     80  C   UNL A   1      46.772  34.343  30.596  1.00  0.00     0.040 A 
ATOM     81  C   UNL A   1      45.901  35.265  28.549  1.00  0.00     0.040 A 
ATOM     82  F   UNL A   1      44.395  34.024  27.250  1.00  0.00    -0.206 F 
ATOM     83  C   UNL A   1      46.704  35.391  29.680  1.00  0.00     0.006 A 
ENDBRANCH  59  76
ENDBRANCH  33  34
ENDBRANCH  26  28
ENDBRANCH  25  26
ENDBRANCH  24  25
ENDBRANCH  23  24
ENDBRANCH  22  23
ENDBRANCH   1  22
TORSDOF 18
ENDMDL
MODEL 3
REMARK VINA RESULT:     -10.5      1.310      2.016
REMARK SMILES CC(C)OCCS(=O)(=O)Nc1ccc(O)c(C(=O)OCCOC(=O)c2ccc(-c3c4nc(c(-c5c(F)cccc5F)c5ccc([nH]5)c(-c5c(F)cccc5F)c5nc(c(-c6c(F)cccc6F)c6ccc3[nH]6)C=C5)C=C4)cc2)c1
REMARK SMILES IDX 17 1 18 2 16 3 11 4 12 5 79 6 13 7 14 8 10 9 7 11 8 12 9 13
REMARK SMILES IDX 6 14 5 15 4 16 2 17 1 18 3 19 15 20 19 22 20 23 21 24 22 25
REMARK SMILES IDX 23 26 24 27 25 28 26 29 78 30 27 31 77 32 28 33 29 34 30 35
REMARK SMILES IDX 71 36 31 37 76 38 70 39 72 40 32 41 75 42 69 43 68 44 33 46
REMARK SMILES IDX 59 47 42 48 58 49 43 50 46 51 57 52 73 53 44 54 45 55 56 57
REMARK SMILES IDX 74 58 47 59 34 60 35 61 40 62 36 63 37 64 39 65 41 66 38 67
REMARK SMILES IDX 60 68 61 69 66 70 62 71 63 72 65 73 67 74 64 75 48 76 49 77
REMARK SMILES IDX 54 78 50 79 51 80 53 81 55 82 52 83
REMARK H PARENT 10 10 15 21 72 45 46 56
REMARK Flexibility Score: inf
ROOT
ATOM      1  C   UNL A   1      32.528  28.941  23.818  1.00  0.00     0.342 C 
ATOM      2  O   UNL A   1      33.451  29.138  23.043  1.00  0.00    -0.246 OA
ENDROOT
BRANCH   1   3
ATOM      3  C   UNL A   1      31.688  27.716  23.847  1.00  0.00     0.103 A 
ATOM      4  C   UNL A   1      30.777  26.105  25.378  1.00  0.00     0.050 A 
ATOM      5  C   UNL A   1      29.541  26.266  24.742  1.00  0.00     0.030 A 
ATOM      6  C   UNL A   1      31.871  26.831  24.923  1.00  0.00     0.046 A 
ATOM      7  C   UNL A   1      29.435  26.940  23.531  1.00  0.00     0.049 A 
ATOM      8  C   UNL A   1      30.534  27.633  23.060  1.00  0.00     0.130 A 
BRANCH   4   9
ATOM      9  N   UNL A   1      30.849  25.291  26.544  1.00  0.00    -0.283 N 
ATOM     10  H   UNL A   1      30.789  25.720  27.428  1.00  0.00     0.180 HD
BRANCH   9  11
ATOM     11  S   UNL A   1      31.031  23.624  26.463  1.00  0.00     0.235 S 
ATOM     12  O   UNL A   1      30.847  23.291  25.065  1.00  0.00    -0.207 OA
ATOM     13  O   UNL A   1      30.157  23.053  27.466  1.00  0.00    -0.207 OA
BRANCH  11  14
ATOM     14  C   UNL A   1      32.732  23.249  26.929  1.00  0.00     0.188 C 
BRANCH  14  15
ATOM     15  C   UNL A   1      33.822  24.061  26.227  1.00  0.00     0.178 C 
BRANCH  15  16
ATOM     16  O   UNL A   1      34.664  23.222  25.420  1.00  0.00    -0.378 OA
BRANCH  16  17
ATOM     17  C   UNL A   1      35.279  23.802  24.263  1.00  0.00     0.112 C 
ATOM     18  C   UNL A   1      36.159  22.834  23.491  1.00  0.00     0.038 C 
ATOM     19  C   UNL A   1      34.272  24.440  23.337  1.00  0.00     0.038 C 
ENDBRANCH  16  17
ENDBRANCH  15  16
ENDBRANCH  14  15
ENDBRANCH  11  14
ENDBRANCH   9  11
ENDBRANCH   4   9
BRANCH   8  20
ATOM     20  O   UNL A   1      30.462  28.266  21.853  1.00  0.00    -0.507 OA
ATOM     21  H   UNL A   1      30.835  27.866  21.091  1.00  0.00     0.293 HD
ENDBRANCH   8  20
ENDBRANCH   1   3
BRANCH   1  22
ATOM     22  O   UNL A   1      32.261  29.628  24.955  1.00  0.00    -0.458 OA
BRANCH  22  23
ATOM     23  C   UNL A   1      31.086  30.444  25.043  1.00  0.00     0.275 C 
BRANCH  23  24
ATOM     24  C   UNL A   1      31.254  31.419  26.212  1.00  0.00     0.275 C 
BRANCH  24  25
ATOM     25  O   UNL A   1      32.495  31.167  26.906  1.00  0.00    -0.458 OA
BRANCH  25  26
ATOM     26  C   UNL A   1      33.152  32.261  27.353  1.00  0.00     0.338 C 
ATOM     27  O   UNL A   1      32.747  33.409  27.420  1.00  0.00    -0.246 OA
BRANCH  26  28
ATOM     28  C   UNL A   1      34.475  31.866  27.858  1.00  0.00     0.060 A 
ATOM     29  C   UNL A   1      34.660  30.535  28.214  1.00  0.00     0.016 A 
ATOM     30  C   UNL A   1      35.474  32.802  28.116  1.00  0.00     0.016 A 
ATOM     31  C   UNL A   1      35.805  30.134  28.900  1.00  0.00     0.010 A 
ATOM     32  C   UNL A   1      36.662  32.382  28.732  1.00  0.00     0.010 A 
ATOM     33  C   UNL A   1      36.832  31.050  29.159  1.00  0.00    -0.014 A 
BRANCH  33  34
ATOM     34  C   UNL A   1      38.058  30.626  29.899  1.00  0.00     0.031 A 
ATOM     35  C   UNL A   1      39.064  29.714  29.243  1.00  0.00     0.074 A 
ATOM     36  C   UNL A   1      38.294  31.065  31.154  1.00  0.00     0.049 A 
ATOM     37  N   UNL A   1      40.084  29.083  29.771  1.00  0.00    -0.248 NA
ATOM     38  C   UNL A   1      38.894  29.473  27.802  1.00  0.00     0.031 C 
ATOM     39  C   UNL A   1      37.451  32.002  31.899  1.00  0.00     0.029 A 
ATOM     40  N   UNL A   1      39.318  30.780  32.026  1.00  0.00    -0.354 N 
ATOM     41  C   UNL A   1      40.644  28.335  28.742  1.00  0.00     0.074 A 
ATOM     42  C   UNL A   1      39.844  28.580  27.560  1.00  0.00     0.031 C 
ATOM     43  C   UNL A   1      38.008  32.241  33.096  1.00  0.00     0.029 A 
ATOM     44  C   UNL A   1      39.192  31.404  33.245  1.00  0.00     0.049 A 
ATOM     45  H   UNL A   1      40.070  30.186  31.799  1.00  0.00     0.167 HD
ATOM     46  C   UNL A   1      41.729  27.520  28.777  1.00  0.00     0.037 A 
ATOM     47  C   UNL A   1      39.914  31.282  34.375  1.00  0.00     0.037 A 
ATOM     48  C   UNL A   1      42.551  27.312  29.941  1.00  0.00     0.049 A 
ATOM     49  C   UNL A   1      41.068  30.319  34.411  1.00  0.00     0.074 A 
ATOM     50  C   UNL A   1      43.663  26.498  30.078  1.00  0.00     0.029 A 
ATOM     51  N   UNL A   1      42.360  27.934  31.166  1.00  0.00    -0.354 N 
ATOM     52  N   UNL A   1      41.548  29.566  33.451  1.00  0.00    -0.248 NA
ATOM     53  C   UNL A   1      41.768  30.173  35.695  1.00  0.00     0.031 C 
ATOM     54  C   UNL A   1      44.123  26.599  31.395  1.00  0.00     0.029 A 
ATOM     55  C   UNL A   1      43.328  27.514  32.065  1.00  0.00     0.049 A 
ATOM     56  H   UNL A   1      41.644  28.578  31.367  1.00  0.00     0.167 HD
ATOM     57  C   UNL A   1      42.621  28.881  34.006  1.00  0.00     0.074 A 
ATOM     58  C   UNL A   1      42.730  29.316  35.383  1.00  0.00     0.031 C 
ATOM     59  C   UNL A   1      43.440  27.970  33.427  1.00  0.00     0.037 A 
BRANCH  46  60
ATOM     60  C   UNL A   1      42.075  26.767  27.524  1.00  0.00     0.057 A 
ATOM     61  C   UNL A   1      42.893  27.312  26.527  1.00  0.00     0.134 A 
ATOM     62  C   UNL A   1      41.615  25.456  27.333  1.00  0.00     0.134 A 
ATOM     63  F   UNL A   1      43.359  28.566  26.638  1.00  0.00    -0.206 F 
ATOM     64  C   UNL A   1      43.222  26.591  25.375  1.00  0.00     0.040 A 
ATOM     65  C   UNL A   1      41.959  24.716  26.201  1.00  0.00     0.040 A 
ATOM     66  F   UNL A   1      40.834  24.868  28.252  1.00  0.00    -0.206 F 
ATOM     67  C   UNL A   1      42.760  25.287  25.214  1.00  0.00     0.006 A 
ENDBRANCH  46  60
BRANCH  47  68
ATOM     68  C   UNL A   1      39.540  32.056  35.588  1.00  0.00     0.057 A 
ATOM     69  C   UNL A   1      40.136  33.290  35.873  1.00  0.00     0.134 A 
ATOM     70  C   UNL A   1      38.599  31.569  36.505  1.00  0.00     0.134 A 
ATOM     71  F   UNL A   1      41.068  33.796  35.052  1.00  0.00    -0.206 F 
ATOM     72  C   UNL A   1      39.820  34.006  37.030  1.00  0.00     0.040 A 
ATOM     73  C   UNL A   1      38.250  32.289  37.649  1.00  0.00     0.040 A 
ATOM     74  F   UNL A   1      37.995  30.390  36.296  1.00  0.00    -0.206 F 
ATOM     75  C   UNL A   1      38.868  33.507  37.918  1.00  0.00     0.006 A 
ENDBRANCH  47  68
BRANCH  59  76
ATOM     76  C   UNL A   1      44.563  27.428  34.260  1.00  0.00     0.057 A 
ATOM     77  C   UNL A   1      45.804  28.073  34.344  1.00  0.00     0.134 A 
ATOM     78  C   UNL A   1      44.387  26.262  35.015  1.00  0.00     0.134 A 
ATOM     79  F   UNL A   1      46.042  29.186  33.635  1.00  0.00    -0.206 F 
ATOM     80  C   UNL A   1      46.837  27.564  35.134  1.00  0.00     0.040 A 
ATOM     81  C   UNL A   1      45.403  25.757  35.828  1.00  0.00     0.040 A 
ATOM     82  F   UNL A   1      43.221  25.599  34.985  1.00  0.00    -0.206 F 
ATOM     83  C   UNL A   1      46.635  26.406  35.884  1.00  0.00     0.006 A 
ENDBRANCH  59  76
ENDBRANCH  33  34
ENDBRANCH  26  28
ENDBRANCH  25  26
ENDBRANCH  24  25
ENDBRANCH  23  24
ENDBRANCH  22  23
ENDBRANCH   1  22
TORSDOF 18
ENDMDL
