MODEL 1
REMARK VINA RESULT:     -10.2      0.000      0.000
REMARK SMILES COc1ncccc1COc1cc(C)sc1C(=O)OCCOC(=O)c1ccc(-c2c3nc(c(-c4c(F)cccc4F)c4ccc([nH]4)c(-c4c(F)cccc4F)c4nc(c(-c5c(F)cccc5F)c5ccc2[nH]5)C=C4)C=C3)cc1
REMARK SMILES IDX 20 1 19 2 17 3 18 4 16 5 11 6 12 7 13 8 15 9 14 10 10 11
REMARK SMILES IDX 9 12 8 13 3 14 4 15 5 16 7 17 6 18 2 19 1 20 21 21 22 22
REMARK SMILES IDX 23 23 24 24 25 25 26 26 78 27 27 28 77 29 28 30 29 31 30 32
REMARK SMILES IDX 71 33 31 34 76 35 70 36 72 37 32 38 75 39 69 40 68 41 33 43
REMARK SMILES IDX 59 44 42 45 58 46 43 47 46 48 57 49 73 50 44 51 45 52 56 54
REMARK SMILES IDX 74 55 47 56 34 57 35 58 40 59 36 60 37 61 39 62 41 63 38 64
REMARK SMILES IDX 60 65 61 66 66 67 62 68 63 69 65 70 67 71 64 72 48 73 49 74
REMARK SMILES IDX 54 75 50 76 51 77 53 78 55 79 52 80
REMARK H PARENT 72 42 46 53
REMARK Flexibility Score: inf
ROOT
ATOM      1  C   UNL A   1      33.753  35.373  28.897  1.00  0.00     0.275 C 
ENDROOT
BRANCH   1   2
ATOM      2  O   UNL A   1      33.828  33.942  29.014  1.00  0.00    -0.458 OA
BRANCH   2   3
ATOM      3  C   UNL A   1      33.197  33.199  28.058  1.00  0.00     0.352 C 
ATOM      4  O   UNL A   1      32.183  33.555  27.478  1.00  0.00    -0.245 OA
BRANCH   3   5
ATOM      5  C   UNL A   1      33.979  32.012  27.751  1.00  0.00     0.155 A 
ATOM      6  C   UNL A   1      33.598  30.759  27.301  1.00  0.00     0.145 A 
ATOM      7  C   UNL A   1      34.650  29.811  27.477  1.00  0.00     0.062 A 
ATOM      8  C   UNL A   1      35.850  30.400  27.818  1.00  0.00     0.006 A 
ATOM      9  S   UNL A   1      35.688  32.089  27.957  1.00  0.00    -0.130 S 
ATOM     10  C   UNL A   1      37.167  29.738  28.040  1.00  0.00     0.056 C 
BRANCH   6  11
ATOM     11  O   UNL A   1      32.346  30.572  26.802  1.00  0.00    -0.487 OA
BRANCH  11  12
ATOM     12  C   UNL A   1      32.208  30.026  25.484  1.00  0.00     0.271 C 
BRANCH  12  13
ATOM     13  C   UNL A   1      31.497  28.701  25.364  1.00  0.00     0.052 A 
ATOM     14  C   UNL A   1      30.811  28.323  24.216  1.00  0.00     0.219 A 
ATOM     15  N   UNL A   1      30.256  27.105  24.028  1.00  0.00    -0.222 NA
ATOM     16  C   UNL A   1      30.381  26.220  25.043  1.00  0.00     0.115 A 
ATOM     17  C   UNL A   1      31.546  27.775  26.415  1.00  0.00     0.014 A 
ATOM     18  C   UNL A   1      30.995  26.510  26.250  1.00  0.00     0.021 A 
BRANCH  14  19
ATOM     19  O   UNL A   1      30.544  29.271  23.262  1.00  0.00    -0.481 OA
ATOM     20  C   UNL A   1      29.142  29.452  23.104  1.00  0.00     0.280 C 
ENDBRANCH  14  19
ENDBRANCH  12  13
ENDBRANCH  11  12
ENDBRANCH   6  11
ENDBRANCH   3   5
ENDBRANCH   2   3
ENDBRANCH   1   2
BRANCH   1  21
ATOM     21  C   UNL A   1      32.676  35.912  29.839  1.00  0.00     0.275 C 
BRANCH  21  22
ATOM     22  O   UNL A   1      33.253  36.256  31.115  1.00  0.00    -0.458 OA
BRANCH  22  23
ATOM     23  C   UNL A   1      32.958  35.424  32.140  1.00  0.00     0.338 C 
ATOM     24  O   UNL A   1      31.862  35.156  32.601  1.00  0.00    -0.246 OA
BRANCH  23  25
ATOM     25  C   UNL A   1      34.199  34.777  32.586  1.00  0.00     0.060 A 
ATOM     26  C   UNL A   1      35.408  35.397  32.278  1.00  0.00     0.016 A 
ATOM     27  C   UNL A   1      34.182  33.544  33.238  1.00  0.00     0.016 A 
ATOM     28  C   UNL A   1      36.615  34.793  32.615  1.00  0.00     0.010 A 
ATOM     29  C   UNL A   1      35.396  32.946  33.597  1.00  0.00     0.010 A 
ATOM     30  C   UNL A   1      36.621  33.563  33.283  1.00  0.00    -0.014 A 
BRANCH  30  31
ATOM     31  C   UNL A   1      37.909  32.909  33.628  1.00  0.00     0.031 A 
ATOM     32  C   UNL A   1      38.485  31.860  32.721  1.00  0.00     0.074 A 
ATOM     33  C   UNL A   1      38.571  33.268  34.744  1.00  0.00     0.049 A 
ATOM     34  N   UNL A   1      39.515  31.075  32.911  1.00  0.00    -0.248 NA
ATOM     35  C   UNL A   1      37.811  31.668  31.427  1.00  0.00     0.031 C 
ATOM     36  C   UNL A   1      38.154  34.317  35.675  1.00  0.00     0.029 A 
ATOM     37  N   UNL A   1      39.735  32.782  35.288  1.00  0.00    -0.354 N 
ATOM     38  C   UNL A   1      39.598  30.279  31.776  1.00  0.00     0.074 A 
ATOM     39  C   UNL A   1      38.509  30.669  30.906  1.00  0.00     0.031 C 
ATOM     40  C   UNL A   1      39.052  34.403  36.669  1.00  0.00     0.029 A 
ATOM     41  C   UNL A   1      40.070  33.374  36.481  1.00  0.00     0.049 A 
ATOM     42  H   UNL A   1      40.277  32.079  34.863  1.00  0.00     0.167 HD
ATOM     43  C   UNL A   1      40.502  29.312  31.489  1.00  0.00     0.037 A 
ATOM     44  C   UNL A   1      41.063  33.091  37.347  1.00  0.00     0.037 A 
ATOM     45  C   UNL A   1      41.596  28.942  32.348  1.00  0.00     0.049 A 
ATOM     46  C   UNL A   1      42.002  31.957  37.045  1.00  0.00     0.074 A 
ATOM     47  C   UNL A   1      42.566  27.975  32.144  1.00  0.00     0.029 A 
ATOM     48  N   UNL A   1      41.869  29.528  33.575  1.00  0.00    -0.354 N 
ATOM     49  N   UNL A   1      42.048  31.182  35.989  1.00  0.00    -0.248 NA
ATOM     50  C   UNL A   1      43.010  31.642  38.067  1.00  0.00     0.031 C 
ATOM     51  C   UNL A   1      43.406  27.953  33.263  1.00  0.00     0.029 A 
ATOM     52  C   UNL A   1      42.980  28.930  34.148  1.00  0.00     0.049 A 
ATOM     53  H   UNL A   1      41.351  30.261  33.979  1.00  0.00     0.167 HD
ATOM     54  C   UNL A   1      43.094  30.297  36.213  1.00  0.00     0.074 A 
ATOM     55  C   UNL A   1      43.668  30.641  37.498  1.00  0.00     0.031 C 
ATOM     56  C   UNL A   1      43.536  29.286  35.427  1.00  0.00     0.037 A 
BRANCH  43  57
ATOM     57  C   UNL A   1      40.327  28.563  30.203  1.00  0.00     0.057 A 
ATOM     58  C   UNL A   1      39.475  27.456  30.100  1.00  0.00     0.134 A 
ATOM     59  C   UNL A   1      40.992  28.979  29.042  1.00  0.00     0.134 A 
ATOM     60  F   UNL A   1      38.822  26.999  31.179  1.00  0.00    -0.206 F 
ATOM     61  C   UNL A   1      39.305  26.778  28.891  1.00  0.00     0.040 A 
ATOM     62  C   UNL A   1      40.812  28.324  27.823  1.00  0.00     0.040 A 
ATOM     63  F   UNL A   1      41.817  30.036  29.072  1.00  0.00    -0.206 F 
ATOM     64  C   UNL A   1      39.969  27.216  27.747  1.00  0.00     0.006 A 
ENDBRANCH  43  57
BRANCH  44  65
ATOM     65  C   UNL A   1      41.193  33.866  38.606  1.00  0.00     0.057 A 
ATOM     66  C   UNL A   1      42.058  34.961  38.696  1.00  0.00     0.134 A 
ATOM     67  C   UNL A   1      40.466  33.520  39.753  1.00  0.00     0.134 A 
ATOM     68  F   UNL A   1      42.801  35.323  37.640  1.00  0.00    -0.206 F 
ATOM     69  C   UNL A   1      42.202  35.683  39.882  1.00  0.00     0.040 A 
ATOM     70  C   UNL A   1      40.582  34.247  40.938  1.00  0.00     0.040 A 
ATOM     71  F   UNL A   1      39.624  32.477  39.733  1.00  0.00    -0.206 F 
ATOM     72  C   UNL A   1      41.457  35.329  41.007  1.00  0.00     0.006 A 
ENDBRANCH  44  65
BRANCH  56  73
ATOM     73  C   UNL A   1      44.707  28.495  35.925  1.00  0.00     0.057 A 
ATOM     74  C   UNL A   1      46.025  28.890  35.662  1.00  0.00     0.134 A 
ATOM     75  C   UNL A   1      44.516  27.350  36.709  1.00  0.00     0.134 A 
ATOM     76  F   UNL A   1      46.271  29.969  34.904  1.00  0.00    -0.206 F 
ATOM     77  C   UNL A   1      47.113  28.165  36.151  1.00  0.00     0.040 A 
ATOM     78  C   UNL A   1      45.596  26.629  37.221  1.00  0.00     0.040 A 
ATOM     79  F   UNL A   1      43.279  26.924  37.002  1.00  0.00    -0.206 F 
ATOM     80  C   UNL A   1      46.900  27.035  36.938  1.00  0.00     0.006 A 
ENDBRANCH  56  73
ENDBRANCH  30  31
ENDBRANCH  23  25
ENDBRANCH  22  23
ENDBRANCH  21  22
ENDBRANCH   1  21
TORSDOF 15
ENDMDL
MODEL 2
REMARK VINA RESULT:     -10.0      2.572      4.473
REMARK SMILES COc1ncccc1COc1cc(C)sc1C(=O)OCCOC(=O)c1ccc(-c2c3nc(c(-c4c(F)cccc4F)c4ccc([nH]4)c(-c4c(F)cccc4F)c4nc(c(-c5c(F)cccc5F)c5ccc2[nH]5)C=C4)C=C3)cc1
REMARK SMILES IDX 20 1 19 2 17 3 18 4 16 5 11 6 12 7 13 8 15 9 14 10 10 11
REMARK SMILES IDX 9 12 8 13 3 14 4 15 5 16 7 17 6 18 2 19 1 20 21 21 22 22
REMARK SMILES IDX 23 23 24 24 25 25 26 26 78 27 27 28 77 29 28 30 29 31 30 32
REMARK SMILES IDX 71 33 31 34 76 35 70 36 72 37 32 38 75 39 69 40 68 41 33 43
REMARK SMILES IDX 59 44 42 45 58 46 43 47 46 48 57 49 73 50 44 51 45 52 56 54
REMARK SMILES IDX 74 55 47 56 34 57 35 58 40 59 36 60 37 61 39 62 41 63 38 64
REMARK SMILES IDX 60 65 61 66 66 67 62 68 63 69 65 70 67 71 64 72 48 73 49 74
REMARK SMILES IDX 54 75 50 76 51 77 53 78 55 79 52 80
REMARK H PARENT 72 42 46 53
REMARK Flexibility Score: inf
ROOT
ATOM      1  C   UNL A   1      31.407  29.580  25.476  1.00  0.00     0.275 C 
ENDROOT
BRANCH   1   2
ATOM      2  O   UNL A   1      32.301  28.588  26.009  1.00  0.00    -0.458 OA
BRANCH   2   3
ATOM      3  C   UNL A   1      31.753  27.589  26.763  1.00  0.00     0.352 C 
ATOM      4  O   UNL A   1      31.237  27.765  27.856  1.00  0.00    -0.245 OA
BRANCH   3   5
ATOM      5  C   UNL A   1      31.759  26.341  26.016  1.00  0.00     0.155 A 
ATOM      6  C   UNL A   1      30.733  25.640  25.404  1.00  0.00     0.145 A 
ATOM      7  C   UNL A   1      31.137  24.305  25.101  1.00  0.00     0.062 A 
ATOM      8  C   UNL A   1      32.492  24.106  25.261  1.00  0.00     0.006 A 
ATOM      9  S   UNL A   1      33.260  25.522  25.811  1.00  0.00    -0.130 S 
ATOM     10  C   UNL A   1      33.274  22.864  25.002  1.00  0.00     0.056 C 
BRANCH   6  11
ATOM     11  O   UNL A   1      29.531  26.244  25.197  1.00  0.00    -0.487 OA
BRANCH  11  12
ATOM     12  C   UNL A   1      29.051  26.372  23.852  1.00  0.00     0.271 C 
BRANCH  12  13
ATOM     13  C   UNL A   1      29.213  27.720  23.195  1.00  0.00     0.052 A 
ATOM     14  C   UNL A   1      30.296  28.027  22.379  1.00  0.00     0.219 A 
ATOM     15  N   UNL A   1      30.422  29.181  21.686  1.00  0.00    -0.222 NA
ATOM     16  C   UNL A   1      29.422  30.081  21.821  1.00  0.00     0.115 A 
ATOM     17  C   UNL A   1      28.234  28.708  23.357  1.00  0.00     0.014 A 
ATOM     18  C   UNL A   1      28.327  29.901  22.650  1.00  0.00     0.021 A 
BRANCH  14  19
ATOM     19  O   UNL A   1      31.380  27.187  22.373  1.00  0.00    -0.481 OA
ATOM     20  C   UNL A   1      32.581  27.907  22.629  1.00  0.00     0.280 C 
ENDBRANCH  14  19
ENDBRANCH  12  13
ENDBRANCH  11  12
ENDBRANCH   6  11
ENDBRANCH   3   5
ENDBRANCH   2   3
ENDBRANCH   1   2
BRANCH   1  21
ATOM     21  C   UNL A   1      31.621  30.910  26.199  1.00  0.00     0.275 C 
BRANCH  21  22
ATOM     22  O   UNL A   1      33.030  31.190  26.327  1.00  0.00    -0.458 OA
BRANCH  22  23
ATOM     23  C   UNL A   1      33.363  32.154  27.215  1.00  0.00     0.338 C 
ATOM     24  O   UNL A   1      32.725  33.144  27.526  1.00  0.00    -0.246 OA
BRANCH  23  25
ATOM     25  C   UNL A   1      34.626  31.774  27.862  1.00  0.00     0.060 A 
ATOM     26  C   UNL A   1      34.774  30.454  28.283  1.00  0.00     0.016 A 
ATOM     27  C   UNL A   1      35.625  32.714  28.114  1.00  0.00     0.016 A 
ATOM     28  C   UNL A   1      35.921  30.057  28.963  1.00  0.00     0.010 A 
ATOM     29  C   UNL A   1      36.788  32.311  28.779  1.00  0.00     0.010 A 
ATOM     30  C   UNL A   1      36.943  30.981  29.213  1.00  0.00    -0.014 A 
BRANCH  30  31
ATOM     31  C   UNL A   1      38.160  30.562  29.954  1.00  0.00     0.031 A 
ATOM     32  C   UNL A   1      39.150  29.635  29.309  1.00  0.00     0.074 A 
ATOM     33  C   UNL A   1      38.386  31.024  31.198  1.00  0.00     0.049 A 
ATOM     34  N   UNL A   1      40.193  29.043  29.832  1.00  0.00    -0.248 NA
ATOM     35  C   UNL A   1      38.937  29.335  27.884  1.00  0.00     0.031 C 
ATOM     36  C   UNL A   1      37.538  31.979  31.913  1.00  0.00     0.029 A 
ATOM     37  N   UNL A   1      39.398  30.749  32.084  1.00  0.00    -0.354 N 
ATOM     38  C   UNL A   1      40.746  28.280  28.811  1.00  0.00     0.074 A 
ATOM     39  C   UNL A   1      39.918  28.477  27.640  1.00  0.00     0.031 C 
ATOM     40  C   UNL A   1      38.069  32.216  33.123  1.00  0.00     0.029 A 
ATOM     41  C   UNL A   1      39.256  31.383  33.293  1.00  0.00     0.049 A 
ATOM     42  H   UNL A   1      40.154  30.154  31.872  1.00  0.00     0.167 HD
ATOM     43  C   UNL A   1      41.845  27.489  28.851  1.00  0.00     0.037 A 
ATOM     44  C   UNL A   1      39.977  31.275  34.426  1.00  0.00     0.037 A 
ATOM     45  C   UNL A   1      42.678  27.313  30.011  1.00  0.00     0.049 A 
ATOM     46  C   UNL A   1      41.141  30.325  34.470  1.00  0.00     0.074 A 
ATOM     47  C   UNL A   1      43.814  26.532  30.149  1.00  0.00     0.029 A 
ATOM     48  N   UNL A   1      42.467  27.930  31.235  1.00  0.00    -0.354 N 
ATOM     49  N   UNL A   1      41.632  29.576  33.512  1.00  0.00    -0.248 NA
ATOM     50  C   UNL A   1      41.835  30.187  35.758  1.00  0.00     0.031 C 
ATOM     51  C   UNL A   1      44.271  26.652  31.466  1.00  0.00     0.029 A 
ATOM     52  C   UNL A   1      43.440  27.534  32.138  1.00  0.00     0.049 A 
ATOM     53  H   UNL A   1      41.735  28.559  31.432  1.00  0.00     0.167 HD
ATOM     54  C   UNL A   1      42.697  28.889  34.077  1.00  0.00     0.074 A 
ATOM     55  C   UNL A   1      42.793  29.321  35.457  1.00  0.00     0.031 C 
ATOM     56  C   UNL A   1      43.519  27.976  33.506  1.00  0.00     0.037 A 
BRANCH  43  57
ATOM     57  C   UNL A   1      42.193  26.728  27.607  1.00  0.00     0.057 A 
ATOM     58  C   UNL A   1      41.706  25.437  27.368  1.00  0.00     0.134 A 
ATOM     59  C   UNL A   1      42.996  27.312  26.619  1.00  0.00     0.134 A 
ATOM     60  F   UNL A   1      40.944  24.818  28.282  1.00  0.00    -0.206 F 
ATOM     61  C   UNL A   1      42.021  24.746  26.196  1.00  0.00     0.040 A 
ATOM     62  C   UNL A   1      43.299  26.639  25.433  1.00  0.00     0.040 A 
ATOM     63  F   UNL A   1      43.489  28.547  26.784  1.00  0.00    -0.206 F 
ATOM     64  C   UNL A   1      42.814  25.350  25.222  1.00  0.00     0.006 A 
ENDBRANCH  43  57
BRANCH  44  65
ATOM     65  C   UNL A   1      39.590  32.053  35.630  1.00  0.00     0.057 A 
ATOM     66  C   UNL A   1      40.212  33.268  35.936  1.00  0.00     0.134 A 
ATOM     67  C   UNL A   1      38.601  31.593  36.508  1.00  0.00     0.134 A 
ATOM     68  F   UNL A   1      41.187  33.745  35.149  1.00  0.00    -0.206 F 
ATOM     69  C   UNL A   1      39.869  33.996  37.077  1.00  0.00     0.040 A 
ATOM     70  C   UNL A   1      38.231  32.323  37.639  1.00  0.00     0.040 A 
ATOM     71  F   UNL A   1      37.971  30.434  36.272  1.00  0.00    -0.206 F 
ATOM     72  C   UNL A   1      38.871  33.526  37.929  1.00  0.00     0.006 A 
ENDBRANCH  44  65
BRANCH  56  73
ATOM     73  C   UNL A   1      44.604  27.400  34.365  1.00  0.00     0.057 A 
ATOM     74  C   UNL A   1      45.847  28.031  34.498  1.00  0.00     0.134 A 
ATOM     75  C   UNL A   1      44.389  26.226  35.097  1.00  0.00     0.134 A 
ATOM     76  F   UNL A   1      46.117  29.150  33.810  1.00  0.00    -0.206 F 
ATOM     77  C   UNL A   1      46.845  27.506  35.321  1.00  0.00     0.040 A 
ATOM     78  C   UNL A   1      45.372  25.702  35.939  1.00  0.00     0.040 A 
ATOM     79  F   UNL A   1      43.218  25.577  35.018  1.00  0.00    -0.206 F 
ATOM     80  C   UNL A   1      46.606  26.342  36.049  1.00  0.00     0.006 A 
ENDBRANCH  56  73
ENDBRANCH  30  31
ENDBRANCH  23  25
ENDBRANCH  22  23
ENDBRANCH  21  22
ENDBRANCH   1  21
TORSDOF 15
ENDMDL
MODEL 3
REMARK VINA RESULT:     -10.0      5.789     10.392
REMARK SMILES COc1ncccc1COc1cc(C)sc1C(=O)OCCOC(=O)c1ccc(-c2c3nc(c(-c4c(F)cccc4F)c4ccc([nH]4)c(-c4c(F)cccc4F)c4nc(c(-c5c(F)cccc5F)c5ccc2[nH]5)C=C4)C=C3)cc1
REMARK SMILES IDX 20 1 19 2 17 3 18 4 16 5 11 6 12 7 13 8 15 9 14 10 10 11
REMARK SMILES IDX 9 12 8 13 3 14 4 15 5 16 7 17 6 18 2 19 1 20 21 21 22 22
REMARK SMILES IDX 23 23 24 24 25 25 26 26 78 27 27 28 77 29 28 30 29 31 30 32
REMARK SMILES IDX 71 33 31 34 76 35 70 36 72 37 32 38 75 39 69 40 68 41 33 43
REMARK SMILES IDX 59 44 42 45 58 46 43 47 46 48 57 49 73 50 44 51 45 52 56 54
REMARK SMILES IDX 74 55 47 56 34 57 35 58 40 59 36 60 37 61 39 62 41 63 38 64
REMARK SMILES IDX 60 65 61 66 66 67 62 68 63 69 65 70 67 71 64 72 48 73 49 74
REMARK SMILES IDX 54 75 50 76 51 77 53 78 55 79 52 80
REMARK H PARENT 72 42 46 53
REMARK Flexibility Score: inf
ROOT
ATOM      1  C   UNL A   1      39.021  21.449  26.085  1.00  0.00     0.275 C 
ENDROOT
BRANCH   1   2
ATOM      2  O   UNL A   1      37.925  21.906  25.274  1.00  0.00    -0.458 OA
BRANCH   2   3
ATOM      3  C   UNL A   1      37.169  22.934  25.760  1.00  0.00     0.352 C 
ATOM      4  O   UNL A   1      37.635  23.934  26.283  1.00  0.00    -0.245 OA
BRANCH   3   5
ATOM      5  C   UNL A   1      35.767  22.716  25.439  1.00  0.00     0.155 A 
ATOM      6  C   UNL A   1      34.700  23.596  25.371  1.00  0.00     0.145 A 
ATOM      7  C   UNL A   1      33.458  22.893  25.369  1.00  0.00     0.062 A 
ATOM      8  C   UNL A   1      33.612  21.534  25.192  1.00  0.00     0.006 A 
ATOM      9  S   UNL A   1      35.257  21.114  25.067  1.00  0.00    -0.130 S 
ATOM     10  C   UNL A   1      32.548  20.495  25.096  1.00  0.00     0.056 C 
BRANCH   6  11
ATOM     11  O   UNL A   1      34.930  24.937  25.345  1.00  0.00    -0.487 OA
BRANCH  11  12
ATOM     12  C   UNL A   1      33.928  25.793  24.779  1.00  0.00     0.271 C 
BRANCH  12  13
ATOM     13  C   UNL A   1      33.187  26.699  25.730  1.00  0.00     0.052 A 
ATOM     14  C   UNL A   1      31.890  26.435  26.154  1.00  0.00     0.219 A 
ATOM     15  N   UNL A   1      31.232  27.160  27.087  1.00  0.00    -0.222 NA
ATOM     16  C   UNL A   1      31.899  28.210  27.618  1.00  0.00     0.115 A 
ATOM     17  C   UNL A   1      33.814  27.835  26.259  1.00  0.00     0.014 A 
ATOM     18  C   UNL A   1      33.171  28.594  27.229  1.00  0.00     0.021 A 
BRANCH  14  19
ATOM     19  O   UNL A   1      31.161  25.476  25.499  1.00  0.00    -0.481 OA
ATOM     20  C   UNL A   1      29.782  25.568  25.835  1.00  0.00     0.280 C 
ENDBRANCH  14  19
ENDBRANCH  12  13
ENDBRANCH  11  12
ENDBRANCH   6  11
ENDBRANCH   3   5
ENDBRANCH   2   3
ENDBRANCH   1   2
BRANCH   1  21
ATOM     21  C   UNL A   1      39.540  20.115  25.548  1.00  0.00     0.275 C 
BRANCH  21  22
ATOM     22  O   UNL A   1      40.614  19.625  26.377  1.00  0.00    -0.458 OA
BRANCH  22  23
ATOM     23  C   UNL A   1      41.866  19.901  25.945  1.00  0.00     0.338 C 
ATOM     24  O   UNL A   1      42.556  19.257  25.175  1.00  0.00    -0.246 OA
BRANCH  23  25
ATOM     25  C   UNL A   1      42.268  21.206  26.486  1.00  0.00     0.060 A 
ATOM     26  C   UNL A   1      42.254  21.373  27.870  1.00  0.00     0.016 A 
ATOM     27  C   UNL A   1      42.588  22.273  25.648  1.00  0.00     0.016 A 
ATOM     28  C   UNL A   1      42.558  22.609  28.432  1.00  0.00     0.010 A 
ATOM     29  C   UNL A   1      42.915  23.511  26.213  1.00  0.00     0.010 A 
ATOM     30  C   UNL A   1      42.897  23.690  27.610  1.00  0.00    -0.014 A 
BRANCH  30  31
ATOM     31  C   UNL A   1      43.205  25.013  28.208  1.00  0.00     0.031 A 
ATOM     32  C   UNL A   1      42.100  25.997  28.463  1.00  0.00     0.074 A 
ATOM     33  C   UNL A   1      44.472  25.327  28.539  1.00  0.00     0.049 A 
ATOM     34  N   UNL A   1      42.175  27.248  28.842  1.00  0.00    -0.248 NA
ATOM     35  C   UNL A   1      40.726  25.509  28.264  1.00  0.00     0.031 C 
ATOM     36  C   UNL A   1      45.626  24.438  28.404  1.00  0.00     0.029 A 
ATOM     37  N   UNL A   1      45.001  26.485  29.053  1.00  0.00    -0.354 N 
ATOM     38  C   UNL A   1      40.865  27.704  28.902  1.00  0.00     0.074 A 
ATOM     39  C   UNL A   1      40.014  26.600  28.511  1.00  0.00     0.031 C 
ATOM     40  C   UNL A   1      46.725  25.078  28.833  1.00  0.00     0.029 A 
ATOM     41  C   UNL A   1      46.364  26.442  29.210  1.00  0.00     0.049 A 
ATOM     42  H   UNL A   1      44.455  27.270  29.287  1.00  0.00     0.167 HD
ATOM     43  C   UNL A   1      40.415  28.933  29.251  1.00  0.00     0.037 A 
ATOM     44  C   UNL A   1      47.232  27.405  29.578  1.00  0.00     0.037 A 
ATOM     45  C   UNL A   1      41.263  30.022  29.660  1.00  0.00     0.049 A 
ATOM     46  C   UNL A   1      46.715  28.784  29.878  1.00  0.00     0.074 A 
ATOM     47  C   UNL A   1      40.900  31.305  30.034  1.00  0.00     0.029 A 
ATOM     48  N   UNL A   1      42.644  29.955  29.752  1.00  0.00    -0.354 N 
ATOM     49  N   UNL A   1      45.479  29.218  29.892  1.00  0.00    -0.248 NA
ATOM     50  C   UNL A   1      47.718  29.813  30.190  1.00  0.00     0.031 C 
ATOM     51  C   UNL A   1      42.066  32.024  30.321  1.00  0.00     0.029 A 
ATOM     52  C   UNL A   1      43.151  31.178  30.159  1.00  0.00     0.049 A 
ATOM     53  H   UNL A   1      43.185  29.155  29.559  1.00  0.00     0.167 HD
ATOM     54  C   UNL A   1      45.552  30.564  30.224  1.00  0.00     0.074 A 
ATOM     55  C   UNL A   1      46.954  30.873  30.421  1.00  0.00     0.031 C 
ATOM     56  C   UNL A   1      44.549  31.466  30.350  1.00  0.00     0.037 A 
BRANCH  43  57
ATOM     57  C   UNL A   1      38.937  29.175  29.177  1.00  0.00     0.057 A 
ATOM     58  C   UNL A   1      38.115  29.088  30.308  1.00  0.00     0.134 A 
ATOM     59  C   UNL A   1      38.337  29.537  27.965  1.00  0.00     0.134 A 
ATOM     60  F   UNL A   1      38.628  28.731  31.495  1.00  0.00    -0.206 F 
ATOM     61  C   UNL A   1      36.743  29.335  30.230  1.00  0.00     0.040 A 
ATOM     62  C   UNL A   1      36.970  29.808  27.880  1.00  0.00     0.040 A 
ATOM     63  F   UNL A   1      39.069  29.643  26.847  1.00  0.00    -0.206 F 
ATOM     64  C   UNL A   1      36.169  29.703  29.015  1.00  0.00     0.006 A 
ENDBRANCH  43  57
BRANCH  44  65
ATOM     65  C   UNL A   1      48.686  27.112  29.637  1.00  0.00     0.057 A 
ATOM     66  C   UNL A   1      49.285  26.663  30.818  1.00  0.00     0.134 A 
ATOM     67  C   UNL A   1      49.510  27.287  28.519  1.00  0.00     0.134 A 
ATOM     68  F   UNL A   1      48.553  26.503  31.930  1.00  0.00    -0.206 F 
ATOM     69  C   UNL A   1      50.656  26.405  30.888  1.00  0.00     0.040 A 
ATOM     70  C   UNL A   1      50.877  27.010  28.568  1.00  0.00     0.040 A 
ATOM     71  F   UNL A   1      48.996  27.720  27.359  1.00  0.00    -0.206 F 
ATOM     72  C   UNL A   1      51.454  26.572  29.758  1.00  0.00     0.006 A 
ENDBRANCH  44  65
BRANCH  56  73
ATOM     73  C   UNL A   1      44.930  32.863  30.735  1.00  0.00     0.057 A 
ATOM     74  C   UNL A   1      45.068  33.242  32.076  1.00  0.00     0.134 A 
ATOM     75  C   UNL A   1      45.200  33.827  29.756  1.00  0.00     0.134 A 
ATOM     76  F   UNL A   1      44.807  32.367  33.059  1.00  0.00    -0.206 F 
ATOM     77  C   UNL A   1      45.449  34.538  32.431  1.00  0.00     0.040 A 
ATOM     78  C   UNL A   1      45.602  35.119  30.097  1.00  0.00     0.040 A 
ATOM     79  F   UNL A   1      45.092  33.524  28.454  1.00  0.00    -0.206 F 
ATOM     80  C   UNL A   1      45.723  35.478  31.439  1.00  0.00     0.006 A 
ENDBRANCH  56  73
ENDBRANCH  30  31
ENDBRANCH  23  25
ENDBRANCH  22  23
ENDBRANCH  21  22
ENDBRANCH   1  21
TORSDOF 15
ENDMDL
