MODEL 1
REMARK VINA RESULT:     -12.2      0.000      0.000
REMARK SMILES Cc1ccccc1[C@@H](Cc1c(Cl)cccc1Cl)C(=O)OCCOC(=O)c1ccc(-c2c3nc(c(-c4c(F)cccc4F)c4ccc([nH]4)c(-c4c(F)cccc4F)c4nc(c(-c5c(F)cccc5F)c5ccc2[nH]5)C=C4)C=C3)cc1
REMARK SMILES IDX 21 1 20 2 18 3 19 4 8 5 7 6 1 7 2 8 3 9 4 10 6 11 5 12 9 13
REMARK SMILES IDX 10 14 11 15 16 16 12 17 13 18 15 19 17 20 14 21 22 22 23 23
REMARK SMILES IDX 24 24 25 25 26 26 27 27 79 28 28 29 78 30 29 31 30 32 31 33
REMARK SMILES IDX 72 34 32 35 77 36 71 37 73 38 33 39 76 40 70 41 69 42 34 44
REMARK SMILES IDX 60 45 43 46 59 47 44 48 47 49 58 50 74 51 45 52 46 53 57 55
REMARK SMILES IDX 75 56 48 57 35 58 36 59 41 60 37 61 38 62 40 63 42 64 39 65
REMARK SMILES IDX 61 66 62 67 67 68 63 69 64 70 66 71 68 72 65 73 49 74 50 75
REMARK SMILES IDX 55 76 51 77 52 78 54 79 56 80 53 81
REMARK H PARENT 73 43 47 54
REMARK Flexibility Score: inf
ROOT
ATOM      1  C   UNL A   1      33.714  29.279  27.889  1.00  0.00     0.274 C 
ENDROOT
BRANCH   1   2
ATOM      2  O   UNL A   1      33.474  28.223  26.952  1.00  0.00    -0.462 OA
BRANCH   2   3
ATOM      3  C   UNL A   1      32.191  27.724  26.952  1.00  0.00     0.313 C 
ATOM      4  O   UNL A   1      31.375  27.979  27.816  1.00  0.00    -0.252 OA
BRANCH   3   5
ATOM      5  C   UNL A   1      32.079  26.580  25.913  1.00  0.00     0.134 C 
BRANCH   5   6
ATOM      6  C   UNL A   1      31.320  27.262  24.755  1.00  0.00    -0.031 A 
ATOM      7  C   UNL A   1      29.903  25.203  24.202  1.00  0.00     0.044 C 
ATOM      8  C   UNL A   1      30.200  26.672  24.149  1.00  0.00    -0.047 A 
ATOM      9  C   UNL A   1      29.275  27.506  23.500  1.00  0.00     0.004 A 
ATOM     10  C   UNL A   1      29.477  28.884  23.411  1.00  0.00     0.000 A 
ATOM     11  C   UNL A   1      31.585  28.633  24.520  1.00  0.00     0.005 A 
ATOM     12  C   UNL A   1      30.650  29.445  23.891  1.00  0.00     0.000 A 
ENDBRANCH   5   6
BRANCH   5  13
ATOM     13  C   UNL A   1      33.402  25.921  25.416  1.00  0.00     0.058 C 
BRANCH  13  14
ATOM     14  C   UNL A   1      33.418  24.628  24.582  1.00  0.00    -0.010 A 
ATOM     15  C   UNL A   1      33.602  23.369  25.206  1.00  0.00     0.045 A 
ATOM     16  C   UNL A   1      33.390  24.587  23.173  1.00  0.00     0.045 A 
ATOM     17  Cl  UNL A   1      34.051  23.220  26.876  1.00  0.00    -0.084 Cl
ATOM     18  C   UNL A   1      33.515  22.156  24.496  1.00  0.00     0.021 A 
ATOM     19  C   UNL A   1      33.296  23.375  22.462  1.00  0.00     0.021 A 
ATOM     20  Cl  UNL A   1      33.544  25.995  22.187  1.00  0.00    -0.084 Cl
ATOM     21  C   UNL A   1      33.307  22.158  23.126  1.00  0.00     0.003 A 
ENDBRANCH  13  14
ENDBRANCH   5  13
ENDBRANCH   3   5
ENDBRANCH   2   3
ENDBRANCH   1   2
BRANCH   1  22
ATOM     22  C   UNL A   1      34.281  30.552  27.233  1.00  0.00     0.275 C 
BRANCH  22  23
ATOM     23  O   UNL A   1      35.446  31.180  27.841  1.00  0.00    -0.458 OA
BRANCH  23  24
ATOM     24  C   UNL A   1      36.118  30.791  28.960  1.00  0.00     0.338 C 
ATOM     25  O   UNL A   1      35.795  31.139  30.084  1.00  0.00    -0.246 OA
BRANCH  24  26
ATOM     26  C   UNL A   1      37.205  29.819  28.769  1.00  0.00     0.060 A 
ATOM     27  C   UNL A   1      38.009  29.915  27.627  1.00  0.00     0.016 A 
ATOM     28  C   UNL A   1      37.534  28.953  29.802  1.00  0.00     0.016 A 
ATOM     29  C   UNL A   1      39.234  29.249  27.603  1.00  0.00     0.010 A 
ATOM     30  C   UNL A   1      38.809  28.428  29.838  1.00  0.00     0.010 A 
ATOM     31  C   UNL A   1      39.675  28.571  28.740  1.00  0.00    -0.014 A 
BRANCH  31  32
ATOM     32  C   UNL A   1      40.823  27.663  28.752  1.00  0.00     0.031 A 
ATOM     33  C   UNL A   1      40.829  26.214  28.468  1.00  0.00     0.074 A 
ATOM     34  C   UNL A   1      41.970  28.325  29.002  1.00  0.00     0.049 A 
ATOM     35  N   UNL A   1      41.827  25.434  28.712  1.00  0.00    -0.248 NA
ATOM     36  C   UNL A   1      39.713  25.487  27.903  1.00  0.00     0.031 C 
ATOM     37  C   UNL A   1      43.350  27.905  28.886  1.00  0.00     0.029 A 
ATOM     38  N   UNL A   1      42.033  29.559  29.647  1.00  0.00    -0.354 N 
ATOM     39  C   UNL A   1      41.580  24.194  28.151  1.00  0.00     0.074 A 
ATOM     40  C   UNL A   1      40.227  24.272  27.679  1.00  0.00     0.031 C 
ATOM     41  C   UNL A   1      44.096  28.709  29.667  1.00  0.00     0.029 A 
ATOM     42  C   UNL A   1      43.184  29.560  30.428  1.00  0.00     0.049 A 
ATOM     43  H   UNL A   1      41.384  30.293  29.564  1.00  0.00     0.167 HD
ATOM     44  C   UNL A   1      42.591  23.280  28.095  1.00  0.00     0.037 A 
ATOM     45  C   UNL A   1      43.000  29.547  31.782  1.00  0.00     0.037 A 
ATOM     46  C   UNL A   1      43.734  23.766  28.866  1.00  0.00     0.049 A 
ATOM     47  C   UNL A   1      43.450  28.243  32.414  1.00  0.00     0.074 A 
ATOM     48  C   UNL A   1      44.876  24.480  28.546  1.00  0.00     0.029 A 
ATOM     49  N   UNL A   1      43.594  23.862  30.239  1.00  0.00    -0.354 N 
ATOM     50  N   UNL A   1      43.742  27.154  31.754  1.00  0.00    -0.248 NA
ATOM     51  C   UNL A   1      43.526  28.051  33.860  1.00  0.00     0.031 C 
ATOM     52  C   UNL A   1      45.379  25.061  29.749  1.00  0.00     0.029 A 
ATOM     53  C   UNL A   1      44.567  24.667  30.798  1.00  0.00     0.049 A 
ATOM     54  H   UNL A   1      42.887  23.411  30.755  1.00  0.00     0.167 HD
ATOM     55  C   UNL A   1      44.082  26.161  32.630  1.00  0.00     0.074 A 
ATOM     56  C   UNL A   1      43.864  26.753  33.938  1.00  0.00     0.031 C 
ATOM     57  C   UNL A   1      44.521  24.931  32.229  1.00  0.00     0.037 A 
BRANCH  44  58
ATOM     58  C   UNL A   1      42.640  22.061  27.192  1.00  0.00     0.057 A 
ATOM     59  C   UNL A   1      41.764  20.979  27.423  1.00  0.00     0.134 A 
ATOM     60  C   UNL A   1      43.547  21.841  26.140  1.00  0.00     0.134 A 
ATOM     61  F   UNL A   1      40.778  21.056  28.327  1.00  0.00    -0.206 F 
ATOM     62  C   UNL A   1      41.857  19.752  26.748  1.00  0.00     0.040 A 
ATOM     63  C   UNL A   1      43.677  20.606  25.480  1.00  0.00     0.040 A 
ATOM     64  F   UNL A   1      44.315  22.820  25.652  1.00  0.00    -0.206 F 
ATOM     65  C   UNL A   1      42.841  19.547  25.795  1.00  0.00     0.006 A 
ENDBRANCH  44  58
BRANCH  45  66
ATOM     66  C   UNL A   1      41.815  30.360  32.241  1.00  0.00     0.057 A 
ATOM     67  C   UNL A   1      41.851  31.768  32.123  1.00  0.00     0.134 A 
ATOM     68  C   UNL A   1      40.565  29.802  32.528  1.00  0.00     0.134 A 
ATOM     69  F   UNL A   1      43.007  32.396  31.850  1.00  0.00    -0.206 F 
ATOM     70  C   UNL A   1      40.696  32.558  32.168  1.00  0.00     0.040 A 
ATOM     71  C   UNL A   1      39.404  30.587  32.612  1.00  0.00     0.040 A 
ATOM     72  F   UNL A   1      40.415  28.478  32.664  1.00  0.00    -0.206 F 
ATOM     73  C   UNL A   1      39.462  31.963  32.395  1.00  0.00     0.006 A 
ENDBRANCH  45  66
BRANCH  57  74
ATOM     74  C   UNL A   1      44.971  23.865  33.192  1.00  0.00     0.057 A 
ATOM     75  C   UNL A   1      44.105  22.885  33.696  1.00  0.00     0.134 A 
ATOM     76  C   UNL A   1      46.272  23.858  33.736  1.00  0.00     0.134 A 
ATOM     77  F   UNL A   1      42.808  22.859  33.356  1.00  0.00    -0.206 F 
ATOM     78  C   UNL A   1      44.529  21.904  34.600  1.00  0.00     0.040 A 
ATOM     79  C   UNL A   1      46.687  22.924  34.688  1.00  0.00     0.040 A 
ATOM     80  F   UNL A   1      47.206  24.740  33.356  1.00  0.00    -0.206 F 
ATOM     81  C   UNL A   1      45.822  21.925  35.103  1.00  0.00     0.006 A 
ENDBRANCH  57  74
ENDBRANCH  31  32
ENDBRANCH  24  26
ENDBRANCH  23  24
ENDBRANCH  22  23
ENDBRANCH   1  22
TORSDOF 14
ENDMDL
MODEL 2
REMARK VINA RESULT:     -12.2      1.262      1.857
REMARK SMILES Cc1ccccc1[C@@H](Cc1c(Cl)cccc1Cl)C(=O)OCCOC(=O)c1ccc(-c2c3nc(c(-c4c(F)cccc4F)c4ccc([nH]4)c(-c4c(F)cccc4F)c4nc(c(-c5c(F)cccc5F)c5ccc2[nH]5)C=C4)C=C3)cc1
REMARK SMILES IDX 21 1 20 2 18 3 19 4 8 5 7 6 1 7 2 8 3 9 4 10 6 11 5 12 9 13
REMARK SMILES IDX 10 14 11 15 16 16 12 17 13 18 15 19 17 20 14 21 22 22 23 23
REMARK SMILES IDX 24 24 25 25 26 26 27 27 79 28 28 29 78 30 29 31 30 32 31 33
REMARK SMILES IDX 72 34 32 35 77 36 71 37 73 38 33 39 76 40 70 41 69 42 34 44
REMARK SMILES IDX 60 45 43 46 59 47 44 48 47 49 58 50 74 51 45 52 46 53 57 55
REMARK SMILES IDX 75 56 48 57 35 58 36 59 41 60 37 61 38 62 40 63 42 64 39 65
REMARK SMILES IDX 61 66 62 67 67 68 63 69 64 70 66 71 68 72 65 73 49 74 50 75
REMARK SMILES IDX 55 76 51 77 52 78 54 79 56 80 53 81
REMARK H PARENT 73 43 47 54
REMARK Flexibility Score: inf
ROOT
ATOM      1  C   UNL A   1      33.213  28.761  27.097  1.00  0.00     0.274 C 
ENDROOT
BRANCH   1   2
ATOM      2  O   UNL A   1      32.931  27.391  26.792  1.00  0.00    -0.462 OA
BRANCH   2   3
ATOM      3  C   UNL A   1      32.012  27.195  25.786  1.00  0.00     0.313 C 
ATOM      4  O   UNL A   1      31.216  28.042  25.433  1.00  0.00    -0.252 OA
BRANCH   3   5
ATOM      5  C   UNL A   1      31.940  25.687  25.437  1.00  0.00     0.134 C 
BRANCH   5   6
ATOM      6  C   UNL A   1      32.397  25.669  23.963  1.00  0.00    -0.031 A 
ATOM      7  C   UNL A   1      30.454  24.206  23.165  1.00  0.00     0.044 C 
ATOM      8  C   UNL A   1      31.584  25.166  22.936  1.00  0.00    -0.047 A 
ATOM      9  C   UNL A   1      31.801  25.624  21.626  1.00  0.00     0.004 A 
ATOM     10  C   UNL A   1      32.829  26.521  21.332  1.00  0.00     0.000 A 
ATOM     11  C   UNL A   1      33.527  26.452  23.622  1.00  0.00     0.005 A 
ATOM     12  C   UNL A   1      33.716  26.910  22.324  1.00  0.00     0.000 A 
ENDBRANCH   5   6
BRANCH   5  13
ATOM     13  C   UNL A   1      32.781  24.700  26.305  1.00  0.00     0.058 C 
BRANCH  13  14
ATOM     14  C   UNL A   1      33.138  23.281  25.831  1.00  0.00    -0.010 A 
ATOM     15  C   UNL A   1      32.143  22.275  25.751  1.00  0.00     0.045 A 
ATOM     16  C   UNL A   1      34.449  22.832  25.575  1.00  0.00     0.045 A 
ATOM     17  Cl  UNL A   1      30.547  22.499  26.394  1.00  0.00    -0.084 Cl
ATOM     18  C   UNL A   1      32.404  20.997  25.221  1.00  0.00     0.021 A 
ATOM     19  C   UNL A   1      34.712  21.557  25.038  1.00  0.00     0.021 A 
ATOM     20  Cl  UNL A   1      35.854  23.758  25.960  1.00  0.00    -0.084 Cl
ATOM     21  C   UNL A   1      33.684  20.655  24.812  1.00  0.00     0.003 A 
ENDBRANCH  13  14
ENDBRANCH   5  13
ENDBRANCH   3   5
ENDBRANCH   2   3
ENDBRANCH   1   2
BRANCH   1  22
ATOM     22  C   UNL A   1      34.718  29.049  27.253  1.00  0.00     0.275 C 
BRANCH  22  23
ATOM     23  O   UNL A   1      35.128  30.402  27.604  1.00  0.00    -0.458 OA
BRANCH  23  24
ATOM     24  C   UNL A   1      35.901  30.796  28.654  1.00  0.00     0.338 C 
ATOM     25  O   UNL A   1      35.538  31.629  29.470  1.00  0.00    -0.246 OA
BRANCH  24  26
ATOM     26  C   UNL A   1      37.172  30.081  28.840  1.00  0.00     0.060 A 
ATOM     27  C   UNL A   1      37.319  29.232  29.943  1.00  0.00     0.016 A 
ATOM     28  C   UNL A   1      38.124  30.110  27.831  1.00  0.00     0.016 A 
ATOM     29  C   UNL A   1      38.351  28.294  29.944  1.00  0.00     0.010 A 
ATOM     30  C   UNL A   1      39.041  29.083  27.763  1.00  0.00     0.010 A 
ATOM     31  C   UNL A   1      39.165  28.161  28.818  1.00  0.00    -0.014 A 
BRANCH  31  32
ATOM     32  C   UNL A   1      40.401  27.378  28.795  1.00  0.00     0.031 A 
ATOM     33  C   UNL A   1      40.552  25.940  28.493  1.00  0.00     0.074 A 
ATOM     34  C   UNL A   1      41.478  28.152  29.029  1.00  0.00     0.049 A 
ATOM     35  N   UNL A   1      41.630  25.265  28.707  1.00  0.00    -0.248 NA
ATOM     36  C   UNL A   1      39.505  25.106  27.943  1.00  0.00     0.031 C 
ATOM     37  C   UNL A   1      42.892  27.880  28.880  1.00  0.00     0.029 A 
ATOM     38  N   UNL A   1      41.427  29.380  29.687  1.00  0.00    -0.354 N 
ATOM     39  C   UNL A   1      41.501  24.012  28.137  1.00  0.00     0.074 A 
ATOM     40  C   UNL A   1      40.137  23.953  27.694  1.00  0.00     0.031 C 
ATOM     41  C   UNL A   1      43.567  28.750  29.655  1.00  0.00     0.029 A 
ATOM     42  C   UNL A   1      42.588  29.494  30.444  1.00  0.00     0.049 A 
ATOM     43  H   UNL A   1      40.703  30.044  29.627  1.00  0.00     0.167 HD
ATOM     44  C   UNL A   1      42.601  23.209  28.049  1.00  0.00     0.037 A 
ATOM     45  C   UNL A   1      42.436  29.448  31.802  1.00  0.00     0.037 A 
ATOM     46  C   UNL A   1      43.703  23.804  28.802  1.00  0.00     0.049 A 
ATOM     47  C   UNL A   1      43.032  28.192  32.409  1.00  0.00     0.074 A 
ATOM     48  C   UNL A   1      44.758  24.636  28.468  1.00  0.00     0.029 A 
ATOM     49  N   UNL A   1      43.584  23.872  30.179  1.00  0.00    -0.354 N 
ATOM     50  N   UNL A   1      43.422  27.146  31.730  1.00  0.00    -0.248 NA
ATOM     51  C   UNL A   1      43.159  27.995  33.850  1.00  0.00     0.031 C 
ATOM     52  C   UNL A   1      45.224  25.255  29.667  1.00  0.00     0.029 A 
ATOM     53  C   UNL A   1      44.479  24.768  30.728  1.00  0.00     0.049 A 
ATOM     54  H   UNL A   1      42.939  23.344  30.704  1.00  0.00     0.167 HD
ATOM     55  C   UNL A   1      43.882  26.185  32.587  1.00  0.00     0.074 A 
ATOM     56  C   UNL A   1      43.632  26.739  33.907  1.00  0.00     0.031 C 
ATOM     57  C   UNL A   1      44.438  25.011  32.162  1.00  0.00     0.037 A 
BRANCH  44  58
ATOM     58  C   UNL A   1      42.756  22.011  27.131  1.00  0.00     0.057 A 
ATOM     59  C   UNL A   1      41.975  20.855  27.344  1.00  0.00     0.134 A 
ATOM     60  C   UNL A   1      43.683  21.883  26.080  1.00  0.00     0.134 A 
ATOM     61  F   UNL A   1      40.983  20.836  28.244  1.00  0.00    -0.206 F 
ATOM     62  C   UNL A   1      42.175  19.649  26.653  1.00  0.00     0.040 A 
ATOM     63  C   UNL A   1      43.920  20.672  25.405  1.00  0.00     0.040 A 
ATOM     64  F   UNL A   1      44.367  22.930  25.609  1.00  0.00    -0.206 F 
ATOM     65  C   UNL A   1      43.176  19.542  25.703  1.00  0.00     0.006 A 
ENDBRANCH  44  58
BRANCH  45  66
ATOM     66  C   UNL A   1      41.183  30.129  32.295  1.00  0.00     0.057 A 
ATOM     67  C   UNL A   1      40.113  29.344  32.785  1.00  0.00     0.134 A 
ATOM     68  C   UNL A   1      41.104  31.501  32.556  1.00  0.00     0.134 A 
ATOM     69  F   UNL A   1      40.100  28.016  32.583  1.00  0.00    -0.206 F 
ATOM     70  C   UNL A   1      39.096  29.873  33.586  1.00  0.00     0.040 A 
ATOM     71  C   UNL A   1      40.068  32.050  33.328  1.00  0.00     0.040 A 
ATOM     72  F   UNL A   1      42.061  32.339  32.136  1.00  0.00    -0.206 F 
ATOM     73  C   UNL A   1      39.082  31.231  33.876  1.00  0.00     0.006 A 
ENDBRANCH  45  66
BRANCH  57  74
ATOM     74  C   UNL A   1      45.017  23.989  33.103  1.00  0.00     0.057 A 
ATOM     75  C   UNL A   1      44.276  22.904  33.592  1.00  0.00     0.134 A 
ATOM     76  C   UNL A   1      46.312  24.126  33.642  1.00  0.00     0.134 A 
ATOM     77  F   UNL A   1      42.990  22.731  33.256  1.00  0.00    -0.206 F 
ATOM     78  C   UNL A   1      44.819  21.964  34.475  1.00  0.00     0.040 A 
ATOM     79  C   UNL A   1      46.841  23.231  34.574  1.00  0.00     0.040 A 
ATOM     80  F   UNL A   1      47.133  25.120  33.276  1.00  0.00    -0.206 F 
ATOM     81  C   UNL A   1      46.104  22.129  34.974  1.00  0.00     0.006 A 
ENDBRANCH  57  74
ENDBRANCH  31  32
ENDBRANCH  24  26
ENDBRANCH  23  24
ENDBRANCH  22  23
ENDBRANCH   1  22
TORSDOF 14
ENDMDL
MODEL 3
REMARK VINA RESULT:     -12.2      0.581      1.771
REMARK SMILES Cc1ccccc1[C@@H](Cc1c(Cl)cccc1Cl)C(=O)OCCOC(=O)c1ccc(-c2c3nc(c(-c4c(F)cccc4F)c4ccc([nH]4)c(-c4c(F)cccc4F)c4nc(c(-c5c(F)cccc5F)c5ccc2[nH]5)C=C4)C=C3)cc1
REMARK SMILES IDX 21 1 20 2 18 3 19 4 8 5 7 6 1 7 2 8 3 9 4 10 6 11 5 12 9 13
REMARK SMILES IDX 10 14 11 15 16 16 12 17 13 18 15 19 17 20 14 21 22 22 23 23
REMARK SMILES IDX 24 24 25 25 26 26 27 27 79 28 28 29 78 30 29 31 30 32 31 33
REMARK SMILES IDX 72 34 32 35 77 36 71 37 73 38 33 39 76 40 70 41 69 42 34 44
REMARK SMILES IDX 60 45 43 46 59 47 44 48 47 49 58 50 74 51 45 52 46 53 57 55
REMARK SMILES IDX 75 56 48 57 35 58 36 59 41 60 37 61 38 62 40 63 42 64 39 65
REMARK SMILES IDX 61 66 62 67 67 68 63 69 64 70 66 71 68 72 65 73 49 74 50 75
REMARK SMILES IDX 55 76 51 77 52 78 54 79 56 80 53 81
REMARK H PARENT 73 43 47 54
REMARK Flexibility Score: inf
ROOT
ATOM      1  C   UNL A   1      32.790  30.223  26.835  1.00  0.00     0.274 C 
ENDROOT
BRANCH   1   2
ATOM      2  O   UNL A   1      33.056  28.817  26.812  1.00  0.00    -0.462 OA
BRANCH   2   3
ATOM      3  C   UNL A   1      31.956  28.012  27.005  1.00  0.00     0.313 C 
ATOM      4  O   UNL A   1      31.096  28.243  27.831  1.00  0.00    -0.252 OA
BRANCH   3   5
ATOM      5  C   UNL A   1      32.164  26.664  26.270  1.00  0.00     0.134 C 
BRANCH   5   6
ATOM      6  C   UNL A   1      31.265  26.824  25.027  1.00  0.00    -0.031 A 
ATOM      7  C   UNL A   1      30.355  24.433  25.123  1.00  0.00     0.044 C 
ATOM      8  C   UNL A   1      30.308  25.862  24.670  1.00  0.00    -0.047 A 
ATOM      9  C   UNL A   1      29.214  26.266  23.887  1.00  0.00     0.004 A 
ATOM     10  C   UNL A   1      29.094  27.579  23.429  1.00  0.00     0.000 A 
ATOM     11  C   UNL A   1      31.208  28.106  24.425  1.00  0.00     0.005 A 
ATOM     12  C   UNL A   1      30.109  28.493  23.669  1.00  0.00     0.000 A 
ENDBRANCH   5   6
BRANCH   5  13
ATOM     13  C   UNL A   1      33.621  26.272  25.873  1.00  0.00     0.058 C 
BRANCH  13  14
ATOM     14  C   UNL A   1      33.957  24.947  25.167  1.00  0.00    -0.010 A 
ATOM     15  C   UNL A   1      34.156  24.907  23.764  1.00  0.00     0.045 A 
ATOM     16  C   UNL A   1      33.963  23.687  25.798  1.00  0.00     0.045 A 
ATOM     17  Cl  UNL A   1      33.807  26.264  22.741  1.00  0.00    -0.084 Cl
ATOM     18  C   UNL A   1      34.571  23.740  23.096  1.00  0.00     0.021 A 
ATOM     19  C   UNL A   1      34.384  22.519  25.132  1.00  0.00     0.021 A 
ATOM     20  Cl  UNL A   1      33.389  23.435  27.406  1.00  0.00    -0.084 Cl
ATOM     21  C   UNL A   1      34.738  22.553  23.792  1.00  0.00     0.003 A 
ENDBRANCH  13  14
ENDBRANCH   5  13
ENDBRANCH   3   5
ENDBRANCH   2   3
ENDBRANCH   1   2
BRANCH   1  22
ATOM     22  C   UNL A   1      33.852  31.027  27.608  1.00  0.00     0.275 C 
BRANCH  22  23
ATOM     23  O   UNL A   1      34.783  30.300  28.459  1.00  0.00    -0.458 OA
BRANCH  23  24
ATOM     24  C   UNL A   1      36.006  30.708  28.901  1.00  0.00     0.338 C 
ATOM     25  O   UNL A   1      36.181  31.759  29.496  1.00  0.00    -0.246 OA
BRANCH  24  26
ATOM     26  C   UNL A   1      37.116  29.758  28.732  1.00  0.00     0.060 A 
ATOM     27  C   UNL A   1      37.898  29.827  27.574  1.00  0.00     0.016 A 
ATOM     28  C   UNL A   1      37.485  28.945  29.794  1.00  0.00     0.016 A 
ATOM     29  C   UNL A   1      39.141  29.193  27.556  1.00  0.00     0.010 A 
ATOM     30  C   UNL A   1      38.774  28.456  29.831  1.00  0.00     0.010 A 
ATOM     31  C   UNL A   1      39.618  28.576  28.713  1.00  0.00    -0.014 A 
BRANCH  31  32
ATOM     32  C   UNL A   1      40.790  27.700  28.743  1.00  0.00     0.031 A 
ATOM     33  C   UNL A   1      40.841  26.252  28.456  1.00  0.00     0.074 A 
ATOM     34  C   UNL A   1      41.914  28.392  29.013  1.00  0.00     0.049 A 
ATOM     35  N   UNL A   1      41.856  25.499  28.716  1.00  0.00    -0.248 NA
ATOM     36  C   UNL A   1      39.756  25.495  27.872  1.00  0.00     0.031 C 
ATOM     37  C   UNL A   1      43.307  28.011  28.920  1.00  0.00     0.029 A 
ATOM     38  N   UNL A   1      41.932  29.627  29.661  1.00  0.00    -0.354 N 
ATOM     39  C   UNL A   1      41.653  24.254  28.150  1.00  0.00     0.074 A 
ATOM     40  C   UNL A   1      40.306  24.296  27.655  1.00  0.00     0.031 C 
ATOM     41  C   UNL A   1      44.017  28.834  29.715  1.00  0.00     0.029 A 
ATOM     42  C   UNL A   1      43.069  29.658  30.461  1.00  0.00     0.049 A 
ATOM     43  H   UNL A   1      41.264  30.343  29.568  1.00  0.00     0.167 HD
ATOM     44  C   UNL A   1      42.690  23.369  28.109  1.00  0.00     0.037 A 
ATOM     45  C   UNL A   1      42.863  29.637  31.812  1.00  0.00     0.037 A 
ATOM     46  C   UNL A   1      43.806  23.884  28.900  1.00  0.00     0.049 A 
ATOM     47  C   UNL A   1      43.338  28.345  32.450  1.00  0.00     0.074 A 
ATOM     48  C   UNL A   1      44.933  24.630  28.601  1.00  0.00     0.029 A 
ATOM     49  N   UNL A   1      43.640  23.974  30.271  1.00  0.00    -0.354 N 
ATOM     50  N   UNL A   1      43.671  27.266  31.793  1.00  0.00    -0.248 NA
ATOM     51  C   UNL A   1      43.394  28.152  33.896  1.00  0.00     0.031 C 
ATOM     52  C   UNL A   1      45.399  25.223  29.813  1.00  0.00     0.029 A 
ATOM     53  C   UNL A   1      44.580  24.804  30.848  1.00  0.00     0.049 A 
ATOM     54  H   UNL A   1      42.937  23.503  30.774  1.00  0.00     0.167 HD
ATOM     55  C   UNL A   1      44.023  26.281  32.673  1.00  0.00     0.074 A 
ATOM     56  C   UNL A   1      43.767  26.864  33.979  1.00  0.00     0.031 C 
ATOM     57  C   UNL A   1      44.503  25.064  32.278  1.00  0.00     0.037 A 
BRANCH  44  58
ATOM     58  C   UNL A   1      42.788  22.153  27.206  1.00  0.00     0.057 A 
ATOM     59  C   UNL A   1      41.941  21.045  27.423  1.00  0.00     0.134 A 
ATOM     60  C   UNL A   1      43.716  21.963  26.165  1.00  0.00     0.134 A 
ATOM     61  F   UNL A   1      40.942  21.091  28.313  1.00  0.00    -0.206 F 
ATOM     62  C   UNL A   1      42.081  19.822  26.747  1.00  0.00     0.040 A 
ATOM     63  C   UNL A   1      43.892  20.733  25.506  1.00  0.00     0.040 A 
ATOM     64  F   UNL A   1      44.461  22.965  25.690  1.00  0.00    -0.206 F 
ATOM     65  C   UNL A   1      43.084  19.649  25.808  1.00  0.00     0.006 A 
ENDBRANCH  44  58
BRANCH  45  66
ATOM     66  C   UNL A   1      41.648  30.416  32.252  1.00  0.00     0.057 A 
ATOM     67  C   UNL A   1      40.500  29.720  32.694  1.00  0.00     0.134 A 
ATOM     68  C   UNL A   1      41.667  31.791  32.511  1.00  0.00     0.134 A 
ATOM     69  F   UNL A   1      40.389  28.396  32.490  1.00  0.00    -0.206 F 
ATOM     70  C   UNL A   1      39.494  30.330  33.452  1.00  0.00     0.040 A 
ATOM     71  C   UNL A   1      40.647  32.422  33.239  1.00  0.00     0.040 A 
ATOM     72  F   UNL A   1      42.705  32.549  32.134  1.00  0.00    -0.206 F 
ATOM     73  C   UNL A   1      39.576  31.685  33.743  1.00  0.00     0.006 A 
ENDBRANCH  45  66
BRANCH  57  74
ATOM     74  C   UNL A   1      44.966  24.009  33.247  1.00  0.00     0.057 A 
ATOM     75  C   UNL A   1      46.265  23.982  33.774  1.00  0.00     0.134 A 
ATOM     76  C   UNL A   1      44.150  22.914  33.597  1.00  0.00     0.134 A 
ATOM     77  F   UNL A   1      47.179  24.897  33.421  1.00  0.00    -0.206 F 
ATOM     78  C   UNL A   1      46.691  22.993  34.667  1.00  0.00     0.040 A 
ATOM     79  C   UNL A   1      44.587  21.885  34.434  1.00  0.00     0.040 A 
ATOM     80  F   UNL A   1      42.889  22.800  33.162  1.00  0.00    -0.206 F 
ATOM     81  C   UNL A   1      45.852  21.935  34.995  1.00  0.00     0.006 A 
ENDBRANCH  57  74
ENDBRANCH  31  32
ENDBRANCH  24  26
ENDBRANCH  23  24
ENDBRANCH  22  23
ENDBRANCH   1  22
TORSDOF 14
ENDMDL
