MODEL 1
REMARK VINA RESULT:     -10.9      0.000      0.000
REMARK SMILES C[C@]1(C(=O)N2CCC(CC(=O)OCCOC(=O)c3ccc(-c4c5nc(c(-c6c(F)cccc6F)c6ccc([nH]6)c(-c6c(F)cccc6F)c6nc(c(-c7c(F)cccc7F)c7ccc4[nH]7)C=C6)C=C5)cc3)CC2)CCC[NH2+]C1
REMARK SMILES IDX 13 1 12 2 10 3 11 4 9 5 8 6 3 7 4 8 5 9 6 10 73 11 7 12
REMARK SMILES IDX 72 13 2 14 1 15 74 16 78 17 75 18 77 19 76 20 14 23 15 24
REMARK SMILES IDX 16 25 17 26 18 27 19 28 71 29 20 30 70 31 21 32 22 33 23 34
REMARK SMILES IDX 64 35 24 36 69 37 63 38 65 39 25 40 68 41 62 42 61 43 26 45
REMARK SMILES IDX 52 46 35 47 51 48 36 49 39 50 50 51 66 52 37 53 38 54 49 56
REMARK SMILES IDX 67 57 40 58 27 59 28 60 33 61 29 62 30 63 32 64 34 65 31 66
REMARK SMILES IDX 53 67 54 68 59 69 55 70 56 71 58 72 60 73 57 74 41 75 42 76
REMARK SMILES IDX 47 77 43 78 44 79 46 80 48 81 45 82
REMARK H PARENT 77 21 77 22 65 44 39 55
REMARK Flexibility Score: inf
ROOT
ATOM      1  C   UNL A   1      42.730  20.914  26.085  1.00  0.00     0.274 C 
ENDROOT
BRANCH   1   2
ATOM      2  O   UNL A   1      41.386  21.307  25.747  1.00  0.00    -0.462 OA
BRANCH   2   3
ATOM      3  C   UNL A   1      40.476  21.248  26.751  1.00  0.00     0.306 C 
ATOM      4  O   UNL A   1      40.735  21.383  27.942  1.00  0.00    -0.252 OA
BRANCH   3   5
ATOM      5  C   UNL A   1      39.085  20.925  26.259  1.00  0.00     0.126 C 
BRANCH   5   6
ATOM      6  C   UNL A   1      38.432  21.978  25.341  1.00  0.00     0.003 C 
ATOM      7  C   UNL A   1      34.628  23.720  24.931  1.00  0.00     0.234 C 
ATOM      8  O   UNL A   1      34.379  24.926  25.061  1.00  0.00    -0.274 OA
ATOM      9  N   UNL A   1      35.938  23.319  24.760  1.00  0.00    -0.342 N 
ATOM     10  C   UNL A   1      36.983  24.086  25.418  1.00  0.00     0.120 C 
ATOM     11  C   UNL A   1      36.428  22.357  23.789  1.00  0.00     0.120 C 
ATOM     12  C   UNL A   1      37.877  23.132  26.205  1.00  0.00     0.026 C 
ATOM     13  C   UNL A   1      37.341  21.333  24.459  1.00  0.00     0.026 C 
BRANCH   7  14
ATOM     14  C   UNL A   1      33.473  22.680  24.964  1.00  0.00     0.095 C 
ATOM     15  C   UNL A   1      33.032  22.426  23.513  1.00  0.00     0.028 C 
ATOM     16  C   UNL A   1      33.740  21.330  25.665  1.00  0.00     0.028 C 
ATOM     17  C   UNL A   1      32.297  23.347  25.740  1.00  0.00     0.277 C 
ATOM     18  C   UNL A   1      33.985  21.488  27.163  1.00  0.00     0.063 C 
ATOM     19  N   UNL A   1      32.573  23.504  27.176  1.00  0.00    -0.345 N 
ATOM     20  C   UNL A   1      32.835  22.230  27.834  1.00  0.00     0.260 C 
ATOM     21  H   UNL A   1      33.390  24.104  27.290  1.00  0.00     0.346 HD
ATOM     22  H   UNL A   1      31.745  23.911  27.610  1.00  0.00     0.346 HD
ENDBRANCH   7  14
ENDBRANCH   5   6
ENDBRANCH   3   5
ENDBRANCH   2   3
ENDBRANCH   1   2
BRANCH   1  23
ATOM     23  C   UNL A   1      43.761  21.866  25.478  1.00  0.00     0.275 C 
BRANCH  23  24
ATOM     24  O   UNL A   1      43.153  23.104  25.064  1.00  0.00    -0.458 OA
BRANCH  24  25
ATOM     25  C   UNL A   1      43.940  24.200  25.173  1.00  0.00     0.338 C 
ATOM     26  O   UNL A   1      44.924  24.478  24.513  1.00  0.00    -0.246 OA
BRANCH  25  27
ATOM     27  C   UNL A   1      43.373  25.103  26.184  1.00  0.00     0.060 A 
ATOM     28  C   UNL A   1      43.864  26.408  26.272  1.00  0.00     0.016 A 
ATOM     29  C   UNL A   1      42.423  24.635  27.091  1.00  0.00     0.016 A 
ATOM     30  C   UNL A   1      43.404  27.257  27.278  1.00  0.00     0.010 A 
ATOM     31  C   UNL A   1      41.961  25.488  28.097  1.00  0.00     0.010 A 
ATOM     32  C   UNL A   1      42.455  26.800  28.203  1.00  0.00    -0.014 A 
BRANCH  32  33
ATOM     33  C   UNL A   1      42.005  27.678  29.308  1.00  0.00     0.031 A 
ATOM     34  C   UNL A   1      42.726  27.656  30.624  1.00  0.00     0.074 A 
ATOM     35  C   UNL A   1      40.942  28.484  29.135  1.00  0.00     0.049 A 
ATOM     36  N   UNL A   1      42.428  28.265  31.743  1.00  0.00    -0.248 NA
ATOM     37  C   UNL A   1      43.946  26.835  30.690  1.00  0.00     0.031 C 
ATOM     38  C   UNL A   1      40.179  28.620  27.894  1.00  0.00     0.029 A 
ATOM     39  N   UNL A   1      40.315  29.334  30.011  1.00  0.00    -0.354 N 
ATOM     40  C   UNL A   1      43.410  27.892  32.651  1.00  0.00     0.074 A 
ATOM     41  C   UNL A   1      44.305  26.989  31.957  1.00  0.00     0.031 C 
ATOM     42  C   UNL A   1      39.180  29.497  28.090  1.00  0.00     0.029 A 
ATOM     43  C   UNL A   1      39.208  29.950  29.479  1.00  0.00     0.049 A 
ATOM     44  H   UNL A   1      40.626  29.487  30.932  1.00  0.00     0.167 HD
ATOM     45  C   UNL A   1      43.554  28.272  33.942  1.00  0.00     0.037 A 
ATOM     46  C   UNL A   1      38.305  30.765  30.055  1.00  0.00     0.037 A 
ATOM     47  C   UNL A   1      42.670  29.179  34.626  1.00  0.00     0.049 A 
ATOM     48  C   UNL A   1      38.453  31.124  31.507  1.00  0.00     0.074 A 
ATOM     49  C   UNL A   1      42.746  29.639  35.930  1.00  0.00     0.029 A 
ATOM     50  N   UNL A   1      41.549  29.765  34.060  1.00  0.00    -0.354 N 
ATOM     51  N   UNL A   1      39.386  30.768  32.356  1.00  0.00    -0.248 NA
ATOM     52  C   UNL A   1      37.418  31.993  32.084  1.00  0.00     0.031 C 
ATOM     53  C   UNL A   1      41.648  30.475  36.164  1.00  0.00     0.029 A 
ATOM     54  C   UNL A   1      40.911  30.566  34.994  1.00  0.00     0.049 A 
ATOM     55  H   UNL A   1      41.250  29.632  33.132  1.00  0.00     0.167 HD
ATOM     56  C   UNL A   1      39.064  31.383  33.557  1.00  0.00     0.074 A 
ATOM     57  C   UNL A   1      37.855  32.146  33.327  1.00  0.00     0.031 C 
ATOM     58  C   UNL A   1      39.711  31.322  34.747  1.00  0.00     0.037 A 
BRANCH  45  59
ATOM     59  C   UNL A   1      44.704  27.690  34.709  1.00  0.00     0.057 A 
ATOM     60  C   UNL A   1      45.932  28.353  34.817  1.00  0.00     0.134 A 
ATOM     61  C   UNL A   1      44.566  26.467  35.379  1.00  0.00     0.134 A 
ATOM     62  F   UNL A   1      46.130  29.521  34.187  1.00  0.00    -0.206 F 
ATOM     63  C   UNL A   1      46.990  27.813  35.550  1.00  0.00     0.040 A 
ATOM     64  C   UNL A   1      45.609  25.928  36.132  1.00  0.00     0.040 A 
ATOM     65  F   UNL A   1      43.413  25.784  35.319  1.00  0.00    -0.206 F 
ATOM     66  C   UNL A   1      46.828  26.599  36.215  1.00  0.00     0.006 A 
ENDBRANCH  45  59
BRANCH  46  67
ATOM     67  C   UNL A   1      37.163  31.283  29.261  1.00  0.00     0.057 A 
ATOM     68  C   UNL A   1      37.175  32.581  28.740  1.00  0.00     0.134 A 
ATOM     69  C   UNL A   1      36.032  30.496  29.016  1.00  0.00     0.134 A 
ATOM     70  F   UNL A   1      38.222  33.389  28.965  1.00  0.00    -0.206 F 
ATOM     71  C   UNL A   1      36.096  33.085  28.011  1.00  0.00     0.040 A 
ATOM     72  C   UNL A   1      34.956  30.979  28.269  1.00  0.00     0.040 A 
ATOM     73  F   UNL A   1      35.961  29.244  29.489  1.00  0.00    -0.206 F 
ATOM     74  C   UNL A   1      34.984  32.280  27.769  1.00  0.00     0.006 A 
ENDBRANCH  46  67
BRANCH  58  75
ATOM     75  C   UNL A   1      39.141  32.123  35.878  1.00  0.00     0.057 A 
ATOM     76  C   UNL A   1      39.464  33.474  36.061  1.00  0.00     0.134 A 
ATOM     77  C   UNL A   1      38.230  31.546  36.772  1.00  0.00     0.134 A 
ATOM     78  F   UNL A   1      40.341  34.079  35.245  1.00  0.00    -0.206 F 
ATOM     79  C   UNL A   1      38.913  34.218  37.104  1.00  0.00     0.040 A 
ATOM     80  C   UNL A   1      37.657  32.288  37.807  1.00  0.00     0.040 A 
ATOM     81  F   UNL A   1      37.875  30.259  36.648  1.00  0.00    -0.206 F 
ATOM     82  C   UNL A   1      38.002  33.626  37.977  1.00  0.00     0.006 A 
ENDBRANCH  58  75
ENDBRANCH  32  33
ENDBRANCH  25  27
ENDBRANCH  24  25
ENDBRANCH  23  24
ENDBRANCH   1  23
TORSDOF 13
ENDMDL
MODEL 2
REMARK VINA RESULT:     -10.9      5.165     10.123
REMARK SMILES C[C@]1(C(=O)N2CCC(CC(=O)OCCOC(=O)c3ccc(-c4c5nc(c(-c6c(F)cccc6F)c6ccc([nH]6)c(-c6c(F)cccc6F)c6nc(c(-c7c(F)cccc7F)c7ccc4[nH]7)C=C6)C=C5)cc3)CC2)CCC[NH2+]C1
REMARK SMILES IDX 13 1 12 2 10 3 11 4 9 5 8 6 3 7 4 8 5 9 6 10 73 11 7 12
REMARK SMILES IDX 72 13 2 14 1 15 74 16 78 17 75 18 77 19 76 20 14 23 15 24
REMARK SMILES IDX 16 25 17 26 18 27 19 28 71 29 20 30 70 31 21 32 22 33 23 34
REMARK SMILES IDX 64 35 24 36 69 37 63 38 65 39 25 40 68 41 62 42 61 43 26 45
REMARK SMILES IDX 52 46 35 47 51 48 36 49 39 50 50 51 66 52 37 53 38 54 49 56
REMARK SMILES IDX 67 57 40 58 27 59 28 60 33 61 29 62 30 63 32 64 34 65 31 66
REMARK SMILES IDX 53 67 54 68 59 69 55 70 56 71 58 72 60 73 57 74 41 75 42 76
REMARK SMILES IDX 47 77 43 78 44 79 46 80 48 81 45 82
REMARK H PARENT 77 21 77 22 65 44 39 55
REMARK Flexibility Score: inf
ROOT
ATOM      1  C   UNL A   1      34.333  33.667  29.800  1.00  0.00     0.274 C 
ENDROOT
BRANCH   1   2
ATOM      2  O   UNL A   1      34.130  32.427  29.095  1.00  0.00    -0.462 OA
BRANCH   2   3
ATOM      3  C   UNL A   1      34.971  32.186  28.059  1.00  0.00     0.306 C 
ATOM      4  O   UNL A   1      35.716  33.017  27.551  1.00  0.00    -0.252 OA
BRANCH   3   5
ATOM      5  C   UNL A   1      34.855  30.776  27.528  1.00  0.00     0.126 C 
BRANCH   5   6
ATOM      6  C   UNL A   1      33.430  30.190  27.477  1.00  0.00     0.003 C 
ATOM      7  C   UNL A   1      31.197  27.848  24.792  1.00  0.00     0.234 C 
ATOM      8  O   UNL A   1      30.728  26.730  25.041  1.00  0.00    -0.274 OA
ATOM      9  N   UNL A   1      31.615  28.650  25.835  1.00  0.00    -0.342 N 
ATOM     10  C   UNL A   1      32.173  28.009  27.015  1.00  0.00     0.120 C 
ATOM     11  C   UNL A   1      31.336  30.065  26.004  1.00  0.00     0.120 C 
ATOM     12  C   UNL A   1      33.517  28.653  27.341  1.00  0.00     0.026 C 
ATOM     13  C   UNL A   1      32.615  30.831  26.332  1.00  0.00     0.026 C 
BRANCH   7  14
ATOM     14  C   UNL A   1      31.313  28.331  23.319  1.00  0.00     0.095 C 
ATOM     15  C   UNL A   1      30.161  29.315  23.059  1.00  0.00     0.028 C 
ATOM     16  C   UNL A   1      32.646  28.969  22.873  1.00  0.00     0.028 C 
ATOM     17  C   UNL A   1      31.113  27.071  22.422  1.00  0.00     0.277 C 
ATOM     18  C   UNL A   1      33.808  27.981  22.910  1.00  0.00     0.063 C 
ATOM     19  N   UNL A   1      32.241  26.130  22.497  1.00  0.00    -0.345 N 
ATOM     20  C   UNL A   1      33.500  26.737  22.085  1.00  0.00     0.260 C 
ATOM     21  H   UNL A   1      32.334  25.804  23.459  1.00  0.00     0.346 HD
ATOM     22  H   UNL A   1      32.046  25.359  21.858  1.00  0.00     0.346 HD
ENDBRANCH   7  14
ENDBRANCH   5   6
ENDBRANCH   3   5
ENDBRANCH   2   3
ENDBRANCH   1   2
BRANCH   1  23
ATOM     23  C   UNL A   1      34.562  33.429  31.293  1.00  0.00     0.275 C 
BRANCH  23  24
ATOM     24  O   UNL A   1      35.047  32.097  31.545  1.00  0.00    -0.458 OA
BRANCH  24  25
ATOM     25  C   UNL A   1      36.003  31.999  32.497  1.00  0.00     0.338 C 
ATOM     26  O   UNL A   1      35.873  32.135  33.700  1.00  0.00    -0.246 OA
BRANCH  25  27
ATOM     27  C   UNL A   1      37.271  31.601  31.869  1.00  0.00     0.060 A 
ATOM     28  C   UNL A   1      37.399  31.709  30.482  1.00  0.00     0.016 A 
ATOM     29  C   UNL A   1      38.293  31.046  32.639  1.00  0.00     0.016 A 
ATOM     30  C   UNL A   1      38.559  31.258  29.855  1.00  0.00     0.010 A 
ATOM     31  C   UNL A   1      39.456  30.597  32.009  1.00  0.00     0.010 A 
ATOM     32  C   UNL A   1      39.593  30.690  30.613  1.00  0.00    -0.014 A 
BRANCH  32  33
ATOM     33  C   UNL A   1      40.804  30.157  29.947  1.00  0.00     0.031 A 
ATOM     34  C   UNL A   1      41.980  31.055  29.700  1.00  0.00     0.074 A 
ATOM     35  C   UNL A   1      40.842  28.871  29.554  1.00  0.00     0.049 A 
ATOM     36  N   UNL A   1      43.086  30.812  29.043  1.00  0.00    -0.248 NA
ATOM     37  C   UNL A   1      41.901  32.411  30.265  1.00  0.00     0.031 C 
ATOM     38  C   UNL A   1      39.777  27.891  29.766  1.00  0.00     0.029 A 
ATOM     39  N   UNL A   1      41.814  28.172  28.882  1.00  0.00    -0.354 N 
ATOM     40  C   UNL A   1      43.827  31.984  29.102  1.00  0.00     0.074 A 
ATOM     41  C   UNL A   1      43.039  32.945  29.844  1.00  0.00     0.031 C 
ATOM     42  C   UNL A   1      40.151  26.717  29.229  1.00  0.00     0.029 A 
ATOM     43  C   UNL A   1      41.460  26.876  28.599  1.00  0.00     0.049 A 
ATOM     44  H   UNL A   1      42.681  28.562  28.627  1.00  0.00     0.167 HD
ATOM     45  C   UNL A   1      45.055  32.233  28.588  1.00  0.00     0.037 A 
ATOM     46  C   UNL A   1      42.105  25.933  27.888  1.00  0.00     0.037 A 
ATOM     47  C   UNL A   1      45.842  31.272  27.861  1.00  0.00     0.049 A 
ATOM     48  C   UNL A   1      43.441  26.253  27.276  1.00  0.00     0.074 A 
ATOM     49  C   UNL A   1      47.107  31.426  27.318  1.00  0.00     0.029 A 
ATOM     50  N   UNL A   1      45.440  29.976  27.576  1.00  0.00    -0.354 N 
ATOM     51  N   UNL A   1      44.134  27.364  27.339  1.00  0.00    -0.248 NA
ATOM     52  C   UNL A   1      44.081  25.191  26.488  1.00  0.00     0.031 C 
ATOM     53  C   UNL A   1      47.453  30.234  26.671  1.00  0.00     0.029 A 
ATOM     54  C   UNL A   1      46.422  29.326  26.846  1.00  0.00     0.049 A 
ATOM     55  H   UNL A   1      44.583  29.577  27.852  1.00  0.00     0.167 HD
ATOM     56  C   UNL A   1      45.297  27.129  26.619  1.00  0.00     0.074 A 
ATOM     57  C   UNL A   1      45.223  25.765  26.137  1.00  0.00     0.031 C 
ATOM     58  C   UNL A   1      46.334  27.967  26.378  1.00  0.00     0.037 A 
BRANCH  45  59
ATOM     59  C   UNL A   1      45.616  33.610  28.777  1.00  0.00     0.057 A 
ATOM     60  C   UNL A   1      45.380  34.637  27.855  1.00  0.00     0.134 A 
ATOM     61  C   UNL A   1      46.373  33.921  29.914  1.00  0.00     0.134 A 
ATOM     62  F   UNL A   1      44.674  34.399  26.739  1.00  0.00    -0.206 F 
ATOM     63  C   UNL A   1      45.891  35.922  28.049  1.00  0.00     0.040 A 
ATOM     64  C   UNL A   1      46.870  35.207  30.130  1.00  0.00     0.040 A 
ATOM     65  F   UNL A   1      46.632  32.983  30.838  1.00  0.00    -0.206 F 
ATOM     66  C   UNL A   1      46.634  36.211  29.193  1.00  0.00     0.006 A 
ENDBRANCH  45  59
BRANCH  46  67
ATOM     67  C   UNL A   1      41.488  24.597  27.698  1.00  0.00     0.057 A 
ATOM     68  C   UNL A   1      41.894  23.497  28.460  1.00  0.00     0.134 A 
ATOM     69  C   UNL A   1      40.487  24.388  26.742  1.00  0.00     0.134 A 
ATOM     70  F   UNL A   1      42.867  23.632  29.373  1.00  0.00    -0.206 F 
ATOM     71  C   UNL A   1      41.335  22.232  28.273  1.00  0.00     0.040 A 
ATOM     72  C   UNL A   1      39.902  23.134  26.559  1.00  0.00     0.040 A 
ATOM     73  F   UNL A   1      40.055  25.403  25.980  1.00  0.00    -0.206 F 
ATOM     74  C   UNL A   1      40.331  22.050  27.323  1.00  0.00     0.006 A 
ENDBRANCH  46  67
BRANCH  58  75
ATOM     75  C   UNL A   1      47.483  27.424  25.582  1.00  0.00     0.057 A 
ATOM     76  C   UNL A   1      48.549  26.751  26.193  1.00  0.00     0.134 A 
ATOM     77  C   UNL A   1      47.504  27.543  24.187  1.00  0.00     0.134 A 
ATOM     78  F   UNL A   1      48.592  26.617  27.527  1.00  0.00    -0.206 F 
ATOM     79  C   UNL A   1      49.604  26.230  25.443  1.00  0.00     0.040 A 
ATOM     80  C   UNL A   1      48.544  27.007  23.426  1.00  0.00     0.040 A 
ATOM     81  F   UNL A   1      46.509  28.170  23.542  1.00  0.00    -0.206 F 
ATOM     82  C   UNL A   1      49.600  26.352  24.055  1.00  0.00     0.006 A 
ENDBRANCH  58  75
ENDBRANCH  32  33
ENDBRANCH  25  27
ENDBRANCH  24  25
ENDBRANCH  23  24
ENDBRANCH   1  23
TORSDOF 13
ENDMDL
MODEL 3
REMARK VINA RESULT:     -10.9      2.859      7.992
REMARK SMILES C[C@]1(C(=O)N2CCC(CC(=O)OCCOC(=O)c3ccc(-c4c5nc(c(-c6c(F)cccc6F)c6ccc([nH]6)c(-c6c(F)cccc6F)c6nc(c(-c7c(F)cccc7F)c7ccc4[nH]7)C=C6)C=C5)cc3)CC2)CCC[NH2+]C1
REMARK SMILES IDX 13 1 12 2 10 3 11 4 9 5 8 6 3 7 4 8 5 9 6 10 73 11 7 12
REMARK SMILES IDX 72 13 2 14 1 15 74 16 78 17 75 18 77 19 76 20 14 23 15 24
REMARK SMILES IDX 16 25 17 26 18 27 19 28 71 29 20 30 70 31 21 32 22 33 23 34
REMARK SMILES IDX 64 35 24 36 69 37 63 38 65 39 25 40 68 41 62 42 61 43 26 45
REMARK SMILES IDX 52 46 35 47 51 48 36 49 39 50 50 51 66 52 37 53 38 54 49 56
REMARK SMILES IDX 67 57 40 58 27 59 28 60 33 61 29 62 30 63 32 64 34 65 31 66
REMARK SMILES IDX 53 67 54 68 59 69 55 70 56 71 58 72 60 73 57 74 41 75 42 76
REMARK SMILES IDX 47 77 43 78 44 79 46 80 48 81 45 82
REMARK H PARENT 77 21 77 22 65 44 39 55
REMARK Flexibility Score: inf
ROOT
ATOM      1  C   UNL A   1      31.472  28.746  25.324  1.00  0.00     0.274 C 
ENDROOT
BRANCH   1   2
ATOM      2  O   UNL A   1      30.822  29.096  24.088  1.00  0.00    -0.462 OA
BRANCH   2   3
ATOM      3  C   UNL A   1      30.556  28.070  23.241  1.00  0.00     0.306 C 
ATOM      4  O   UNL A   1      30.272  28.194  22.055  1.00  0.00    -0.252 OA
BRANCH   3   5
ATOM      5  C   UNL A   1      30.580  26.726  23.929  1.00  0.00     0.126 C 
BRANCH   5   6
ATOM      6  C   UNL A   1      31.160  25.557  23.106  1.00  0.00     0.003 C 
ATOM      7  C   UNL A   1      33.549  22.184  23.875  1.00  0.00     0.234 C 
ATOM      8  O   UNL A   1      33.200  21.009  23.702  1.00  0.00    -0.274 OA
ATOM      9  N   UNL A   1      32.820  23.196  23.285  1.00  0.00    -0.342 N 
ATOM     10  C   UNL A   1      31.387  23.009  23.125  1.00  0.00     0.120 C 
ATOM     11  C   UNL A   1      33.352  24.342  22.569  1.00  0.00     0.120 C 
ATOM     12  C   UNL A   1      30.660  24.221  23.699  1.00  0.00     0.026 C 
ATOM     13  C   UNL A   1      32.702  25.633  23.060  1.00  0.00     0.026 C 
BRANCH   7  14
ATOM     14  C   UNL A   1      34.794  22.504  24.750  1.00  0.00     0.095 C 
ATOM     15  C   UNL A   1      35.968  22.795  23.802  1.00  0.00     0.028 C 
ATOM     16  C   UNL A   1      34.672  23.644  25.785  1.00  0.00     0.028 C 
ATOM     17  C   UNL A   1      35.108  21.211  25.563  1.00  0.00     0.277 C 
ATOM     18  C   UNL A   1      33.661  23.330  26.884  1.00  0.00     0.063 C 
ATOM     19  N   UNL A   1      34.104  20.927  26.599  1.00  0.00    -0.345 N 
ATOM     20  C   UNL A   1      33.984  22.008  27.569  1.00  0.00     0.260 C 
ATOM     21  H   UNL A   1      33.199  20.788  26.150  1.00  0.00     0.346 HD
ATOM     22  H   UNL A   1      34.404  20.092  27.102  1.00  0.00     0.346 HD
ENDBRANCH   7  14
ENDBRANCH   5   6
ENDBRANCH   3   5
ENDBRANCH   2   3
ENDBRANCH   1   2
BRANCH   1  23
ATOM     23  C   UNL A   1      31.654  29.967  26.226  1.00  0.00     0.275 C 
BRANCH  23  24
ATOM     24  O   UNL A   1      32.967  30.540  26.077  1.00  0.00    -0.458 OA
BRANCH  24  25
ATOM     25  C   UNL A   1      33.278  31.513  26.963  1.00  0.00     0.338 C 
ATOM     26  O   UNL A   1      32.619  32.496  27.251  1.00  0.00    -0.246 OA
BRANCH  25  27
ATOM     27  C   UNL A   1      34.539  31.171  27.634  1.00  0.00     0.060 A 
ATOM     28  C   UNL A   1      34.757  29.846  28.024  1.00  0.00     0.016 A 
ATOM     29  C   UNL A   1      35.462  32.168  27.950  1.00  0.00     0.016 A 
ATOM     30  C   UNL A   1      35.907  29.513  28.738  1.00  0.00     0.010 A 
ATOM     31  C   UNL A   1      36.615  31.831  28.662  1.00  0.00     0.010 A 
ATOM     32  C   UNL A   1      36.840  30.504  29.070  1.00  0.00    -0.014 A 
BRANCH  32  33
ATOM     33  C   UNL A   1      38.036  30.167  29.878  1.00  0.00     0.031 A 
ATOM     34  C   UNL A   1      39.079  29.242  29.322  1.00  0.00     0.074 A 
ATOM     35  C   UNL A   1      38.179  30.682  31.112  1.00  0.00     0.049 A 
ATOM     36  N   UNL A   1      40.138  28.742  29.905  1.00  0.00    -0.248 NA
ATOM     37  C   UNL A   1      38.903  28.819  27.924  1.00  0.00     0.031 C 
ATOM     38  C   UNL A   1      37.253  31.618  31.750  1.00  0.00     0.029 A 
ATOM     39  N   UNL A   1      39.156  30.480  32.055  1.00  0.00    -0.354 N 
ATOM     40  C   UNL A   1      40.749  27.936  28.954  1.00  0.00     0.074 A 
ATOM     41  C   UNL A   1      39.931  27.998  27.760  1.00  0.00     0.031 C 
ATOM     42  C   UNL A   1      37.702  31.904  32.983  1.00  0.00     0.029 A 
ATOM     43  C   UNL A   1      38.921  31.140  33.236  1.00  0.00     0.049 A 
ATOM     44  H   UNL A   1      39.947  29.915  31.901  1.00  0.00     0.167 HD
ATOM     45  C   UNL A   1      41.888  27.214  29.065  1.00  0.00     0.037 A 
ATOM     46  C   UNL A   1      39.598  31.110  34.399  1.00  0.00     0.037 A 
ATOM     47  C   UNL A   1      42.706  27.163  30.249  1.00  0.00     0.049 A 
ATOM     48  C   UNL A   1      40.827  30.253  34.517  1.00  0.00     0.074 A 
ATOM     49  C   UNL A   1      43.890  26.473  30.450  1.00  0.00     0.029 A 
ATOM     50  N   UNL A   1      42.424  27.828  31.432  1.00  0.00    -0.354 N 
ATOM     51  N   UNL A   1      41.397  29.496  33.611  1.00  0.00    -0.248 NA
ATOM     52  C   UNL A   1      41.505  30.240  35.821  1.00  0.00     0.031 C 
ATOM     53  C   UNL A   1      44.305  26.693  31.769  1.00  0.00     0.029 A 
ATOM     54  C   UNL A   1      43.400  27.549  32.375  1.00  0.00     0.049 A 
ATOM     55  H   UNL A   1      41.646  28.412  31.580  1.00  0.00     0.167 HD
ATOM     56  C   UNL A   1      42.508  28.934  34.227  1.00  0.00     0.074 A 
ATOM     57  C   UNL A   1      42.540  29.446  35.581  1.00  0.00     0.031 C 
ATOM     58  C   UNL A   1      43.419  28.071  33.717  1.00  0.00     0.037 A 
BRANCH  45  59
ATOM     59  C   UNL A   1      42.310  26.401  27.877  1.00  0.00     0.057 A 
ATOM     60  C   UNL A   1      41.907  25.071  27.712  1.00  0.00     0.134 A 
ATOM     61  C   UNL A   1      43.100  26.970  26.870  1.00  0.00     0.134 A 
ATOM     62  F   UNL A   1      41.160  24.466  28.648  1.00  0.00    -0.206 F 
ATOM     63  C   UNL A   1      42.288  24.328  26.593  1.00  0.00     0.040 A 
ATOM     64  C   UNL A   1      43.470  26.244  25.737  1.00  0.00     0.040 A 
ATOM     65  F   UNL A   1      43.517  28.241  26.966  1.00  0.00    -0.206 F 
ATOM     66  C   UNL A   1      43.068  24.917  25.599  1.00  0.00     0.006 A 
ENDBRANCH  45  59
BRANCH  46  67
ATOM     67  C   UNL A   1      39.116  31.903  35.557  1.00  0.00     0.057 A 
ATOM     68  C   UNL A   1      38.252  31.345  36.506  1.00  0.00     0.134 A 
ATOM     69  C   UNL A   1      39.500  33.237  35.736  1.00  0.00     0.134 A 
ATOM     70  F   UNL A   1      37.831  30.079  36.373  1.00  0.00    -0.206 F 
ATOM     71  C   UNL A   1      37.776  32.090  37.586  1.00  0.00     0.040 A 
ATOM     72  C   UNL A   1      39.052  33.986  36.824  1.00  0.00     0.040 A 
ATOM     73  F   UNL A   1      40.327  33.827  34.860  1.00  0.00    -0.206 F 
ATOM     74  C   UNL A   1      38.181  33.414  37.750  1.00  0.00     0.006 A 
ENDBRANCH  46  67
BRANCH  58  75
ATOM     75  C   UNL A   1      44.542  27.650  34.617  1.00  0.00     0.057 A 
ATOM     76  C   UNL A   1      44.460  26.496  35.406  1.00  0.00     0.134 A 
ATOM     77  C   UNL A   1      45.732  28.387  34.666  1.00  0.00     0.134 A 
ATOM     78  F   UNL A   1      43.342  25.755  35.412  1.00  0.00    -0.206 F 
ATOM     79  C   UNL A   1      45.518  26.099  36.225  1.00  0.00     0.040 A 
ATOM     80  C   UNL A   1      46.804  27.988  35.465  1.00  0.00     0.040 A 
ATOM     81  F   UNL A   1      45.875  29.499  33.929  1.00  0.00    -0.206 F 
ATOM     82  C   UNL A   1      46.696  26.843  36.251  1.00  0.00     0.006 A 
ENDBRANCH  58  75
ENDBRANCH  32  33
ENDBRANCH  25  27
ENDBRANCH  24  25
ENDBRANCH  23  24
ENDBRANCH   1  23
TORSDOF 13
ENDMDL
