MODEL 1
REMARK VINA RESULT:     -12.0      0.000      0.000
REMARK SMILES Cc1ccc(Nc2c(F)cccc2I)c(CC(=O)OCCOC(=O)c2ccc(-c3c4nc(c(-c5c(F)cccc5F)c5ccc([nH]5)c(-c5c(F)cccc5F)c5nc(c(-c6c(F)cccc6F)c6ccc3[nH]6)C=C5)C=C4)cc2)c1
REMARK SMILES IDX 20 1 19 2 17 3 18 4 16 5 15 6 1 7 2 8 3 9 79 10 4 11 5 12
REMARK SMILES IDX 6 13 7 15 8 16 13 17 9 18 10 19 12 20 14 21 11 22 21 23
REMARK SMILES IDX 22 24 23 25 24 26 25 27 26 28 78 29 27 30 77 31 28 32 29 33
REMARK SMILES IDX 30 34 71 35 31 36 76 37 70 38 72 39 32 40 75 41 69 42 68 43
REMARK SMILES IDX 33 45 59 46 42 47 58 48 43 49 46 50 57 51 73 52 44 53 45 54
REMARK SMILES IDX 56 56 74 57 47 58 34 59 35 60 40 61 36 62 37 63 39 64 41 65
REMARK SMILES IDX 38 66 60 67 61 68 66 69 62 70 63 71 65 72 67 73 64 74 48 75
REMARK SMILES IDX 49 76 54 77 50 78 51 79 53 80 55 81 52 82
REMARK H PARENT 6 14 72 44 46 55
REMARK Flexibility Score: inf
ROOT
ATOM      1  C   UNL A   1      37.147  22.670  25.690  1.00  0.00     0.274 C 
ENDROOT
BRANCH   1   2
ATOM      2  O   UNL A   1      36.945  22.745  24.288  1.00  0.00    -0.462 OA
BRANCH   2   3
ATOM      3  C   UNL A   1      35.664  22.803  23.830  1.00  0.00     0.310 C 
ATOM      4  O   UNL A   1      35.322  23.111  22.715  1.00  0.00    -0.252 OA
BRANCH   3   5
ATOM      5  C   UNL A   1      34.741  22.421  24.970  1.00  0.00     0.160 C 
BRANCH   5   6
ATOM      6  C   UNL A   1      33.928  21.224  24.560  1.00  0.00    -0.013 A 
ATOM      7  C   UNL A   1      34.729  17.514  24.495  1.00  0.00     0.044 C 
ATOM      8  C   UNL A   1      33.997  18.807  24.312  1.00  0.00    -0.051 A 
ATOM      9  C   UNL A   1      32.825  18.876  23.558  1.00  0.00     0.005 A 
ATOM     10  C   UNL A   1      34.522  19.980  24.837  1.00  0.00     0.009 A 
ATOM     11  C   UNL A   1      32.202  20.105  23.311  1.00  0.00     0.026 A 
ATOM     12  C   UNL A   1      32.750  21.304  23.777  1.00  0.00     0.042 A 
BRANCH  12  13
ATOM     13  N   UNL A   1      32.202  22.532  23.352  1.00  0.00    -0.352 N 
ATOM     14  H   UNL A   1      32.155  22.648  22.375  1.00  0.00     0.167 HD
BRANCH  13  15
ATOM     15  C   UNL A   1      31.710  23.629  24.109  1.00  0.00     0.088 A 
ATOM     16  C   UNL A   1      31.022  23.395  25.307  1.00  0.00     0.147 A 
ATOM     17  C   UNL A   1      32.131  24.951  23.870  1.00  0.00     0.040 A 
ATOM     18  F   UNL A   1      30.571  22.163  25.593  1.00  0.00    -0.205 F 
ATOM     19  C   UNL A   1      30.800  24.408  26.243  1.00  0.00     0.041 A 
ATOM     20  C   UNL A   1      32.003  25.950  24.848  1.00  0.00     0.017 A 
ATOM     21  I   UNL A   1      32.649  25.625  21.956  1.00  0.00    -0.042 I 
ATOM     22  C   UNL A   1      31.336  25.675  26.037  1.00  0.00     0.004 A 
ENDBRANCH  13  15
ENDBRANCH  12  13
ENDBRANCH   5   6
ENDBRANCH   3   5
ENDBRANCH   2   3
ENDBRANCH   1   2
BRANCH   1  23
ATOM     23  C   UNL A   1      37.863  23.948  26.152  1.00  0.00     0.275 C 
BRANCH  23  24
ATOM     24  O   UNL A   1      38.938  23.811  27.166  1.00  0.00    -0.458 OA
BRANCH  24  25
ATOM     25  C   UNL A   1      40.175  24.385  27.244  1.00  0.00     0.338 C 
ATOM     26  O   UNL A   1      41.202  23.799  26.932  1.00  0.00    -0.246 OA
BRANCH  25  27
ATOM     27  C   UNL A   1      40.227  25.793  27.647  1.00  0.00     0.060 A 
ATOM     28  C   UNL A   1      40.439  26.844  26.736  1.00  0.00     0.016 A 
ATOM     29  C   UNL A   1      39.876  26.048  28.950  1.00  0.00     0.016 A 
ATOM     30  C   UNL A   1      40.145  28.146  27.136  1.00  0.00     0.010 A 
ATOM     31  C   UNL A   1      39.256  27.226  29.209  1.00  0.00     0.010 A 
ATOM     32  C   UNL A   1      39.517  28.310  28.369  1.00  0.00    -0.014 A 
BRANCH  32  33
ATOM     33  C   UNL A   1      39.394  29.558  29.100  1.00  0.00     0.031 A 
ATOM     34  C   UNL A   1      38.327  30.516  28.823  1.00  0.00     0.074 A 
ATOM     35  C   UNL A   1      40.279  29.643  30.122  1.00  0.00     0.049 A 
ATOM     36  N   UNL A   1      38.505  31.790  28.784  1.00  0.00    -0.248 NA
ATOM     37  C   UNL A   1      36.948  30.115  28.549  1.00  0.00     0.031 C 
ATOM     38  C   UNL A   1      40.379  30.543  31.247  1.00  0.00     0.029 A 
ATOM     39  N   UNL A   1      41.410  28.819  30.263  1.00  0.00    -0.354 N 
ATOM     40  C   UNL A   1      37.249  32.349  28.875  1.00  0.00     0.074 A 
ATOM     41  C   UNL A   1      36.322  31.299  28.522  1.00  0.00     0.031 C 
ATOM     42  C   UNL A   1      41.627  30.445  31.757  1.00  0.00     0.029 A 
ATOM     43  C   UNL A   1      42.400  29.536  30.914  1.00  0.00     0.049 A 
ATOM     44  H   UNL A   1      41.485  27.889  29.952  1.00  0.00     0.167 HD
ATOM     45  C   UNL A   1      37.085  33.533  29.530  1.00  0.00     0.037 A 
ATOM     46  C   UNL A   1      43.515  29.813  30.180  1.00  0.00     0.037 A 
ATOM     47  C   UNL A   1      38.341  33.924  30.166  1.00  0.00     0.049 A 
ATOM     48  C   UNL A   1      43.530  31.276  29.822  1.00  0.00     0.074 A 
ATOM     49  C   UNL A   1      38.802  33.718  31.457  1.00  0.00     0.029 A 
ATOM     50  N   UNL A   1      39.462  34.202  29.391  1.00  0.00    -0.354 N 
ATOM     51  N   UNL A   1      42.459  32.021  29.767  1.00  0.00    -0.248 NA
ATOM     52  C   UNL A   1      44.754  32.026  29.573  1.00  0.00     0.031 C 
ATOM     53  C   UNL A   1      40.214  33.815  31.444  1.00  0.00     0.029 A 
ATOM     54  C   UNL A   1      40.615  34.075  30.146  1.00  0.00     0.049 A 
ATOM     55  H   UNL A   1      39.438  34.454  28.440  1.00  0.00     0.167 HD
ATOM     56  C   UNL A   1      42.822  33.322  29.567  1.00  0.00     0.074 A 
ATOM     57  C   UNL A   1      44.268  33.272  29.434  1.00  0.00     0.031 C 
ATOM     58  C   UNL A   1      41.919  34.345  29.561  1.00  0.00     0.037 A 
BRANCH  45  59
ATOM     59  C   UNL A   1      35.733  34.087  29.908  1.00  0.00     0.057 A 
ATOM     60  C   UNL A   1      34.840  34.592  28.943  1.00  0.00     0.134 A 
ATOM     61  C   UNL A   1      35.253  34.124  31.230  1.00  0.00     0.134 A 
ATOM     62  F   UNL A   1      35.125  34.574  27.636  1.00  0.00    -0.206 F 
ATOM     63  C   UNL A   1      33.599  35.152  29.270  1.00  0.00     0.040 A 
ATOM     64  C   UNL A   1      34.021  34.705  31.574  1.00  0.00     0.040 A 
ATOM     65  F   UNL A   1      35.953  33.577  32.235  1.00  0.00    -0.206 F 
ATOM     66  C   UNL A   1      33.191  35.228  30.591  1.00  0.00     0.006 A 
ENDBRANCH  45  59
BRANCH  46  67
ATOM     67  C   UNL A   1      43.937  28.670  29.293  1.00  0.00     0.057 A 
ATOM     68  C   UNL A   1      44.365  27.471  29.907  1.00  0.00     0.134 A 
ATOM     69  C   UNL A   1      43.626  28.582  27.931  1.00  0.00     0.134 A 
ATOM     70  F   UNL A   1      44.678  27.461  31.213  1.00  0.00    -0.206 F 
ATOM     71  C   UNL A   1      44.385  26.240  29.237  1.00  0.00     0.040 A 
ATOM     72  C   UNL A   1      43.662  27.354  27.243  1.00  0.00     0.040 A 
ATOM     73  F   UNL A   1      43.200  29.658  27.255  1.00  0.00    -0.206 F 
ATOM     74  C   UNL A   1      44.007  26.175  27.903  1.00  0.00     0.006 A 
ENDBRANCH  46  67
BRANCH  58  75
ATOM     75  C   UNL A   1      42.202  35.747  29.104  1.00  0.00     0.057 A 
ATOM     76  C   UNL A   1      43.031  36.634  29.800  1.00  0.00     0.134 A 
ATOM     77  C   UNL A   1      41.776  36.184  27.829  1.00  0.00     0.134 A 
ATOM     78  F   UNL A   1      43.599  36.297  30.966  1.00  0.00    -0.206 F 
ATOM     79  C   UNL A   1      43.363  37.893  29.294  1.00  0.00     0.040 A 
ATOM     80  C   UNL A   1      42.159  37.408  27.285  1.00  0.00     0.040 A 
ATOM     81  F   UNL A   1      40.994  35.430  27.043  1.00  0.00    -0.206 F 
ATOM     82  C   UNL A   1      42.941  38.277  28.027  1.00  0.00     0.006 A 
ENDBRANCH  58  75
ENDBRANCH  32  33
ENDBRANCH  25  27
ENDBRANCH  24  25
ENDBRANCH  23  24
ENDBRANCH   1  23
TORSDOF 14
ENDMDL
MODEL 2
REMARK VINA RESULT:     -11.9      4.023      9.565
REMARK SMILES Cc1ccc(Nc2c(F)cccc2I)c(CC(=O)OCCOC(=O)c2ccc(-c3c4nc(c(-c5c(F)cccc5F)c5ccc([nH]5)c(-c5c(F)cccc5F)c5nc(c(-c6c(F)cccc6F)c6ccc3[nH]6)C=C5)C=C4)cc2)c1
REMARK SMILES IDX 20 1 19 2 17 3 18 4 16 5 15 6 1 7 2 8 3 9 79 10 4 11 5 12
REMARK SMILES IDX 6 13 7 15 8 16 13 17 9 18 10 19 12 20 14 21 11 22 21 23
REMARK SMILES IDX 22 24 23 25 24 26 25 27 26 28 78 29 27 30 77 31 28 32 29 33
REMARK SMILES IDX 30 34 71 35 31 36 76 37 70 38 72 39 32 40 75 41 69 42 68 43
REMARK SMILES IDX 33 45 59 46 42 47 58 48 43 49 46 50 57 51 73 52 44 53 45 54
REMARK SMILES IDX 56 56 74 57 47 58 34 59 35 60 40 61 36 62 37 63 39 64 41 65
REMARK SMILES IDX 38 66 60 67 61 68 66 69 62 70 63 71 65 72 67 73 64 74 48 75
REMARK SMILES IDX 49 76 54 77 50 78 51 79 53 80 55 81 52 82
REMARK H PARENT 6 14 72 44 46 55
REMARK Flexibility Score: inf
ROOT
ATOM      1  C   UNL A   1      33.286  30.524  27.326  1.00  0.00     0.274 C 
ENDROOT
BRANCH   1   2
ATOM      2  O   UNL A   1      32.641  30.389  26.071  1.00  0.00    -0.462 OA
BRANCH   2   3
ATOM      3  C   UNL A   1      31.980  29.226  25.815  1.00  0.00     0.310 C 
ATOM      4  O   UNL A   1      31.426  28.529  26.629  1.00  0.00    -0.252 OA
BRANCH   3   5
ATOM      5  C   UNL A   1      32.069  28.955  24.326  1.00  0.00     0.160 C 
BRANCH   5   6
ATOM      6  C   UNL A   1      30.699  28.606  23.810  1.00  0.00    -0.013 A 
ATOM      7  C   UNL A   1      27.718  30.758  22.868  1.00  0.00     0.044 C 
ATOM      8  C   UNL A   1      28.564  29.553  23.140  1.00  0.00    -0.051 A 
ATOM      9  C   UNL A   1      28.007  28.275  23.194  1.00  0.00     0.005 A 
ATOM     10  C   UNL A   1      29.916  29.704  23.415  1.00  0.00     0.009 A 
ATOM     11  C   UNL A   1      28.788  27.167  23.546  1.00  0.00     0.026 A 
ATOM     12  C   UNL A   1      30.136  27.308  23.889  1.00  0.00     0.042 A 
BRANCH  12  13
ATOM     13  N   UNL A   1      30.840  26.205  24.418  1.00  0.00    -0.352 N 
ATOM     14  H   UNL A   1      30.880  26.174  25.401  1.00  0.00     0.167 HD
BRANCH  13  15
ATOM     15  C   UNL A   1      31.500  25.135  23.758  1.00  0.00     0.088 A 
ATOM     16  C   UNL A   1      31.956  25.303  22.443  1.00  0.00     0.147 A 
ATOM     17  C   UNL A   1      31.984  24.011  24.454  1.00  0.00     0.040 A 
ATOM     18  F   UNL A   1      31.521  26.340  21.709  1.00  0.00    -0.205 F 
ATOM     19  C   UNL A   1      32.877  24.428  21.861  1.00  0.00     0.041 A 
ATOM     20  C   UNL A   1      32.984  23.188  23.916  1.00  0.00     0.017 A 
ATOM     21  I   UNL A   1      31.031  23.269  26.165  1.00  0.00    -0.042 I 
ATOM     22  C   UNL A   1      33.431  23.399  22.616  1.00  0.00     0.004 A 
ENDBRANCH  13  15
ENDBRANCH  12  13
ENDBRANCH   5   6
ENDBRANCH   3   5
ENDBRANCH   2   3
ENDBRANCH   1   2
BRANCH   1  23
ATOM     23  C   UNL A   1      34.622  29.769  27.276  1.00  0.00     0.275 C 
BRANCH  23  24
ATOM     24  O   UNL A   1      35.809  30.421  27.882  1.00  0.00    -0.458 OA
BRANCH  24  25
ATOM     25  C   UNL A   1      36.618  30.032  28.912  1.00  0.00     0.338 C 
ATOM     26  O   UNL A   1      36.367  30.273  30.084  1.00  0.00    -0.246 OA
BRANCH  25  27
ATOM     27  C   UNL A   1      37.788  29.220  28.564  1.00  0.00     0.060 A 
ATOM     28  C   UNL A   1      38.594  29.478  27.440  1.00  0.00     0.016 A 
ATOM     29  C   UNL A   1      38.163  28.292  29.505  1.00  0.00     0.016 A 
ATOM     30  C   UNL A   1      39.852  28.884  27.368  1.00  0.00     0.010 A 
ATOM     31  C   UNL A   1      39.488  28.020  29.617  1.00  0.00     0.010 A 
ATOM     32  C   UNL A   1      40.295  28.185  28.490  1.00  0.00    -0.014 A 
BRANCH  32  33
ATOM     33  C   UNL A   1      41.413  27.260  28.527  1.00  0.00     0.031 A 
ATOM     34  C   UNL A   1      41.246  25.833  28.266  1.00  0.00     0.074 A 
ATOM     35  C   UNL A   1      42.599  27.895  28.689  1.00  0.00     0.049 A 
ATOM     36  N   UNL A   1      41.837  24.911  28.942  1.00  0.00    -0.248 NA
ATOM     37  C   UNL A   1      40.375  25.312  27.215  1.00  0.00     0.031 C 
ATOM     38  C   UNL A   1      43.965  27.451  28.544  1.00  0.00     0.029 A 
ATOM     39  N   UNL A   1      42.734  29.225  29.123  1.00  0.00    -0.354 N 
ATOM     40  C   UNL A   1      41.735  23.765  28.184  1.00  0.00     0.074 A 
ATOM     41  C   UNL A   1      40.665  24.005  27.246  1.00  0.00     0.031 C 
ATOM     42  C   UNL A   1      44.768  28.341  29.171  1.00  0.00     0.029 A 
ATOM     43  C   UNL A   1      43.927  29.345  29.817  1.00  0.00     0.049 A 
ATOM     44  H   UNL A   1      42.089  29.951  28.961  1.00  0.00     0.167 HD
ATOM     45  C   UNL A   1      42.748  22.853  28.204  1.00  0.00     0.037 A 
ATOM     46  C   UNL A   1      43.817  29.620  31.148  1.00  0.00     0.037 A 
ATOM     47  C   UNL A   1      43.874  23.381  28.970  1.00  0.00     0.049 A 
ATOM     48  C   UNL A   1      44.172  28.393  31.945  1.00  0.00     0.074 A 
ATOM     49  C   UNL A   1      45.011  24.057  28.556  1.00  0.00     0.029 A 
ATOM     50  N   UNL A   1      43.733  23.651  30.327  1.00  0.00    -0.354 N 
ATOM     51  N   UNL A   1      44.093  27.176  31.479  1.00  0.00    -0.248 NA
ATOM     52  C   UNL A   1      44.712  28.446  33.298  1.00  0.00     0.031 C 
ATOM     53  C   UNL A   1      45.521  24.784  29.658  1.00  0.00     0.029 A 
ATOM     54  C   UNL A   1      44.694  24.556  30.743  1.00  0.00     0.049 A 
ATOM     55  H   UNL A   1      43.048  23.253  30.910  1.00  0.00     0.167 HD
ATOM     56  C   UNL A   1      44.627  26.306  32.387  1.00  0.00     0.074 A 
ATOM     57  C   UNL A   1      44.983  27.147  33.518  1.00  0.00     0.031 C 
ATOM     58  C   UNL A   1      44.769  24.973  32.134  1.00  0.00     0.037 A 
BRANCH  45  59
ATOM     59  C   UNL A   1      42.850  21.711  27.222  1.00  0.00     0.057 A 
ATOM     60  C   UNL A   1      42.017  20.579  27.309  1.00  0.00     0.134 A 
ATOM     61  C   UNL A   1      43.756  21.693  26.145  1.00  0.00     0.134 A 
ATOM     62  F   UNL A   1      41.064  20.471  28.242  1.00  0.00    -0.206 F 
ATOM     63  C   UNL A   1      42.119  19.487  26.439  1.00  0.00     0.040 A 
ATOM     64  C   UNL A   1      43.886  20.593  25.281  1.00  0.00     0.040 A 
ATOM     65  F   UNL A   1      44.534  22.753  25.879  1.00  0.00    -0.206 F 
ATOM     66  C   UNL A   1      43.068  19.481  25.431  1.00  0.00     0.006 A 
ENDBRANCH  45  59
BRANCH  46  67
ATOM     67  C   UNL A   1      42.717  30.602  31.459  1.00  0.00     0.057 A 
ATOM     68  C   UNL A   1      42.899  31.951  31.078  1.00  0.00     0.134 A 
ATOM     69  C   UNL A   1      41.407  30.231  31.787  1.00  0.00     0.134 A 
ATOM     70  F   UNL A   1      44.120  32.393  30.740  1.00  0.00    -0.206 F 
ATOM     71  C   UNL A   1      41.832  32.849  30.933  1.00  0.00     0.040 A 
ATOM     72  C   UNL A   1      40.332  31.131  31.665  1.00  0.00     0.040 A 
ATOM     73  F   UNL A   1      41.124  28.973  32.151  1.00  0.00    -0.206 F 
ATOM     74  C   UNL A   1      40.537  32.431  31.203  1.00  0.00     0.006 A 
ENDBRANCH  46  67
BRANCH  58  75
ATOM     75  C   UNL A   1      45.106  23.929  33.159  1.00  0.00     0.057 A 
ATOM     76  C   UNL A   1      46.353  23.836  33.786  1.00  0.00     0.134 A 
ATOM     77  C   UNL A   1      44.098  23.083  33.677  1.00  0.00     0.134 A 
ATOM     78  F   UNL A   1      47.361  24.661  33.472  1.00  0.00    -0.206 F 
ATOM     79  C   UNL A   1      46.601  22.923  34.814  1.00  0.00     0.040 A 
ATOM     80  C   UNL A   1      44.316  22.220  34.749  1.00  0.00     0.040 A 
ATOM     81  F   UNL A   1      42.850  23.080  33.186  1.00  0.00    -0.206 F 
ATOM     82  C   UNL A   1      45.578  22.124  35.310  1.00  0.00     0.006 A 
ENDBRANCH  58  75
ENDBRANCH  32  33
ENDBRANCH  25  27
ENDBRANCH  24  25
ENDBRANCH  23  24
ENDBRANCH   1  23
TORSDOF 14
ENDMDL
MODEL 3
REMARK VINA RESULT:     -11.8      4.366      9.497
REMARK SMILES Cc1ccc(Nc2c(F)cccc2I)c(CC(=O)OCCOC(=O)c2ccc(-c3c4nc(c(-c5c(F)cccc5F)c5ccc([nH]5)c(-c5c(F)cccc5F)c5nc(c(-c6c(F)cccc6F)c6ccc3[nH]6)C=C5)C=C4)cc2)c1
REMARK SMILES IDX 20 1 19 2 17 3 18 4 16 5 15 6 1 7 2 8 3 9 79 10 4 11 5 12
REMARK SMILES IDX 6 13 7 15 8 16 13 17 9 18 10 19 12 20 14 21 11 22 21 23
REMARK SMILES IDX 22 24 23 25 24 26 25 27 26 28 78 29 27 30 77 31 28 32 29 33
REMARK SMILES IDX 30 34 71 35 31 36 76 37 70 38 72 39 32 40 75 41 69 42 68 43
REMARK SMILES IDX 33 45 59 46 42 47 58 48 43 49 46 50 57 51 73 52 44 53 45 54
REMARK SMILES IDX 56 56 74 57 47 58 34 59 35 60 40 61 36 62 37 63 39 64 41 65
REMARK SMILES IDX 38 66 60 67 61 68 66 69 62 70 63 71 65 72 67 73 64 74 48 75
REMARK SMILES IDX 49 76 54 77 50 78 51 79 53 80 55 81 52 82
REMARK H PARENT 6 14 72 44 46 55
REMARK Flexibility Score: inf
ROOT
ATOM      1  C   UNL A   1      33.788  28.903  27.275  1.00  0.00     0.274 C 
ENDROOT
BRANCH   1   2
ATOM      2  O   UNL A   1      33.484  28.551  25.936  1.00  0.00    -0.462 OA
BRANCH   2   3
ATOM      3  C   UNL A   1      32.643  29.364  25.237  1.00  0.00     0.310 C 
ATOM      4  O   UNL A   1      32.076  30.338  25.667  1.00  0.00    -0.252 OA
BRANCH   3   5
ATOM      5  C   UNL A   1      32.536  28.823  23.825  1.00  0.00     0.160 C 
BRANCH   5   6
ATOM      6  C   UNL A   1      31.255  28.045  23.695  1.00  0.00    -0.013 A 
ATOM      7  C   UNL A   1      27.708  29.114  22.871  1.00  0.00     0.044 C 
ATOM      8  C   UNL A   1      28.875  28.259  23.254  1.00  0.00    -0.051 A 
ATOM      9  C   UNL A   1      28.695  26.960  23.730  1.00  0.00     0.005 A 
ATOM     10  C   UNL A   1      30.161  28.780  23.208  1.00  0.00     0.009 A 
ATOM     11  C   UNL A   1      29.784  26.203  24.179  1.00  0.00     0.026 A 
ATOM     12  C   UNL A   1      31.077  26.733  24.200  1.00  0.00     0.042 A 
BRANCH  12  13
ATOM     13  N   UNL A   1      32.115  26.015  24.832  1.00  0.00    -0.352 N 
ATOM     14  H   UNL A   1      32.461  26.427  25.656  1.00  0.00     0.167 HD
BRANCH  13  15
ATOM     15  C   UNL A   1      32.739  24.793  24.466  1.00  0.00     0.088 A 
ATOM     16  C   UNL A   1      33.695  24.777  23.441  1.00  0.00     0.147 A 
ATOM     17  C   UNL A   1      32.665  23.644  25.277  1.00  0.00     0.040 A 
ATOM     18  F   UNL A   1      33.809  25.829  22.615  1.00  0.00    -0.205 F 
ATOM     19  C   UNL A   1      34.563  23.699  23.255  1.00  0.00     0.041 A 
ATOM     20  C   UNL A   1      33.598  22.602  25.162  1.00  0.00     0.017 A 
ATOM     21  I   UNL A   1      30.988  23.224  26.459  1.00  0.00    -0.042 I 
ATOM     22  C   UNL A   1      34.550  22.632  24.148  1.00  0.00     0.004 A 
ENDBRANCH  13  15
ENDBRANCH  12  13
ENDBRANCH   5   6
ENDBRANCH   3   5
ENDBRANCH   2   3
ENDBRANCH   1   2
BRANCH   1  23
ATOM     23  C   UNL A   1      35.271  29.294  27.355  1.00  0.00     0.275 C 
BRANCH  23  24
ATOM     24  O   UNL A   1      35.742  29.976  28.585  1.00  0.00    -0.458 OA
BRANCH  24  25
ATOM     25  C   UNL A   1      36.496  29.522  29.630  1.00  0.00     0.338 C 
ATOM     26  O   UNL A   1      36.056  29.398  30.765  1.00  0.00    -0.246 OA
BRANCH  25  27
ATOM     27  C   UNL A   1      37.865  29.097  29.323  1.00  0.00     0.060 A 
ATOM     28  C   UNL A   1      38.726  29.830  28.486  1.00  0.00     0.016 A 
ATOM     29  C   UNL A   1      38.326  28.024  30.047  1.00  0.00     0.016 A 
ATOM     30  C   UNL A   1      40.089  29.544  28.513  1.00  0.00     0.010 A 
ATOM     31  C   UNL A   1      39.649  27.998  30.345  1.00  0.00     0.010 A 
ATOM     32  C   UNL A   1      40.536  28.645  29.482  1.00  0.00    -0.014 A 
BRANCH  32  33
ATOM     33  C   UNL A   1      41.830  27.990  29.499  1.00  0.00     0.031 A 
ATOM     34  C   UNL A   1      42.091  26.768  28.742  1.00  0.00     0.074 A 
ATOM     35  C   UNL A   1      42.761  28.711  30.169  1.00  0.00     0.049 A 
ATOM     36  N   UNL A   1      42.771  25.777  29.200  1.00  0.00    -0.248 NA
ATOM     37  C   UNL A   1      41.588  26.549  27.387  1.00  0.00     0.031 C 
ATOM     38  C   UNL A   1      44.199  28.605  30.248  1.00  0.00     0.029 A 
ATOM     39  N   UNL A   1      42.465  29.772  31.043  1.00  0.00    -0.354 N 
ATOM     40  C   UNL A   1      43.108  25.013  28.104  1.00  0.00     0.074 A 
ATOM     41  C   UNL A   1      42.197  25.404  27.054  1.00  0.00     0.031 C 
ATOM     42  C   UNL A   1      44.617  29.310  31.323  1.00  0.00     0.029 A 
ATOM     43  C   UNL A   1      43.442  29.823  32.023  1.00  0.00     0.049 A 
ATOM     44  H   UNL A   1      41.694  30.378  30.970  1.00  0.00     0.167 HD
ATOM     45  C   UNL A   1      44.303  24.358  28.082  1.00  0.00     0.037 A 
ATOM     46  C   UNL A   1      43.028  29.538  33.292  1.00  0.00     0.037 A 
ATOM     47  C   UNL A   1      45.097  24.739  29.248  1.00  0.00     0.049 A 
ATOM     48  C   UNL A   1      43.542  28.182  33.696  1.00  0.00     0.074 A 
ATOM     49  C   UNL A   1      46.074  25.711  29.397  1.00  0.00     0.029 A 
ATOM     50  N   UNL A   1      44.651  24.435  30.529  1.00  0.00    -0.354 N 
ATOM     51  N   UNL A   1      43.868  27.246  32.845  1.00  0.00    -0.248 NA
ATOM     52  C   UNL A   1      43.799  27.803  35.079  1.00  0.00     0.031 C 
ATOM     53  C   UNL A   1      46.171  26.034  30.772  1.00  0.00     0.029 A 
ATOM     54  C   UNL A   1      45.252  25.264  31.460  1.00  0.00     0.049 A 
ATOM     55  H   UNL A   1      43.999  23.729  30.744  1.00  0.00     0.167 HD
ATOM     56  C   UNL A   1      44.438  26.202  33.516  1.00  0.00     0.074 A 
ATOM     57  C   UNL A   1      44.355  26.590  34.915  1.00  0.00     0.031 C 
ATOM     58  C   UNL A   1      44.966  25.117  32.879  1.00  0.00     0.037 A 
BRANCH  45  59
ATOM     59  C   UNL A   1      44.873  23.720  26.838  1.00  0.00     0.057 A 
ATOM     60  C   UNL A   1      44.394  22.490  26.347  1.00  0.00     0.134 A 
ATOM     61  C   UNL A   1      45.896  24.303  26.068  1.00  0.00     0.134 A 
ATOM     62  F   UNL A   1      43.383  21.839  26.933  1.00  0.00    -0.206 F 
ATOM     63  C   UNL A   1      44.933  21.855  25.222  1.00  0.00     0.040 A 
ATOM     64  C   UNL A   1      46.463  23.665  24.952  1.00  0.00     0.040 A 
ATOM     65  F   UNL A   1      46.370  25.524  26.359  1.00  0.00    -0.206 F 
ATOM     66  C   UNL A   1      45.984  22.432  24.528  1.00  0.00     0.006 A 
ENDBRANCH  45  59
BRANCH  46  67
ATOM     67  C   UNL A   1      41.673  30.114  33.613  1.00  0.00     0.057 A 
ATOM     68  C   UNL A   1      41.545  31.520  33.684  1.00  0.00     0.134 A 
ATOM     69  C   UNL A   1      40.475  29.396  33.518  1.00  0.00     0.134 A 
ATOM     70  F   UNL A   1      42.641  32.290  33.770  1.00  0.00    -0.206 F 
ATOM     71  C   UNL A   1      40.312  32.177  33.564  1.00  0.00     0.040 A 
ATOM     72  C   UNL A   1      39.230  30.044  33.418  1.00  0.00     0.040 A 
ATOM     73  F   UNL A   1      40.485  28.058  33.434  1.00  0.00    -0.206 F 
ATOM     74  C   UNL A   1      39.149  31.437  33.404  1.00  0.00     0.006 A 
ENDBRANCH  46  67
BRANCH  58  75
ATOM     75  C   UNL A   1      45.374  23.836  33.545  1.00  0.00     0.057 A 
ATOM     76  C   UNL A   1      46.635  23.630  34.117  1.00  0.00     0.134 A 
ATOM     77  C   UNL A   1      44.422  22.819  33.787  1.00  0.00     0.134 A 
ATOM     78  F   UNL A   1      47.592  24.566  34.064  1.00  0.00    -0.206 F 
ATOM     79  C   UNL A   1      46.947  22.467  34.826  1.00  0.00     0.040 A 
ATOM     80  C   UNL A   1      44.702  21.689  34.552  1.00  0.00     0.040 A 
ATOM     81  F   UNL A   1      43.167  22.893  33.316  1.00  0.00    -0.206 F 
ATOM     82  C   UNL A   1      45.976  21.501  35.060  1.00  0.00     0.006 A 
ENDBRANCH  58  75
ENDBRANCH  32  33
ENDBRANCH  25  27
ENDBRANCH  24  25
ENDBRANCH  23  24
ENDBRANCH   1  23
TORSDOF 14
ENDMDL
