MODEL 1
REMARK VINA RESULT:      -9.3      0.000      0.000
REMARK SMILES COc1ccc(CSc2ncccc2C(=O)OCCOC(=O)c2ccc(-c3c4nc(c(-c5c(F)cccc5F)c5ccc([nH]5)c(-c5c(F)cccc5F)c5nc(c(-c6c(F)cccc6F)c6ccc3[nH]6)C=C5)C=C4)cc2)cc1
REMARK SMILES IDX 18 1 17 2 15 3 16 4 14 5 9 6 10 7 11 8 13 9 12 10 8 11 7 12
REMARK SMILES IDX 6 13 3 14 4 15 78 16 5 17 77 18 2 19 1 20 19 21 20 22 21 23
REMARK SMILES IDX 22 24 23 25 24 26 76 27 25 28 75 29 26 30 27 31 28 32 69 33
REMARK SMILES IDX 29 34 74 35 68 36 70 37 30 38 73 39 67 40 66 41 31 43 57 44
REMARK SMILES IDX 40 45 56 46 41 47 44 48 55 49 71 50 42 51 43 52 54 54 72 55
REMARK SMILES IDX 45 56 32 57 33 58 38 59 34 60 35 61 37 62 39 63 36 64 58 65
REMARK SMILES IDX 59 66 64 67 60 68 61 69 63 70 65 71 62 72 46 73 47 74 52 75
REMARK SMILES IDX 48 76 49 77 51 78 53 79 50 80
REMARK H PARENT 70 42 44 53
REMARK Flexibility Score: inf
ROOT
ATOM      1  C   UNL A   1      34.338  34.396  28.671  1.00  0.00     0.275 C 
ENDROOT
BRANCH   1   2
ATOM      2  O   UNL A   1      34.400  34.457  30.109  1.00  0.00    -0.458 OA
BRANCH   2   3
ATOM      3  C   UNL A   1      35.036  33.444  30.741  1.00  0.00     0.341 C 
ATOM      4  O   UNL A   1      34.507  32.510  31.332  1.00  0.00    -0.246 OA
BRANCH   3   5
ATOM      5  C   UNL A   1      36.479  33.708  30.753  1.00  0.00     0.092 A 
ATOM      6  C   UNL A   1      37.209  34.242  31.813  1.00  0.00     0.111 A 
ATOM      7  N   UNL A   1      38.551  34.466  31.670  1.00  0.00    -0.249 NA
ATOM      8  C   UNL A   1      39.175  34.149  30.519  1.00  0.00     0.112 A 
ATOM      9  C   UNL A   1      37.159  33.395  29.555  1.00  0.00     0.020 A 
ATOM     10  C   UNL A   1      38.527  33.602  29.439  1.00  0.00     0.021 A 
BRANCH   6  11
ATOM     11  S   UNL A   1      36.828  34.447  33.529  1.00  0.00    -0.101 SA
BRANCH  11  12
ATOM     12  C   UNL A   1      38.332  34.587  34.542  1.00  0.00     0.112 C 
BRANCH  12  13
ATOM     13  C   UNL A   1      38.335  33.498  35.577  1.00  0.00    -0.037 A 
ATOM     14  C   UNL A   1      37.777  31.493  37.446  1.00  0.00     0.118 A 
ATOM     15  C   UNL A   1      37.832  32.827  37.848  1.00  0.00     0.047 A 
ATOM     16  C   UNL A   1      38.080  31.156  36.124  1.00  0.00     0.047 A 
ATOM     17  C   UNL A   1      38.130  33.825  36.927  1.00  0.00     0.008 A 
ATOM     18  C   UNL A   1      38.361  32.157  35.192  1.00  0.00     0.008 A 
BRANCH  14  19
ATOM     19  O   UNL A   1      37.348  30.630  38.414  1.00  0.00    -0.497 OA
ATOM     20  C   UNL A   1      36.656  31.207  39.511  1.00  0.00     0.278 C 
ENDBRANCH  14  19
ENDBRANCH  12  13
ENDBRANCH  11  12
ENDBRANCH   6  11
ENDBRANCH   3   5
ENDBRANCH   2   3
ENDBRANCH   1   2
BRANCH   1  21
ATOM     21  C   UNL A   1      33.653  33.101  28.232  1.00  0.00     0.275 C 
BRANCH  21  22
ATOM     22  O   UNL A   1      34.547  32.292  27.441  1.00  0.00    -0.458 OA
BRANCH  22  23
ATOM     23  C   UNL A   1      34.413  30.955  27.629  1.00  0.00     0.338 C 
ATOM     24  O   UNL A   1      33.501  30.246  27.242  1.00  0.00    -0.246 OA
BRANCH  23  25
ATOM     25  C   UNL A   1      35.648  30.413  28.229  1.00  0.00     0.060 A 
ATOM     26  C   UNL A   1      36.811  30.512  27.469  1.00  0.00     0.016 A 
ATOM     27  C   UNL A   1      35.687  29.804  29.485  1.00  0.00     0.016 A 
ATOM     28  C   UNL A   1      38.031  30.079  27.988  1.00  0.00     0.010 A 
ATOM     29  C   UNL A   1      36.910  29.328  29.990  1.00  0.00     0.010 A 
ATOM     30  C   UNL A   1      38.094  29.488  29.253  1.00  0.00    -0.014 A 
BRANCH  30  31
ATOM     31  C   UNL A   1      39.395  28.935  29.702  1.00  0.00     0.031 A 
ATOM     32  C   UNL A   1      40.041  29.513  30.925  1.00  0.00     0.074 A 
ATOM     33  C   UNL A   1      39.945  27.861  29.104  1.00  0.00     0.049 A 
ATOM     34  N   UNL A   1      41.177  29.199  31.492  1.00  0.00    -0.248 NA
ATOM     35  C   UNL A   1      39.298  30.586  31.603  1.00  0.00     0.031 C 
ATOM     36  C   UNL A   1      39.371  27.144  27.970  1.00  0.00     0.029 A 
ATOM     37  N   UNL A   1      41.101  27.174  29.383  1.00  0.00    -0.354 N 
ATOM     38  C   UNL A   1      41.290  30.042  32.589  1.00  0.00     0.074 A 
ATOM     39  C   UNL A   1      40.111  30.881  32.606  1.00  0.00     0.031 C 
ATOM     40  C   UNL A   1      40.165  26.104  27.659  1.00  0.00     0.029 A 
ATOM     41  C   UNL A   1      41.338  26.120  28.532  1.00  0.00     0.049 A 
ATOM     42  H   UNL A   1      41.704  27.413  30.123  1.00  0.00     0.167 HD
ATOM     43  C   UNL A   1      42.294  30.116  33.495  1.00  0.00     0.037 A 
ATOM     44  C   UNL A   1      42.397  25.290  28.444  1.00  0.00     0.037 A 
ATOM     45  C   UNL A   1      43.476  29.298  33.466  1.00  0.00     0.049 A 
ATOM     46  C   UNL A   1      43.555  25.468  29.394  1.00  0.00     0.074 A 
ATOM     47  C   UNL A   1      44.570  29.333  34.313  1.00  0.00     0.029 A 
ATOM     48  N   UNL A   1      43.724  28.299  32.535  1.00  0.00    -0.354 N 
ATOM     49  N   UNL A   1      43.681  26.300  30.400  1.00  0.00    -0.248 NA
ATOM     50  C   UNL A   1      44.729  24.606  29.182  1.00  0.00     0.031 C 
ATOM     51  C   UNL A   1      45.504  28.394  33.862  1.00  0.00     0.029 A 
ATOM     52  C   UNL A   1      44.965  27.730  32.771  1.00  0.00     0.049 A 
ATOM     53  H   UNL A   1      43.109  28.034  31.813  1.00  0.00     0.167 HD
ATOM     54  C   UNL A   1      44.932  26.049  30.951  1.00  0.00     0.074 A 
ATOM     55  C   UNL A   1      45.521  24.975  30.178  1.00  0.00     0.031 C 
ATOM     56  C   UNL A   1      45.541  26.658  31.999  1.00  0.00     0.037 A 
BRANCH  43  57
ATOM     57  C   UNL A   1      42.176  31.177  34.548  1.00  0.00     0.057 A 
ATOM     58  C   UNL A   1      42.505  32.515  34.300  1.00  0.00     0.134 A 
ATOM     59  C   UNL A   1      41.740  30.845  35.837  1.00  0.00     0.134 A 
ATOM     60  F   UNL A   1      42.953  32.893  33.093  1.00  0.00    -0.206 F 
ATOM     61  C   UNL A   1      42.434  33.481  35.305  1.00  0.00     0.040 A 
ATOM     62  C   UNL A   1      41.637  31.806  36.843  1.00  0.00     0.040 A 
ATOM     63  F   UNL A   1      41.410  29.581  36.140  1.00  0.00    -0.206 F 
ATOM     64  C   UNL A   1      41.994  33.127  36.580  1.00  0.00     0.006 A 
ENDBRANCH  43  57
BRANCH  44  65
ATOM     65  C   UNL A   1      42.454  24.253  27.378  1.00  0.00     0.057 A 
ATOM     66  C   UNL A   1      42.022  22.941  27.609  1.00  0.00     0.134 A 
ATOM     67  C   UNL A   1      42.988  24.538  26.115  1.00  0.00     0.134 A 
ATOM     68  F   UNL A   1      41.534  22.590  28.809  1.00  0.00    -0.206 F 
ATOM     69  C   UNL A   1      42.130  21.950  26.629  1.00  0.00     0.040 A 
ATOM     70  C   UNL A   1      43.073  23.567  25.116  1.00  0.00     0.040 A 
ATOM     71  F   UNL A   1      43.432  25.771  25.830  1.00  0.00    -0.206 F 
ATOM     72  C   UNL A   1      42.651  22.265  25.376  1.00  0.00     0.006 A 
ENDBRANCH  44  65
BRANCH  56  73
ATOM     73  C   UNL A   1      46.899  26.156  32.400  1.00  0.00     0.057 A 
ATOM     74  C   UNL A   1      48.076  26.658  31.828  1.00  0.00     0.134 A 
ATOM     75  C   UNL A   1      47.033  25.193  33.409  1.00  0.00     0.134 A 
ATOM     76  F   UNL A   1      48.020  27.574  30.850  1.00  0.00    -0.206 F 
ATOM     77  C   UNL A   1      49.334  26.204  32.231  1.00  0.00     0.040 A 
ATOM     78  C   UNL A   1      48.285  24.752  33.839  1.00  0.00     0.040 A 
ATOM     79  F   UNL A   1      45.948  24.676  34.006  1.00  0.00    -0.206 F 
ATOM     80  C   UNL A   1      49.441  25.255  33.246  1.00  0.00     0.006 A 
ENDBRANCH  56  73
ENDBRANCH  30  31
ENDBRANCH  23  25
ENDBRANCH  22  23
ENDBRANCH  21  22
ENDBRANCH   1  21
TORSDOF 15
ENDMDL
MODEL 2
REMARK VINA RESULT:      -9.2      4.182      9.816
REMARK SMILES COc1ccc(CSc2ncccc2C(=O)OCCOC(=O)c2ccc(-c3c4nc(c(-c5c(F)cccc5F)c5ccc([nH]5)c(-c5c(F)cccc5F)c5nc(c(-c6c(F)cccc6F)c6ccc3[nH]6)C=C5)C=C4)cc2)cc1
REMARK SMILES IDX 18 1 17 2 15 3 16 4 14 5 9 6 10 7 11 8 13 9 12 10 8 11 7 12
REMARK SMILES IDX 6 13 3 14 4 15 78 16 5 17 77 18 2 19 1 20 19 21 20 22 21 23
REMARK SMILES IDX 22 24 23 25 24 26 76 27 25 28 75 29 26 30 27 31 28 32 69 33
REMARK SMILES IDX 29 34 74 35 68 36 70 37 30 38 73 39 67 40 66 41 31 43 57 44
REMARK SMILES IDX 40 45 56 46 41 47 44 48 55 49 71 50 42 51 43 52 54 54 72 55
REMARK SMILES IDX 45 56 32 57 33 58 38 59 34 60 35 61 37 62 39 63 36 64 58 65
REMARK SMILES IDX 59 66 64 67 60 68 61 69 63 70 65 71 62 72 46 73 47 74 52 75
REMARK SMILES IDX 48 76 49 77 51 78 53 79 50 80
REMARK H PARENT 70 42 44 53
REMARK Flexibility Score: inf
ROOT
ATOM      1  C   UNL A   1      31.567  28.402  26.510  1.00  0.00     0.275 C 
ENDROOT
BRANCH   1   2
ATOM      2  O   UNL A   1      32.566  27.419  26.174  1.00  0.00    -0.458 OA
BRANCH   2   3
ATOM      3  C   UNL A   1      32.172  26.124  26.151  1.00  0.00     0.341 C 
ATOM      4  O   UNL A   1      31.334  25.606  26.879  1.00  0.00    -0.246 OA
BRANCH   3   5
ATOM      5  C   UNL A   1      33.017  25.376  25.213  1.00  0.00     0.092 A 
ATOM      6  C   UNL A   1      32.760  25.169  23.860  1.00  0.00     0.111 A 
ATOM      7  N   UNL A   1      33.624  24.420  23.110  1.00  0.00    -0.249 NA
ATOM      8  C   UNL A   1      34.736  23.902  23.667  1.00  0.00     0.112 A 
ATOM      9  C   UNL A   1      34.185  24.812  25.772  1.00  0.00     0.020 A 
ATOM     10  C   UNL A   1      35.065  24.079  24.989  1.00  0.00     0.021 A 
BRANCH   6  11
ATOM     11  S   UNL A   1      31.638  25.950  22.734  1.00  0.00    -0.101 SA
BRANCH  11  12
ATOM     12  C   UNL A   1      30.020  26.262  23.502  1.00  0.00     0.112 C 
BRANCH  12  13
ATOM     13  C   UNL A   1      29.580  27.662  23.181  1.00  0.00    -0.037 A 
ATOM     14  C   UNL A   1      28.663  30.056  22.064  1.00  0.00     0.118 A 
ATOM     15  C   UNL A   1      30.015  29.725  21.992  1.00  0.00     0.047 A 
ATOM     16  C   UNL A   1      27.784  29.227  22.765  1.00  0.00     0.047 A 
ATOM     17  C   UNL A   1      30.480  28.546  22.564  1.00  0.00     0.008 A 
ATOM     18  C   UNL A   1      28.243  28.033  23.325  1.00  0.00     0.008 A 
BRANCH  14  19
ATOM     19  O   UNL A   1      28.317  31.171  21.353  1.00  0.00    -0.497 OA
ATOM     20  C   UNL A   1      28.360  32.404  22.054  1.00  0.00     0.278 C 
ENDBRANCH  14  19
ENDBRANCH  12  13
ENDBRANCH  11  12
ENDBRANCH   6  11
ENDBRANCH   3   5
ENDBRANCH   2   3
ENDBRANCH   1   2
BRANCH   1  21
ATOM     21  C   UNL A   1      31.799  29.679  25.702  1.00  0.00     0.275 C 
BRANCH  21  22
ATOM     22  O   UNL A   1      33.141  30.170  25.897  1.00  0.00    -0.458 OA
BRANCH  22  23
ATOM     23  C   UNL A   1      33.253  31.151  26.828  1.00  0.00     0.338 C 
ATOM     24  O   UNL A   1      32.427  32.005  27.100  1.00  0.00    -0.246 OA
BRANCH  23  25
ATOM     25  C   UNL A   1      34.476  30.939  27.626  1.00  0.00     0.060 A 
ATOM     26  C   UNL A   1      34.740  29.634  28.035  1.00  0.00     0.016 A 
ATOM     27  C   UNL A   1      35.342  31.972  27.993  1.00  0.00     0.016 A 
ATOM     28  C   UNL A   1      35.907  29.338  28.740  1.00  0.00     0.010 A 
ATOM     29  C   UNL A   1      36.495  31.679  28.743  1.00  0.00     0.010 A 
ATOM     30  C   UNL A   1      36.797  30.355  29.097  1.00  0.00    -0.014 A 
BRANCH  30  31
ATOM     31  C   UNL A   1      37.955  30.001  29.953  1.00  0.00     0.031 A 
ATOM     32  C   UNL A   1      39.039  29.138  29.379  1.00  0.00     0.074 A 
ATOM     33  C   UNL A   1      38.104  30.526  31.184  1.00  0.00     0.049 A 
ATOM     34  N   UNL A   1      40.132  28.693  29.942  1.00  0.00    -0.248 NA
ATOM     35  C   UNL A   1      38.866  28.731  27.977  1.00  0.00     0.031 C 
ATOM     36  C   UNL A   1      37.176  31.455  31.820  1.00  0.00     0.029 A 
ATOM     37  N   UNL A   1      39.106  30.368  32.110  1.00  0.00    -0.354 N 
ATOM     38  C   UNL A   1      40.774  27.945  28.966  1.00  0.00     0.074 A 
ATOM     39  C   UNL A   1      39.948  27.994  27.778  1.00  0.00     0.031 C 
ATOM     40  C   UNL A   1      37.659  31.802  33.027  1.00  0.00     0.029 A 
ATOM     41  C   UNL A   1      38.900  31.069  33.274  1.00  0.00     0.049 A 
ATOM     42  H   UNL A   1      39.899  29.805  31.955  1.00  0.00     0.167 HD
ATOM     43  C   UNL A   1      41.944  27.269  29.055  1.00  0.00     0.037 A 
ATOM     44  C   UNL A   1      39.609  31.087  34.421  1.00  0.00     0.037 A 
ATOM     45  C   UNL A   1      42.754  27.202  30.242  1.00  0.00     0.049 A 
ATOM     46  C   UNL A   1      40.849  30.234  34.535  1.00  0.00     0.074 A 
ATOM     47  C   UNL A   1      43.931  26.502  30.443  1.00  0.00     0.029 A 
ATOM     48  N   UNL A   1      42.468  27.853  31.432  1.00  0.00    -0.354 N 
ATOM     49  N   UNL A   1      41.427  29.487  33.625  1.00  0.00    -0.248 NA
ATOM     50  C   UNL A   1      41.522  30.209  35.843  1.00  0.00     0.031 C 
ATOM     51  C   UNL A   1      44.328  26.686  31.772  1.00  0.00     0.029 A 
ATOM     52  C   UNL A   1      43.432  27.550  32.381  1.00  0.00     0.049 A 
ATOM     53  H   UNL A   1      41.694  28.444  31.582  1.00  0.00     0.167 HD
ATOM     54  C   UNL A   1      42.537  28.922  34.241  1.00  0.00     0.074 A 
ATOM     55  C   UNL A   1      42.562  29.425  35.598  1.00  0.00     0.031 C 
ATOM     56  C   UNL A   1      43.451  28.060  33.729  1.00  0.00     0.037 A 
BRANCH  43  57
ATOM     57  C   UNL A   1      42.367  26.488  27.847  1.00  0.00     0.057 A 
ATOM     58  C   UNL A   1      41.979  25.158  27.645  1.00  0.00     0.134 A 
ATOM     59  C   UNL A   1      43.191  27.077  26.881  1.00  0.00     0.134 A 
ATOM     60  F   UNL A   1      41.210  24.528  28.546  1.00  0.00    -0.206 F 
ATOM     61  C   UNL A   1      42.421  24.431  26.537  1.00  0.00     0.040 A 
ATOM     62  C   UNL A   1      43.616  26.371  25.755  1.00  0.00     0.040 A 
ATOM     63  F   UNL A   1      43.600  28.348  27.016  1.00  0.00    -0.206 F 
ATOM     64  C   UNL A   1      43.238  25.040  25.586  1.00  0.00     0.006 A 
ENDBRANCH  43  57
BRANCH  44  65
ATOM     65  C   UNL A   1      39.140  31.886  35.585  1.00  0.00     0.057 A 
ATOM     66  C   UNL A   1      38.271  31.348  36.542  1.00  0.00     0.134 A 
ATOM     67  C   UNL A   1      39.513  33.227  35.742  1.00  0.00     0.134 A 
ATOM     68  F   UNL A   1      37.845  30.080  36.431  1.00  0.00    -0.206 F 
ATOM     69  C   UNL A   1      37.782  32.115  37.603  1.00  0.00     0.040 A 
ATOM     70  C   UNL A   1      39.057  33.997  36.814  1.00  0.00     0.040 A 
ATOM     71  F   UNL A   1      40.333  33.811  34.855  1.00  0.00    -0.206 F 
ATOM     72  C   UNL A   1      38.181  33.442  37.743  1.00  0.00     0.006 A 
ENDBRANCH  44  65
BRANCH  56  73
ATOM     73  C   UNL A   1      44.578  27.630  34.625  1.00  0.00     0.057 A 
ATOM     74  C   UNL A   1      45.770  28.361  34.722  1.00  0.00     0.134 A 
ATOM     75  C   UNL A   1      44.449  26.498  35.439  1.00  0.00     0.134 A 
ATOM     76  F   UNL A   1      45.964  29.450  33.962  1.00  0.00    -0.206 F 
ATOM     77  C   UNL A   1      46.799  27.968  35.580  1.00  0.00     0.040 A 
ATOM     78  C   UNL A   1      45.459  26.111  36.321  1.00  0.00     0.040 A 
ATOM     79  F   UNL A   1      43.330  25.757  35.405  1.00  0.00    -0.206 F 
ATOM     80  C   UNL A   1      46.641  26.844  36.389  1.00  0.00     0.006 A 
ENDBRANCH  56  73
ENDBRANCH  30  31
ENDBRANCH  23  25
ENDBRANCH  22  23
ENDBRANCH  21  22
ENDBRANCH   1  21
TORSDOF 15
ENDMDL
MODEL 3
REMARK VINA RESULT:      -9.2      6.267     11.721
REMARK SMILES COc1ccc(CSc2ncccc2C(=O)OCCOC(=O)c2ccc(-c3c4nc(c(-c5c(F)cccc5F)c5ccc([nH]5)c(-c5c(F)cccc5F)c5nc(c(-c6c(F)cccc6F)c6ccc3[nH]6)C=C5)C=C4)cc2)cc1
REMARK SMILES IDX 18 1 17 2 15 3 16 4 14 5 9 6 10 7 11 8 13 9 12 10 8 11 7 12
REMARK SMILES IDX 6 13 3 14 4 15 78 16 5 17 77 18 2 19 1 20 19 21 20 22 21 23
REMARK SMILES IDX 22 24 23 25 24 26 76 27 25 28 75 29 26 30 27 31 28 32 69 33
REMARK SMILES IDX 29 34 74 35 68 36 70 37 30 38 73 39 67 40 66 41 31 43 57 44
REMARK SMILES IDX 40 45 56 46 41 47 44 48 55 49 71 50 42 51 43 52 54 54 72 55
REMARK SMILES IDX 45 56 32 57 33 58 38 59 34 60 35 61 37 62 39 63 36 64 58 65
REMARK SMILES IDX 59 66 64 67 60 68 61 69 63 70 65 71 62 72 46 73 47 74 52 75
REMARK SMILES IDX 48 76 49 77 51 78 53 79 50 80
REMARK H PARENT 70 42 44 53
REMARK Flexibility Score: inf
ROOT
ATOM      1  C   UNL A   1      38.358  20.176  25.103  1.00  0.00     0.275 C 
ENDROOT
BRANCH   1   2
ATOM      2  O   UNL A   1      37.049  19.583  25.000  1.00  0.00    -0.458 OA
BRANCH   2   3
ATOM      3  C   UNL A   1      35.989  20.424  24.996  1.00  0.00     0.341 C 
ATOM      4  O   UNL A   1      36.027  21.640  25.140  1.00  0.00    -0.246 OA
BRANCH   3   5
ATOM      5  C   UNL A   1      34.748  19.643  24.946  1.00  0.00     0.092 A 
ATOM      6  C   UNL A   1      33.517  20.021  25.478  1.00  0.00     0.111 A 
ATOM      7  N   UNL A   1      32.448  19.173  25.386  1.00  0.00    -0.249 NA
ATOM      8  C   UNL A   1      32.572  17.986  24.762  1.00  0.00     0.112 A 
ATOM      9  C   UNL A   1      34.851  18.388  24.307  1.00  0.00     0.020 A 
ATOM     10  C   UNL A   1      33.747  17.554  24.197  1.00  0.00     0.021 A 
BRANCH   6  11
ATOM     11  S   UNL A   1      32.896  21.583  26.035  1.00  0.00    -0.101 SA
BRANCH  11  12
ATOM     12  C   UNL A   1      31.405  22.080  25.120  1.00  0.00     0.112 C 
BRANCH  12  13
ATOM     13  C   UNL A   1      31.807  22.884  23.917  1.00  0.00    -0.037 A 
ATOM     14  C   UNL A   1      32.855  24.684  22.050  1.00  0.00     0.118 A 
ATOM     15  C   UNL A   1      31.660  24.974  22.706  1.00  0.00     0.047 A 
ATOM     16  C   UNL A   1      33.483  23.455  22.271  1.00  0.00     0.047 A 
ATOM     17  C   UNL A   1      31.123  24.073  23.619  1.00  0.00     0.008 A 
ATOM     18  C   UNL A   1      32.958  22.556  23.201  1.00  0.00     0.008 A 
BRANCH  14  19
ATOM     19  O   UNL A   1      33.339  25.704  21.281  1.00  0.00    -0.497 OA
ATOM     20  C   UNL A   1      33.512  26.954  21.930  1.00  0.00     0.278 C 
ENDBRANCH  14  19
ENDBRANCH  12  13
ENDBRANCH  11  12
ENDBRANCH   6  11
ENDBRANCH   3   5
ENDBRANCH   2   3
ENDBRANCH   1   2
BRANCH   1  21
ATOM     21  C   UNL A   1      39.331  19.187  25.747  1.00  0.00     0.275 C 
BRANCH  21  22
ATOM     22  O   UNL A   1      40.676  19.419  25.284  1.00  0.00    -0.458 OA
BRANCH  22  23
ATOM     23  C   UNL A   1      41.616  19.429  26.263  1.00  0.00     0.338 C 
ATOM     24  O   UNL A   1      42.270  18.481  26.664  1.00  0.00    -0.246 OA
BRANCH  23  25
ATOM     25  C   UNL A   1      41.887  20.819  26.677  1.00  0.00     0.060 A 
ATOM     26  C   UNL A   1      41.794  21.797  25.689  1.00  0.00     0.016 A 
ATOM     27  C   UNL A   1      42.242  21.177  27.979  1.00  0.00     0.016 A 
ATOM     28  C   UNL A   1      41.975  23.142  26.009  1.00  0.00     0.010 A 
ATOM     29  C   UNL A   1      42.468  22.529  28.292  1.00  0.00     0.010 A 
ATOM     30  C   UNL A   1      42.308  23.522  27.312  1.00  0.00    -0.014 A 
BRANCH  30  31
ATOM     31  C   UNL A   1      42.611  24.952  27.568  1.00  0.00     0.031 A 
ATOM     32  C   UNL A   1      43.925  25.504  27.103  1.00  0.00     0.074 A 
ATOM     33  C   UNL A   1      41.693  25.778  28.103  1.00  0.00     0.049 A 
ATOM     34  N   UNL A   1      44.408  26.713  27.228  1.00  0.00    -0.248 NA
ATOM     35  C   UNL A   1      44.808  24.565  26.395  1.00  0.00     0.031 C 
ATOM     36  C   UNL A   1      40.345  25.390  28.506  1.00  0.00     0.029 A 
ATOM     37  N   UNL A   1      41.751  27.123  28.380  1.00  0.00    -0.354 N 
ATOM     38  C   UNL A   1      45.656  26.679  26.621  1.00  0.00     0.074 A 
ATOM     39  C   UNL A   1      45.856  25.331  26.134  1.00  0.00     0.031 C 
ATOM     40  C   UNL A   1      39.693  26.475  28.961  1.00  0.00     0.029 A 
ATOM     41  C   UNL A   1      40.600  27.622  28.942  1.00  0.00     0.049 A 
ATOM     42  H   UNL A   1      42.543  27.677  28.194  1.00  0.00     0.167 HD
ATOM     43  C   UNL A   1      46.559  27.679  26.493  1.00  0.00     0.037 A 
ATOM     44  C   UNL A   1      40.324  28.852  29.421  1.00  0.00     0.037 A 
ATOM     45  C   UNL A   1      46.370  29.013  26.998  1.00  0.00     0.049 A 
ATOM     46  C   UNL A   1      41.390  29.920  29.369  1.00  0.00     0.074 A 
ATOM     47  C   UNL A   1      47.249  30.082  26.959  1.00  0.00     0.029 A 
ATOM     48  N   UNL A   1      45.226  29.460  27.641  1.00  0.00    -0.354 N 
ATOM     49  N   UNL A   1      42.588  29.869  28.839  1.00  0.00    -0.248 NA
ATOM     50  C   UNL A   1      41.071  31.209  30.003  1.00  0.00     0.031 C 
ATOM     51  C   UNL A   1      46.657  31.159  27.626  1.00  0.00     0.029 A 
ATOM     52  C   UNL A   1      45.386  30.782  28.028  1.00  0.00     0.049 A 
ATOM     53  H   UNL A   1      44.419  28.919  27.801  1.00  0.00     0.167 HD
ATOM     54  C   UNL A   1      43.157  31.119  29.057  1.00  0.00     0.074 A 
ATOM     55  C   UNL A   1      42.166  31.913  29.751  1.00  0.00     0.031 C 
ATOM     56  C   UNL A   1      44.391  31.566  28.716  1.00  0.00     0.037 A 
BRANCH  43  57
ATOM     57  C   UNL A   1      47.864  27.332  25.841  1.00  0.00     0.057 A 
ATOM     58  C   UNL A   1      48.970  26.886  26.574  1.00  0.00     0.134 A 
ATOM     59  C   UNL A   1      48.015  27.465  24.455  1.00  0.00     0.134 A 
ATOM     60  F   UNL A   1      48.897  26.762  27.908  1.00  0.00    -0.206 F 
ATOM     61  C   UNL A   1      50.191  26.613  25.956  1.00  0.00     0.040 A 
ATOM     62  C   UNL A   1      49.223  27.167  23.821  1.00  0.00     0.040 A 
ATOM     63  F   UNL A   1      46.995  27.889  23.695  1.00  0.00    -0.206 F 
ATOM     64  C   UNL A   1      50.317  26.748  24.575  1.00  0.00     0.006 A 
ENDBRANCH  43  57
BRANCH  44  65
ATOM     65  C   UNL A   1      39.008  29.137  30.053  1.00  0.00     0.057 A 
ATOM     66  C   UNL A   1      37.923  29.612  29.306  1.00  0.00     0.134 A 
ATOM     67  C   UNL A   1      38.818  28.985  31.433  1.00  0.00     0.134 A 
ATOM     68  F   UNL A   1      38.048  29.815  27.986  1.00  0.00    -0.206 F 
ATOM     69  C   UNL A   1      36.704  29.936  29.908  1.00  0.00     0.040 A 
ATOM     70  C   UNL A   1      37.597  29.276  32.043  1.00  0.00     0.040 A 
ATOM     71  F   UNL A   1      39.819  28.547  32.211  1.00  0.00    -0.206 F 
ATOM     72  C   UNL A   1      36.537  29.762  31.280  1.00  0.00     0.006 A 
ENDBRANCH  44  65
BRANCH  56  73
ATOM     73  C   UNL A   1      44.732  32.989  29.054  1.00  0.00     0.057 A 
ATOM     74  C   UNL A   1      45.410  33.332  30.231  1.00  0.00     0.134 A 
ATOM     75  C   UNL A   1      44.421  34.026  28.164  1.00  0.00     0.134 A 
ATOM     76  F   UNL A   1      45.728  32.390  31.132  1.00  0.00    -0.206 F 
ATOM     77  C   UNL A   1      45.747  34.656  30.520  1.00  0.00     0.040 A 
ATOM     78  C   UNL A   1      44.778  35.349  28.428  1.00  0.00     0.040 A 
ATOM     79  F   UNL A   1      43.781  33.768  27.013  1.00  0.00    -0.206 F 
ATOM     80  C   UNL A   1      45.438  35.668  29.613  1.00  0.00     0.006 A 
ENDBRANCH  56  73
ENDBRANCH  30  31
ENDBRANCH  23  25
ENDBRANCH  22  23
ENDBRANCH  21  22
ENDBRANCH   1  21
TORSDOF 15
ENDMDL
