MODEL 1
REMARK VINA RESULT:     -11.2      0.000      0.000
REMARK SMILES COCCN1C(=O)c2ccccc2[C@@H](C(=O)OCCOC(=O)c2ccc(-c3c4nc(c(-c5c(F)cccc5F)c5ccc([nH]5)c(-c5c(F)cccc5F)c5nc(c(-c6c(F)cccc6F)c6ccc3[nH]6)C=C5)C=C4)cc2)[C@H]1c1nccn1C
REMARK SMILES IDX 18 1 17 2 15 3 16 4 14 5 5 6 6 7 77 8 7 9 8 10 9 11 13 12
REMARK SMILES IDX 10 13 12 14 11 15 4 16 3 17 2 18 1 19 78 20 79 21 82 22
REMARK SMILES IDX 80 23 81 24 83 25 19 26 20 27 21 28 22 29 23 30 24 31 76 32
REMARK SMILES IDX 25 33 75 34 26 35 27 36 28 37 69 38 29 39 74 40 68 41 70 42
REMARK SMILES IDX 30 43 73 44 67 45 66 46 31 48 57 49 40 50 56 51 41 52 44 53
REMARK SMILES IDX 55 54 71 55 42 56 43 57 54 59 72 60 45 61 32 62 33 63 38 64
REMARK SMILES IDX 34 65 35 66 37 67 39 68 36 69 58 70 59 71 64 72 60 73 61 74
REMARK SMILES IDX 63 75 65 76 62 77 46 78 47 79 52 80 48 81 49 82 51 83 53 84
REMARK SMILES IDX 50 85
REMARK H PARENT 70 47 44 58
REMARK Flexibility Score: inf
ROOT
ATOM      1  C   UNL A   1      31.792  29.671  26.626  1.00  0.00     0.274 C 
ENDROOT
BRANCH   1   2
ATOM      2  O   UNL A   1      31.274  29.016  25.449  1.00  0.00    -0.462 OA
BRANCH   2   3
ATOM      3  C   UNL A   1      32.150  28.843  24.439  1.00  0.00     0.316 C 
ATOM      4  O   UNL A   1      33.305  29.267  24.453  1.00  0.00    -0.251 OA
BRANCH   3   5
ATOM      5  C   UNL A   1      31.609  28.090  23.233  1.00  0.00     0.160 C 
ATOM      6  N   UNL A   1      30.265  26.160  24.088  1.00  0.00    -0.325 N 
ATOM      7  C   UNL A   1      29.041  26.775  23.808  1.00  0.00     0.254 C 
ATOM      8  C   UNL A   1      31.471  26.561  23.315  1.00  0.00     0.171 C 
ATOM      9  O   UNL A   1      27.953  26.341  24.171  1.00  0.00    -0.269 OA
ATOM     10  C   UNL A   1      29.080  28.074  23.082  1.00  0.00     0.044 A 
ATOM     11  C   UNL A   1      27.871  28.709  22.771  1.00  0.00     0.014 A 
ATOM     12  C   UNL A   1      30.296  28.707  22.790  1.00  0.00    -0.019 A 
ATOM     13  C   UNL A   1      27.869  29.963  22.161  1.00  0.00     0.001 A 
ATOM     14  C   UNL A   1      30.282  29.961  22.154  1.00  0.00     0.005 A 
ATOM     15  C   UNL A   1      29.074  30.586  21.847  1.00  0.00     0.000 A 
BRANCH   6  16
ATOM     16  C   UNL A   1      30.241  25.042  25.050  1.00  0.00     0.149 C 
BRANCH  16  17
ATOM     17  C   UNL A   1      30.504  25.468  26.508  1.00  0.00     0.181 C 
BRANCH  17  18
ATOM     18  O   UNL A   1      31.270  24.491  27.227  1.00  0.00    -0.383 OA
ATOM     19  C   UNL A   1      31.259  23.193  26.657  1.00  0.00     0.194 C 
ENDBRANCH  17  18
ENDBRANCH  16  17
ENDBRANCH   6  16
BRANCH   8  20
ATOM     20  C   UNL A   1      32.778  25.821  23.581  1.00  0.00     0.132 A 
ATOM     21  N   UNL A   1      33.525  25.893  24.671  1.00  0.00    -0.239 NA
ATOM     22  N   UNL A   1      33.327  24.874  22.723  1.00  0.00    -0.336 N 
ATOM     23  C   UNL A   1      34.488  24.928  24.563  1.00  0.00     0.131 A 
ATOM     24  C   UNL A   1      34.401  24.300  23.349  1.00  0.00     0.107 A 
ATOM     25  C   UNL A   1      32.884  24.483  21.407  1.00  0.00     0.151 C 
ENDBRANCH   8  20
ENDBRANCH   3   5
ENDBRANCH   2   3
ENDBRANCH   1   2
BRANCH   1  26
ATOM     26  C   UNL A   1      31.570  31.177  26.555  1.00  0.00     0.275 C 
BRANCH  26  27
ATOM     27  O   UNL A   1      32.843  31.834  26.462  1.00  0.00    -0.458 OA
BRANCH  27  28
ATOM     28  C   UNL A   1      33.130  32.708  27.450  1.00  0.00     0.338 C 
ATOM     29  O   UNL A   1      32.474  33.684  27.787  1.00  0.00    -0.246 OA
BRANCH  28  30
ATOM     30  C   UNL A   1      34.411  32.337  28.092  1.00  0.00     0.060 A 
ATOM     31  C   UNL A   1      35.452  33.256  28.247  1.00  0.00     0.016 A 
ATOM     32  C   UNL A   1      34.589  31.019  28.512  1.00  0.00     0.016 A 
ATOM     33  C   UNL A   1      36.679  32.847  28.772  1.00  0.00     0.010 A 
ATOM     34  C   UNL A   1      35.782  30.638  29.130  1.00  0.00     0.010 A 
ATOM     35  C   UNL A   1      36.845  31.545  29.264  1.00  0.00    -0.014 A 
BRANCH  35  36
ATOM     36  C   UNL A   1      38.093  31.133  29.967  1.00  0.00     0.031 A 
ATOM     37  C   UNL A   1      39.059  30.178  29.317  1.00  0.00     0.074 A 
ATOM     38  C   UNL A   1      38.333  31.561  31.224  1.00  0.00     0.049 A 
ATOM     39  N   UNL A   1      40.028  29.486  29.859  1.00  0.00    -0.248 NA
ATOM     40  C   UNL A   1      38.907  29.965  27.869  1.00  0.00     0.031 C 
ATOM     41  C   UNL A   1      37.508  32.513  31.972  1.00  0.00     0.029 A 
ATOM     42  N   UNL A   1      39.336  31.234  32.105  1.00  0.00    -0.354 N 
ATOM     43  C   UNL A   1      40.562  28.712  28.836  1.00  0.00     0.074 A 
ATOM     44  C   UNL A   1      39.817  29.029  27.636  1.00  0.00     0.031 C 
ATOM     45  C   UNL A   1      38.047  32.709  33.182  1.00  0.00     0.029 A 
ATOM     46  C   UNL A   1      39.186  31.815  33.341  1.00  0.00     0.049 A 
ATOM     47  H   UNL A   1      40.087  30.640  31.873  1.00  0.00     0.167 HD
ATOM     48  C   UNL A   1      41.574  27.814  28.901  1.00  0.00     0.037 A 
ATOM     49  C   UNL A   1      39.833  31.604  34.501  1.00  0.00     0.037 A 
ATOM     50  C   UNL A   1      42.339  27.534  30.089  1.00  0.00     0.049 A 
ATOM     51  C   UNL A   1      40.906  30.561  34.566  1.00  0.00     0.074 A 
ATOM     52  C   UNL A   1      43.412  26.671  30.242  1.00  0.00     0.029 A 
ATOM     53  N   UNL A   1      42.119  28.119  31.327  1.00  0.00    -0.354 N 
ATOM     54  N   UNL A   1      41.363  29.791  33.609  1.00  0.00    -0.248 NA
ATOM     55  C   UNL A   1      41.525  30.329  35.878  1.00  0.00     0.031 C 
ATOM     56  C   UNL A   1      43.815  26.705  31.582  1.00  0.00     0.029 A 
ATOM     57  C   UNL A   1      43.020  27.619  32.253  1.00  0.00     0.049 A 
ATOM     58  H   UNL A   1      41.426  28.791  31.519  1.00  0.00     0.167 HD
ATOM     59  C   UNL A   1      42.322  28.983  34.201  1.00  0.00     0.074 A 
ATOM     60  C   UNL A   1      42.397  29.370  35.595  1.00  0.00     0.031 C 
ATOM     61  C   UNL A   1      43.069  28.002  33.640  1.00  0.00     0.037 A 
BRANCH  48  62
ATOM     62  C   UNL A   1      41.901  27.034  27.661  1.00  0.00     0.057 A 
ATOM     63  C   UNL A   1      41.288  25.810  27.367  1.00  0.00     0.134 A 
ATOM     64  C   UNL A   1      42.793  27.554  26.713  1.00  0.00     0.134 A 
ATOM     65  F   UNL A   1      40.435  25.250  28.239  1.00  0.00    -0.206 F 
ATOM     66  C   UNL A   1      41.557  25.128  26.178  1.00  0.00     0.040 A 
ATOM     67  C   UNL A   1      43.053  26.893  25.513  1.00  0.00     0.040 A 
ATOM     68  F   UNL A   1      43.410  28.726  26.932  1.00  0.00    -0.206 F 
ATOM     69  C   UNL A   1      42.434  25.674  25.243  1.00  0.00     0.006 A 
ENDBRANCH  48  62
BRANCH  49  70
ATOM     70  C   UNL A   1      39.416  32.352  35.713  1.00  0.00     0.057 A 
ATOM     71  C   UNL A   1      39.955  33.608  36.008  1.00  0.00     0.134 A 
ATOM     72  C   UNL A   1      38.437  31.847  36.578  1.00  0.00     0.134 A 
ATOM     73  F   UNL A   1      40.912  34.131  35.229  1.00  0.00    -0.206 F 
ATOM     74  C   UNL A   1      39.526  34.341  37.115  1.00  0.00     0.040 A 
ATOM     75  C   UNL A   1      37.980  32.580  37.673  1.00  0.00     0.040 A 
ATOM     76  F   UNL A   1      37.881  30.649  36.346  1.00  0.00    -0.206 F 
ATOM     77  C   UNL A   1      38.527  33.832  37.944  1.00  0.00     0.006 A 
ENDBRANCH  49  70
BRANCH  61  78
ATOM     78  C   UNL A   1      44.034  27.291  34.536  1.00  0.00     0.057 A 
ATOM     79  C   UNL A   1      43.689  26.096  35.181  1.00  0.00     0.134 A 
ATOM     80  C   UNL A   1      45.323  27.795  34.746  1.00  0.00     0.134 A 
ATOM     81  F   UNL A   1      42.464  25.573  35.033  1.00  0.00    -0.206 F 
ATOM     82  C   UNL A   1      44.589  25.438  36.020  1.00  0.00     0.040 A 
ATOM     83  C   UNL A   1      46.238  27.136  35.567  1.00  0.00     0.040 A 
ATOM     84  F   UNL A   1      45.712  28.934  34.154  1.00  0.00    -0.206 F 
ATOM     85  C   UNL A   1      45.870  25.955  36.211  1.00  0.00     0.006 A 
ENDBRANCH  61  78
ENDBRANCH  35  36
ENDBRANCH  28  30
ENDBRANCH  27  28
ENDBRANCH  26  27
ENDBRANCH   1  26
TORSDOF 15
ENDMDL
MODEL 2
REMARK VINA RESULT:     -11.2      3.450      6.833
REMARK SMILES COCCN1C(=O)c2ccccc2[C@@H](C(=O)OCCOC(=O)c2ccc(-c3c4nc(c(-c5c(F)cccc5F)c5ccc([nH]5)c(-c5c(F)cccc5F)c5nc(c(-c6c(F)cccc6F)c6ccc3[nH]6)C=C5)C=C4)cc2)[C@H]1c1nccn1C
REMARK SMILES IDX 18 1 17 2 15 3 16 4 14 5 5 6 6 7 77 8 7 9 8 10 9 11 13 12
REMARK SMILES IDX 10 13 12 14 11 15 4 16 3 17 2 18 1 19 78 20 79 21 82 22
REMARK SMILES IDX 80 23 81 24 83 25 19 26 20 27 21 28 22 29 23 30 24 31 76 32
REMARK SMILES IDX 25 33 75 34 26 35 27 36 28 37 69 38 29 39 74 40 68 41 70 42
REMARK SMILES IDX 30 43 73 44 67 45 66 46 31 48 57 49 40 50 56 51 41 52 44 53
REMARK SMILES IDX 55 54 71 55 42 56 43 57 54 59 72 60 45 61 32 62 33 63 38 64
REMARK SMILES IDX 34 65 35 66 37 67 39 68 36 69 58 70 59 71 64 72 60 73 61 74
REMARK SMILES IDX 63 75 65 76 62 77 46 78 47 79 52 80 48 81 49 82 51 83 53 84
REMARK SMILES IDX 50 85
REMARK H PARENT 70 47 44 58
REMARK Flexibility Score: inf
ROOT
ATOM      1  C   UNL A   1      31.834  30.126  25.944  1.00  0.00     0.274 C 
ENDROOT
BRANCH   1   2
ATOM      2  O   UNL A   1      31.442  29.008  25.119  1.00  0.00    -0.462 OA
BRANCH   2   3
ATOM      3  C   UNL A   1      32.169  28.821  23.999  1.00  0.00     0.316 C 
ATOM      4  O   UNL A   1      33.319  29.232  23.852  1.00  0.00    -0.251 OA
BRANCH   3   5
ATOM      5  C   UNL A   1      31.459  28.069  22.884  1.00  0.00     0.160 C 
ATOM      6  N   UNL A   1      30.135  26.226  23.937  1.00  0.00    -0.325 N 
ATOM      7  C   UNL A   1      28.916  26.894  23.782  1.00  0.00     0.254 C 
ATOM      8  C   UNL A   1      31.261  26.551  23.022  1.00  0.00     0.171 C 
ATOM      9  O   UNL A   1      27.859  26.521  24.277  1.00  0.00    -0.269 OA
ATOM     10  C   UNL A   1      28.932  28.174  23.021  1.00  0.00     0.044 A 
ATOM     11  C   UNL A   1      27.725  28.861  22.832  1.00  0.00     0.014 A 
ATOM     12  C   UNL A   1      30.133  28.741  22.576  1.00  0.00    -0.019 A 
ATOM     13  C   UNL A   1      27.711  30.100  22.194  1.00  0.00     0.001 A 
ATOM     14  C   UNL A   1      30.104  29.980  21.912  1.00  0.00     0.005 A 
ATOM     15  C   UNL A   1      28.899  30.656  21.728  1.00  0.00     0.000 A 
BRANCH   6  16
ATOM     16  C   UNL A   1      30.171  25.132  24.926  1.00  0.00     0.149 C 
BRANCH  16  17
ATOM     17  C   UNL A   1      30.559  25.586  26.346  1.00  0.00     0.181 C 
BRANCH  17  18
ATOM     18  O   UNL A   1      31.027  24.497  27.153  1.00  0.00    -0.383 OA
ATOM     19  C   UNL A   1      31.159  23.265  26.466  1.00  0.00     0.194 C 
ENDBRANCH  17  18
ENDBRANCH  16  17
ENDBRANCH   6  16
BRANCH   8  20
ATOM     20  C   UNL A   1      32.555  25.755  23.156  1.00  0.00     0.132 A 
ATOM     21  N   UNL A   1      33.225  25.511  24.271  1.00  0.00    -0.239 NA
ATOM     22  N   UNL A   1      33.170  25.082  22.107  1.00  0.00    -0.336 N 
ATOM     23  C   UNL A   1      34.204  24.605  23.961  1.00  0.00     0.131 A 
ATOM     24  C   UNL A   1      34.205  24.344  22.617  1.00  0.00     0.107 A 
ATOM     25  C   UNL A   1      32.820  25.080  20.707  1.00  0.00     0.151 C 
ENDBRANCH   8  20
ENDBRANCH   3   5
ENDBRANCH   2   3
ENDBRANCH   1   2
BRANCH   1  26
ATOM     26  C   UNL A   1      32.474  29.648  27.243  1.00  0.00     0.275 C 
BRANCH  26  27
ATOM     27  O   UNL A   1      33.901  29.744  27.124  1.00  0.00    -0.458 OA
BRANCH  27  28
ATOM     28  C   UNL A   1      34.507  30.605  27.970  1.00  0.00     0.338 C 
ATOM     29  O   UNL A   1      34.026  31.617  28.463  1.00  0.00    -0.246 OA
BRANCH  28  30
ATOM     30  C   UNL A   1      35.898  30.168  28.222  1.00  0.00     0.060 A 
ATOM     31  C   UNL A   1      36.882  30.234  27.233  1.00  0.00     0.016 A 
ATOM     32  C   UNL A   1      36.213  29.637  29.472  1.00  0.00     0.016 A 
ATOM     33  C   UNL A   1      38.160  29.727  27.476  1.00  0.00     0.010 A 
ATOM     34  C   UNL A   1      37.519  29.222  29.745  1.00  0.00     0.010 A 
ATOM     35  C   UNL A   1      38.509  29.257  28.750  1.00  0.00    -0.014 A 
BRANCH  35  36
ATOM     36  C   UNL A   1      39.906  28.854  29.075  1.00  0.00     0.031 A 
ATOM     37  C   UNL A   1      40.869  29.844  29.676  1.00  0.00     0.074 A 
ATOM     38  C   UNL A   1      40.340  27.614  28.771  1.00  0.00     0.049 A 
ATOM     39  N   UNL A   1      42.173  29.782  29.761  1.00  0.00    -0.248 NA
ATOM     40  C   UNL A   1      40.288  31.072  30.244  1.00  0.00     0.031 C 
ATOM     41  C   UNL A   1      39.518  26.536  28.217  1.00  0.00     0.029 A 
ATOM     42  N   UNL A   1      41.592  27.055  28.865  1.00  0.00    -0.354 N 
ATOM     43  C   UNL A   1      42.575  30.982  30.335  1.00  0.00     0.074 A 
ATOM     44  C   UNL A   1      41.375  31.749  30.590  1.00  0.00     0.031 C 
ATOM     45  C   UNL A   1      40.276  25.446  28.043  1.00  0.00     0.029 A 
ATOM     46  C   UNL A   1      41.658  25.778  28.363  1.00  0.00     0.049 A 
ATOM     47  H   UNL A   1      42.366  27.525  29.254  1.00  0.00     0.167 HD
ATOM     48  C   UNL A   1      43.833  31.402  30.613  1.00  0.00     0.037 A 
ATOM     49  C   UNL A   1      42.711  24.981  28.108  1.00  0.00     0.037 A 
ATOM     50  C   UNL A   1      45.020  30.615  30.396  1.00  0.00     0.049 A 
ATOM     51  C   UNL A   1      44.097  25.490  28.362  1.00  0.00     0.074 A 
ATOM     52  C   UNL A   1      46.335  30.940  30.685  1.00  0.00     0.029 A 
ATOM     53  N   UNL A   1      45.036  29.344  29.845  1.00  0.00    -0.354 N 
ATOM     54  N   UNL A   1      44.471  26.648  28.849  1.00  0.00    -0.248 NA
ATOM     55  C   UNL A   1      45.206  24.599  27.998  1.00  0.00     0.031 C 
ATOM     56  C   UNL A   1      47.150  29.879  30.272  1.00  0.00     0.029 A 
ATOM     57  C   UNL A   1      46.338  28.879  29.764  1.00  0.00     0.049 A 
ATOM     58  H   UNL A   1      44.239  28.844  29.554  1.00  0.00     0.167 HD
ATOM     59  C   UNL A   1      45.858  26.627  28.847  1.00  0.00     0.074 A 
ATOM     60  C   UNL A   1      46.259  25.334  28.332  1.00  0.00     0.031 C 
ATOM     61  C   UNL A   1      46.722  27.597  29.233  1.00  0.00     0.037 A 
BRANCH  48  62
ATOM     62  C   UNL A   1      44.006  32.792  31.153  1.00  0.00     0.057 A 
ATOM     63  C   UNL A   1      44.059  33.056  32.526  1.00  0.00     0.134 A 
ATOM     64  C   UNL A   1      44.193  33.871  30.278  1.00  0.00     0.134 A 
ATOM     65  F   UNL A   1      43.873  32.069  33.416  1.00  0.00    -0.206 F 
ATOM     66  C   UNL A   1      44.284  34.346  33.011  1.00  0.00     0.040 A 
ATOM     67  C   UNL A   1      44.440  35.161  30.751  1.00  0.00     0.040 A 
ATOM     68  F   UNL A   1      44.159  33.685  28.950  1.00  0.00    -0.206 F 
ATOM     69  C   UNL A   1      44.485  35.401  32.123  1.00  0.00     0.006 A 
ENDBRANCH  48  62
BRANCH  49  70
ATOM     70  C   UNL A   1      42.484  23.645  27.504  1.00  0.00     0.057 A 
ATOM     71  C   UNL A   1      42.494  23.468  26.117  1.00  0.00     0.134 A 
ATOM     72  C   UNL A   1      42.299  22.508  28.302  1.00  0.00     0.134 A 
ATOM     73  F   UNL A   1      42.643  24.522  25.304  1.00  0.00    -0.206 F 
ATOM     74  C   UNL A   1      42.337  22.205  25.544  1.00  0.00     0.040 A 
ATOM     75  C   UNL A   1      42.169  21.237  27.744  1.00  0.00     0.040 A 
ATOM     76  F   UNL A   1      42.284  22.614  29.639  1.00  0.00    -0.206 F 
ATOM     77  C   UNL A   1      42.186  21.083  26.359  1.00  0.00     0.006 A 
ENDBRANCH  49  70
BRANCH  61  78
ATOM     78  C   UNL A   1      48.181  27.286  29.117  1.00  0.00     0.057 A 
ATOM     79  C   UNL A   1      48.870  26.615  30.136  1.00  0.00     0.134 A 
ATOM     80  C   UNL A   1      48.902  27.647  27.973  1.00  0.00     0.134 A 
ATOM     81  F   UNL A   1      48.237  26.260  31.264  1.00  0.00    -0.206 F 
ATOM     82  C   UNL A   1      50.231  26.331  30.027  1.00  0.00     0.040 A 
ATOM     83  C   UNL A   1      50.259  27.350  27.844  1.00  0.00     0.040 A 
ATOM     84  F   UNL A   1      48.297  28.289  26.962  1.00  0.00    -0.206 F 
ATOM     85  C   UNL A   1      50.929  26.695  28.876  1.00  0.00     0.006 A 
ENDBRANCH  61  78
ENDBRANCH  35  36
ENDBRANCH  28  30
ENDBRANCH  27  28
ENDBRANCH  26  27
ENDBRANCH   1  26
TORSDOF 15
ENDMDL
MODEL 3
REMARK VINA RESULT:     -11.1      4.196      7.451
REMARK SMILES COCCN1C(=O)c2ccccc2[C@@H](C(=O)OCCOC(=O)c2ccc(-c3c4nc(c(-c5c(F)cccc5F)c5ccc([nH]5)c(-c5c(F)cccc5F)c5nc(c(-c6c(F)cccc6F)c6ccc3[nH]6)C=C5)C=C4)cc2)[C@H]1c1nccn1C
REMARK SMILES IDX 18 1 17 2 15 3 16 4 14 5 5 6 6 7 77 8 7 9 8 10 9 11 13 12
REMARK SMILES IDX 10 13 12 14 11 15 4 16 3 17 2 18 1 19 78 20 79 21 82 22
REMARK SMILES IDX 80 23 81 24 83 25 19 26 20 27 21 28 22 29 23 30 24 31 76 32
REMARK SMILES IDX 25 33 75 34 26 35 27 36 28 37 69 38 29 39 74 40 68 41 70 42
REMARK SMILES IDX 30 43 73 44 67 45 66 46 31 48 57 49 40 50 56 51 41 52 44 53
REMARK SMILES IDX 55 54 71 55 42 56 43 57 54 59 72 60 45 61 32 62 33 63 38 64
REMARK SMILES IDX 34 65 35 66 37 67 39 68 36 69 58 70 59 71 64 72 60 73 61 74
REMARK SMILES IDX 63 75 65 76 62 77 46 78 47 79 52 80 48 81 49 82 51 83 53 84
REMARK SMILES IDX 50 85
REMARK H PARENT 70 47 44 58
REMARK Flexibility Score: inf
ROOT
ATOM      1  C   UNL A   1      32.648  29.871  25.796  1.00  0.00     0.274 C 
ENDROOT
BRANCH   1   2
ATOM      2  O   UNL A   1      32.648  28.463  25.475  1.00  0.00    -0.462 OA
BRANCH   2   3
ATOM      3  C   UNL A   1      33.281  28.120  24.334  1.00  0.00     0.316 C 
ATOM      4  O   UNL A   1      34.411  28.506  24.036  1.00  0.00    -0.251 OA
BRANCH   3   5
ATOM      5  C   UNL A   1      32.490  27.220  23.399  1.00  0.00     0.160 C 
ATOM      6  N   UNL A   1      31.240  25.575  24.810  1.00  0.00    -0.325 N 
ATOM      7  C   UNL A   1      30.015  26.230  24.644  1.00  0.00     0.254 C 
ATOM      8  C   UNL A   1      32.297  25.743  23.779  1.00  0.00     0.171 C 
ATOM      9  O   UNL A   1      28.995  25.950  25.264  1.00  0.00    -0.269 OA
ATOM     10  C   UNL A   1      29.979  27.380  23.700  1.00  0.00     0.044 A 
ATOM     11  C   UNL A   1      28.765  28.048  23.497  1.00  0.00     0.014 A 
ATOM     12  C   UNL A   1      31.147  27.857  23.089  1.00  0.00    -0.019 A 
ATOM     13  C   UNL A   1      28.708  29.177  22.681  1.00  0.00     0.001 A 
ATOM     14  C   UNL A   1      31.074  28.982  22.250  1.00  0.00     0.005 A 
ATOM     15  C   UNL A   1      29.861  29.640  22.053  1.00  0.00     0.000 A 
BRANCH   6  16
ATOM     16  C   UNL A   1      31.344  24.641  25.948  1.00  0.00     0.149 C 
BRANCH  16  17
ATOM     17  C   UNL A   1      31.027  23.177  25.584  1.00  0.00     0.181 C 
BRANCH  17  18
ATOM     18  O   UNL A   1      32.153  22.314  25.792  1.00  0.00    -0.383 OA
ATOM     19  C   UNL A   1      32.157  21.143  24.992  1.00  0.00     0.194 C 
ENDBRANCH  17  18
ENDBRANCH  16  17
ENDBRANCH   6  16
BRANCH   8  20
ATOM     20  C   UNL A   1      33.594  24.957  23.939  1.00  0.00     0.132 A 
ATOM     21  N   UNL A   1      34.518  25.130  24.871  1.00  0.00    -0.239 NA
ATOM     22  N   UNL A   1      33.946  23.862  23.157  1.00  0.00    -0.336 N 
ATOM     23  C   UNL A   1      35.403  24.092  24.757  1.00  0.00     0.131 A 
ATOM     24  C   UNL A   1      35.082  23.307  23.682  1.00  0.00     0.107 A 
ATOM     25  C   UNL A   1      33.267  23.320  22.005  1.00  0.00     0.151 C 
ENDBRANCH   8  20
ENDBRANCH   3   5
ENDBRANCH   2   3
ENDBRANCH   1   2
BRANCH   1  26
ATOM     26  C   UNL A   1      33.058  30.100  27.246  1.00  0.00     0.275 C 
BRANCH  26  27
ATOM     27  O   UNL A   1      34.426  29.698  27.415  1.00  0.00    -0.458 OA
BRANCH  27  28
ATOM     28  C   UNL A   1      35.145  30.413  28.306  1.00  0.00     0.338 C 
ATOM     29  O   UNL A   1      34.755  31.354  28.985  1.00  0.00    -0.246 OA
BRANCH  28  30
ATOM     30  C   UNL A   1      36.536  29.913  28.347  1.00  0.00     0.060 A 
ATOM     31  C   UNL A   1      37.374  29.970  27.231  1.00  0.00     0.016 A 
ATOM     32  C   UNL A   1      37.000  29.328  29.525  1.00  0.00     0.016 A 
ATOM     33  C   UNL A   1      38.650  29.404  27.278  1.00  0.00     0.010 A 
ATOM     34  C   UNL A   1      38.311  28.852  29.600  1.00  0.00     0.010 A 
ATOM     35  C   UNL A   1      39.152  28.879  28.476  1.00  0.00    -0.014 A 
BRANCH  35  36
ATOM     36  C   UNL A   1      40.562  28.410  28.589  1.00  0.00     0.031 A 
ATOM     37  C   UNL A   1      41.670  29.380  28.902  1.00  0.00     0.074 A 
ATOM     38  C   UNL A   1      40.866  27.118  28.346  1.00  0.00     0.049 A 
ATOM     39  N   UNL A   1      42.962  29.233  28.761  1.00  0.00    -0.248 NA
ATOM     40  C   UNL A   1      41.270  30.695  29.431  1.00  0.00     0.031 C 
ATOM     41  C   UNL A   1      39.899  26.055  28.064  1.00  0.00     0.029 A 
ATOM     42  N   UNL A   1      42.082  26.483  28.276  1.00  0.00    -0.354 N 
ATOM     43  C   UNL A   1      43.527  30.450  29.125  1.00  0.00     0.074 A 
ATOM     44  C   UNL A   1      42.436  31.322  29.506  1.00  0.00     0.031 C 
ATOM     45  C   UNL A   1      40.554  24.901  27.875  1.00  0.00     0.029 A 
ATOM     46  C   UNL A   1      41.986  25.162  27.908  1.00  0.00     0.049 A 
ATOM     47  H   UNL A   1      42.938  26.930  28.469  1.00  0.00     0.167 HD
ATOM     48  C   UNL A   1      44.835  30.803  29.129  1.00  0.00     0.037 A 
ATOM     49  C   UNL A   1      42.931  24.271  27.557  1.00  0.00     0.037 A 
ATOM     50  C   UNL A   1      45.918  29.916  28.790  1.00  0.00     0.049 A 
ATOM     51  C   UNL A   1      44.365  24.701  27.506  1.00  0.00     0.074 A 
ATOM     52  C   UNL A   1      47.280  30.171  28.805  1.00  0.00     0.029 A 
ATOM     53  N   UNL A   1      45.765  28.600  28.382  1.00  0.00    -0.354 N 
ATOM     54  N   UNL A   1      44.883  25.870  27.793  1.00  0.00    -0.248 NA
ATOM     55  C   UNL A   1      45.340  23.703  27.047  1.00  0.00     0.031 C 
ATOM     56  C   UNL A   1      47.947  29.021  28.370  1.00  0.00     0.029 A 
ATOM     57  C   UNL A   1      47.004  28.038  28.122  1.00  0.00     0.049 A 
ATOM     58  H   UNL A   1      44.903  28.133  28.292  1.00  0.00     0.167 HD
ATOM     59  C   UNL A   1      46.243  25.749  27.548  1.00  0.00     0.074 A 
ATOM     60  C   UNL A   1      46.473  24.388  27.110  1.00  0.00     0.031 C 
ATOM     61  C   UNL A   1      47.214  26.687  27.670  1.00  0.00     0.037 A 
BRANCH  48  62
ATOM     62  C   UNL A   1      45.178  32.222  29.480  1.00  0.00     0.057 A 
ATOM     63  C   UNL A   1      45.155  33.250  28.531  1.00  0.00     0.134 A 
ATOM     64  C   UNL A   1      45.466  32.571  30.806  1.00  0.00     0.134 A 
ATOM     65  F   UNL A   1      44.900  32.979  27.241  1.00  0.00    -0.206 F 
ATOM     66  C   UNL A   1      45.415  34.575  28.887  1.00  0.00     0.040 A 
ATOM     67  C   UNL A   1      45.707  33.895  31.178  1.00  0.00     0.040 A 
ATOM     68  F   UNL A   1      45.499  31.634  31.765  1.00  0.00    -0.206 F 
ATOM     69  C   UNL A   1      45.682  34.902  30.215  1.00  0.00     0.006 A 
ENDBRANCH  48  62
BRANCH  49  70
ATOM     70  C   UNL A   1      42.526  22.904  27.147  1.00  0.00     0.057 A 
ATOM     71  C   UNL A   1      42.204  21.931  28.098  1.00  0.00     0.134 A 
ATOM     72  C   UNL A   1      42.407  22.554  25.796  1.00  0.00     0.134 A 
ATOM     73  F   UNL A   1      42.321  22.201  29.406  1.00  0.00    -0.206 F 
ATOM     74  C   UNL A   1      41.768  20.660  27.720  1.00  0.00     0.040 A 
ATOM     75  C   UNL A   1      41.947  21.298  25.403  1.00  0.00     0.040 A 
ATOM     76  F   UNL A   1      42.699  23.446  24.837  1.00  0.00    -0.206 F 
ATOM     77  C   UNL A   1      41.627  20.345  26.369  1.00  0.00     0.006 A 
ENDBRANCH  49  70
BRANCH  61  78
ATOM     78  C   UNL A   1      48.609  26.263  27.331  1.00  0.00     0.057 A 
ATOM     79  C   UNL A   1      49.123  26.407  26.036  1.00  0.00     0.134 A 
ATOM     80  C   UNL A   1      49.451  25.721  28.309  1.00  0.00     0.134 A 
ATOM     81  F   UNL A   1      48.359  26.904  25.053  1.00  0.00    -0.206 F 
ATOM     82  C   UNL A   1      50.422  26.007  25.723  1.00  0.00     0.040 A 
ATOM     83  C   UNL A   1      50.758  25.335  28.012  1.00  0.00     0.040 A 
ATOM     84  F   UNL A   1      49.015  25.561  29.569  1.00  0.00    -0.206 F 
ATOM     85  C   UNL A   1      51.245  25.474  26.713  1.00  0.00     0.006 A 
ENDBRANCH  61  78
ENDBRANCH  35  36
ENDBRANCH  28  30
ENDBRANCH  27  28
ENDBRANCH  26  27
ENDBRANCH   1  26
TORSDOF 15
ENDMDL
