MODEL 1
REMARK VINA RESULT:     -12.4      0.000      0.000
REMARK SMILES CCn1ncc(NC(=O)[C@@H]2CCCC[C@@H]2C(=O)OCCOC(=O)c2ccc(-c3c4nc(c(-c5c(F)cccc5F)c5ccc([nH]5)c(-c5c(F)cccc5F)c5nc(c(-c6c(F)cccc6F)c6ccc3[nH]6)C=C5)C=C4)cc2)c1C(=O)Nc1cnn(C)c1C
REMARK SMILES IDX 19 1 18 2 16 3 17 4 15 5 10 6 11 7 12 8 14 9 13 10 8 11 7 12
REMARK SMILES IDX 9 14 6 15 3 16 4 17 78 18 5 19 2 20 1 21 79 22 80 23 81 24
REMARK SMILES IDX 82 26 83 27 87 28 84 29 85 30 88 31 86 32 20 33 21 34 22 35
REMARK SMILES IDX 23 36 24 37 25 38 77 39 26 40 76 41 27 42 28 43 29 44 70 45
REMARK SMILES IDX 30 46 75 47 69 48 71 49 31 50 74 51 68 52 67 53 32 55 58 56
REMARK SMILES IDX 41 57 57 58 42 59 45 60 56 61 72 62 43 63 44 64 55 66 73 67
REMARK SMILES IDX 46 68 33 69 34 70 39 71 35 72 36 73 38 74 40 75 37 76 59 77
REMARK SMILES IDX 60 78 65 79 61 80 62 81 64 82 66 83 63 84 47 85 48 86 53 87
REMARK SMILES IDX 49 88 50 89 52 90 54 91 51 92
REMARK H PARENT 7 13 81 25 71 54 45 65
REMARK Flexibility Score: inf
ROOT
ATOM      1  C   UNL A   1      34.007  29.886  26.697  1.00  0.00     0.274 C 
ENDROOT
BRANCH   1   2
ATOM      2  O   UNL A   1      33.913  28.866  25.684  1.00  0.00    -0.462 OA
BRANCH   2   3
ATOM      3  C   UNL A   1      33.036  29.090  24.653  1.00  0.00     0.309 C 
ATOM      4  O   UNL A   1      33.390  29.345  23.505  1.00  0.00    -0.252 OA
BRANCH   3   5
ATOM      5  C   UNL A   1      31.593  29.090  25.159  1.00  0.00     0.111 C 
ATOM      6  C   UNL A   1      30.968  27.696  25.459  1.00  0.00     0.093 C 
ATOM      7  C   UNL A   1      31.128  26.763  24.253  1.00  0.00     0.014 C 
ATOM      8  C   UNL A   1      30.621  27.394  22.948  1.00  0.00     0.001 C 
ATOM      9  C   UNL A   1      30.718  29.721  24.071  1.00  0.00     0.016 C 
ATOM     10  C   UNL A   1      30.787  28.909  22.779  1.00  0.00     0.001 C 
BRANCH   6  11
ATOM     11  C   UNL A   1      31.392  27.156  26.822  1.00  0.00     0.228 C 
ATOM     12  N   UNL A   1      31.954  25.926  26.989  1.00  0.00    -0.322 N 
ATOM     13  H   UNL A   1      32.541  25.860  27.777  1.00  0.00     0.170 HD
ATOM     14  O   UNL A   1      31.219  27.828  27.842  1.00  0.00    -0.274 OA
BRANCH  12  15
ATOM     15  C   UNL A   1      31.860  24.755  26.265  1.00  0.00     0.092 A 
ATOM     16  N   UNL A   1      32.100  23.006  24.952  1.00  0.00    -0.258 N 
ATOM     17  N   UNL A   1      30.833  22.905  25.391  1.00  0.00    -0.178 NA
ATOM     18  C   UNL A   1      32.767  24.118  25.436  1.00  0.00     0.150 A 
ATOM     19  C   UNL A   1      30.671  23.998  26.132  1.00  0.00     0.162 A 
BRANCH  16  20
ATOM     20  C   UNL A   1      32.572  22.007  24.006  1.00  0.00     0.142 C 
ATOM     21  C   UNL A   1      32.540  20.595  24.563  1.00  0.00     0.029 C 
ENDBRANCH  16  20
BRANCH  18  22
ATOM     22  C   UNL A   1      34.047  24.534  24.917  1.00  0.00     0.276 C 
ATOM     23  O   UNL A   1      34.179  25.121  23.852  1.00  0.00    -0.267 OA
ATOM     24  N   UNL A   1      35.095  24.110  25.705  1.00  0.00    -0.318 N 
ATOM     25  H   UNL A   1      35.117  24.352  26.659  1.00  0.00     0.170 HD
BRANCH  24  26
ATOM     26  C   UNL A   1      36.113  23.347  25.169  1.00  0.00     0.082 A 
ATOM     27  C   UNL A   1      36.067  22.279  24.250  1.00  0.00     0.161 A 
ATOM     28  C   UNL A   1      37.406  23.361  25.649  1.00  0.00     0.059 A 
ATOM     29  N   UNL A   1      37.176  21.538  24.306  1.00  0.00    -0.179 NA
ATOM     30  N   UNL A   1      37.932  22.160  25.231  1.00  0.00    -0.271 N 
ATOM     31  C   UNL A   1      38.122  24.293  26.553  1.00  0.00     0.068 C 
ATOM     32  C   UNL A   1      38.996  21.419  25.871  1.00  0.00     0.174 C 
ENDBRANCH  24  26
ENDBRANCH  18  22
ENDBRANCH  12  15
ENDBRANCH   6  11
ENDBRANCH   3   5
ENDBRANCH   2   3
ENDBRANCH   1   2
BRANCH   1  33
ATOM     33  C   UNL A   1      35.029  29.575  27.789  1.00  0.00     0.275 C 
BRANCH  33  34
ATOM     34  O   UNL A   1      36.169  30.432  27.714  1.00  0.00    -0.458 OA
BRANCH  34  35
ATOM     35  C   UNL A   1      37.150  30.065  28.565  1.00  0.00     0.338 C 
ATOM     36  O   UNL A   1      37.365  30.520  29.677  1.00  0.00    -0.246 OA
BRANCH  35  37
ATOM     37  C   UNL A   1      38.069  29.125  27.928  1.00  0.00     0.060 A 
ATOM     38  C   UNL A   1      38.187  27.873  28.531  1.00  0.00     0.016 A 
ATOM     39  C   UNL A   1      39.039  29.617  27.058  1.00  0.00     0.016 A 
ATOM     40  C   UNL A   1      39.389  27.212  28.484  1.00  0.00     0.010 A 
ATOM     41  C   UNL A   1      40.232  28.933  26.970  1.00  0.00     0.010 A 
ATOM     42  C   UNL A   1      40.432  27.808  27.785  1.00  0.00    -0.014 A 
BRANCH  42  43
ATOM     43  C   UNL A   1      41.756  27.224  27.925  1.00  0.00     0.031 A 
ATOM     44  C   UNL A   1      42.490  27.600  29.167  1.00  0.00     0.074 A 
ATOM     45  C   UNL A   1      42.147  26.278  27.047  1.00  0.00     0.049 A 
ATOM     46  N   UNL A   1      43.754  27.824  29.337  1.00  0.00    -0.248 NA
ATOM     47  C   UNL A   1      41.678  27.824  30.381  1.00  0.00     0.031 C 
ATOM     48  C   UNL A   1      41.368  25.731  25.926  1.00  0.00     0.029 A 
ATOM     49  N   UNL A   1      43.236  25.465  27.082  1.00  0.00    -0.354 N 
ATOM     50  C   UNL A   1      43.917  28.030  30.706  1.00  0.00     0.074 A 
ATOM     51  C   UNL A   1      42.604  28.146  31.277  1.00  0.00     0.031 C 
ATOM     52  C   UNL A   1      41.855  24.516  25.606  1.00  0.00     0.029 A 
ATOM     53  C   UNL A   1      43.029  24.261  26.421  1.00  0.00     0.049 A 
ATOM     54  H   UNL A   1      44.080  25.703  27.529  1.00  0.00     0.167 HD
ATOM     55  C   UNL A   1      45.111  27.853  31.329  1.00  0.00     0.037 A 
ATOM     56  C   UNL A   1      43.689  23.097  26.632  1.00  0.00     0.037 A 
ATOM     57  C   UNL A   1      46.222  28.035  30.442  1.00  0.00     0.049 A 
ATOM     58  C   UNL A   1      44.927  23.405  27.386  1.00  0.00     0.074 A 
ATOM     59  C   UNL A   1      46.668  29.083  29.660  1.00  0.00     0.029 A 
ATOM     60  N   UNL A   1      46.917  26.933  30.013  1.00  0.00    -0.354 N 
ATOM     61  N   UNL A   1      45.952  24.042  26.894  1.00  0.00    -0.248 NA
ATOM     62  C   UNL A   1      44.860  23.366  28.841  1.00  0.00     0.031 C 
ATOM     63  C   UNL A   1      47.230  28.473  28.503  1.00  0.00     0.029 A 
ATOM     64  C   UNL A   1      47.111  27.093  28.665  1.00  0.00     0.049 A 
ATOM     65  H   UNL A   1      47.218  26.175  30.564  1.00  0.00     0.167 HD
ATOM     66  C   UNL A   1      46.418  24.826  27.940  1.00  0.00     0.074 A 
ATOM     67  C   UNL A   1      45.777  24.288  29.137  1.00  0.00     0.031 C 
ATOM     68  C   UNL A   1      47.050  26.013  27.710  1.00  0.00     0.037 A 
BRANCH  55  69
ATOM     69  C   UNL A   1      45.219  27.174  32.669  1.00  0.00     0.057 A 
ATOM     70  C   UNL A   1      45.919  27.796  33.714  1.00  0.00     0.134 A 
ATOM     71  C   UNL A   1      44.901  25.814  32.878  1.00  0.00     0.134 A 
ATOM     72  F   UNL A   1      46.307  29.075  33.615  1.00  0.00    -0.206 F 
ATOM     73  C   UNL A   1      46.314  27.100  34.863  1.00  0.00     0.040 A 
ATOM     74  C   UNL A   1      45.244  25.126  34.043  1.00  0.00     0.040 A 
ATOM     75  F   UNL A   1      44.332  25.058  31.930  1.00  0.00    -0.206 F 
ATOM     76  C   UNL A   1      45.978  25.761  35.030  1.00  0.00     0.006 A 
ENDBRANCH  55  69
BRANCH  56  77
ATOM     77  C   UNL A   1      43.157  21.721  26.489  1.00  0.00     0.057 A 
ATOM     78  C   UNL A   1      43.690  20.834  25.547  1.00  0.00     0.134 A 
ATOM     79  C   UNL A   1      42.253  21.165  27.415  1.00  0.00     0.134 A 
ATOM     80  F   UNL A   1      44.603  21.253  24.659  1.00  0.00    -0.206 F 
ATOM     81  C   UNL A   1      43.339  19.477  25.519  1.00  0.00     0.040 A 
ATOM     82  C   UNL A   1      41.880  19.818  27.388  1.00  0.00     0.040 A 
ATOM     83  F   UNL A   1      41.762  21.890  28.432  1.00  0.00    -0.206 F 
ATOM     84  C   UNL A   1      42.430  18.966  26.441  1.00  0.00     0.006 A 
ENDBRANCH  56  77
BRANCH  68  85
ATOM     85  C   UNL A   1      47.436  26.341  26.294  1.00  0.00     0.057 A 
ATOM     86  C   UNL A   1      46.618  27.074  25.422  1.00  0.00     0.134 A 
ATOM     87  C   UNL A   1      48.731  26.052  25.853  1.00  0.00     0.134 A 
ATOM     88  F   UNL A   1      45.407  27.496  25.801  1.00  0.00    -0.206 F 
ATOM     89  C   UNL A   1      47.048  27.456  24.149  1.00  0.00     0.040 A 
ATOM     90  C   UNL A   1      49.186  26.457  24.595  1.00  0.00     0.040 A 
ATOM     91  F   UNL A   1      49.595  25.415  26.658  1.00  0.00    -0.206 F 
ATOM     92  C   UNL A   1      48.339  27.151  23.734  1.00  0.00     0.006 A 
ENDBRANCH  68  85
ENDBRANCH  42  43
ENDBRANCH  35  37
ENDBRANCH  34  35
ENDBRANCH  33  34
ENDBRANCH   1  33
TORSDOF 16
ENDMDL
MODEL 2
REMARK VINA RESULT:     -12.4      1.497      2.834
REMARK SMILES CCn1ncc(NC(=O)[C@@H]2CCCC[C@@H]2C(=O)OCCOC(=O)c2ccc(-c3c4nc(c(-c5c(F)cccc5F)c5ccc([nH]5)c(-c5c(F)cccc5F)c5nc(c(-c6c(F)cccc6F)c6ccc3[nH]6)C=C5)C=C4)cc2)c1C(=O)Nc1cnn(C)c1C
REMARK SMILES IDX 19 1 18 2 16 3 17 4 15 5 10 6 11 7 12 8 14 9 13 10 8 11 7 12
REMARK SMILES IDX 9 14 6 15 3 16 4 17 78 18 5 19 2 20 1 21 79 22 80 23 81 24
REMARK SMILES IDX 82 26 83 27 87 28 84 29 85 30 88 31 86 32 20 33 21 34 22 35
REMARK SMILES IDX 23 36 24 37 25 38 77 39 26 40 76 41 27 42 28 43 29 44 70 45
REMARK SMILES IDX 30 46 75 47 69 48 71 49 31 50 74 51 68 52 67 53 32 55 58 56
REMARK SMILES IDX 41 57 57 58 42 59 45 60 56 61 72 62 43 63 44 64 55 66 73 67
REMARK SMILES IDX 46 68 33 69 34 70 39 71 35 72 36 73 38 74 40 75 37 76 59 77
REMARK SMILES IDX 60 78 65 79 61 80 62 81 64 82 66 83 63 84 47 85 48 86 53 87
REMARK SMILES IDX 49 88 50 89 52 90 54 91 51 92
REMARK H PARENT 7 13 81 25 71 54 45 65
REMARK Flexibility Score: inf
ROOT
ATOM      1  C   UNL A   1      34.517  28.546  27.019  1.00  0.00     0.274 C 
ENDROOT
BRANCH   1   2
ATOM      2  O   UNL A   1      33.459  28.688  26.053  1.00  0.00    -0.462 OA
BRANCH   2   3
ATOM      3  C   UNL A   1      33.629  28.061  24.844  1.00  0.00     0.309 C 
ATOM      4  O   UNL A   1      34.149  28.597  23.870  1.00  0.00    -0.252 OA
BRANCH   3   5
ATOM      5  C   UNL A   1      32.985  26.674  24.858  1.00  0.00     0.111 C 
ATOM      6  C   UNL A   1      32.421  26.162  23.500  1.00  0.00     0.093 C 
ATOM      7  C   UNL A   1      31.477  27.201  22.883  1.00  0.00     0.014 C 
ATOM      8  C   UNL A   1      30.389  27.665  23.863  1.00  0.00     0.001 C 
ATOM      9  C   UNL A   1      31.793  26.723  25.819  1.00  0.00     0.016 C 
ATOM     10  C   UNL A   1      30.757  27.743  25.350  1.00  0.00     0.001 C 
BRANCH   6  11
ATOM     11  C   UNL A   1      33.514  25.590  22.601  1.00  0.00     0.228 C 
ATOM     12  N   UNL A   1      34.211  24.460  22.910  1.00  0.00    -0.322 N 
ATOM     13  H   UNL A   1      34.555  23.977  22.124  1.00  0.00     0.170 HD
ATOM     14  O   UNL A   1      33.817  26.156  21.548  1.00  0.00    -0.274 OA
BRANCH  12  15
ATOM     15  C   UNL A   1      34.527  23.864  24.114  1.00  0.00     0.092 A 
ATOM     16  N   UNL A   1      34.674  22.672  25.957  1.00  0.00    -0.258 N 
ATOM     17  N   UNL A   1      35.612  23.623  26.115  1.00  0.00    -0.178 NA
ATOM     18  C   UNL A   1      33.973  22.777  24.768  1.00  0.00     0.150 A 
ATOM     19  C   UNL A   1      35.476  24.379  25.029  1.00  0.00     0.162 A 
BRANCH  16  20
ATOM     20  C   UNL A   1      34.478  21.726  27.044  1.00  0.00     0.142 C 
ATOM     21  C   UNL A   1      33.415  22.166  28.035  1.00  0.00     0.029 C 
ENDBRANCH  16  20
BRANCH  18  22
ATOM     22  C   UNL A   1      32.785  22.004  24.505  1.00  0.00     0.276 C 
ATOM     23  O   UNL A   1      31.674  22.325  24.905  1.00  0.00    -0.267 OA
ATOM     24  N   UNL A   1      33.061  20.828  23.843  1.00  0.00    -0.318 N 
ATOM     25  H   UNL A   1      33.543  20.852  22.985  1.00  0.00     0.170 HD
BRANCH  24  26
ATOM     26  C   UNL A   1      32.669  19.614  24.372  1.00  0.00     0.082 A 
ATOM     27  C   UNL A   1      32.564  19.196  25.714  1.00  0.00     0.161 A 
ATOM     28  C   UNL A   1      32.523  18.468  23.620  1.00  0.00     0.059 A 
ATOM     29  N   UNL A   1      32.571  17.865  25.813  1.00  0.00    -0.179 NA
ATOM     30  N   UNL A   1      32.643  17.448  24.535  1.00  0.00    -0.271 N 
ATOM     31  C   UNL A   1      32.430  18.243  22.157  1.00  0.00     0.068 C 
ATOM     32  C   UNL A   1      33.108  16.105  24.267  1.00  0.00     0.174 C 
ENDBRANCH  24  26
ENDBRANCH  18  22
ENDBRANCH  12  15
ENDBRANCH   6  11
ENDBRANCH   3   5
ENDBRANCH   2   3
ENDBRANCH   1   2
BRANCH   1  33
ATOM     33  C   UNL A   1      35.187  29.866  27.395  1.00  0.00     0.275 C 
BRANCH  33  34
ATOM     34  O   UNL A   1      35.838  29.794  28.664  1.00  0.00    -0.458 OA
BRANCH  34  35
ATOM     35  C   UNL A   1      37.113  30.236  28.619  1.00  0.00     0.338 C 
ATOM     36  O   UNL A   1      37.512  31.353  28.905  1.00  0.00    -0.246 OA
BRANCH  35  37
ATOM     37  C   UNL A   1      37.990  29.236  28.015  1.00  0.00     0.060 A 
ATOM     38  C   UNL A   1      38.102  28.024  28.693  1.00  0.00     0.016 A 
ATOM     39  C   UNL A   1      38.941  29.650  27.084  1.00  0.00     0.016 A 
ATOM     40  C   UNL A   1      39.288  27.333  28.651  1.00  0.00     0.010 A 
ATOM     41  C   UNL A   1      40.116  28.935  27.003  1.00  0.00     0.010 A 
ATOM     42  C   UNL A   1      40.319  27.860  27.882  1.00  0.00    -0.014 A 
BRANCH  42  43
ATOM     43  C   UNL A   1      41.636  27.256  28.018  1.00  0.00     0.031 A 
ATOM     44  C   UNL A   1      42.373  27.609  29.264  1.00  0.00     0.074 A 
ATOM     45  C   UNL A   1      42.014  26.313  27.131  1.00  0.00     0.049 A 
ATOM     46  N   UNL A   1      43.639  27.814  29.437  1.00  0.00    -0.248 NA
ATOM     47  C   UNL A   1      41.563  27.833  30.480  1.00  0.00     0.031 C 
ATOM     48  C   UNL A   1      41.228  25.788  26.003  1.00  0.00     0.029 A 
ATOM     49  N   UNL A   1      43.091  25.484  27.158  1.00  0.00    -0.354 N 
ATOM     50  C   UNL A   1      43.804  28.004  30.808  1.00  0.00     0.074 A 
ATOM     51  C   UNL A   1      42.493  28.133  31.380  1.00  0.00     0.031 C 
ATOM     52  C   UNL A   1      41.699  24.570  25.673  1.00  0.00     0.029 A 
ATOM     53  C   UNL A   1      42.868  24.290  26.486  1.00  0.00     0.049 A 
ATOM     54  H   UNL A   1      43.938  25.706  27.609  1.00  0.00     0.167 HD
ATOM     55  C   UNL A   1      44.994  27.804  31.431  1.00  0.00     0.037 A 
ATOM     56  C   UNL A   1      43.511  23.115  26.686  1.00  0.00     0.037 A 
ATOM     57  C   UNL A   1      46.110  27.979  30.546  1.00  0.00     0.049 A 
ATOM     58  C   UNL A   1      44.753  23.398  27.444  1.00  0.00     0.074 A 
ATOM     59  C   UNL A   1      46.571  29.028  29.775  1.00  0.00     0.029 A 
ATOM     60  N   UNL A   1      46.789  26.872  30.108  1.00  0.00    -0.354 N 
ATOM     61  N   UNL A   1      45.787  24.026  26.959  1.00  0.00    -0.248 NA
ATOM     62  C   UNL A   1      44.684  23.345  28.898  1.00  0.00     0.031 C 
ATOM     63  C   UNL A   1      47.125  28.422  28.614  1.00  0.00     0.029 A 
ATOM     64  C   UNL A   1      46.987  27.042  28.761  1.00  0.00     0.049 A 
ATOM     65  H   UNL A   1      47.079  26.104  30.652  1.00  0.00     0.167 HD
ATOM     66  C   UNL A   1      46.263  24.792  28.013  1.00  0.00     0.074 A 
ATOM     67  C   UNL A   1      45.614  24.252  29.204  1.00  0.00     0.031 C 
ATOM     68  C   UNL A   1      46.912  25.973  27.796  1.00  0.00     0.037 A 
BRANCH  55  69
ATOM     69  C   UNL A   1      45.092  27.110  32.764  1.00  0.00     0.057 A 
ATOM     70  C   UNL A   1      44.591  25.808  32.915  1.00  0.00     0.134 A 
ATOM     71  C   UNL A   1      45.407  27.781  33.966  1.00  0.00     0.134 A 
ATOM     72  F   UNL A   1      44.223  25.086  31.847  1.00  0.00    -0.206 F 
ATOM     73  C   UNL A   1      44.374  25.235  34.174  1.00  0.00     0.040 A 
ATOM     74  C   UNL A   1      45.245  27.198  35.224  1.00  0.00     0.040 A 
ATOM     75  F   UNL A   1      45.793  29.063  33.991  1.00  0.00    -0.206 F 
ATOM     76  C   UNL A   1      44.700  25.930  35.334  1.00  0.00     0.006 A 
ENDBRANCH  55  69
BRANCH  56  77
ATOM     77  C   UNL A   1      42.960  21.749  26.529  1.00  0.00     0.057 A 
ATOM     78  C   UNL A   1      43.520  20.843  25.619  1.00  0.00     0.134 A 
ATOM     79  C   UNL A   1      42.004  21.217  27.416  1.00  0.00     0.134 A 
ATOM     80  F   UNL A   1      44.482  21.237  24.772  1.00  0.00    -0.206 F 
ATOM     81  C   UNL A   1      43.144  19.493  25.586  1.00  0.00     0.040 A 
ATOM     82  C   UNL A   1      41.606  19.878  27.381  1.00  0.00     0.040 A 
ATOM     83  F   UNL A   1      41.479  21.960  28.402  1.00  0.00    -0.206 F 
ATOM     84  C   UNL A   1      42.184  19.007  26.468  1.00  0.00     0.006 A 
ENDBRANCH  56  77
BRANCH  68  85
ATOM     85  C   UNL A   1      47.304  26.309  26.384  1.00  0.00     0.057 A 
ATOM     86  C   UNL A   1      46.497  27.064  25.519  1.00  0.00     0.134 A 
ATOM     87  C   UNL A   1      48.595  26.006  25.940  1.00  0.00     0.134 A 
ATOM     88  F   UNL A   1      45.293  27.500  25.901  1.00  0.00    -0.206 F 
ATOM     89  C   UNL A   1      46.934  27.451  24.249  1.00  0.00     0.040 A 
ATOM     90  C   UNL A   1      49.057  26.417  24.687  1.00  0.00     0.040 A 
ATOM     91  F   UNL A   1      49.449  25.347  26.740  1.00  0.00    -0.206 F 
ATOM     92  C   UNL A   1      48.221  27.131  23.832  1.00  0.00     0.006 A 
ENDBRANCH  68  85
ENDBRANCH  42  43
ENDBRANCH  35  37
ENDBRANCH  34  35
ENDBRANCH  33  34
ENDBRANCH   1  33
TORSDOF 16
ENDMDL
MODEL 3
REMARK VINA RESULT:     -11.9      3.732      8.526
REMARK SMILES CCn1ncc(NC(=O)[C@@H]2CCCC[C@@H]2C(=O)OCCOC(=O)c2ccc(-c3c4nc(c(-c5c(F)cccc5F)c5ccc([nH]5)c(-c5c(F)cccc5F)c5nc(c(-c6c(F)cccc6F)c6ccc3[nH]6)C=C5)C=C4)cc2)c1C(=O)Nc1cnn(C)c1C
REMARK SMILES IDX 19 1 18 2 16 3 17 4 15 5 10 6 11 7 12 8 14 9 13 10 8 11 7 12
REMARK SMILES IDX 9 14 6 15 3 16 4 17 78 18 5 19 2 20 1 21 79 22 80 23 81 24
REMARK SMILES IDX 82 26 83 27 87 28 84 29 85 30 88 31 86 32 20 33 21 34 22 35
REMARK SMILES IDX 23 36 24 37 25 38 77 39 26 40 76 41 27 42 28 43 29 44 70 45
REMARK SMILES IDX 30 46 75 47 69 48 71 49 31 50 74 51 68 52 67 53 32 55 58 56
REMARK SMILES IDX 41 57 57 58 42 59 45 60 56 61 72 62 43 63 44 64 55 66 73 67
REMARK SMILES IDX 46 68 33 69 34 70 39 71 35 72 36 73 38 74 40 75 37 76 59 77
REMARK SMILES IDX 60 78 65 79 61 80 62 81 64 82 66 83 63 84 47 85 48 86 53 87
REMARK SMILES IDX 49 88 50 89 52 90 54 91 51 92
REMARK H PARENT 7 13 81 25 71 54 45 65
REMARK Flexibility Score: inf
ROOT
ATOM      1  C   UNL A   1      36.549  21.476  25.498  1.00  0.00     0.274 C 
ENDROOT
BRANCH   1   2
ATOM      2  O   UNL A   1      35.853  22.736  25.449  1.00  0.00    -0.462 OA
BRANCH   2   3
ATOM      3  C   UNL A   1      34.572  22.760  25.940  1.00  0.00     0.309 C 
ATOM      4  O   UNL A   1      34.172  22.017  26.831  1.00  0.00    -0.252 OA
BRANCH   3   5
ATOM      5  C   UNL A   1      33.708  23.745  25.149  1.00  0.00     0.111 C 
ATOM      6  C   UNL A   1      32.167  23.597  25.315  1.00  0.00     0.093 C 
ATOM      7  C   UNL A   1      31.734  22.150  25.051  1.00  0.00     0.014 C 
ATOM      8  C   UNL A   1      32.261  21.612  23.713  1.00  0.00     0.001 C 
ATOM      9  C   UNL A   1      33.997  23.528  23.661  1.00  0.00     0.016 C 
ATOM     10  C   UNL A   1      33.634  22.105  23.239  1.00  0.00     0.001 C 
BRANCH   6  11
ATOM     11  C   UNL A   1      31.659  24.257  26.594  1.00  0.00     0.228 C 
ATOM     12  N   UNL A   1      31.542  25.607  26.735  1.00  0.00    -0.322 N 
ATOM     13  H   UNL A   1      30.852  25.882  27.381  1.00  0.00     0.170 HD
ATOM     14  O   UNL A   1      31.345  23.570  27.569  1.00  0.00    -0.274 OA
BRANCH  12  15
ATOM     15  C   UNL A   1      32.205  26.664  26.144  1.00  0.00     0.092 A 
ATOM     16  N   UNL A   1      33.000  28.267  24.864  1.00  0.00    -0.258 N 
ATOM     17  N   UNL A   1      33.842  28.247  25.912  1.00  0.00    -0.178 NA
ATOM     18  C   UNL A   1      31.995  27.318  24.942  1.00  0.00     0.150 A 
ATOM     19  C   UNL A   1      33.397  27.236  26.651  1.00  0.00     0.162 A 
BRANCH  16  20
ATOM     20  C   UNL A   1      33.277  29.205  23.788  1.00  0.00     0.142 C 
ATOM     21  C   UNL A   1      34.157  28.620  22.696  1.00  0.00     0.029 C 
ENDBRANCH  16  20
BRANCH  18  22
ATOM     22  C   UNL A   1      31.129  27.020  23.828  1.00  0.00     0.276 C 
ATOM     23  O   UNL A   1      31.462  26.304  22.893  1.00  0.00    -0.267 OA
ATOM     24  N   UNL A   1      29.937  27.707  23.894  1.00  0.00    -0.318 N 
ATOM     25  H   UNL A   1      29.365  27.618  24.690  1.00  0.00     0.170 HD
BRANCH  24  26
ATOM     26  C   UNL A   1      29.536  28.520  22.853  1.00  0.00     0.082 A 
ATOM     27  C   UNL A   1      30.299  29.215  21.892  1.00  0.00     0.161 A 
ATOM     28  C   UNL A   1      28.250  28.997  22.712  1.00  0.00     0.059 A 
ATOM     29  N   UNL A   1      29.600  30.208  21.338  1.00  0.00    -0.179 NA
ATOM     30  N   UNL A   1      28.391  30.115  21.922  1.00  0.00    -0.271 N 
ATOM     31  C   UNL A   1      26.968  28.603  23.343  1.00  0.00     0.068 C 
ATOM     32  C   UNL A   1      27.520  31.269  21.905  1.00  0.00     0.174 C 
ENDBRANCH  24  26
ENDBRANCH  18  22
ENDBRANCH  12  15
ENDBRANCH   6  11
ENDBRANCH   3   5
ENDBRANCH   2   3
ENDBRANCH   1   2
BRANCH   1  33
ATOM     33  C   UNL A   1      38.070  21.614  25.497  1.00  0.00     0.275 C 
BRANCH  33  34
ATOM     34  O   UNL A   1      38.503  22.779  26.201  1.00  0.00    -0.458 OA
BRANCH  34  35
ATOM     35  C   UNL A   1      39.701  22.607  26.799  1.00  0.00     0.338 C 
ATOM     36  O   UNL A   1      40.098  21.607  27.373  1.00  0.00    -0.246 OA
BRANCH  35  37
ATOM     37  C   UNL A   1      40.456  23.858  26.821  1.00  0.00     0.060 A 
ATOM     38  C   UNL A   1      41.594  23.877  27.627  1.00  0.00     0.016 A 
ATOM     39  C   UNL A   1      39.829  25.030  26.404  1.00  0.00     0.016 A 
ATOM     40  C   UNL A   1      41.965  25.047  28.242  1.00  0.00     0.010 A 
ATOM     41  C   UNL A   1      40.228  26.214  26.984  1.00  0.00     0.010 A 
ATOM     42  C   UNL A   1      41.206  26.183  27.990  1.00  0.00    -0.014 A 
BRANCH  42  43
ATOM     43  C   UNL A   1      41.459  27.357  28.811  1.00  0.00     0.031 A 
ATOM     44  C   UNL A   1      42.666  28.148  28.436  1.00  0.00     0.074 A 
ATOM     45  C   UNL A   1      40.525  27.739  29.706  1.00  0.00     0.049 A 
ATOM     46  N   UNL A   1      43.508  28.769  29.199  1.00  0.00    -0.248 NA
ATOM     47  C   UNL A   1      43.017  28.193  27.001  1.00  0.00     0.031 C 
ATOM     48  C   UNL A   1      39.225  27.099  29.961  1.00  0.00     0.029 A 
ATOM     49  N   UNL A   1      40.446  28.883  30.436  1.00  0.00    -0.354 N 
ATOM     50  C   UNL A   1      44.378  29.432  28.334  1.00  0.00     0.074 A 
ATOM     51  C   UNL A   1      44.113  28.944  27.009  1.00  0.00     0.031 C 
ATOM     52  C   UNL A   1      38.397  28.001  30.521  1.00  0.00     0.029 A 
ATOM     53  C   UNL A   1      39.138  29.227  30.756  1.00  0.00     0.049 A 
ATOM     54  H   UNL A   1      41.231  29.412  30.707  1.00  0.00     0.167 HD
ATOM     55  C   UNL A   1      45.098  30.516  28.721  1.00  0.00     0.037 A 
ATOM     56  C   UNL A   1      38.677  30.464  31.058  1.00  0.00     0.037 A 
ATOM     57  C   UNL A   1      45.345  30.533  30.133  1.00  0.00     0.049 A 
ATOM     58  C   UNL A   1      39.843  31.319  31.385  1.00  0.00     0.074 A 
ATOM     59  C   UNL A   1      45.974  29.672  31.011  1.00  0.00     0.029 A 
ATOM     60  N   UNL A   1      44.647  31.416  30.918  1.00  0.00    -0.354 N 
ATOM     61  N   UNL A   1      40.573  31.192  32.457  1.00  0.00    -0.248 NA
ATOM     62  C   UNL A   1      40.461  32.064  30.296  1.00  0.00     0.031 C 
ATOM     63  C   UNL A   1      45.243  29.779  32.227  1.00  0.00     0.029 A 
ATOM     64  C   UNL A   1      44.229  30.714  32.019  1.00  0.00     0.049 A 
ATOM     65  H   UNL A   1      44.479  32.367  30.728  1.00  0.00     0.167 HD
ATOM     66  C   UNL A   1      41.867  31.468  32.039  1.00  0.00     0.074 A 
ATOM     67  C   UNL A   1      41.721  32.101  30.732  1.00  0.00     0.031 C 
ATOM     68  C   UNL A   1      42.947  30.901  32.653  1.00  0.00     0.037 A 
BRANCH  55  69
ATOM     69  C   UNL A   1      45.266  31.721  27.833  1.00  0.00     0.057 A 
ATOM     70  C   UNL A   1      46.502  31.969  27.215  1.00  0.00     0.134 A 
ATOM     71  C   UNL A   1      44.344  32.789  27.791  1.00  0.00     0.134 A 
ATOM     72  F   UNL A   1      47.471  31.043  27.222  1.00  0.00    -0.206 F 
ATOM     73  C   UNL A   1      46.812  33.207  26.640  1.00  0.00     0.040 A 
ATOM     74  C   UNL A   1      44.624  34.009  27.173  1.00  0.00     0.040 A 
ATOM     75  F   UNL A   1      43.166  32.743  28.428  1.00  0.00    -0.206 F 
ATOM     76  C   UNL A   1      45.873  34.232  26.619  1.00  0.00     0.006 A 
ENDBRANCH  55  69
BRANCH  56  77
ATOM     77  C   UNL A   1      37.330  31.015  30.780  1.00  0.00     0.057 A 
ATOM     78  C   UNL A   1      36.478  31.403  31.821  1.00  0.00     0.134 A 
ATOM     79  C   UNL A   1      36.919  31.376  29.482  1.00  0.00     0.134 A 
ATOM     80  F   UNL A   1      36.809  31.159  33.097  1.00  0.00    -0.206 F 
ATOM     81  C   UNL A   1      35.284  32.100  31.586  1.00  0.00     0.040 A 
ATOM     82  C   UNL A   1      35.722  32.053  29.231  1.00  0.00     0.040 A 
ATOM     83  F   UNL A   1      37.703  31.156  28.416  1.00  0.00    -0.206 F 
ATOM     84  C   UNL A   1      34.903  32.425  30.288  1.00  0.00     0.006 A 
ENDBRANCH  56  77
BRANCH  68  85
ATOM     85  C   UNL A   1      42.713  30.157  33.938  1.00  0.00     0.057 A 
ATOM     86  C   UNL A   1      42.686  30.778  35.195  1.00  0.00     0.134 A 
ATOM     87  C   UNL A   1      42.342  28.810  33.892  1.00  0.00     0.134 A 
ATOM     88  F   UNL A   1      42.912  32.090  35.323  1.00  0.00    -0.206 F 
ATOM     89  C   UNL A   1      42.359  30.079  36.360  1.00  0.00     0.040 A 
ATOM     90  C   UNL A   1      41.979  28.107  35.044  1.00  0.00     0.040 A 
ATOM     91  F   UNL A   1      42.276  28.165  32.716  1.00  0.00    -0.206 F 
ATOM     92  C   UNL A   1      41.999  28.738  36.285  1.00  0.00     0.006 A 
ENDBRANCH  68  85
ENDBRANCH  42  43
ENDBRANCH  35  37
ENDBRANCH  34  35
ENDBRANCH  33  34
ENDBRANCH   1  33
TORSDOF 16
ENDMDL
