MODEL 1
REMARK VINA RESULT:     -12.7      0.000      0.000
REMARK SMILES Cc1ncc(CC(=O)N2CCC(Cc3cccc(C(=O)OCCOC(=O)c4ccc(-c5c6nc(c(-c7c(F)cccc7F)c7ccc([nH]7)c(-c7c(F)cccc7F)c7nc(c(-c8c(F)cccc8F)c8ccc5[nH]8)C=C7)C=C6)cc4)c3)CC2)c(=O)[nH]1
REMARK SMILES IDX 22 1 21 2 19 3 20 4 18 5 14 6 15 7 81 8 16 9 17 10 13 11
REMARK SMILES IDX 12 12 7 13 8 14 9 15 10 16 83 17 11 18 82 19 6 20 5 21 1 22
REMARK SMILES IDX 2 23 3 24 86 25 4 26 84 27 85 29 23 30 24 31 25 32 26 33
REMARK SMILES IDX 27 34 28 35 80 36 29 37 79 38 30 39 31 40 32 41 73 42 33 43
REMARK SMILES IDX 78 44 72 45 74 46 34 47 77 48 71 49 70 50 35 52 61 53 44 54
REMARK SMILES IDX 60 55 45 56 48 57 59 58 75 59 46 60 47 61 58 63 76 64 49 65
REMARK SMILES IDX 36 66 37 67 42 68 38 69 39 70 41 71 43 72 40 73 62 74 63 75
REMARK SMILES IDX 68 76 64 77 65 78 67 79 69 80 66 81 50 82 51 83 56 84 52 85
REMARK SMILES IDX 53 86 55 87 57 88 54 89
REMARK H PARENT 86 28 74 51 48 62
REMARK Flexibility Score: inf
ROOT
ATOM      1  C   UNL A   1      33.743  35.898  28.842  1.00  0.00     0.275 C 
ENDROOT
BRANCH   1   2
ATOM      2  O   UNL A   1      33.991  34.515  29.160  1.00  0.00    -0.458 OA
BRANCH   2   3
ATOM      3  C   UNL A   1      33.520  33.600  28.278  1.00  0.00     0.338 C 
ATOM      4  O   UNL A   1      32.493  33.684  27.622  1.00  0.00    -0.246 OA
BRANCH   3   5
ATOM      5  C   UNL A   1      34.488  32.483  28.122  1.00  0.00     0.060 A 
ATOM      6  C   UNL A   1      34.993  30.131  27.812  1.00  0.00    -0.047 A 
ATOM      7  C   UNL A   1      36.361  30.427  27.797  1.00  0.00     0.004 A 
ATOM      8  C   UNL A   1      34.065  31.157  28.053  1.00  0.00     0.019 A 
ATOM      9  C   UNL A   1      36.791  31.747  27.896  1.00  0.00     0.001 A 
ATOM     10  C   UNL A   1      35.854  32.775  27.999  1.00  0.00     0.016 A 
BRANCH   6  11
ATOM     11  C   UNL A   1      34.499  28.770  27.375  1.00  0.00     0.039 C 
BRANCH  11  12
ATOM     12  C   UNL A   1      33.689  28.911  26.068  1.00  0.00    -0.003 C 
ATOM     13  C   UNL A   1      30.745  27.150  23.811  1.00  0.00     0.227 C 
ATOM     14  O   UNL A   1      31.121  26.026  23.450  1.00  0.00    -0.275 OA
ATOM     15  N   UNL A   1      31.669  28.129  24.150  1.00  0.00    -0.342 N 
ATOM     16  C   UNL A   1      33.075  27.882  23.841  1.00  0.00     0.120 C 
ATOM     17  C   UNL A   1      31.459  29.301  24.998  1.00  0.00     0.120 C 
ATOM     18  C   UNL A   1      33.891  27.710  25.117  1.00  0.00     0.025 C 
ATOM     19  C   UNL A   1      32.193  29.115  26.333  1.00  0.00     0.025 C 
BRANCH  13  20
ATOM     20  C   UNL A   1      29.259  27.494  23.632  1.00  0.00     0.143 C 
BRANCH  20  21
ATOM     21  C   UNL A   1      28.880  28.625  22.742  1.00  0.00     0.045 A 
ATOM     22  C   UNL A   1      27.927  32.158  20.633  1.00  0.00     0.087 C 
ATOM     23  C   UNL A   1      28.292  30.879  21.323  1.00  0.00     0.105 A 
ATOM     24  N   UNL A   1      29.470  30.365  21.184  1.00  0.00    -0.243 NA
ATOM     25  N   UNL A   1      27.315  30.320  22.097  1.00  0.00    -0.311 N 
ATOM     26  C   UNL A   1      29.734  29.229  21.900  1.00  0.00     0.123 A 
ATOM     27  C   UNL A   1      27.516  29.182  22.820  1.00  0.00     0.254 A 
ATOM     28  H   UNL A   1      26.433  30.758  22.134  1.00  0.00     0.171 HD
ATOM     29  O   UNL A   1      26.634  28.680  23.505  1.00  0.00    -0.269 OA
ENDBRANCH  20  21
ENDBRANCH  13  20
ENDBRANCH  11  12
ENDBRANCH   6  11
ENDBRANCH   3   5
ENDBRANCH   2   3
ENDBRANCH   1   2
BRANCH   1  30
ATOM     30  C   UNL A   1      32.841  36.536  29.898  1.00  0.00     0.275 C 
BRANCH  30  31
ATOM     31  O   UNL A   1      32.492  35.557  30.896  1.00  0.00    -0.458 OA
BRANCH  31  32
ATOM     32  C   UNL A   1      32.687  35.929  32.182  1.00  0.00     0.338 C 
ATOM     33  O   UNL A   1      32.028  36.709  32.845  1.00  0.00    -0.246 OA
BRANCH  32  34
ATOM     34  C   UNL A   1      33.812  35.162  32.735  1.00  0.00     0.060 A 
ATOM     35  C   UNL A   1      35.084  35.718  32.647  1.00  0.00     0.016 A 
ATOM     36  C   UNL A   1      33.650  33.867  33.215  1.00  0.00     0.016 A 
ATOM     37  C   UNL A   1      36.211  34.978  32.983  1.00  0.00     0.010 A 
ATOM     38  C   UNL A   1      34.778  33.141  33.619  1.00  0.00     0.010 A 
ATOM     39  C   UNL A   1      36.073  33.679  33.483  1.00  0.00    -0.014 A 
BRANCH  39  40
ATOM     40  C   UNL A   1      37.287  32.875  33.794  1.00  0.00     0.031 A 
ATOM     41  C   UNL A   1      38.021  33.091  35.090  1.00  0.00     0.074 A 
ATOM     42  C   UNL A   1      37.716  31.923  32.940  1.00  0.00     0.049 A 
ATOM     43  N   UNL A   1      39.170  32.601  35.483  1.00  0.00    -0.248 NA
ATOM     44  C   UNL A   1      37.384  33.987  36.067  1.00  0.00     0.031 C 
ATOM     45  C   UNL A   1      37.073  31.567  31.675  1.00  0.00     0.029 A 
ATOM     46  N   UNL A   1      38.795  31.077  33.013  1.00  0.00    -0.354 N 
ATOM     47  C   UNL A   1      39.419  33.173  36.725  1.00  0.00     0.074 A 
ATOM     48  C   UNL A   1      38.304  34.047  37.018  1.00  0.00     0.031 C 
ATOM     49  C   UNL A   1      37.754  30.560  31.104  1.00  0.00     0.029 A 
ATOM     50  C   UNL A   1      38.923  30.253  31.921  1.00  0.00     0.049 A 
ATOM     51  H   UNL A   1      39.418  31.062  33.776  1.00  0.00     0.167 HD
ATOM     52  C   UNL A   1      40.483  32.987  37.544  1.00  0.00     0.037 A 
ATOM     53  C   UNL A   1      39.891  29.377  31.591  1.00  0.00     0.037 A 
ATOM     54  C   UNL A   1      41.562  32.072  37.278  1.00  0.00     0.049 A 
ATOM     55  C   UNL A   1      41.071  29.203  32.504  1.00  0.00     0.074 A 
ATOM     56  C   UNL A   1      42.671  31.795  38.062  1.00  0.00     0.029 A 
ATOM     57  N   UNL A   1      41.664  31.276  36.147  1.00  0.00    -0.354 N 
ATOM     58  N   UNL A   1      41.317  29.782  33.653  1.00  0.00    -0.248 NA
ATOM     59  C   UNL A   1      42.115  28.266  32.065  1.00  0.00     0.031 C 
ATOM     60  C   UNL A   1      43.461  30.858  37.387  1.00  0.00     0.029 A 
ATOM     61  C   UNL A   1      42.823  30.519  36.205  1.00  0.00     0.049 A 
ATOM     62  H   UNL A   1      41.009  31.252  35.413  1.00  0.00     0.167 HD
ATOM     63  C   UNL A   1      42.538  29.276  34.079  1.00  0.00     0.074 A 
ATOM     64  C   UNL A   1      42.970  28.324  33.077  1.00  0.00     0.031 C 
ATOM     65  C   UNL A   1      43.242  29.577  35.198  1.00  0.00     0.037 A 
BRANCH  52  66
ATOM     66  C   UNL A   1      40.550  33.820  38.791  1.00  0.00     0.057 A 
ATOM     67  C   UNL A   1      41.286  35.009  38.859  1.00  0.00     0.134 A 
ATOM     68  C   UNL A   1      39.842  33.431  39.936  1.00  0.00     0.134 A 
ATOM     69  F   UNL A   1      41.998  35.430  37.803  1.00  0.00    -0.206 F 
ATOM     70  C   UNL A   1      41.334  35.770  40.030  1.00  0.00     0.040 A 
ATOM     71  C   UNL A   1      39.861  34.196  41.102  1.00  0.00     0.040 A 
ATOM     72  F   UNL A   1      39.113  32.305  39.936  1.00  0.00    -0.206 F 
ATOM     73  C   UNL A   1      40.615  35.367  41.153  1.00  0.00     0.006 A 
ENDBRANCH  52  66
BRANCH  53  74
ATOM     74  C   UNL A   1      39.804  28.630  30.309  1.00  0.00     0.057 A 
ATOM     75  C   UNL A   1      40.369  29.135  29.135  1.00  0.00     0.134 A 
ATOM     76  C   UNL A   1      39.155  27.391  30.234  1.00  0.00     0.134 A 
ATOM     77  F   UNL A   1      40.981  30.329  29.138  1.00  0.00    -0.206 F 
ATOM     78  C   UNL A   1      40.286  28.439  27.927  1.00  0.00     0.040 A 
ATOM     79  C   UNL A   1      39.089  26.671  29.040  1.00  0.00     0.040 A 
ATOM     80  F   UNL A   1      38.592  26.853  31.326  1.00  0.00    -0.206 F 
ATOM     81  C   UNL A   1      39.652  27.199  27.880  1.00  0.00     0.006 A 
ENDBRANCH  53  74
BRANCH  65  82
ATOM     82  C   UNL A   1      44.539  28.853  35.405  1.00  0.00     0.057 A 
ATOM     83  C   UNL A   1      45.752  29.362  34.921  1.00  0.00     0.134 A 
ATOM     84  C   UNL A   1      44.578  27.647  36.115  1.00  0.00     0.134 A 
ATOM     85  F   UNL A   1      45.778  30.505  34.220  1.00  0.00    -0.206 F 
ATOM     86  C   UNL A   1      46.955  28.684  35.119  1.00  0.00     0.040 A 
ATOM     87  C   UNL A   1      45.779  26.972  36.339  1.00  0.00     0.040 A 
ATOM     88  F   UNL A   1      43.453  27.111  36.610  1.00  0.00    -0.206 F 
ATOM     89  C   UNL A   1      46.971  27.488  35.834  1.00  0.00     0.006 A 
ENDBRANCH  65  82
ENDBRANCH  39  40
ENDBRANCH  32  34
ENDBRANCH  31  32
ENDBRANCH  30  31
ENDBRANCH   1  30
TORSDOF 15
ENDMDL
MODEL 2
REMARK VINA RESULT:     -12.7      3.928      8.894
REMARK SMILES Cc1ncc(CC(=O)N2CCC(Cc3cccc(C(=O)OCCOC(=O)c4ccc(-c5c6nc(c(-c7c(F)cccc7F)c7ccc([nH]7)c(-c7c(F)cccc7F)c7nc(c(-c8c(F)cccc8F)c8ccc5[nH]8)C=C7)C=C6)cc4)c3)CC2)c(=O)[nH]1
REMARK SMILES IDX 22 1 21 2 19 3 20 4 18 5 14 6 15 7 81 8 16 9 17 10 13 11
REMARK SMILES IDX 12 12 7 13 8 14 9 15 10 16 83 17 11 18 82 19 6 20 5 21 1 22
REMARK SMILES IDX 2 23 3 24 86 25 4 26 84 27 85 29 23 30 24 31 25 32 26 33
REMARK SMILES IDX 27 34 28 35 80 36 29 37 79 38 30 39 31 40 32 41 73 42 33 43
REMARK SMILES IDX 78 44 72 45 74 46 34 47 77 48 71 49 70 50 35 52 61 53 44 54
REMARK SMILES IDX 60 55 45 56 48 57 59 58 75 59 46 60 47 61 58 63 76 64 49 65
REMARK SMILES IDX 36 66 37 67 42 68 38 69 39 70 41 71 43 72 40 73 62 74 63 75
REMARK SMILES IDX 68 76 64 77 65 78 67 79 69 80 66 81 50 82 51 83 56 84 52 85
REMARK SMILES IDX 53 86 55 87 57 88 54 89
REMARK H PARENT 86 28 74 51 48 62
REMARK Flexibility Score: inf
ROOT
ATOM      1  C   UNL A   1      42.630  20.457  25.799  1.00  0.00     0.275 C 
ENDROOT
BRANCH   1   2
ATOM      2  O   UNL A   1      41.495  20.989  26.510  1.00  0.00    -0.458 OA
BRANCH   2   3
ATOM      3  C   UNL A   1      40.273  20.597  26.073  1.00  0.00     0.338 C 
ATOM      4  O   UNL A   1      39.932  19.458  25.793  1.00  0.00    -0.246 OA
BRANCH   3   5
ATOM      5  C   UNL A   1      39.330  21.746  26.069  1.00  0.00     0.060 A 
ATOM      6  C   UNL A   1      37.203  22.751  25.482  1.00  0.00    -0.047 A 
ATOM      7  C   UNL A   1      37.584  23.935  26.126  1.00  0.00     0.004 A 
ATOM      8  C   UNL A   1      38.114  21.687  25.391  1.00  0.00     0.019 A 
ATOM      9  C   UNL A   1      38.811  24.009  26.780  1.00  0.00     0.001 A 
ATOM     10  C   UNL A   1      39.654  22.898  26.799  1.00  0.00     0.016 A 
BRANCH   6  11
ATOM     11  C   UNL A   1      35.765  22.536  25.064  1.00  0.00     0.039 C 
BRANCH  11  12
ATOM     12  C   UNL A   1      35.135  23.890  24.670  1.00  0.00    -0.003 C 
ATOM     13  C   UNL A   1      31.588  25.709  23.685  1.00  0.00     0.227 C 
ATOM     14  O   UNL A   1      31.144  25.206  22.645  1.00  0.00    -0.275 OA
ATOM     15  N   UNL A   1      32.944  25.647  23.977  1.00  0.00    -0.342 N 
ATOM     16  C   UNL A   1      33.852  25.196  22.926  1.00  0.00     0.120 C 
ATOM     17  C   UNL A   1      33.582  25.754  25.288  1.00  0.00     0.120 C 
ATOM     18  C   UNL A   1      34.465  23.845  23.278  1.00  0.00     0.025 C 
ATOM     19  C   UNL A   1      34.127  24.384  25.714  1.00  0.00     0.025 C 
BRANCH  13  20
ATOM     20  C   UNL A   1      30.645  26.605  24.502  1.00  0.00     0.143 C 
BRANCH  20  21
ATOM     21  C   UNL A   1      30.083  27.829  23.871  1.00  0.00     0.045 A 
ATOM     22  C   UNL A   1      28.756  31.156  21.632  1.00  0.00     0.087 C 
ATOM     23  C   UNL A   1      29.164  29.973  22.456  1.00  0.00     0.105 A 
ATOM     24  N   UNL A   1      28.408  28.927  22.531  1.00  0.00    -0.243 NA
ATOM     25  N   UNL A   1      30.367  30.078  23.093  1.00  0.00    -0.311 N 
ATOM     26  C   UNL A   1      28.890  27.871  23.256  1.00  0.00     0.123 A 
ATOM     27  C   UNL A   1      30.890  29.064  23.841  1.00  0.00     0.254 A 
ATOM     28  H   UNL A   1      30.876  30.917  23.008  1.00  0.00     0.171 HD
ATOM     29  O   UNL A   1      31.965  29.167  24.417  1.00  0.00    -0.269 OA
ENDBRANCH  20  21
ENDBRANCH  13  20
ENDBRANCH  11  12
ENDBRANCH   6  11
ENDBRANCH   3   5
ENDBRANCH   2   3
ENDBRANCH   1   2
BRANCH   1  30
ATOM     30  C   UNL A   1      43.666  21.555  25.551  1.00  0.00     0.275 C 
BRANCH  30  31
ATOM     31  O   UNL A   1      43.004  22.763  25.131  1.00  0.00    -0.458 OA
BRANCH  31  32
ATOM     32  C   UNL A   1      43.721  23.903  25.256  1.00  0.00     0.338 C 
ATOM     33  O   UNL A   1      44.701  24.246  24.620  1.00  0.00    -0.246 OA
BRANCH  32  34
ATOM     34  C   UNL A   1      43.077  24.763  26.258  1.00  0.00     0.060 A 
ATOM     35  C   UNL A   1      43.183  26.141  26.098  1.00  0.00     0.016 A 
ATOM     36  C   UNL A   1      42.489  24.238  27.404  1.00  0.00     0.016 A 
ATOM     37  C   UNL A   1      42.757  27.010  27.095  1.00  0.00     0.010 A 
ATOM     38  C   UNL A   1      41.996  25.112  28.382  1.00  0.00     0.010 A 
ATOM     39  C   UNL A   1      42.149  26.507  28.251  1.00  0.00    -0.014 A 
BRANCH  39  40
ATOM     40  C   UNL A   1      41.740  27.441  29.336  1.00  0.00     0.031 A 
ATOM     41  C   UNL A   1      42.516  27.483  30.625  1.00  0.00     0.074 A 
ATOM     42  C   UNL A   1      40.701  28.281  29.161  1.00  0.00     0.049 A 
ATOM     43  N   UNL A   1      42.242  28.114  31.738  1.00  0.00    -0.248 NA
ATOM     44  C   UNL A   1      43.761  26.700  30.671  1.00  0.00     0.031 C 
ATOM     45  C   UNL A   1      39.892  28.390  27.947  1.00  0.00     0.029 A 
ATOM     46  N   UNL A   1      40.149  29.210  30.010  1.00  0.00    -0.354 N 
ATOM     47  C   UNL A   1      43.244  27.760  32.632  1.00  0.00     0.074 A 
ATOM     48  C   UNL A   1      44.133  26.858  31.932  1.00  0.00     0.031 C 
ATOM     49  C   UNL A   1      38.967  29.347  28.118  1.00  0.00     0.029 A 
ATOM     50  C   UNL A   1      39.064  29.865  29.478  1.00  0.00     0.049 A 
ATOM     51  H   UNL A   1      40.498  29.389  30.913  1.00  0.00     0.167 HD
ATOM     52  C   UNL A   1      43.407  28.151  33.919  1.00  0.00     0.037 A 
ATOM     53  C   UNL A   1      38.217  30.753  30.032  1.00  0.00     0.037 A 
ATOM     54  C   UNL A   1      42.557  29.095  34.595  1.00  0.00     0.049 A 
ATOM     55  C   UNL A   1      38.405  31.155  31.468  1.00  0.00     0.074 A 
ATOM     56  C   UNL A   1      42.658  29.574  35.891  1.00  0.00     0.029 A 
ATOM     57  N   UNL A   1      41.454  29.715  34.027  1.00  0.00    -0.354 N 
ATOM     58  N   UNL A   1      39.330  30.779  32.315  1.00  0.00    -0.248 NA
ATOM     59  C   UNL A   1      37.420  32.093  32.026  1.00  0.00     0.031 C 
ATOM     60  C   UNL A   1      41.596  30.456  36.117  1.00  0.00     0.029 A 
ATOM     61  C   UNL A   1      40.858  30.559  34.949  1.00  0.00     0.049 A 
ATOM     62  H   UNL A   1      41.142  29.576  33.104  1.00  0.00     0.167 HD
ATOM     63  C   UNL A   1      39.045  31.438  33.504  1.00  0.00     0.074 A 
ATOM     64  C   UNL A   1      37.876  32.256  33.261  1.00  0.00     0.031 C 
ATOM     65  C   UNL A   1      39.692  31.366  34.694  1.00  0.00     0.037 A 
BRANCH  52  66
ATOM     66  C   UNL A   1      44.530  27.526  34.695  1.00  0.00     0.057 A 
ATOM     67  C   UNL A   1      44.407  26.279  35.320  1.00  0.00     0.134 A 
ATOM     68  C   UNL A   1      45.765  28.180  34.795  1.00  0.00     0.134 A 
ATOM     69  F   UNL A   1      43.245  25.608  35.274  1.00  0.00    -0.206 F 
ATOM     70  C   UNL A   1      45.464  25.715  36.036  1.00  0.00     0.040 A 
ATOM     71  C   UNL A   1      46.838  27.614  35.487  1.00  0.00     0.040 A 
ATOM     72  F   UNL A   1      45.953  29.375  34.217  1.00  0.00    -0.206 F 
ATOM     73  C   UNL A   1      46.686  26.380  36.115  1.00  0.00     0.006 A 
ENDBRANCH  52  66
BRANCH  53  74
ATOM     74  C   UNL A   1      37.082  31.286  29.235  1.00  0.00     0.057 A 
ATOM     75  C   UNL A   1      35.956  30.505  28.962  1.00  0.00     0.134 A 
ATOM     76  C   UNL A   1      37.101  32.593  28.731  1.00  0.00     0.134 A 
ATOM     77  F   UNL A   1      35.891  29.238  29.395  1.00  0.00    -0.206 F 
ATOM     78  C   UNL A   1      34.889  31.001  28.209  1.00  0.00     0.040 A 
ATOM     79  C   UNL A   1      36.029  33.111  28.001  1.00  0.00     0.040 A 
ATOM     80  F   UNL A   1      38.153  33.392  28.958  1.00  0.00    -0.206 F 
ATOM     81  C   UNL A   1      34.921  32.310  27.734  1.00  0.00     0.006 A 
ENDBRANCH  53  74
BRANCH  65  82
ATOM     82  C   UNL A   1      39.160  32.212  35.812  1.00  0.00     0.057 A 
ATOM     83  C   UNL A   1      38.240  31.709  36.742  1.00  0.00     0.134 A 
ATOM     84  C   UNL A   1      39.590  33.534  35.975  1.00  0.00     0.134 A 
ATOM     85  F   UNL A   1      37.778  30.454  36.632  1.00  0.00    -0.206 F 
ATOM     86  C   UNL A   1      37.750  32.500  37.781  1.00  0.00     0.040 A 
ATOM     87  C   UNL A   1      39.125  34.328  37.024  1.00  0.00     0.040 A 
ATOM     88  F   UNL A   1      40.474  34.072  35.122  1.00  0.00    -0.206 F 
ATOM     89  C   UNL A   1      38.197  33.812  37.927  1.00  0.00     0.006 A 
ENDBRANCH  65  82
ENDBRANCH  39  40
ENDBRANCH  32  34
ENDBRANCH  31  32
ENDBRANCH  30  31
ENDBRANCH   1  30
TORSDOF 15
ENDMDL
MODEL 3
REMARK VINA RESULT:     -12.5      5.343      7.949
REMARK SMILES Cc1ncc(CC(=O)N2CCC(Cc3cccc(C(=O)OCCOC(=O)c4ccc(-c5c6nc(c(-c7c(F)cccc7F)c7ccc([nH]7)c(-c7c(F)cccc7F)c7nc(c(-c8c(F)cccc8F)c8ccc5[nH]8)C=C7)C=C6)cc4)c3)CC2)c(=O)[nH]1
REMARK SMILES IDX 22 1 21 2 19 3 20 4 18 5 14 6 15 7 81 8 16 9 17 10 13 11
REMARK SMILES IDX 12 12 7 13 8 14 9 15 10 16 83 17 11 18 82 19 6 20 5 21 1 22
REMARK SMILES IDX 2 23 3 24 86 25 4 26 84 27 85 29 23 30 24 31 25 32 26 33
REMARK SMILES IDX 27 34 28 35 80 36 29 37 79 38 30 39 31 40 32 41 73 42 33 43
REMARK SMILES IDX 78 44 72 45 74 46 34 47 77 48 71 49 70 50 35 52 61 53 44 54
REMARK SMILES IDX 60 55 45 56 48 57 59 58 75 59 46 60 47 61 58 63 76 64 49 65
REMARK SMILES IDX 36 66 37 67 42 68 38 69 39 70 41 71 43 72 40 73 62 74 63 75
REMARK SMILES IDX 68 76 64 77 65 78 67 79 69 80 66 81 50 82 51 83 56 84 52 85
REMARK SMILES IDX 53 86 55 87 57 88 54 89
REMARK H PARENT 86 28 74 51 48 62
REMARK Flexibility Score: inf
ROOT
ATOM      1  C   UNL A   1      33.857  34.504  29.745  1.00  0.00     0.275 C 
ENDROOT
BRANCH   1   2
ATOM      2  O   UNL A   1      34.293  33.537  28.769  1.00  0.00    -0.458 OA
BRANCH   2   3
ATOM      3  C   UNL A   1      33.323  32.946  28.030  1.00  0.00     0.338 C 
ATOM      4  O   UNL A   1      32.310  33.479  27.602  1.00  0.00    -0.246 OA
BRANCH   3   5
ATOM      5  C   UNL A   1      33.699  31.546  27.702  1.00  0.00     0.060 A 
ATOM      6  C   UNL A   1      33.169  29.352  26.816  1.00  0.00    -0.047 A 
ATOM      7  C   UNL A   1      34.478  28.930  27.077  1.00  0.00     0.004 A 
ATOM      8  C   UNL A   1      32.765  30.639  27.204  1.00  0.00     0.019 A 
ATOM      9  C   UNL A   1      35.407  29.824  27.603  1.00  0.00     0.001 A 
ATOM     10  C   UNL A   1      35.032  31.142  27.859  1.00  0.00     0.016 A 
BRANCH   6  11
ATOM     11  C   UNL A   1      32.253  28.516  25.949  1.00  0.00     0.039 C 
BRANCH  11  12
ATOM     12  C   UNL A   1      32.491  27.019  26.244  1.00  0.00    -0.003 C 
ATOM     13  C   UNL A   1      32.093  23.249  24.665  1.00  0.00     0.227 C 
ATOM     14  O   UNL A   1      30.894  23.014  24.462  1.00  0.00    -0.275 OA
ATOM     15  N   UNL A   1      32.477  24.198  25.603  1.00  0.00    -0.342 N 
ATOM     16  C   UNL A   1      31.456  24.727  26.503  1.00  0.00     0.120 C 
ATOM     17  C   UNL A   1      33.742  24.928  25.669  1.00  0.00     0.120 C 
ATOM     18  C   UNL A   1      31.182  26.198  26.212  1.00  0.00     0.025 C 
ATOM     19  C   UNL A   1      33.515  26.397  25.288  1.00  0.00     0.025 C 
BRANCH  13  20
ATOM     20  C   UNL A   1      33.121  22.297  24.038  1.00  0.00     0.143 C 
BRANCH  20  21
ATOM     21  C   UNL A   1      33.092  20.856  24.405  1.00  0.00     0.045 A 
ATOM     22  C   UNL A   1      32.524  16.866  25.673  1.00  0.00     0.087 C 
ATOM     23  C   UNL A   1      32.755  18.257  25.165  1.00  0.00     0.105 A 
ATOM     24  N   UNL A   1      32.434  18.582  23.955  1.00  0.00    -0.243 NA
ATOM     25  N   UNL A   1      33.303  19.133  26.058  1.00  0.00    -0.311 N 
ATOM     26  C   UNL A   1      32.624  19.889  23.599  1.00  0.00     0.123 A 
ATOM     27  C   UNL A   1      33.529  20.443  25.754  1.00  0.00     0.254 A 
ATOM     28  H   UNL A   1      33.544  18.806  26.955  1.00  0.00     0.171 HD
ATOM     29  O   UNL A   1      34.029  21.222  26.554  1.00  0.00    -0.269 OA
ENDBRANCH  20  21
ENDBRANCH  13  20
ENDBRANCH  11  12
ENDBRANCH   6  11
ENDBRANCH   3   5
ENDBRANCH   2   3
ENDBRANCH   1   2
BRANCH   1  30
ATOM     30  C   UNL A   1      34.387  34.140  31.131  1.00  0.00     0.275 C 
BRANCH  30  31
ATOM     31  O   UNL A   1      34.683  32.731  31.186  1.00  0.00    -0.458 OA
BRANCH  31  32
ATOM     32  C   UNL A   1      35.614  32.359  32.093  1.00  0.00     0.338 C 
ATOM     33  O   UNL A   1      35.566  32.466  33.305  1.00  0.00    -0.246 OA
BRANCH  32  34
ATOM     34  C   UNL A   1      36.720  31.690  31.393  1.00  0.00     0.060 A 
ATOM     35  C   UNL A   1      37.487  30.778  32.111  1.00  0.00     0.016 A 
ATOM     36  C   UNL A   1      37.085  32.040  30.098  1.00  0.00     0.016 A 
ATOM     37  C   UNL A   1      38.651  30.244  31.572  1.00  0.00     0.010 A 
ATOM     38  C   UNL A   1      38.222  31.453  29.525  1.00  0.00     0.010 A 
ATOM     39  C   UNL A   1      39.032  30.569  30.266  1.00  0.00    -0.014 A 
BRANCH  39  40
ATOM     40  C   UNL A   1      40.307  30.034  29.713  1.00  0.00     0.031 A 
ATOM     41  C   UNL A   1      41.519  30.920  29.623  1.00  0.00     0.074 A 
ATOM     42  C   UNL A   1      40.398  28.745  29.327  1.00  0.00     0.049 A 
ATOM     43  N   UNL A   1      42.672  30.693  29.046  1.00  0.00    -0.248 NA
ATOM     44  C   UNL A   1      41.416  32.245  30.255  1.00  0.00     0.031 C 
ATOM     45  C   UNL A   1      39.322  27.757  29.408  1.00  0.00     0.029 A 
ATOM     46  N   UNL A   1      41.451  28.045  28.792  1.00  0.00    -0.354 N 
ATOM     47  C   UNL A   1      43.408  31.862  29.195  1.00  0.00     0.074 A 
ATOM     48  C   UNL A   1      42.571  32.797  29.915  1.00  0.00     0.031 C 
ATOM     49  C   UNL A   1      39.776  26.575  28.965  1.00  0.00     0.029 A 
ATOM     50  C   UNL A   1      41.148  26.737  28.496  1.00  0.00     0.049 A 
ATOM     51  H   UNL A   1      42.339  28.441  28.635  1.00  0.00     0.167 HD
ATOM     52  C   UNL A   1      44.666  32.130  28.768  1.00  0.00     0.037 A 
ATOM     53  C   UNL A   1      41.875  25.786  27.879  1.00  0.00     0.037 A 
ATOM     54  C   UNL A   1      45.519  31.179  28.104  1.00  0.00     0.049 A 
ATOM     55  C   UNL A   1      43.260  26.113  27.396  1.00  0.00     0.074 A 
ATOM     56  C   UNL A   1      46.819  31.350  27.658  1.00  0.00     0.029 A 
ATOM     57  N   UNL A   1      45.162  29.873  27.802  1.00  0.00    -0.354 N 
ATOM     58  N   UNL A   1      43.927  27.235  27.503  1.00  0.00    -0.248 NA
ATOM     59  C   UNL A   1      43.984  25.045  26.691  1.00  0.00     0.031 C 
ATOM     60  C   UNL A   1      47.236  30.159  27.054  1.00  0.00     0.029 A 
ATOM     61  C   UNL A   1      46.211  29.233  27.161  1.00  0.00     0.049 A 
ATOM     62  H   UNL A   1      44.293  29.463  28.011  1.00  0.00     0.167 HD
ATOM     63  C   UNL A   1      45.152  27.008  26.888  1.00  0.00     0.074 A 
ATOM     64  C   UNL A   1      45.143  25.634  26.432  1.00  0.00     0.031 C 
ATOM     65  C   UNL A   1      46.188  27.865  26.711  1.00  0.00     0.037 A 
BRANCH  52  66
ATOM     66  C   UNL A   1      45.183  33.524  28.972  1.00  0.00     0.057 A 
ATOM     67  C   UNL A   1      44.943  34.555  28.055  1.00  0.00     0.134 A 
ATOM     68  C   UNL A   1      45.915  33.841  30.124  1.00  0.00     0.134 A 
ATOM     69  F   UNL A   1      44.261  34.314  26.924  1.00  0.00    -0.206 F 
ATOM     70  C   UNL A   1      45.433  35.845  28.265  1.00  0.00     0.040 A 
ATOM     71  C   UNL A   1      46.388  35.133  30.357  1.00  0.00     0.040 A 
ATOM     72  F   UNL A   1      46.177  32.902  31.045  1.00  0.00    -0.206 F 
ATOM     73  C   UNL A   1      46.152  36.139  29.422  1.00  0.00     0.006 A 
ENDBRANCH  52  66
BRANCH  53  74
ATOM     74  C   UNL A   1      41.285  24.443  27.644  1.00  0.00     0.057 A 
ATOM     75  C   UNL A   1      40.280  24.248  26.693  1.00  0.00     0.134 A 
ATOM     76  C   UNL A   1      41.717  23.323  28.367  1.00  0.00     0.134 A 
ATOM     77  F   UNL A   1      39.806  25.286  25.988  1.00  0.00    -0.206 F 
ATOM     78  C   UNL A   1      39.718  22.989  26.471  1.00  0.00     0.040 A 
ATOM     79  C   UNL A   1      41.185  22.054  28.136  1.00  0.00     0.040 A 
ATOM     80  F   UNL A   1      42.677  23.445  29.294  1.00  0.00    -0.206 F 
ATOM     81  C   UNL A   1      40.177  21.886  27.188  1.00  0.00     0.006 A 
ENDBRANCH  53  74
BRANCH  65  82
ATOM     82  C   UNL A   1      47.403  27.330  26.014  1.00  0.00     0.057 A 
ATOM     83  C   UNL A   1      48.449  26.721  26.721  1.00  0.00     0.134 A 
ATOM     84  C   UNL A   1      47.518  27.403  24.621  1.00  0.00     0.134 A 
ATOM     85  F   UNL A   1      48.405  26.634  28.059  1.00  0.00    -0.206 F 
ATOM     86  C   UNL A   1      49.576  26.224  26.067  1.00  0.00     0.040 A 
ATOM     87  C   UNL A   1      48.631  26.888  23.953  1.00  0.00     0.040 A 
ATOM     88  F   UNL A   1      46.549  27.967  23.886  1.00  0.00    -0.206 F 
ATOM     89  C   UNL A   1      49.667  26.302  24.679  1.00  0.00     0.006 A 
ENDBRANCH  65  82
ENDBRANCH  39  40
ENDBRANCH  32  34
ENDBRANCH  31  32
ENDBRANCH  30  31
ENDBRANCH   1  30
TORSDOF 15
ENDMDL
