MODEL 1
REMARK VINA RESULT:     -11.1      0.000      0.000
REMARK SMILES O=C(OCCOC(=O)c1cc(Br)cc2c1OCC2)c1ccc(-c2c3nc(c(-c4c(F)cccc4F)c4ccc([nH]4)c(-c4c(F)cccc4F)c4nc(c(-c5c(F)cccc5F)c5ccc2[nH]5)C=C4)C=C3)cc1
REMARK SMILES IDX 4 1 3 2 2 3 1 4 19 5 20 6 72 7 21 8 71 9 22 10 23 11 24 12
REMARK SMILES IDX 65 13 25 14 70 15 64 16 66 17 26 18 69 19 63 20 62 21 27 23
REMARK SMILES IDX 53 24 36 25 52 26 37 27 40 28 51 29 67 30 38 31 39 32 50 34
REMARK SMILES IDX 68 35 41 36 28 37 29 38 34 39 30 40 31 41 33 42 35 43 32 44
REMARK SMILES IDX 54 45 55 46 60 47 56 48 57 49 59 50 61 51 58 52 42 53 43 54
REMARK SMILES IDX 48 55 44 56 45 57 47 58 49 59 46 60 5 61 6 62 7 63 8 64 9 65
REMARK SMILES IDX 10 66 15 67 11 68 14 69 16 70 12 71 13 72 18 73 17 74
REMARK H PARENT 66 22 40 33
REMARK Flexibility Score: inf
ROOT
ATOM      1  C   UNL A   1      31.665  32.514  27.120  1.00  0.00     0.275 C 
ENDROOT
BRANCH   1   2
ATOM      2  O   UNL A   1      32.394  33.747  27.259  1.00  0.00    -0.458 OA
BRANCH   2   3
ATOM      3  C   UNL A   1      32.980  34.267  28.365  1.00  0.00     0.338 C 
ATOM      4  O   UNL A   1      32.528  35.295  28.866  1.00  0.00    -0.246 OA
BRANCH   3   5
ATOM      5  C   UNL A   1      34.256  33.730  28.928  1.00  0.00     0.060 A 
ATOM      6  C   UNL A   1      35.537  34.134  28.559  1.00  0.00     0.016 A 
ATOM      7  C   UNL A   1      34.137  32.703  29.882  1.00  0.00     0.016 A 
ATOM      8  C   UNL A   1      36.662  33.588  29.178  1.00  0.00     0.010 A 
ATOM      9  C   UNL A   1      35.255  32.166  30.524  1.00  0.00     0.010 A 
ATOM     10  C   UNL A   1      36.530  32.606  30.164  1.00  0.00    -0.014 A 
BRANCH  10  11
ATOM     11  C   UNL A   1      37.759  31.968  30.681  1.00  0.00     0.031 A 
ATOM     12  C   UNL A   1      38.237  32.334  32.053  1.00  0.00     0.074 A 
ATOM     13  C   UNL A   1      38.343  30.972  29.990  1.00  0.00     0.049 A 
ATOM     14  N   UNL A   1      39.185  31.787  32.767  1.00  0.00    -0.248 NA
ATOM     15  C   UNL A   1      37.532  33.437  32.727  1.00  0.00     0.031 C 
ATOM     16  C   UNL A   1      37.905  30.490  28.681  1.00  0.00     0.029 A 
ATOM     17  N   UNL A   1      39.411  30.172  30.298  1.00  0.00    -0.354 N 
ATOM     18  C   UNL A   1      39.148  32.435  33.992  1.00  0.00     0.074 A 
ATOM     19  C   UNL A   1      38.147  33.474  33.899  1.00  0.00     0.031 C 
ATOM     20  C   UNL A   1      38.711  29.491  28.288  1.00  0.00     0.029 A 
ATOM     21  C   UNL A   1      39.725  29.272  29.310  1.00  0.00     0.049 A 
ATOM     22  H   UNL A   1      39.907  30.237  31.146  1.00  0.00     0.167 HD
ATOM     23  C   UNL A   1      39.855  32.158  35.112  1.00  0.00     0.037 A 
ATOM     24  C   UNL A   1      40.725  28.374  29.239  1.00  0.00     0.037 A 
ATOM     25  C   UNL A   1      40.876  31.148  35.181  1.00  0.00     0.049 A 
ATOM     26  C   UNL A   1      41.604  28.189  30.443  1.00  0.00     0.074 A 
ATOM     27  C   UNL A   1      41.693  30.815  36.245  1.00  0.00     0.029 A 
ATOM     28  N   UNL A   1      41.229  30.316  34.127  1.00  0.00    -0.354 N 
ATOM     29  N   UNL A   1      41.545  28.794  31.605  1.00  0.00    -0.248 NA
ATOM     30  C   UNL A   1      42.658  27.174  30.343  1.00  0.00     0.031 C 
ATOM     31  C   UNL A   1      42.570  29.811  35.821  1.00  0.00     0.029 A 
ATOM     32  C   UNL A   1      42.267  29.483  34.509  1.00  0.00     0.049 A 
ATOM     33  H   UNL A   1      40.803  30.317  33.239  1.00  0.00     0.167 HD
ATOM     34  C   UNL A   1      42.530  28.211  32.388  1.00  0.00     0.074 A 
ATOM     35  C   UNL A   1      43.161  27.194  31.569  1.00  0.00     0.031 C 
ATOM     36  C   UNL A   1      42.878  28.483  33.669  1.00  0.00     0.037 A 
BRANCH  23  37
ATOM     37  C   UNL A   1      39.538  32.971  36.330  1.00  0.00     0.057 A 
ATOM     38  C   UNL A   1      38.563  32.560  37.250  1.00  0.00     0.134 A 
ATOM     39  C   UNL A   1      40.192  34.183  36.576  1.00  0.00     0.134 A 
ATOM     40  F   UNL A   1      37.882  31.421  37.057  1.00  0.00    -0.206 F 
ATOM     41  C   UNL A   1      38.231  33.341  38.359  1.00  0.00     0.040 A 
ATOM     42  C   UNL A   1      39.885  34.961  37.694  1.00  0.00     0.040 A 
ATOM     43  F   UNL A   1      41.130  34.635  35.731  1.00  0.00    -0.206 F 
ATOM     44  C   UNL A   1      38.896  34.543  38.585  1.00  0.00     0.006 A 
ENDBRANCH  23  37
BRANCH  24  45
ATOM     45  C   UNL A   1      40.955  27.601  27.991  1.00  0.00     0.057 A 
ATOM     46  C   UNL A   1      41.743  28.094  26.945  1.00  0.00     0.134 A 
ATOM     47  C   UNL A   1      40.348  26.352  27.807  1.00  0.00     0.134 A 
ATOM     48  F   UNL A   1      42.335  29.292  27.052  1.00  0.00    -0.206 F 
ATOM     49  C   UNL A   1      41.896  27.387  25.750  1.00  0.00     0.040 A 
ATOM     50  C   UNL A   1      40.514  25.622  26.627  1.00  0.00     0.040 A 
ATOM     51  F   UNL A   1      39.577  25.825  28.769  1.00  0.00    -0.206 F 
ATOM     52  C   UNL A   1      41.283  26.145  25.590  1.00  0.00     0.006 A 
ENDBRANCH  24  45
BRANCH  36  53
ATOM     53  C   UNL A   1      43.970  27.644  34.262  1.00  0.00     0.057 A 
ATOM     54  C   UNL A   1      43.706  26.411  34.871  1.00  0.00     0.134 A 
ATOM     55  C   UNL A   1      45.303  28.071  34.210  1.00  0.00     0.134 A 
ATOM     56  F   UNL A   1      42.449  25.954  34.966  1.00  0.00    -0.206 F 
ATOM     57  C   UNL A   1      44.728  25.646  35.436  1.00  0.00     0.040 A 
ATOM     58  C   UNL A   1      46.336  27.301  34.743  1.00  0.00     0.040 A 
ATOM     59  F   UNL A   1      45.622  29.239  33.632  1.00  0.00    -0.206 F 
ATOM     60  C   UNL A   1      46.047  26.089  35.367  1.00  0.00     0.006 A 
ENDBRANCH  36  53
ENDBRANCH  10  11
ENDBRANCH   3   5
ENDBRANCH   2   3
ENDBRANCH   1   2
BRANCH   1  61
ATOM     61  C   UNL A   1      32.527  31.271  26.885  1.00  0.00     0.275 C 
BRANCH  61  62
ATOM     62  O   UNL A   1      31.785  30.127  26.440  1.00  0.00    -0.458 OA
BRANCH  62  63
ATOM     63  C   UNL A   1      32.216  29.590  25.270  1.00  0.00     0.342 C 
ATOM     64  O   UNL A   1      33.364  29.583  24.847  1.00  0.00    -0.246 OA
BRANCH  63  65
ATOM     65  C   UNL A   1      31.075  28.999  24.557  1.00  0.00     0.103 A 
ATOM     66  C   UNL A   1      30.185  29.808  23.839  1.00  0.00     0.035 A 
ATOM     67  C   UNL A   1      30.896  27.624  24.529  1.00  0.00     0.137 A 
ATOM     68  C   UNL A   1      29.143  29.213  23.111  1.00  0.00     0.019 A 
ATOM     69  C   UNL A   1      29.839  27.051  23.840  1.00  0.00    -0.000 A 
ATOM     70  O   UNL A   1      31.697  26.703  25.150  1.00  0.00    -0.492 OA
ATOM     71  Br  UNL A   1      28.033  30.288  22.018  1.00  0.00    -0.051 Br
ATOM     72  C   UNL A   1      28.945  27.830  23.125  1.00  0.00     0.023 A 
ATOM     73  C   UNL A   1      29.910  25.577  23.939  1.00  0.00     0.081 C 
ATOM     74  C   UNL A   1      31.032  25.432  24.965  1.00  0.00     0.234 C 
ENDBRANCH  63  65
ENDBRANCH  62  63
ENDBRANCH  61  62
ENDBRANCH   1  61
TORSDOF 11
ENDMDL
MODEL 2
REMARK VINA RESULT:     -11.0      1.648      2.348
REMARK SMILES O=C(OCCOC(=O)c1cc(Br)cc2c1OCC2)c1ccc(-c2c3nc(c(-c4c(F)cccc4F)c4ccc([nH]4)c(-c4c(F)cccc4F)c4nc(c(-c5c(F)cccc5F)c5ccc2[nH]5)C=C4)C=C3)cc1
REMARK SMILES IDX 4 1 3 2 2 3 1 4 19 5 20 6 72 7 21 8 71 9 22 10 23 11 24 12
REMARK SMILES IDX 65 13 25 14 70 15 64 16 66 17 26 18 69 19 63 20 62 21 27 23
REMARK SMILES IDX 53 24 36 25 52 26 37 27 40 28 51 29 67 30 38 31 39 32 50 34
REMARK SMILES IDX 68 35 41 36 28 37 29 38 34 39 30 40 31 41 33 42 35 43 32 44
REMARK SMILES IDX 54 45 55 46 60 47 56 48 57 49 59 50 61 51 58 52 42 53 43 54
REMARK SMILES IDX 48 55 44 56 45 57 47 58 49 59 46 60 5 61 6 62 7 63 8 64 9 65
REMARK SMILES IDX 10 66 15 67 11 68 14 69 16 70 12 71 13 72 18 73 17 74
REMARK H PARENT 66 22 40 33
REMARK Flexibility Score: inf
ROOT
ATOM      1  C   UNL A   1      31.442  32.108  27.034  1.00  0.00     0.275 C 
ENDROOT
BRANCH   1   2
ATOM      2  O   UNL A   1      32.369  33.206  26.956  1.00  0.00    -0.458 OA
BRANCH   2   3
ATOM      3  C   UNL A   1      33.012  33.847  27.963  1.00  0.00     0.338 C 
ATOM      4  O   UNL A   1      32.608  34.946  28.338  1.00  0.00    -0.246 OA
BRANCH   3   5
ATOM      5  C   UNL A   1      34.292  33.347  28.549  1.00  0.00     0.060 A 
ATOM      6  C   UNL A   1      35.562  33.845  28.266  1.00  0.00     0.016 A 
ATOM      7  C   UNL A   1      34.193  32.254  29.429  1.00  0.00     0.016 A 
ATOM      8  C   UNL A   1      36.689  33.324  28.900  1.00  0.00     0.010 A 
ATOM      9  C   UNL A   1      35.313  31.739  30.086  1.00  0.00     0.010 A 
ATOM     10  C   UNL A   1      36.574  32.273  29.814  1.00  0.00    -0.014 A 
BRANCH  10  11
ATOM     11  C   UNL A   1      37.816  31.672  30.345  1.00  0.00     0.031 A 
ATOM     12  C   UNL A   1      38.231  32.000  31.747  1.00  0.00     0.074 A 
ATOM     13  C   UNL A   1      38.470  30.737  29.633  1.00  0.00     0.049 A 
ATOM     14  N   UNL A   1      39.181  31.468  32.470  1.00  0.00    -0.248 NA
ATOM     15  C   UNL A   1      37.451  33.037  32.444  1.00  0.00     0.031 C 
ATOM     16  C   UNL A   1      38.098  30.293  28.291  1.00  0.00     0.029 A 
ATOM     17  N   UNL A   1      39.566  29.976  29.943  1.00  0.00    -0.354 N 
ATOM     18  C   UNL A   1      39.072  32.059  33.720  1.00  0.00     0.074 A 
ATOM     19  C   UNL A   1      38.025  33.051  33.636  1.00  0.00     0.031 C 
ATOM     20  C   UNL A   1      38.965  29.351  27.884  1.00  0.00     0.029 A 
ATOM     21  C   UNL A   1      39.956  29.137  28.929  1.00  0.00     0.049 A 
ATOM     22  H   UNL A   1      40.030  30.027  30.811  1.00  0.00     0.167 HD
ATOM     23  C   UNL A   1      39.756  31.766  34.850  1.00  0.00     0.037 A 
ATOM     24  C   UNL A   1      41.000  28.291  28.855  1.00  0.00     0.037 A 
ATOM     25  C   UNL A   1      40.823  30.805  34.911  1.00  0.00     0.049 A 
ATOM     26  C   UNL A   1      41.847  28.095  30.079  1.00  0.00     0.074 A 
ATOM     27  C   UNL A   1      41.620  30.464  35.988  1.00  0.00     0.029 A 
ATOM     28  N   UNL A   1      41.250  30.037  33.835  1.00  0.00    -0.354 N 
ATOM     29  N   UNL A   1      41.722  28.645  31.263  1.00  0.00    -0.248 NA
ATOM     30  C   UNL A   1      42.954  27.137  29.972  1.00  0.00     0.031 C 
ATOM     31  C   UNL A   1      42.559  29.522  35.552  1.00  0.00     0.029 A 
ATOM     32  C   UNL A   1      42.315  29.239  34.217  1.00  0.00     0.049 A 
ATOM     33  H   UNL A   1      40.853  30.058  32.934  1.00  0.00     0.167 HD
ATOM     34  C   UNL A   1      42.709  28.075  32.054  1.00  0.00     0.074 A 
ATOM     35  C   UNL A   1      43.415  27.127  31.215  1.00  0.00     0.031 C 
ATOM     36  C   UNL A   1      43.001  28.307  33.357  1.00  0.00     0.037 A 
BRANCH  23  37
ATOM     37  C   UNL A   1      39.360  32.509  36.090  1.00  0.00     0.057 A 
ATOM     38  C   UNL A   1      38.391  32.002  36.968  1.00  0.00     0.134 A 
ATOM     39  C   UNL A   1      39.930  33.748  36.399  1.00  0.00     0.134 A 
ATOM     40  F   UNL A   1      37.788  30.831  36.714  1.00  0.00    -0.206 F 
ATOM     41  C   UNL A   1      37.986  32.715  38.097  1.00  0.00     0.040 A 
ATOM     42  C   UNL A   1      39.549  34.460  37.538  1.00  0.00     0.040 A 
ATOM     43  F   UNL A   1      40.857  34.291  35.597  1.00  0.00    -0.206 F 
ATOM     44  C   UNL A   1      38.568  33.947  38.387  1.00  0.00     0.006 A 
ENDBRANCH  23  37
BRANCH  24  45
ATOM     45  C   UNL A   1      41.308  27.586  27.584  1.00  0.00     0.057 A 
ATOM     46  C   UNL A   1      40.853  26.288  27.324  1.00  0.00     0.134 A 
ATOM     47  C   UNL A   1      42.107  28.196  26.608  1.00  0.00     0.134 A 
ATOM     48  F   UNL A   1      40.101  25.643  28.227  1.00  0.00    -0.206 F 
ATOM     49  C   UNL A   1      41.206  25.611  26.154  1.00  0.00     0.040 A 
ATOM     50  C   UNL A   1      42.445  27.540  25.421  1.00  0.00     0.040 A 
ATOM     51  F   UNL A   1      42.578  29.437  26.797  1.00  0.00    -0.206 F 
ATOM     52  C   UNL A   1      42.002  26.239  25.197  1.00  0.00     0.006 A 
ENDBRANCH  24  45
BRANCH  36  53
ATOM     53  C   UNL A   1      44.113  27.496  33.951  1.00  0.00     0.057 A 
ATOM     54  C   UNL A   1      45.437  27.950  33.957  1.00  0.00     0.134 A 
ATOM     55  C   UNL A   1      43.850  26.251  34.537  1.00  0.00     0.134 A 
ATOM     56  F   UNL A   1      45.756  29.127  33.398  1.00  0.00    -0.206 F 
ATOM     57  C   UNL A   1      46.468  27.179  34.497  1.00  0.00     0.040 A 
ATOM     58  C   UNL A   1      44.866  25.485  35.107  1.00  0.00     0.040 A 
ATOM     59  F   UNL A   1      42.600  25.763  34.570  1.00  0.00    -0.206 F 
ATOM     60  C   UNL A   1      46.181  25.945  35.078  1.00  0.00     0.006 A 
ENDBRANCH  36  53
ENDBRANCH  10  11
ENDBRANCH   3   5
ENDBRANCH   2   3
ENDBRANCH   1   2
BRANCH   1  61
ATOM     61  C   UNL A   1      31.778  30.909  26.143  1.00  0.00     0.275 C 
BRANCH  61  62
ATOM     62  O   UNL A   1      32.129  29.725  26.873  1.00  0.00    -0.458 OA
BRANCH  62  63
ATOM     63  C   UNL A   1      33.369  29.240  26.608  1.00  0.00     0.342 C 
ATOM     64  O   UNL A   1      34.436  29.741  26.937  1.00  0.00    -0.246 OA
BRANCH  63  65
ATOM     65  C   UNL A   1      33.250  27.992  25.843  1.00  0.00     0.103 A 
ATOM     66  C   UNL A   1      32.883  26.798  26.477  1.00  0.00     0.035 A 
ATOM     67  C   UNL A   1      33.437  27.986  24.469  1.00  0.00     0.137 A 
ATOM     68  C   UNL A   1      32.710  25.633  25.713  1.00  0.00     0.019 A 
ATOM     69  C   UNL A   1      33.303  26.820  23.731  1.00  0.00    -0.000 A 
ATOM     70  O   UNL A   1      33.763  29.073  23.704  1.00  0.00    -0.492 OA
ATOM     71  Br  UNL A   1      32.066  24.058  26.540  1.00  0.00    -0.051 Br
ATOM     72  C   UNL A   1      32.943  25.628  24.335  1.00  0.00     0.023 A 
ATOM     73  C   UNL A   1      33.513  27.104  22.294  1.00  0.00     0.081 C 
ATOM     74  C   UNL A   1      33.997  28.550  22.376  1.00  0.00     0.234 C 
ENDBRANCH  63  65
ENDBRANCH  62  63
ENDBRANCH  61  62
ENDBRANCH   1  61
TORSDOF 11
ENDMDL
MODEL 3
REMARK VINA RESULT:     -10.9      5.436     10.039
REMARK SMILES O=C(OCCOC(=O)c1cc(Br)cc2c1OCC2)c1ccc(-c2c3nc(c(-c4c(F)cccc4F)c4ccc([nH]4)c(-c4c(F)cccc4F)c4nc(c(-c5c(F)cccc5F)c5ccc2[nH]5)C=C4)C=C3)cc1
REMARK SMILES IDX 4 1 3 2 2 3 1 4 19 5 20 6 72 7 21 8 71 9 22 10 23 11 24 12
REMARK SMILES IDX 65 13 25 14 70 15 64 16 66 17 26 18 69 19 63 20 62 21 27 23
REMARK SMILES IDX 53 24 36 25 52 26 37 27 40 28 51 29 67 30 38 31 39 32 50 34
REMARK SMILES IDX 68 35 41 36 28 37 29 38 34 39 30 40 31 41 33 42 35 43 32 44
REMARK SMILES IDX 54 45 55 46 60 47 56 48 57 49 59 50 61 51 58 52 42 53 43 54
REMARK SMILES IDX 48 55 44 56 45 57 47 58 49 59 46 60 5 61 6 62 7 63 8 64 9 65
REMARK SMILES IDX 10 66 15 67 11 68 14 69 16 70 12 71 13 72 18 73 17 74
REMARK H PARENT 66 22 40 33
REMARK Flexibility Score: inf
ROOT
ATOM      1  C   UNL A   1      38.531  19.858  24.906  1.00  0.00     0.275 C 
ENDROOT
BRANCH   1   2
ATOM      2  O   UNL A   1      39.493  19.178  25.731  1.00  0.00    -0.458 OA
BRANCH   2   3
ATOM      3  C   UNL A   1      40.804  19.465  25.919  1.00  0.00     0.338 C 
ATOM      4  O   UNL A   1      41.653  18.602  25.698  1.00  0.00    -0.246 OA
BRANCH   3   5
ATOM      5  C   UNL A   1      41.269  20.747  26.530  1.00  0.00     0.060 A 
ATOM      6  C   UNL A   1      41.200  21.071  27.883  1.00  0.00     0.016 A 
ATOM      7  C   UNL A   1      41.780  21.713  25.645  1.00  0.00     0.016 A 
ATOM      8  C   UNL A   1      41.698  22.287  28.351  1.00  0.00     0.010 A 
ATOM      9  C   UNL A   1      42.302  22.925  26.106  1.00  0.00     0.010 A 
ATOM     10  C   UNL A   1      42.253  23.219  27.470  1.00  0.00    -0.014 A 
BRANCH  10  11
ATOM     11  C   UNL A   1      42.634  24.543  28.005  1.00  0.00     0.031 A 
ATOM     12  C   UNL A   1      44.089  24.889  28.101  1.00  0.00     0.074 A 
ATOM     13  C   UNL A   1      41.688  25.466  28.254  1.00  0.00     0.049 A 
ATOM     14  N   UNL A   1      44.645  26.038  28.382  1.00  0.00    -0.248 NA
ATOM     15  C   UNL A   1      45.047  23.809  27.808  1.00  0.00     0.031 C 
ATOM     16  C   UNL A   1      40.249  25.251  28.114  1.00  0.00     0.029 A 
ATOM     17  N   UNL A   1      41.791  26.772  28.653  1.00  0.00    -0.354 N 
ATOM     18  C   UNL A   1      46.009  25.835  28.237  1.00  0.00     0.074 A 
ATOM     19  C   UNL A   1      46.206  24.436  27.931  1.00  0.00     0.031 C 
ATOM     20  C   UNL A   1      39.601  26.381  28.443  1.00  0.00     0.029 A 
ATOM     21  C   UNL A   1      40.578  27.391  28.827  1.00  0.00     0.049 A 
ATOM     22  H   UNL A   1      42.653  27.225  28.801  1.00  0.00     0.167 HD
ATOM     23  C   UNL A   1      47.006  26.747  28.308  1.00  0.00     0.037 A 
ATOM     24  C   UNL A   1      40.290  28.635  29.252  1.00  0.00     0.037 A 
ATOM     25  C   UNL A   1      46.802  28.127  28.652  1.00  0.00     0.049 A 
ATOM     26  C   UNL A   1      41.425  29.592  29.478  1.00  0.00     0.074 A 
ATOM     27  C   UNL A   1      47.742  29.129  28.806  1.00  0.00     0.029 A 
ATOM     28  N   UNL A   1      45.562  28.696  28.912  1.00  0.00    -0.354 N 
ATOM     29  N   UNL A   1      42.712  29.394  29.317  1.00  0.00    -0.248 NA
ATOM     30  C   UNL A   1      41.071  30.950  29.904  1.00  0.00     0.031 C 
ATOM     31  C   UNL A   1      47.075  30.294  29.201  1.00  0.00     0.029 A 
ATOM     32  C   UNL A   1      45.714  30.031  29.245  1.00  0.00     0.049 A 
ATOM     33  H   UNL A   1      44.701  28.220  28.864  1.00  0.00     0.167 HD
ATOM     34  C   UNL A   1      43.320  30.611  29.588  1.00  0.00     0.074 A 
ATOM     35  C   UNL A   1      42.256  31.542  29.910  1.00  0.00     0.031 C 
ATOM     36  C   UNL A   1      44.636  30.933  29.565  1.00  0.00     0.037 A 
BRANCH  23  37
ATOM     37  C   UNL A   1      48.391  26.257  28.014  1.00  0.00     0.057 A 
ATOM     38  C   UNL A   1      49.206  25.721  29.022  1.00  0.00     0.134 A 
ATOM     39  C   UNL A   1      48.926  26.339  26.724  1.00  0.00     0.134 A 
ATOM     40  F   UNL A   1      48.763  25.639  30.285  1.00  0.00    -0.206 F 
ATOM     41  C   UNL A   1      50.515  25.309  28.760  1.00  0.00     0.040 A 
ATOM     42  C   UNL A   1      50.224  25.909  26.446  1.00  0.00     0.040 A 
ATOM     43  F   UNL A   1      48.200  26.847  25.717  1.00  0.00    -0.206 F 
ATOM     44  C   UNL A   1      51.025  25.399  27.468  1.00  0.00     0.006 A 
ENDBRANCH  23  37
BRANCH  24  45
ATOM     45  C   UNL A   1      38.882  29.036  29.504  1.00  0.00     0.057 A 
ATOM     46  C   UNL A   1      38.072  29.578  28.500  1.00  0.00     0.134 A 
ATOM     47  C   UNL A   1      38.326  28.917  30.785  1.00  0.00     0.134 A 
ATOM     48  F   UNL A   1      38.551  29.736  27.258  1.00  0.00    -0.206 F 
ATOM     49  C   UNL A   1      36.771  30.014  28.766  1.00  0.00     0.040 A 
ATOM     50  C   UNL A   1      37.019  29.325  31.058  1.00  0.00     0.040 A 
ATOM     51  F   UNL A   1      39.051  28.410  31.792  1.00  0.00    -0.206 F 
ATOM     52  C   UNL A   1      36.241  29.884  30.049  1.00  0.00     0.006 A 
ENDBRANCH  24  45
BRANCH  36  53
ATOM     53  C   UNL A   1      44.984  32.360  29.869  1.00  0.00     0.057 A 
ATOM     54  C   UNL A   1      45.039  33.336  28.867  1.00  0.00     0.134 A 
ATOM     55  C   UNL A   1      45.254  32.761  31.183  1.00  0.00     0.134 A 
ATOM     56  F   UNL A   1      44.807  33.011  27.586  1.00  0.00    -0.206 F 
ATOM     57  C   UNL A   1      45.382  34.658  29.157  1.00  0.00     0.040 A 
ATOM     58  C   UNL A   1      45.567  34.085  31.491  1.00  0.00     0.040 A 
ATOM     59  F   UNL A   1      45.209  31.875  32.189  1.00  0.00    -0.206 F 
ATOM     60  C   UNL A   1      45.641  35.034  30.474  1.00  0.00     0.006 A 
ENDBRANCH  36  53
ENDBRANCH  10  11
ENDBRANCH   3   5
ENDBRANCH   2   3
ENDBRANCH   1   2
BRANCH   1  61
ATOM     61  C   UNL A   1      38.139  21.259  25.383  1.00  0.00     0.275 C 
BRANCH  61  62
ATOM     62  O   UNL A   1      37.230  21.937  24.504  1.00  0.00    -0.458 OA
BRANCH  62  63
ATOM     63  C   UNL A   1      36.340  22.752  25.126  1.00  0.00     0.342 C 
ATOM     64  O   UNL A   1      36.547  23.444  26.114  1.00  0.00    -0.246 OA
BRANCH  63  65
ATOM     65  C   UNL A   1      35.049  22.686  24.427  1.00  0.00     0.103 A 
ATOM     66  C   UNL A   1      34.589  23.772  23.672  1.00  0.00     0.035 A 
ATOM     67  C   UNL A   1      34.293  21.523  24.451  1.00  0.00     0.137 A 
ATOM     68  C   UNL A   1      33.385  23.658  22.959  1.00  0.00     0.019 A 
ATOM     69  C   UNL A   1      33.085  21.438  23.776  1.00  0.00    -0.000 A 
ATOM     70  O   UNL A   1      34.622  20.371  25.113  1.00  0.00    -0.492 OA
ATOM     71  Br  UNL A   1      32.839  25.064  21.816  1.00  0.00    -0.051 Br
ATOM     72  C   UNL A   1      32.609  22.499  23.025  1.00  0.00     0.023 A 
ATOM     73  C   UNL A   1      32.512  20.084  23.933  1.00  0.00     0.081 C 
ATOM     74  C   UNL A   1      33.472  19.507  24.973  1.00  0.00     0.234 C 
ENDBRANCH  63  65
ENDBRANCH  62  63
ENDBRANCH  61  62
ENDBRANCH   1  61
TORSDOF 11
ENDMDL
