MODEL 1
REMARK VINA RESULT:     -10.8      0.000      0.000
REMARK SMILES CC(C)CN(C)S(=O)(=O)c1ccc(C(=O)OCCOC(=O)c2ccc(-c3c4nc(c(-c5c(F)cccc5F)c5ccc([nH]5)c(-c5c(F)cccc5F)c5nc(c(-c6c(F)cccc6F)c6ccc3[nH]6)C=C5)C=C4)cc2)cc1
REMARK SMILES IDX 17 1 16 2 14 3 15 4 13 5 10 6 11 7 77 8 12 9 76 10 7 11 8 12
REMARK SMILES IDX 9 13 5 14 6 15 4 16 2 17 1 18 3 19 18 20 19 21 20 22 21 23
REMARK SMILES IDX 22 24 23 25 75 26 24 27 74 28 25 29 26 30 27 31 68 32 28 33
REMARK SMILES IDX 73 34 67 35 69 36 29 37 72 38 66 39 65 40 30 42 56 43 39 44
REMARK SMILES IDX 55 45 40 46 43 47 54 48 70 49 41 50 42 51 53 53 71 54 44 55
REMARK SMILES IDX 31 56 32 57 37 58 33 59 34 60 36 61 38 62 35 63 57 64 58 65
REMARK SMILES IDX 63 66 59 67 60 68 62 69 64 70 61 71 45 72 46 73 51 74 47 75
REMARK SMILES IDX 48 76 50 77 52 78 49 79
REMARK H PARENT 69 41 43 52
REMARK Flexibility Score: inf
ROOT
ATOM      1  C   UNL A   1      34.922  21.042  25.566  1.00  0.00     0.275 C 
ENDROOT
BRANCH   1   2
ATOM      2  O   UNL A   1      35.070  22.040  26.598  1.00  0.00    -0.458 OA
BRANCH   2   3
ATOM      3  C   UNL A   1      33.928  22.624  27.031  1.00  0.00     0.338 C 
ATOM      4  O   UNL A   1      33.250  22.287  27.988  1.00  0.00    -0.246 OA
BRANCH   3   5
ATOM      5  C   UNL A   1      33.626  23.829  26.222  1.00  0.00     0.060 A 
ATOM      6  C   UNL A   1      33.158  26.132  24.717  1.00  0.00     0.082 A 
ATOM      7  C   UNL A   1      34.422  25.550  24.699  1.00  0.00     0.022 A 
ATOM      8  C   UNL A   1      32.120  25.564  25.470  1.00  0.00     0.022 A 
ATOM      9  C   UNL A   1      34.661  24.430  25.492  1.00  0.00     0.017 A 
ATOM     10  C   UNL A   1      32.348  24.397  26.206  1.00  0.00     0.017 A 
BRANCH   6  11
ATOM     11  S   UNL A   1      32.833  27.639  23.835  1.00  0.00     0.242 S 
ATOM     12  O   UNL A   1      32.119  27.280  22.626  1.00  0.00    -0.207 OA
ATOM     13  O   UNL A   1      34.090  28.344  23.777  1.00  0.00    -0.207 OA
BRANCH  11  14
ATOM     14  N   UNL A   1      31.718  28.538  24.818  1.00  0.00    -0.201 NA
ATOM     15  C   UNL A   1      30.580  29.110  24.031  1.00  0.00     0.124 C 
BRANCH  14  16
ATOM     16  C   UNL A   1      32.391  29.646  25.592  1.00  0.00     0.105 C 
BRANCH  16  17
ATOM     17  C   UNL A   1      32.559  29.336  27.090  1.00  0.00    -0.002 C 
ATOM     18  C   UNL A   1      31.608  28.249  27.592  1.00  0.00     0.009 C 
ATOM     19  C   UNL A   1      34.002  28.874  27.340  1.00  0.00     0.009 C 
ENDBRANCH  16  17
ENDBRANCH  14  16
ENDBRANCH  11  14
ENDBRANCH   6  11
ENDBRANCH   3   5
ENDBRANCH   2   3
ENDBRANCH   1   2
BRANCH   1  20
ATOM     20  C   UNL A   1      36.278  20.579  25.034  1.00  0.00     0.275 C 
BRANCH  20  21
ATOM     21  O   UNL A   1      37.264  21.617  25.181  1.00  0.00    -0.458 OA
BRANCH  21  22
ATOM     22  C   UNL A   1      38.448  21.222  25.698  1.00  0.00     0.338 C 
ATOM     23  O   UNL A   1      38.972  20.124  25.617  1.00  0.00    -0.246 OA
BRANCH  22  24
ATOM     24  C   UNL A   1      39.098  22.356  26.368  1.00  0.00     0.060 A 
ATOM     25  C   UNL A   1      38.626  23.639  26.110  1.00  0.00     0.016 A 
ATOM     26  C   UNL A   1      40.257  22.175  27.119  1.00  0.00     0.016 A 
ATOM     27  C   UNL A   1      39.360  24.753  26.502  1.00  0.00     0.010 A 
ATOM     28  C   UNL A   1      40.935  23.296  27.609  1.00  0.00     0.010 A 
ATOM     29  C   UNL A   1      40.515  24.600  27.277  1.00  0.00    -0.014 A 
BRANCH  29  30
ATOM     30  C   UNL A   1      41.299  25.784  27.726  1.00  0.00     0.031 A 
ATOM     31  C   UNL A   1      40.646  26.837  28.581  1.00  0.00     0.074 A 
ATOM     32  C   UNL A   1      42.588  25.937  27.360  1.00  0.00     0.049 A 
ATOM     33  N   UNL A   1      41.049  28.051  28.856  1.00  0.00    -0.248 NA
ATOM     34  C   UNL A   1      39.359  26.478  29.199  1.00  0.00     0.031 C 
ATOM     35  C   UNL A   1      43.375  24.971  26.591  1.00  0.00     0.029 A 
ATOM     36  N   UNL A   1      43.463  26.974  27.578  1.00  0.00    -0.354 N 
ATOM     37  C   UNL A   1      40.037  28.623  29.619  1.00  0.00     0.074 A 
ATOM     38  C   UNL A   1      39.005  27.620  29.772  1.00  0.00     0.031 C 
ATOM     39  C   UNL A   1      44.616  25.449  26.420  1.00  0.00     0.029 A 
ATOM     40  C   UNL A   1      44.684  26.796  26.973  1.00  0.00     0.049 A 
ATOM     41  H   UNL A   1      43.237  27.767  28.115  1.00  0.00     0.167 HD
ATOM     42  C   UNL A   1      39.976  29.873  30.136  1.00  0.00     0.037 A 
ATOM     43  C   UNL A   1      45.722  27.640  26.819  1.00  0.00     0.037 A 
ATOM     44  C   UNL A   1      41.034  30.845  30.028  1.00  0.00     0.049 A 
ATOM     45  C   UNL A   1      45.613  29.039  27.354  1.00  0.00     0.074 A 
ATOM     46  C   UNL A   1      41.075  32.136  30.526  1.00  0.00     0.029 A 
ATOM     47  N   UNL A   1      42.245  30.624  29.388  1.00  0.00    -0.354 N 
ATOM     48  N   UNL A   1      44.626  29.595  28.012  1.00  0.00    -0.248 NA
ATOM     49  C   UNL A   1      46.750  29.936  27.103  1.00  0.00     0.031 C 
ATOM     50  C   UNL A   1      42.298  32.707  30.159  1.00  0.00     0.029 A 
ATOM     51  C   UNL A   1      43.034  31.758  29.470  1.00  0.00     0.049 A 
ATOM     52  H   UNL A   1      42.503  29.785  28.943  1.00  0.00     0.167 HD
ATOM     53  C   UNL A   1      45.029  30.898  28.272  1.00  0.00     0.074 A 
ATOM     54  C   UNL A   1      46.355  31.048  27.707  1.00  0.00     0.031 C 
ATOM     55  C   UNL A   1      44.360  31.881  28.920  1.00  0.00     0.037 A 
BRANCH  42  56
ATOM     56  C   UNL A   1      38.711  30.281  30.833  1.00  0.00     0.057 A 
ATOM     57  C   UNL A   1      38.534  30.127  32.212  1.00  0.00     0.134 A 
ATOM     58  C   UNL A   1      37.668  30.876  30.110  1.00  0.00     0.134 A 
ATOM     59  F   UNL A   1      39.488  29.554  32.961  1.00  0.00    -0.206 F 
ATOM     60  C   UNL A   1      37.356  30.532  32.846  1.00  0.00     0.040 A 
ATOM     61  C   UNL A   1      36.497  31.307  30.735  1.00  0.00     0.040 A 
ATOM     62  F   UNL A   1      37.776  31.061  28.785  1.00  0.00    -0.206 F 
ATOM     63  C   UNL A   1      36.336  31.131  32.106  1.00  0.00     0.006 A 
ENDBRANCH  42  56
BRANCH  43  64
ATOM     64  C   UNL A   1      46.929  27.200  26.074  1.00  0.00     0.057 A 
ATOM     65  C   UNL A   1      47.037  27.395  24.694  1.00  0.00     0.134 A 
ATOM     66  C   UNL A   1      48.007  26.590  26.727  1.00  0.00     0.134 A 
ATOM     67  F   UNL A   1      46.027  27.952  24.009  1.00  0.00    -0.206 F 
ATOM     68  C   UNL A   1      48.173  26.995  23.987  1.00  0.00     0.040 A 
ATOM     69  C   UNL A   1      49.161  26.212  26.038  1.00  0.00     0.040 A 
ATOM     70  F   UNL A   1      47.966  26.378  28.051  1.00  0.00    -0.206 F 
ATOM     71  C   UNL A   1      49.244  26.411  24.662  1.00  0.00     0.006 A 
ENDBRANCH  43  64
BRANCH  55  72
ATOM     72  C   UNL A   1      45.067  33.190  29.101  1.00  0.00     0.057 A 
ATOM     73  C   UNL A   1      45.919  33.426  30.184  1.00  0.00     0.134 A 
ATOM     74  C   UNL A   1      44.937  34.203  28.142  1.00  0.00     0.134 A 
ATOM     75  F   UNL A   1      46.073  32.499  31.143  1.00  0.00    -0.206 F 
ATOM     76  C   UNL A   1      46.614  34.629  30.313  1.00  0.00     0.040 A 
ATOM     77  C   UNL A   1      45.642  35.401  28.249  1.00  0.00     0.040 A 
ATOM     78  F   UNL A   1      44.138  34.034  27.076  1.00  0.00    -0.206 F 
ATOM     79  C   UNL A   1      46.483  35.617  29.338  1.00  0.00     0.006 A 
ENDBRANCH  55  72
ENDBRANCH  29  30
ENDBRANCH  22  24
ENDBRANCH  21  22
ENDBRANCH  20  21
ENDBRANCH   1  20
TORSDOF 15
ENDMDL
MODEL 2
REMARK VINA RESULT:     -10.6      3.886      7.896
REMARK SMILES CC(C)CN(C)S(=O)(=O)c1ccc(C(=O)OCCOC(=O)c2ccc(-c3c4nc(c(-c5c(F)cccc5F)c5ccc([nH]5)c(-c5c(F)cccc5F)c5nc(c(-c6c(F)cccc6F)c6ccc3[nH]6)C=C5)C=C4)cc2)cc1
REMARK SMILES IDX 17 1 16 2 14 3 15 4 13 5 10 6 11 7 77 8 12 9 76 10 7 11 8 12
REMARK SMILES IDX 9 13 5 14 6 15 4 16 2 17 1 18 3 19 18 20 19 21 20 22 21 23
REMARK SMILES IDX 22 24 23 25 75 26 24 27 74 28 25 29 26 30 27 31 68 32 28 33
REMARK SMILES IDX 73 34 67 35 69 36 29 37 72 38 66 39 65 40 30 42 56 43 39 44
REMARK SMILES IDX 55 45 40 46 43 47 54 48 70 49 41 50 42 51 53 53 71 54 44 55
REMARK SMILES IDX 31 56 32 57 37 58 33 59 34 60 36 61 38 62 35 63 57 64 58 65
REMARK SMILES IDX 63 66 59 67 60 68 62 69 64 70 61 71 45 72 46 73 51 74 47 75
REMARK SMILES IDX 48 76 50 77 52 78 49 79
REMARK H PARENT 69 41 43 52
REMARK Flexibility Score: inf
ROOT
ATOM      1  C   UNL A   1      42.045  20.612  26.058  1.00  0.00     0.275 C 
ENDROOT
BRANCH   1   2
ATOM      2  O   UNL A   1      40.739  21.015  25.597  1.00  0.00    -0.458 OA
BRANCH   2   3
ATOM      3  C   UNL A   1      39.908  21.528  26.535  1.00  0.00     0.338 C 
ATOM      4  O   UNL A   1      40.158  21.707  27.716  1.00  0.00    -0.246 OA
BRANCH   3   5
ATOM      5  C   UNL A   1      38.627  21.945  25.917  1.00  0.00     0.060 A 
ATOM      6  C   UNL A   1      36.196  22.792  24.839  1.00  0.00     0.082 A 
ATOM      7  C   UNL A   1      36.943  23.674  25.613  1.00  0.00     0.022 A 
ATOM      8  C   UNL A   1      36.661  21.494  24.585  1.00  0.00     0.022 A 
ATOM      9  C   UNL A   1      38.131  23.228  26.190  1.00  0.00     0.017 A 
ATOM     10  C   UNL A   1      37.890  21.077  25.106  1.00  0.00     0.017 A 
BRANCH   6  11
ATOM     11  S   UNL A   1      34.609  23.261  24.194  1.00  0.00     0.242 S 
ATOM     12  O   UNL A   1      33.859  22.040  23.977  1.00  0.00    -0.207 OA
ATOM     13  O   UNL A   1      34.876  24.175  23.110  1.00  0.00    -0.207 OA
BRANCH  11  14
ATOM     14  N   UNL A   1      33.804  24.113  25.475  1.00  0.00    -0.201 NA
ATOM     15  C   UNL A   1      33.420  23.222  26.614  1.00  0.00     0.124 C 
BRANCH  14  16
ATOM     16  C   UNL A   1      32.582  24.860  24.995  1.00  0.00     0.105 C 
BRANCH  16  17
ATOM     17  C   UNL A   1      32.573  26.346  25.392  1.00  0.00    -0.002 C 
ATOM     18  C   UNL A   1      33.946  26.867  25.816  1.00  0.00     0.009 C 
ATOM     19  C   UNL A   1      32.085  27.174  24.194  1.00  0.00     0.009 C 
ENDBRANCH  16  17
ENDBRANCH  14  16
ENDBRANCH  11  14
ENDBRANCH   6  11
ENDBRANCH   3   5
ENDBRANCH   2   3
ENDBRANCH   1   2
BRANCH   1  20
ATOM     20  C   UNL A   1      43.122  21.612  25.637  1.00  0.00     0.275 C 
BRANCH  20  21
ATOM     21  O   UNL A   1      42.526  22.802  25.090  1.00  0.00    -0.458 OA
BRANCH  21  22
ATOM     22  C   UNL A   1      43.310  23.902  25.106  1.00  0.00     0.338 C 
ATOM     23  O   UNL A   1      44.317  24.114  24.452  1.00  0.00    -0.246 OA
BRANCH  22  24
ATOM     24  C   UNL A   1      42.744  24.899  26.024  1.00  0.00     0.060 A 
ATOM     25  C   UNL A   1      43.208  26.209  25.948  1.00  0.00     0.016 A 
ATOM     26  C   UNL A   1      41.884  24.520  27.051  1.00  0.00     0.016 A 
ATOM     27  C   UNL A   1      42.907  27.123  26.953  1.00  0.00     0.010 A 
ATOM     28  C   UNL A   1      41.493  25.470  28.000  1.00  0.00     0.010 A 
ATOM     29  C   UNL A   1      42.027  26.774  27.983  1.00  0.00    -0.014 A 
BRANCH  29  30
ATOM     30  C   UNL A   1      41.676  27.750  29.053  1.00  0.00     0.031 A 
ATOM     31  C   UNL A   1      42.475  27.784  30.329  1.00  0.00     0.074 A 
ATOM     32  C   UNL A   1      40.637  28.595  28.901  1.00  0.00     0.049 A 
ATOM     33  N   UNL A   1      42.187  28.351  31.473  1.00  0.00    -0.248 NA
ATOM     34  C   UNL A   1      43.763  27.072  30.320  1.00  0.00     0.031 C 
ATOM     35  C   UNL A   1      39.814  28.725  27.697  1.00  0.00     0.029 A 
ATOM     36  N   UNL A   1      40.086  29.500  29.775  1.00  0.00    -0.354 N 
ATOM     37  C   UNL A   1      43.222  28.009  32.336  1.00  0.00     0.074 A 
ATOM     38  C   UNL A   1      44.149  27.193  31.582  1.00  0.00     0.031 C 
ATOM     39  C   UNL A   1      38.880  29.666  27.900  1.00  0.00     0.029 A 
ATOM     40  C   UNL A   1      38.969  30.131  29.279  1.00  0.00     0.049 A 
ATOM     41  H   UNL A   1      40.454  29.681  30.670  1.00  0.00     0.167 HD
ATOM     42  C   UNL A   1      43.376  28.342  33.640  1.00  0.00     0.037 A 
ATOM     43  C   UNL A   1      38.075  30.940  29.878  1.00  0.00     0.037 A 
ATOM     44  C   UNL A   1      42.477  29.203  34.366  1.00  0.00     0.049 A 
ATOM     45  C   UNL A   1      38.235  31.254  31.337  1.00  0.00     0.074 A 
ATOM     46  C   UNL A   1      42.551  29.610  35.687  1.00  0.00     0.029 A 
ATOM     47  N   UNL A   1      41.350  29.801  33.824  1.00  0.00    -0.354 N 
ATOM     48  N   UNL A   1      39.176  30.871  32.164  1.00  0.00    -0.248 NA
ATOM     49  C   UNL A   1      37.196  32.092  31.953  1.00  0.00     0.031 C 
ATOM     50  C   UNL A   1      41.449  30.429  35.953  1.00  0.00     0.029 A 
ATOM     51  C   UNL A   1      40.713  30.565  34.787  1.00  0.00     0.049 A 
ATOM     52  H   UNL A   1      41.047  29.698  32.893  1.00  0.00     0.167 HD
ATOM     53  C   UNL A   1      38.856  31.435  33.392  1.00  0.00     0.074 A 
ATOM     54  C   UNL A   1      37.637  32.195  33.199  1.00  0.00     0.031 C 
ATOM     55  C   UNL A   1      39.513  31.332  34.572  1.00  0.00     0.037 A 
BRANCH  42  56
ATOM     56  C   UNL A   1      44.536  27.745  34.382  1.00  0.00     0.057 A 
ATOM     57  C   UNL A   1      45.758  28.411  34.521  1.00  0.00     0.134 A 
ATOM     58  C   UNL A   1      44.408  26.494  35.002  1.00  0.00     0.134 A 
ATOM     59  F   UNL A   1      45.951  29.606  33.943  1.00  0.00    -0.206 F 
ATOM     60  C   UNL A   1      46.819  27.847  35.233  1.00  0.00     0.040 A 
ATOM     61  C   UNL A   1      45.452  25.931  35.737  1.00  0.00     0.040 A 
ATOM     62  F   UNL A   1      43.260  25.804  34.915  1.00  0.00    -0.206 F 
ATOM     63  C   UNL A   1      46.664  26.606  35.850  1.00  0.00     0.006 A 
ENDBRANCH  42  56
BRANCH  43  64
ATOM     64  C   UNL A   1      36.917  31.460  29.107  1.00  0.00     0.057 A 
ATOM     65  C   UNL A   1      35.797  30.660  28.859  1.00  0.00     0.134 A 
ATOM     66  C   UNL A   1      36.895  32.772  28.618  1.00  0.00     0.134 A 
ATOM     67  F   UNL A   1      35.769  29.387  29.282  1.00  0.00    -0.206 F 
ATOM     68  C   UNL A   1      34.698  31.144  28.147  1.00  0.00     0.040 A 
ATOM     69  C   UNL A   1      35.792  33.278  27.929  1.00  0.00     0.040 A 
ATOM     70  F   UNL A   1      37.937  33.590  28.826  1.00  0.00    -0.206 F 
ATOM     71  C   UNL A   1      34.689  32.460  27.689  1.00  0.00     0.006 A 
ENDBRANCH  43  64
BRANCH  55  72
ATOM     72  C   UNL A   1      38.961  32.097  35.735  1.00  0.00     0.057 A 
ATOM     73  C   UNL A   1      38.210  31.477  36.738  1.00  0.00     0.134 A 
ATOM     74  C   UNL A   1      39.239  33.463  35.880  1.00  0.00     0.134 A 
ATOM     75  F   UNL A   1      37.899  30.174  36.648  1.00  0.00    -0.206 F 
ATOM     76  C   UNL A   1      37.747  32.189  37.845  1.00  0.00     0.040 A 
ATOM     77  C   UNL A   1      38.799  34.180  36.991  1.00  0.00     0.040 A 
ATOM     78  F   UNL A   1      39.959  34.113  34.953  1.00  0.00    -0.206 F 
ATOM     79  C   UNL A   1      38.049  33.544  37.977  1.00  0.00     0.006 A 
ENDBRANCH  55  72
ENDBRANCH  29  30
ENDBRANCH  22  24
ENDBRANCH  21  22
ENDBRANCH  20  21
ENDBRANCH   1  20
TORSDOF 15
ENDMDL
MODEL 3
REMARK VINA RESULT:     -10.5      4.044      7.738
REMARK SMILES CC(C)CN(C)S(=O)(=O)c1ccc(C(=O)OCCOC(=O)c2ccc(-c3c4nc(c(-c5c(F)cccc5F)c5ccc([nH]5)c(-c5c(F)cccc5F)c5nc(c(-c6c(F)cccc6F)c6ccc3[nH]6)C=C5)C=C4)cc2)cc1
REMARK SMILES IDX 17 1 16 2 14 3 15 4 13 5 10 6 11 7 77 8 12 9 76 10 7 11 8 12
REMARK SMILES IDX 9 13 5 14 6 15 4 16 2 17 1 18 3 19 18 20 19 21 20 22 21 23
REMARK SMILES IDX 22 24 23 25 75 26 24 27 74 28 25 29 26 30 27 31 68 32 28 33
REMARK SMILES IDX 73 34 67 35 69 36 29 37 72 38 66 39 65 40 30 42 56 43 39 44
REMARK SMILES IDX 55 45 40 46 43 47 54 48 70 49 41 50 42 51 53 53 71 54 44 55
REMARK SMILES IDX 31 56 32 57 37 58 33 59 34 60 36 61 38 62 35 63 57 64 58 65
REMARK SMILES IDX 63 66 59 67 60 68 62 69 64 70 61 71 45 72 46 73 51 74 47 75
REMARK SMILES IDX 48 76 50 77 52 78 49 79
REMARK H PARENT 69 41 43 52
REMARK Flexibility Score: inf
ROOT
ATOM      1  C   UNL A   1      40.224  21.257  26.645  1.00  0.00     0.275 C 
ENDROOT
BRANCH   1   2
ATOM      2  O   UNL A   1      39.129  22.043  26.133  1.00  0.00    -0.458 OA
BRANCH   2   3
ATOM      3  C   UNL A   1      38.222  21.381  25.376  1.00  0.00     0.338 C 
ATOM      4  O   UNL A   1      38.239  20.198  25.081  1.00  0.00    -0.246 OA
BRANCH   3   5
ATOM      5  C   UNL A   1      37.106  22.283  25.000  1.00  0.00     0.060 A 
ATOM      6  C   UNL A   1      35.044  23.980  24.191  1.00  0.00     0.082 A 
ATOM      7  C   UNL A   1      35.517  23.012  23.310  1.00  0.00     0.022 A 
ATOM      8  C   UNL A   1      35.582  24.096  25.481  1.00  0.00     0.022 A 
ATOM      9  C   UNL A   1      36.581  22.203  23.702  1.00  0.00     0.017 A 
ATOM     10  C   UNL A   1      36.600  23.231  25.895  1.00  0.00     0.017 A 
BRANCH   6  11
ATOM     11  S   UNL A   1      33.784  25.130  23.696  1.00  0.00     0.242 S 
ATOM     12  O   UNL A   1      33.919  25.320  22.266  1.00  0.00    -0.207 OA
ATOM     13  O   UNL A   1      33.883  26.243  24.609  1.00  0.00    -0.207 OA
BRANCH  11  14
ATOM     14  N   UNL A   1      32.269  24.318  23.945  1.00  0.00    -0.201 NA
ATOM     15  C   UNL A   1      31.158  24.898  23.127  1.00  0.00     0.124 C 
BRANCH  14  16
ATOM     16  C   UNL A   1      31.857  24.296  25.398  1.00  0.00     0.105 C 
BRANCH  16  17
ATOM     17  C   UNL A   1      31.754  22.878  25.987  1.00  0.00    -0.002 C 
ATOM     18  C   UNL A   1      32.158  21.783  24.999  1.00  0.00     0.009 C 
ATOM     19  C   UNL A   1      32.668  22.787  27.217  1.00  0.00     0.009 C 
ENDBRANCH  16  17
ENDBRANCH  14  16
ENDBRANCH  11  14
ENDBRANCH   6  11
ENDBRANCH   3   5
ENDBRANCH   2   3
ENDBRANCH   1   2
BRANCH   1  20
ATOM     20  C   UNL A   1      41.459  21.367  25.751  1.00  0.00     0.275 C 
BRANCH  20  21
ATOM     21  O   UNL A   1      42.482  22.152  26.390  1.00  0.00    -0.458 OA
BRANCH  21  22
ATOM     22  C   UNL A   1      42.762  23.332  25.795  1.00  0.00     0.338 C 
ATOM     23  O   UNL A   1      43.274  23.518  24.704  1.00  0.00    -0.246 OA
BRANCH  22  24
ATOM     24  C   UNL A   1      42.303  24.437  26.646  1.00  0.00     0.060 A 
ATOM     25  C   UNL A   1      42.932  25.672  26.527  1.00  0.00     0.016 A 
ATOM     26  C   UNL A   1      41.373  24.222  27.659  1.00  0.00     0.016 A 
ATOM     27  C   UNL A   1      42.723  26.666  27.477  1.00  0.00     0.010 A 
ATOM     28  C   UNL A   1      41.079  25.260  28.549  1.00  0.00     0.010 A 
ATOM     29  C   UNL A   1      41.777  26.483  28.492  1.00  0.00    -0.014 A 
BRANCH  29  30
ATOM     30  C   UNL A   1      41.523  27.548  29.503  1.00  0.00     0.031 A 
ATOM     31  C   UNL A   1      42.341  27.592  30.767  1.00  0.00     0.074 A 
ATOM     32  C   UNL A   1      40.556  28.466  29.309  1.00  0.00     0.049 A 
ATOM     33  N   UNL A   1      42.118  28.249  31.877  1.00  0.00    -0.248 NA
ATOM     34  C   UNL A   1      43.566  26.776  30.789  1.00  0.00     0.031 C 
ATOM     35  C   UNL A   1      39.728  28.591  28.108  1.00  0.00     0.029 A 
ATOM     36  N   UNL A   1      40.094  29.465  30.132  1.00  0.00    -0.354 N 
ATOM     37  C   UNL A   1      43.133  27.875  32.749  1.00  0.00     0.074 A 
ATOM     38  C   UNL A   1      43.978  26.940  32.038  1.00  0.00     0.031 C 
ATOM     39  C   UNL A   1      38.879  29.618  28.261  1.00  0.00     0.029 A 
ATOM     40  C   UNL A   1      39.026  30.156  29.608  1.00  0.00     0.049 A 
ATOM     41  H   UNL A   1      40.489  29.668  31.010  1.00  0.00     0.167 HD
ATOM     42  C   UNL A   1      43.333  28.271  34.029  1.00  0.00     0.037 A 
ATOM     43  C   UNL A   1      38.212  31.072  30.165  1.00  0.00     0.037 A 
ATOM     44  C   UNL A   1      42.520  29.246  34.709  1.00  0.00     0.049 A 
ATOM     45  C   UNL A   1      38.418  31.458  31.601  1.00  0.00     0.074 A 
ATOM     46  C   UNL A   1      42.646  29.725  36.002  1.00  0.00     0.029 A 
ATOM     47  N   UNL A   1      41.438  29.903  34.143  1.00  0.00    -0.354 N 
ATOM     48  N   UNL A   1      39.336  31.049  32.441  1.00  0.00    -0.248 NA
ATOM     49  C   UNL A   1      37.462  32.416  32.175  1.00  0.00     0.031 C 
ATOM     50  C   UNL A   1      41.620  30.647  36.228  1.00  0.00     0.029 A 
ATOM     51  C   UNL A   1      40.881  30.774  35.063  1.00  0.00     0.049 A 
ATOM     52  H   UNL A   1      41.114  29.769  33.223  1.00  0.00     0.167 HD
ATOM     53  C   UNL A   1      39.082  31.710  33.635  1.00  0.00     0.074 A 
ATOM     54  C   UNL A   1      37.928  32.556  33.408  1.00  0.00     0.031 C 
ATOM     55  C   UNL A   1      39.745  31.624  34.812  1.00  0.00     0.037 A 
BRANCH  42  56
ATOM     56  C   UNL A   1      44.451  27.625  34.794  1.00  0.00     0.057 A 
ATOM     57  C   UNL A   1      44.290  26.412  35.472  1.00  0.00     0.134 A 
ATOM     58  C   UNL A   1      45.723  28.213  34.816  1.00  0.00     0.134 A 
ATOM     59  F   UNL A   1      43.096  25.802  35.501  1.00  0.00    -0.206 F 
ATOM     60  C   UNL A   1      45.349  25.816  36.162  1.00  0.00     0.040 A 
ATOM     61  C   UNL A   1      46.795  27.616  35.480  1.00  0.00     0.040 A 
ATOM     62  F   UNL A   1      45.949  29.373  34.179  1.00  0.00    -0.206 F 
ATOM     63  C   UNL A   1      46.608  26.416  36.161  1.00  0.00     0.006 A 
ENDBRANCH  42  56
BRANCH  43  64
ATOM     64  C   UNL A   1      37.089  31.639  29.375  1.00  0.00     0.057 A 
ATOM     65  C   UNL A   1      37.178  32.912  28.806  1.00  0.00     0.134 A 
ATOM     66  C   UNL A   1      35.910  30.914  29.158  1.00  0.00     0.134 A 
ATOM     67  F   UNL A   1      38.271  33.664  28.999  1.00  0.00    -0.206 F 
ATOM     68  C   UNL A   1      36.132  33.449  28.051  1.00  0.00     0.040 A 
ATOM     69  C   UNL A   1      34.869  31.425  28.382  1.00  0.00     0.040 A 
ATOM     70  F   UNL A   1      35.765  29.685  29.675  1.00  0.00    -0.206 F 
ATOM     71  C   UNL A   1      34.978  32.700  27.829  1.00  0.00     0.006 A 
ENDBRANCH  43  64
BRANCH  55  72
ATOM     72  C   UNL A   1      39.276  32.501  35.932  1.00  0.00     0.057 A 
ATOM     73  C   UNL A   1      39.755  33.804  36.100  1.00  0.00     0.134 A 
ATOM     74  C   UNL A   1      38.284  32.054  36.814  1.00  0.00     0.134 A 
ATOM     75  F   UNL A   1      40.716  34.285  35.295  1.00  0.00    -0.206 F 
ATOM     76  C   UNL A   1      39.270  34.632  37.114  1.00  0.00     0.040 A 
ATOM     77  C   UNL A   1      37.777  32.878  37.818  1.00  0.00     0.040 A 
ATOM     78  F   UNL A   1      37.780  30.815  36.700  1.00  0.00    -0.206 F 
ATOM     79  C   UNL A   1      38.272  34.171  37.971  1.00  0.00     0.006 A 
ENDBRANCH  55  72
ENDBRANCH  29  30
ENDBRANCH  22  24
ENDBRANCH  21  22
ENDBRANCH  20  21
ENDBRANCH   1  20
TORSDOF 15
ENDMDL
