MODEL 1
REMARK VINA RESULT:     -11.7      0.000      0.000
REMARK SMILES Cc1cc(C)cc(C(=O)N2CC[C@H](C(=O)OCCOC(=O)c3ccc(-c4c5nc(c(-c6c(F)cccc6F)c6ccc([nH]6)c(-c6c(F)cccc6F)c6nc(c(-c7c(F)cccc7F)c7ccc4[nH]7)C=C6)C=C5)cc3)[C@@H]2C)c1
REMARK SMILES IDX 17 1 16 2 14 3 15 4 13 5 10 6 11 7 76 8 12 9 77 10 8 11 9 12
REMARK SMILES IDX 7 13 1 14 2 15 3 16 78 17 4 18 5 19 6 20 18 21 19 22 20 23
REMARK SMILES IDX 21 24 22 25 23 26 75 27 24 28 74 29 25 30 26 31 27 32 68 33
REMARK SMILES IDX 28 34 73 35 67 36 69 37 29 38 72 39 66 40 65 41 30 43 56 44
REMARK SMILES IDX 39 45 55 46 40 47 43 48 54 49 70 50 41 51 42 52 53 54 71 55
REMARK SMILES IDX 44 56 31 57 32 58 37 59 33 60 34 61 36 62 38 63 35 64 57 65
REMARK SMILES IDX 58 66 63 67 59 68 60 69 62 70 64 71 61 72 45 73 46 74 51 75
REMARK SMILES IDX 47 76 48 77 50 78 52 79 49 80
REMARK H PARENT 69 42 43 53
REMARK Flexibility Score: inf
ROOT
ATOM      1  C   UNL A   1      34.506  20.948  25.193  1.00  0.00     0.274 C 
ENDROOT
BRANCH   1   2
ATOM      2  O   UNL A   1      33.926  21.488  23.983  1.00  0.00    -0.462 OA
BRANCH   2   3
ATOM      3  C   UNL A   1      33.113  22.569  24.154  1.00  0.00     0.311 C 
ATOM      4  O   UNL A   1      31.960  22.638  23.749  1.00  0.00    -0.252 OA
BRANCH   3   5
ATOM      5  C   UNL A   1      33.861  23.727  24.799  1.00  0.00     0.123 C 
ATOM      6  N   UNL A   1      32.501  25.560  25.500  1.00  0.00    -0.335 N 
ATOM      7  C   UNL A   1      32.670  25.673  24.066  1.00  0.00     0.121 C 
ATOM      8  C   UNL A   1      33.227  24.395  26.039  1.00  0.00     0.096 C 
ATOM      9  C   UNL A   1      33.952  24.899  23.805  1.00  0.00     0.039 C 
ATOM     10  C   UNL A   1      32.356  23.513  26.921  1.00  0.00     0.032 C 
BRANCH   6  11
ATOM     11  C   UNL A   1      31.828  26.574  26.162  1.00  0.00     0.254 C 
ATOM     12  O   UNL A   1      30.653  26.447  26.504  1.00  0.00    -0.269 OA
BRANCH  11  13
ATOM     13  C   UNL A   1      32.467  27.912  26.305  1.00  0.00     0.040 A 
ATOM     14  C   UNL A   1      31.403  31.565  26.501  1.00  0.00     0.044 C 
ATOM     15  C   UNL A   1      32.250  30.328  26.544  1.00  0.00    -0.050 A 
ATOM     16  C   UNL A   1      33.584  30.396  26.959  1.00  0.00     0.006 A 
ATOM     17  C   UNL A   1      31.693  29.078  26.256  1.00  0.00     0.017 A 
ATOM     18  C   UNL A   1      34.363  29.235  27.072  1.00  0.00    -0.050 A 
ATOM     19  C   UNL A   1      35.750  29.328  27.638  1.00  0.00     0.044 C 
ATOM     20  C   UNL A   1      33.800  27.996  26.734  1.00  0.00     0.017 A 
ENDBRANCH  11  13
ENDBRANCH   6  11
ENDBRANCH   3   5
ENDBRANCH   2   3
ENDBRANCH   1   2
BRANCH   1  21
ATOM     21  C   UNL A   1      35.983  20.615  25.000  1.00  0.00     0.275 C 
BRANCH  21  22
ATOM     22  O   UNL A   1      36.775  21.542  25.756  1.00  0.00    -0.458 OA
BRANCH  22  23
ATOM     23  C   UNL A   1      38.109  21.328  25.753  1.00  0.00     0.338 C 
ATOM     24  O   UNL A   1      38.686  20.336  25.320  1.00  0.00    -0.246 OA
BRANCH  23  25
ATOM     25  C   UNL A   1      38.812  22.502  26.321  1.00  0.00     0.060 A 
ATOM     26  C   UNL A   1      38.326  23.794  26.112  1.00  0.00     0.016 A 
ATOM     27  C   UNL A   1      40.026  22.327  26.986  1.00  0.00     0.016 A 
ATOM     28  C   UNL A   1      39.075  24.903  26.497  1.00  0.00     0.010 A 
ATOM     29  C   UNL A   1      40.738  23.443  27.446  1.00  0.00     0.010 A 
ATOM     30  C   UNL A   1      40.284  24.745  27.182  1.00  0.00    -0.014 A 
BRANCH  30  31
ATOM     31  C   UNL A   1      41.094  25.937  27.553  1.00  0.00     0.031 A 
ATOM     32  C   UNL A   1      40.515  26.980  28.469  1.00  0.00     0.074 A 
ATOM     33  C   UNL A   1      42.358  26.084  27.109  1.00  0.00     0.049 A 
ATOM     34  N   UNL A   1      40.951  28.187  28.734  1.00  0.00    -0.248 NA
ATOM     35  C   UNL A   1      39.268  26.626  29.161  1.00  0.00     0.031 C 
ATOM     36  C   UNL A   1      43.092  25.119  26.292  1.00  0.00     0.029 A 
ATOM     37  N   UNL A   1      43.259  27.103  27.306  1.00  0.00    -0.354 N 
ATOM     38  C   UNL A   1      39.996  28.757  29.566  1.00  0.00     0.074 A 
ATOM     39  C   UNL A   1      38.961  27.764  29.766  1.00  0.00     0.031 C 
ATOM     40  C   UNL A   1      44.345  25.563  26.105  1.00  0.00     0.029 A 
ATOM     41  C   UNL A   1      44.475  26.885  26.709  1.00  0.00     0.049 A 
ATOM     42  H   UNL A   1      43.051  27.913  27.826  1.00  0.00     0.167 HD
ATOM     43  C   UNL A   1      39.984  29.998  30.107  1.00  0.00     0.037 A 
ATOM     44  C   UNL A   1      45.563  27.674  26.624  1.00  0.00     0.037 A 
ATOM     45  C   UNL A   1      41.053  30.954  29.977  1.00  0.00     0.049 A 
ATOM     46  C   UNL A   1      45.519  29.057  27.206  1.00  0.00     0.074 A 
ATOM     47  C   UNL A   1      41.132  32.239  30.486  1.00  0.00     0.029 A 
ATOM     48  N   UNL A   1      42.247  30.714  29.312  1.00  0.00    -0.354 N 
ATOM     49  N   UNL A   1      44.562  29.638  27.885  1.00  0.00    -0.248 NA
ATOM     50  C   UNL A   1      46.696  29.906  26.976  1.00  0.00     0.031 C 
ATOM     51  C   UNL A   1      42.366  32.784  30.110  1.00  0.00     0.029 A 
ATOM     52  C   UNL A   1      43.066  31.828  29.394  1.00  0.00     0.049 A 
ATOM     53  H   UNL A   1      42.477  29.876  28.849  1.00  0.00     0.167 HD
ATOM     54  C   UNL A   1      45.018  30.918  28.166  1.00  0.00     0.074 A 
ATOM     55  C   UNL A   1      46.348  31.023  27.602  1.00  0.00     0.031 C 
ATOM     56  C   UNL A   1      44.386  31.919  28.825  1.00  0.00     0.037 A 
BRANCH  43  57
ATOM     57  C   UNL A   1      38.751  30.410  30.855  1.00  0.00     0.057 A 
ATOM     58  C   UNL A   1      38.558  30.111  32.208  1.00  0.00     0.134 A 
ATOM     59  C   UNL A   1      37.744  31.134  30.201  1.00  0.00     0.134 A 
ATOM     60  F   UNL A   1      39.475  29.406  32.887  1.00  0.00    -0.206 F 
ATOM     61  C   UNL A   1      37.397  30.500  32.880  1.00  0.00     0.040 A 
ATOM     62  C   UNL A   1      36.590  31.546  30.868  1.00  0.00     0.040 A 
ATOM     63  F   UNL A   1      37.869  31.455  28.904  1.00  0.00    -0.206 F 
ATOM     64  C   UNL A   1      36.413  31.224  32.211  1.00  0.00     0.006 A 
ENDBRANCH  43  57
BRANCH  44  65
ATOM     65  C   UNL A   1      46.776  27.184  25.924  1.00  0.00     0.057 A 
ATOM     66  C   UNL A   1      47.743  26.436  26.604  1.00  0.00     0.134 A 
ATOM     67  C   UNL A   1      46.990  27.435  24.564  1.00  0.00     0.134 A 
ATOM     68  F   UNL A   1      47.607  26.187  27.914  1.00  0.00    -0.206 F 
ATOM     69  C   UNL A   1      48.880  25.952  25.954  1.00  0.00     0.040 A 
ATOM     70  C   UNL A   1      48.110  26.938  23.897  1.00  0.00     0.040 A 
ATOM     71  F   UNL A   1      46.101  28.151  23.859  1.00  0.00    -0.206 F 
ATOM     72  C   UNL A   1      49.060  26.195  24.593  1.00  0.00     0.006 A 
ENDBRANCH  44  65
BRANCH  56  73
ATOM     73  C   UNL A   1      45.135  33.207  28.984  1.00  0.00     0.057 A 
ATOM     74  C   UNL A   1      45.998  33.424  30.064  1.00  0.00     0.134 A 
ATOM     75  C   UNL A   1      45.009  34.230  28.036  1.00  0.00     0.134 A 
ATOM     76  F   UNL A   1      46.150  32.488  31.013  1.00  0.00    -0.206 F 
ATOM     77  C   UNL A   1      46.698  34.624  30.206  1.00  0.00     0.040 A 
ATOM     78  C   UNL A   1      45.718  35.426  28.157  1.00  0.00     0.040 A 
ATOM     79  F   UNL A   1      44.201  34.080  26.976  1.00  0.00    -0.206 F 
ATOM     80  C   UNL A   1      46.562  35.627  29.248  1.00  0.00     0.006 A 
ENDBRANCH  56  73
ENDBRANCH  30  31
ENDBRANCH  23  25
ENDBRANCH  22  23
ENDBRANCH  21  22
ENDBRANCH   1  21
TORSDOF 13
ENDMDL
MODEL 2
REMARK VINA RESULT:     -11.6      3.438      8.753
REMARK SMILES Cc1cc(C)cc(C(=O)N2CC[C@H](C(=O)OCCOC(=O)c3ccc(-c4c5nc(c(-c6c(F)cccc6F)c6ccc([nH]6)c(-c6c(F)cccc6F)c6nc(c(-c7c(F)cccc7F)c7ccc4[nH]7)C=C6)C=C5)cc3)[C@@H]2C)c1
REMARK SMILES IDX 17 1 16 2 14 3 15 4 13 5 10 6 11 7 76 8 12 9 77 10 8 11 9 12
REMARK SMILES IDX 7 13 1 14 2 15 3 16 78 17 4 18 5 19 6 20 18 21 19 22 20 23
REMARK SMILES IDX 21 24 22 25 23 26 75 27 24 28 74 29 25 30 26 31 27 32 68 33
REMARK SMILES IDX 28 34 73 35 67 36 69 37 29 38 72 39 66 40 65 41 30 43 56 44
REMARK SMILES IDX 39 45 55 46 40 47 43 48 54 49 70 50 41 51 42 52 53 54 71 55
REMARK SMILES IDX 44 56 31 57 32 58 37 59 33 60 34 61 36 62 38 63 35 64 57 65
REMARK SMILES IDX 58 66 63 67 59 68 60 69 62 70 64 71 61 72 45 73 46 74 51 75
REMARK SMILES IDX 47 76 48 77 50 78 52 79 49 80
REMARK H PARENT 69 42 43 53
REMARK Flexibility Score: inf
ROOT
ATOM      1  C   UNL A   1      31.555  28.175  25.723  1.00  0.00     0.274 C 
ENDROOT
BRANCH   1   2
ATOM      2  O   UNL A   1      30.752  27.242  24.963  1.00  0.00    -0.462 OA
BRANCH   2   3
ATOM      3  C   UNL A   1      31.219  25.962  24.926  1.00  0.00     0.311 C 
ATOM      4  O   UNL A   1      30.536  24.984  24.646  1.00  0.00    -0.252 OA
BRANCH   3   5
ATOM      5  C   UNL A   1      32.662  25.885  25.402  1.00  0.00     0.123 C 
ATOM      6  N   UNL A   1      34.033  24.297  24.262  1.00  0.00    -0.335 N 
ATOM      7  C   UNL A   1      33.219  23.563  25.209  1.00  0.00     0.121 C 
ATOM      8  C   UNL A   1      33.769  25.745  24.333  1.00  0.00     0.096 C 
ATOM      9  C   UNL A   1      32.860  24.613  26.247  1.00  0.00     0.039 C 
ATOM     10  C   UNL A   1      33.485  26.362  22.972  1.00  0.00     0.032 C 
BRANCH   6  11
ATOM     11  C   UNL A   1      34.993  23.601  23.545  1.00  0.00     0.254 C 
ATOM     12  O   UNL A   1      34.791  23.239  22.387  1.00  0.00    -0.269 OA
BRANCH  11  13
ATOM     13  C   UNL A   1      36.221  23.116  24.235  1.00  0.00     0.040 A 
ATOM     14  C   UNL A   1      38.606  24.297  26.960  1.00  0.00     0.044 C 
ATOM     15  C   UNL A   1      37.929  23.424  25.946  1.00  0.00    -0.050 A 
ATOM     16  C   UNL A   1      38.287  22.079  25.816  1.00  0.00     0.006 A 
ATOM     17  C   UNL A   1      36.872  23.922  25.177  1.00  0.00     0.017 A 
ATOM     18  C   UNL A   1      37.610  21.236  24.921  1.00  0.00    -0.050 A 
ATOM     19  C   UNL A   1      37.933  19.770  24.897  1.00  0.00     0.044 C 
ATOM     20  C   UNL A   1      36.583  21.765  24.125  1.00  0.00     0.017 A 
ENDBRANCH  11  13
ENDBRANCH   6  11
ENDBRANCH   3   5
ENDBRANCH   2   3
ENDBRANCH   1   2
BRANCH   1  21
ATOM     21  C   UNL A   1      31.793  29.466  24.944  1.00  0.00     0.275 C 
BRANCH  21  22
ATOM     22  O   UNL A   1      32.985  30.096  25.431  1.00  0.00    -0.458 OA
BRANCH  22  23
ATOM     23  C   UNL A   1      32.836  30.917  26.492  1.00  0.00     0.338 C 
ATOM     24  O   UNL A   1      31.888  31.665  26.706  1.00  0.00    -0.246 OA
BRANCH  23  25
ATOM     25  C   UNL A   1      33.983  30.764  27.417  1.00  0.00     0.060 A 
ATOM     26  C   UNL A   1      34.681  31.881  27.879  1.00  0.00     0.016 A 
ATOM     27  C   UNL A   1      34.435  29.488  27.756  1.00  0.00     0.016 A 
ATOM     28  C   UNL A   1      35.859  31.730  28.607  1.00  0.00     0.010 A 
ATOM     29  C   UNL A   1      35.573  29.339  28.558  1.00  0.00     0.010 A 
ATOM     30  C   UNL A   1      36.314  30.459  28.970  1.00  0.00    -0.014 A 
BRANCH  30  31
ATOM     31  C   UNL A   1      37.594  30.308  29.714  1.00  0.00     0.031 A 
ATOM     32  C   UNL A   1      38.767  29.634  29.058  1.00  0.00     0.074 A 
ATOM     33  C   UNL A   1      37.736  30.799  30.961  1.00  0.00     0.049 A 
ATOM     34  N   UNL A   1      39.882  29.201  29.591  1.00  0.00    -0.248 NA
ATOM     35  C   UNL A   1      38.661  29.397  27.610  1.00  0.00     0.031 C 
ATOM     36  C   UNL A   1      36.725  31.557  31.699  1.00  0.00     0.029 A 
ATOM     37  N   UNL A   1      38.805  30.748  31.824  1.00  0.00    -0.354 N 
ATOM     38  C   UNL A   1      40.575  28.579  28.560  1.00  0.00     0.074 A 
ATOM     39  C   UNL A   1      39.760  28.695  27.370  1.00  0.00     0.031 C 
ATOM     40  C   UNL A   1      37.240  31.948  32.875  1.00  0.00     0.029 A 
ATOM     41  C   UNL A   1      38.581  31.391  33.015  1.00  0.00     0.049 A 
ATOM     42  H   UNL A   1      39.651  30.293  31.607  1.00  0.00     0.167 HD
ATOM     43  C   UNL A   1      41.781  27.962  28.608  1.00  0.00     0.037 A 
ATOM     44  C   UNL A   1      39.353  31.491  34.115  1.00  0.00     0.037 A 
ATOM     45  C   UNL A   1      42.628  27.920  29.772  1.00  0.00     0.049 A 
ATOM     46  C   UNL A   1      40.672  30.777  34.157  1.00  0.00     0.074 A 
ATOM     47  C   UNL A   1      43.865  27.316  29.919  1.00  0.00     0.029 A 
ATOM     48  N   UNL A   1      42.338  28.535  30.980  1.00  0.00    -0.354 N 
ATOM     49  N   UNL A   1      41.268  30.083  33.220  1.00  0.00    -0.248 NA
ATOM     50  C   UNL A   1      41.410  30.831  35.427  1.00  0.00     0.031 C 
ATOM     51  C   UNL A   1      44.313  27.549  31.225  1.00  0.00     0.029 A 
ATOM     52  C   UNL A   1      43.369  28.322  31.880  1.00  0.00     0.049 A 
ATOM     53  H   UNL A   1      41.518  29.047  31.171  1.00  0.00     0.167 HD
ATOM     54  C   UNL A   1      42.448  29.618  33.782  1.00  0.00     0.074 A 
ATOM     55  C   UNL A   1      42.497  30.128  35.137  1.00  0.00     0.031 C 
ATOM     56  C   UNL A   1      43.402  28.833  33.226  1.00  0.00     0.037 A 
BRANCH  43  57
ATOM     57  C   UNL A   1      42.233  27.241  27.373  1.00  0.00     0.057 A 
ATOM     58  C   UNL A   1      42.877  27.894  26.317  1.00  0.00     0.134 A 
ATOM     59  C   UNL A   1      42.027  25.861  27.253  1.00  0.00     0.134 A 
ATOM     60  F   UNL A   1      43.089  29.217  26.362  1.00  0.00    -0.206 F 
ATOM     61  C   UNL A   1      43.283  27.201  25.174  1.00  0.00     0.040 A 
ATOM     62  C   UNL A   1      42.447  25.154  26.126  1.00  0.00     0.040 A 
ATOM     63  F   UNL A   1      41.417  25.174  28.233  1.00  0.00    -0.206 F 
ATOM     64  C   UNL A   1      43.073  25.827  25.080  1.00  0.00     0.006 A 
ENDBRANCH  43  57
BRANCH  44  65
ATOM     65  C   UNL A   1      38.875  32.272  35.282  1.00  0.00     0.057 A 
ATOM     66  C   UNL A   1      38.207  31.645  36.339  1.00  0.00     0.134 A 
ATOM     67  C   UNL A   1      39.085  33.653  35.377  1.00  0.00     0.134 A 
ATOM     68  F   UNL A   1      37.951  30.330  36.293  1.00  0.00    -0.206 F 
ATOM     69  C   UNL A   1      37.768  32.364  37.453  1.00  0.00     0.040 A 
ATOM     70  C   UNL A   1      38.673  34.379  36.494  1.00  0.00     0.040 A 
ATOM     71  F   UNL A   1      39.715  34.311  34.392  1.00  0.00    -0.206 F 
ATOM     72  C   UNL A   1      38.010  33.734  37.535  1.00  0.00     0.006 A 
ENDBRANCH  44  65
BRANCH  56  73
ATOM     73  C   UNL A   1      44.584  28.492  34.080  1.00  0.00     0.057 A 
ATOM     74  C   UNL A   1      45.714  29.317  34.132  1.00  0.00     0.134 A 
ATOM     75  C   UNL A   1      44.584  27.340  34.877  1.00  0.00     0.134 A 
ATOM     76  F   UNL A   1      45.781  30.426  33.380  1.00  0.00    -0.206 F 
ATOM     77  C   UNL A   1      46.812  28.998  34.933  1.00  0.00     0.040 A 
ATOM     78  C   UNL A   1      45.668  27.021  35.696  1.00  0.00     0.040 A 
ATOM     79  F   UNL A   1      43.529  26.512  34.875  1.00  0.00    -0.206 F 
ATOM     80  C   UNL A   1      46.788  27.849  35.722  1.00  0.00     0.006 A 
ENDBRANCH  56  73
ENDBRANCH  30  31
ENDBRANCH  23  25
ENDBRANCH  22  23
ENDBRANCH  21  22
ENDBRANCH   1  21
TORSDOF 13
ENDMDL
MODEL 3
REMARK VINA RESULT:     -11.6      3.549      8.769
REMARK SMILES Cc1cc(C)cc(C(=O)N2CC[C@H](C(=O)OCCOC(=O)c3ccc(-c4c5nc(c(-c6c(F)cccc6F)c6ccc([nH]6)c(-c6c(F)cccc6F)c6nc(c(-c7c(F)cccc7F)c7ccc4[nH]7)C=C6)C=C5)cc3)[C@@H]2C)c1
REMARK SMILES IDX 17 1 16 2 14 3 15 4 13 5 10 6 11 7 76 8 12 9 77 10 8 11 9 12
REMARK SMILES IDX 7 13 1 14 2 15 3 16 78 17 4 18 5 19 6 20 18 21 19 22 20 23
REMARK SMILES IDX 21 24 22 25 23 26 75 27 24 28 74 29 25 30 26 31 27 32 68 33
REMARK SMILES IDX 28 34 73 35 67 36 69 37 29 38 72 39 66 40 65 41 30 43 56 44
REMARK SMILES IDX 39 45 55 46 40 47 43 48 54 49 70 50 41 51 42 52 53 54 71 55
REMARK SMILES IDX 44 56 31 57 32 58 37 59 33 60 34 61 36 62 38 63 35 64 57 65
REMARK SMILES IDX 58 66 63 67 59 68 60 69 62 70 64 71 61 72 45 73 46 74 51 75
REMARK SMILES IDX 47 76 48 77 50 78 52 79 49 80
REMARK H PARENT 69 42 43 53
REMARK Flexibility Score: inf
ROOT
ATOM      1  C   UNL A   1      31.536  28.744  23.989  1.00  0.00     0.274 C 
ENDROOT
BRANCH   1   2
ATOM      2  O   UNL A   1      32.896  28.365  23.671  1.00  0.00    -0.462 OA
BRANCH   2   3
ATOM      3  C   UNL A   1      33.035  27.187  23.000  1.00  0.00     0.311 C 
ATOM      4  O   UNL A   1      33.714  27.042  21.991  1.00  0.00    -0.252 OA
BRANCH   3   5
ATOM      5  C   UNL A   1      32.140  26.106  23.588  1.00  0.00     0.123 C 
ATOM      6  N   UNL A   1      33.278  24.197  24.460  1.00  0.00    -0.335 N 
ATOM      7  C   UNL A   1      33.244  24.058  23.019  1.00  0.00     0.121 C 
ATOM      8  C   UNL A   1      32.593  25.426  24.899  1.00  0.00     0.096 C 
ATOM      9  C   UNL A   1      32.058  24.918  22.613  1.00  0.00     0.039 C 
ATOM     10  C   UNL A   1      33.437  26.266  25.847  1.00  0.00     0.032 C 
BRANCH   6  11
ATOM     11  C   UNL A   1      33.801  23.154  25.207  1.00  0.00     0.254 C 
ATOM     12  O   UNL A   1      33.105  22.524  26.003  1.00  0.00    -0.269 OA
BRANCH  11  13
ATOM     13  C   UNL A   1      35.268  22.899  25.193  1.00  0.00     0.040 A 
ATOM     14  C   UNL A   1      38.446  24.504  26.546  1.00  0.00     0.044 C 
ATOM     15  C   UNL A   1      37.514  23.518  25.909  1.00  0.00    -0.050 A 
ATOM     16  C   UNL A   1      37.974  22.256  25.521  1.00  0.00     0.006 A 
ATOM     17  C   UNL A   1      36.154  23.815  25.773  1.00  0.00     0.017 A 
ATOM     18  C   UNL A   1      37.094  21.300  24.990  1.00  0.00    -0.050 A 
ATOM     19  C   UNL A   1      37.594  19.914  24.702  1.00  0.00     0.044 C 
ATOM     20  C   UNL A   1      35.742  21.633  24.820  1.00  0.00     0.017 A 
ENDBRANCH  11  13
ENDBRANCH   6  11
ENDBRANCH   3   5
ENDBRANCH   2   3
ENDBRANCH   1   2
BRANCH   1  21
ATOM     21  C   UNL A   1      31.492  29.729  25.154  1.00  0.00     0.275 C 
BRANCH  21  22
ATOM     22  O   UNL A   1      32.833  30.070  25.532  1.00  0.00    -0.458 OA
BRANCH  22  23
ATOM     23  C   UNL A   1      32.965  30.866  26.615  1.00  0.00     0.338 C 
ATOM     24  O   UNL A   1      32.121  31.639  27.056  1.00  0.00    -0.246 OA
BRANCH  23  25
ATOM     25  C   UNL A   1      34.286  30.646  27.248  1.00  0.00     0.060 A 
ATOM     26  C   UNL A   1      34.725  29.357  27.555  1.00  0.00     0.016 A 
ATOM     27  C   UNL A   1      35.060  31.742  27.634  1.00  0.00     0.016 A 
ATOM     28  C   UNL A   1      35.884  29.162  28.302  1.00  0.00     0.010 A 
ATOM     29  C   UNL A   1      36.268  31.540  28.313  1.00  0.00     0.010 A 
ATOM     30  C   UNL A   1      36.680  30.248  28.680  1.00  0.00    -0.014 A 
BRANCH  30  31
ATOM     31  C   UNL A   1      37.895  30.030  29.511  1.00  0.00     0.031 A 
ATOM     32  C   UNL A   1      39.056  29.256  28.951  1.00  0.00     0.074 A 
ATOM     33  C   UNL A   1      37.991  30.547  30.751  1.00  0.00     0.049 A 
ATOM     34  N   UNL A   1      40.100  28.761  29.568  1.00  0.00    -0.248 NA
ATOM     35  C   UNL A   1      39.027  28.983  27.506  1.00  0.00     0.031 C 
ATOM     36  C   UNL A   1      36.992  31.396  31.401  1.00  0.00     0.029 A 
ATOM     37  N   UNL A   1      38.995  30.447  31.684  1.00  0.00    -0.354 N 
ATOM     38  C   UNL A   1      40.812  28.062  28.602  1.00  0.00     0.074 A 
ATOM     39  C   UNL A   1      40.086  28.199  27.358  1.00  0.00     0.031 C 
ATOM     40  C   UNL A   1      37.456  31.785  32.598  1.00  0.00     0.029 A 
ATOM     41  C   UNL A   1      38.742  31.140  32.841  1.00  0.00     0.049 A 
ATOM     42  H   UNL A   1      39.818  29.928  31.536  1.00  0.00     0.167 HD
ATOM     43  C   UNL A   1      41.964  27.364  28.747  1.00  0.00     0.037 A 
ATOM     44  C   UNL A   1      39.446  31.219  33.987  1.00  0.00     0.037 A 
ATOM     45  C   UNL A   1      42.730  27.298  29.964  1.00  0.00     0.049 A 
ATOM     46  C   UNL A   1      40.705  30.415  34.136  1.00  0.00     0.074 A 
ATOM     47  C   UNL A   1      43.908  26.613  30.209  1.00  0.00     0.029 A 
ATOM     48  N   UNL A   1      42.407  27.968  31.135  1.00  0.00    -0.354 N 
ATOM     49  N   UNL A   1      41.309  29.653  33.258  1.00  0.00    -0.248 NA
ATOM     50  C   UNL A   1      41.362  30.456  35.450  1.00  0.00     0.031 C 
ATOM     51  C   UNL A   1      44.286  26.853  31.536  1.00  0.00     0.029 A 
ATOM     52  C   UNL A   1      43.360  27.710  32.106  1.00  0.00     0.049 A 
ATOM     53  H   UNL A   1      41.615  28.541  31.257  1.00  0.00     0.167 HD
ATOM     54  C   UNL A   1      42.414  29.124  33.909  1.00  0.00     0.074 A 
ATOM     55  C   UNL A   1      42.412  29.670  35.251  1.00  0.00     0.031 C 
ATOM     56  C   UNL A   1      43.343  28.257  33.439  1.00  0.00     0.037 A 
BRANCH  43  57
ATOM     57  C   UNL A   1      42.442  26.576  27.563  1.00  0.00     0.057 A 
ATOM     58  C   UNL A   1      43.280  27.124  26.586  1.00  0.00     0.134 A 
ATOM     59  C   UNL A   1      42.061  25.236  27.414  1.00  0.00     0.134 A 
ATOM     60  F   UNL A   1      43.667  28.406  26.660  1.00  0.00    -0.206 F 
ATOM     61  C   UNL A   1      43.706  26.371  25.489  1.00  0.00     0.040 A 
ATOM     62  C   UNL A   1      42.499  24.468  26.334  1.00  0.00     0.040 A 
ATOM     63  F   UNL A   1      41.261  24.649  28.318  1.00  0.00    -0.206 F 
ATOM     64  C   UNL A   1      43.320  25.038  25.365  1.00  0.00     0.006 A 
ENDBRANCH  43  57
BRANCH  44  65
ATOM     65  C   UNL A   1      38.951  32.066  35.099  1.00  0.00     0.057 A 
ATOM     66  C   UNL A   1      39.162  33.449  35.097  1.00  0.00     0.134 A 
ATOM     67  C   UNL A   1      38.245  31.521  36.179  1.00  0.00     0.134 A 
ATOM     68  F   UNL A   1      39.857  34.025  34.104  1.00  0.00    -0.206 F 
ATOM     69  C   UNL A   1      38.686  34.262  36.127  1.00  0.00     0.040 A 
ATOM     70  C   UNL A   1      37.743  32.324  37.203  1.00  0.00     0.040 A 
ATOM     71  F   UNL A   1      38.014  30.201  36.240  1.00  0.00    -0.206 F 
ATOM     72  C   UNL A   1      37.965  33.699  37.180  1.00  0.00     0.006 A 
ENDBRANCH  44  65
BRANCH  56  73
ATOM     73  C   UNL A   1      44.439  27.860  34.378  1.00  0.00     0.057 A 
ATOM     74  C   UNL A   1      44.365  26.687  35.138  1.00  0.00     0.134 A 
ATOM     75  C   UNL A   1      45.591  28.646  34.506  1.00  0.00     0.134 A 
ATOM     76  F   UNL A   1      43.280  25.900  35.071  1.00  0.00    -0.206 F 
ATOM     77  C   UNL A   1      45.391  26.318  36.009  1.00  0.00     0.040 A 
ATOM     78  C   UNL A   1      46.633  28.277  35.359  1.00  0.00     0.040 A 
ATOM     79  F   UNL A   1      45.725  29.779  33.801  1.00  0.00    -0.206 F 
ATOM     80  C   UNL A   1      46.532  27.112  36.117  1.00  0.00     0.006 A 
ENDBRANCH  56  73
ENDBRANCH  30  31
ENDBRANCH  23  25
ENDBRANCH  22  23
ENDBRANCH  21  22
ENDBRANCH   1  21
TORSDOF 13
ENDMDL
