MODEL 1
REMARK VINA RESULT:     -14.0      0.000      0.000
REMARK SMILES Cc1ccc(NC(=O)c2ccccc2NC(=O)[C@H]2CCCC[C@H]2C(=O)OCCOC(=O)c2ccc(-c3c4nc(c(-c5c(F)cccc5F)c5ccc([nH]5)c(-c5c(F)cccc5F)c5nc(c(-c6c(F)cccc6F)c6ccc3[nH]6)C=C5)C=C4)cc2)cc1
REMARK SMILES IDX 27 1 26 2 24 3 25 4 23 5 18 6 19 7 20 8 22 9 21 10 16 11
REMARK SMILES IDX 15 12 17 14 14 15 9 16 10 17 11 18 13 19 12 20 7 21 6 22
REMARK SMILES IDX 8 24 5 25 1 26 2 27 3 28 87 29 4 30 86 31 28 32 29 33 30 34
REMARK SMILES IDX 31 35 32 36 33 37 85 38 34 39 84 40 35 41 36 42 37 43 78 44
REMARK SMILES IDX 38 45 83 46 77 47 79 48 39 49 82 50 76 51 75 52 40 54 66 55
REMARK SMILES IDX 49 56 65 57 50 58 53 59 64 60 80 61 51 62 52 63 63 65 81 66
REMARK SMILES IDX 54 67 41 68 42 69 47 70 43 71 44 72 46 73 48 74 45 75 67 76
REMARK SMILES IDX 68 77 73 78 69 79 70 80 72 81 74 82 71 83 55 84 56 85 61 86
REMARK SMILES IDX 57 87 58 88 60 89 62 90 59 91
REMARK H PARENT 15 13 6 23 79 53 53 64
REMARK Flexibility Score: inf
ROOT
ATOM      1  C   UNL A   1      33.291  31.451  27.628  1.00  0.00     0.274 C 
ENDROOT
BRANCH   1   2
ATOM      2  O   UNL A   1      34.082  30.572  26.812  1.00  0.00    -0.462 OA
BRANCH   2   3
ATOM      3  C   UNL A   1      33.547  29.236  26.548  1.00  0.00     0.309 C 
ATOM      4  O   UNL A   1      33.790  28.605  27.617  1.00  0.00    -0.252 OA
BRANCH   3   5
ATOM      5  C   UNL A   1      32.565  28.640  24.668  1.00  0.00     0.111 C 
ATOM      6  C   UNL A   1      32.517  27.088  23.794  1.00  0.00     0.093 C 
ATOM      7  C   UNL A   1      31.851  27.013  22.405  1.00  0.00     0.014 C 
ATOM      8  C   UNL A   1      30.430  27.516  22.375  1.00  0.00     0.001 C 
ATOM      9  C   UNL A   1      31.065  29.386  23.920  1.00  0.00     0.016 C 
ATOM     10  C   UNL A   1      30.505  28.999  22.557  1.00  0.00     0.001 C 
BRANCH   6  11
ATOM     11  C   UNL A   1      31.976  25.873  24.517  1.00  0.00     0.228 C 
ATOM     12  N   UNL A   1      32.792  24.831  24.844  1.00  0.00    -0.325 N 
ATOM     13  H   UNL A   1      32.333  24.209  25.453  1.00  0.00     0.169 HD
ATOM     14  O   UNL A   1      30.825  25.869  24.966  1.00  0.00    -0.274 OA
BRANCH  12  15
ATOM     15  C   UNL A   1      34.102  24.380  24.567  1.00  0.00     0.054 A 
ATOM     16  C   UNL A   1      34.344  23.686  23.355  1.00  0.00     0.063 A 
ATOM     17  C   UNL A   1      35.587  23.036  23.175  1.00  0.00     0.016 A 
ATOM     18  C   UNL A   1      36.588  23.100  24.140  1.00  0.00     0.001 A 
ATOM     19  C   UNL A   1      35.174  24.540  25.456  1.00  0.00     0.027 A 
ATOM     20  C   UNL A   1      36.387  23.871  25.271  1.00  0.00     0.002 A 
BRANCH  16  21
ATOM     21  C   UNL A   1      33.337  23.395  22.281  1.00  0.00     0.257 C 
ATOM     22  N   UNL A   1      32.572  22.252  22.169  1.00  0.00    -0.322 N 
ATOM     23  H   UNL A   1      32.123  22.175  21.296  1.00  0.00     0.170 HD
ATOM     24  O   UNL A   1      33.254  24.206  21.351  1.00  0.00    -0.269 OA
BRANCH  22  25
ATOM     25  C   UNL A   1      32.291  21.171  23.023  1.00  0.00     0.041 A 
ATOM     26  C   UNL A   1      32.927  17.590  25.297  1.00  0.00     0.044 C 
ATOM     27  C   UNL A   1      32.538  18.818  24.526  1.00  0.00    -0.051 A 
ATOM     28  C   UNL A   1      32.513  20.068  25.159  1.00  0.00     0.005 A 
ATOM     29  C   UNL A   1      32.315  18.751  23.148  1.00  0.00     0.005 A 
ATOM     30  C   UNL A   1      32.371  21.244  24.412  1.00  0.00     0.026 A 
ATOM     31  C   UNL A   1      32.169  19.921  22.400  1.00  0.00     0.026 A 
ENDBRANCH  22  25
ENDBRANCH  16  21
ENDBRANCH  12  15
ENDBRANCH   6  11
ENDBRANCH   3   5
ENDBRANCH   2   3
ENDBRANCH   1   2
BRANCH   1  32
ATOM     32  C   UNL A   1      34.180  32.572  28.187  1.00  0.00     0.275 C 
BRANCH  32  33
ATOM     33  O   UNL A   1      34.787  32.341  29.502  1.00  0.00    -0.458 OA
BRANCH  33  34
ATOM     34  C   UNL A   1      36.017  31.852  29.836  1.00  0.00     0.338 C 
ATOM     35  O   UNL A   1      36.943  32.572  30.181  1.00  0.00    -0.246 OA
BRANCH  34  36
ATOM     36  C   UNL A   1      36.326  30.450  29.470  1.00  0.00     0.060 A 
ATOM     37  C   UNL A   1      36.671  29.386  30.873  1.00  0.00     0.016 A 
ATOM     38  C   UNL A   1      37.183  30.210  27.925  1.00  0.00     0.016 A 
ATOM     39  C   UNL A   1      38.038  28.197  30.751  1.00  0.00     0.010 A 
ATOM     40  C   UNL A   1      38.468  28.964  27.756  1.00  0.00     0.010 A 
ATOM     41  C   UNL A   1      38.996  28.076  29.218  1.00  0.00    -0.014 A 
BRANCH  41  42
ATOM     42  C   UNL A   1      40.404  27.737  29.152  1.00  0.00     0.031 A 
ATOM     43  C   UNL A   1      40.774  26.452  28.531  1.00  0.00     0.074 A 
ATOM     44  C   UNL A   1      41.280  28.707  29.500  1.00  0.00     0.049 A 
ATOM     45  N   UNL A   1      41.758  25.730  28.937  1.00  0.00    -0.248 NA
ATOM     46  C   UNL A   1      39.985  25.778  27.491  1.00  0.00     0.031 C 
ATOM     47  C   UNL A   1      42.720  28.746  29.297  1.00  0.00     0.029 A 
ATOM     48  N   UNL A   1      41.056  29.870  30.237  1.00  0.00    -0.354 N 
ATOM     49  C   UNL A   1      41.928  24.731  27.999  1.00  0.00     0.074 A 
ATOM     50  C   UNL A   1      40.678  24.655  27.309  1.00  0.00     0.031 C 
ATOM     51  C   UNL A   1      43.249  29.639  30.160  1.00  0.00     0.029 A 
ATOM     52  C   UNL A   1      42.173  30.127  31.012  1.00  0.00     0.049 A 
ATOM     53  H   UNL A   1      40.238  30.418  30.209  1.00  0.00     0.167 HD
ATOM     54  C   UNL A   1      43.188  24.266  27.756  1.00  0.00     0.037 A 
ATOM     55  C   UNL A   1      42.117  30.059  32.375  1.00  0.00     0.037 A 
ATOM     56  C   UNL A   1      44.120  24.937  28.668  1.00  0.00     0.049 A 
ATOM     57  C   UNL A   1      42.911  28.859  32.852  1.00  0.00     0.074 A 
ATOM     58  C   UNL A   1      44.955  26.032  28.502  1.00  0.00     0.029 A 
ATOM     59  N   UNL A   1      43.956  24.780  30.042  1.00  0.00    -0.354 N 
ATOM     60  N   UNL A   1      43.206  27.836  32.091  1.00  0.00    -0.248 NA
ATOM     61  C   UNL A   1      43.481  28.737  34.189  1.00  0.00     0.031 C 
ATOM     62  C   UNL A   1      45.223  26.576  29.790  1.00  0.00     0.029 A 
ATOM     63  C   UNL A   1      44.571  25.804  30.738  1.00  0.00     0.049 A 
ATOM     64  H   UNL A   1      43.467  24.035  30.462  1.00  0.00     0.167 HD
ATOM     65  C   UNL A   1      44.021  26.972  32.768  1.00  0.00     0.074 A 
ATOM     66  C   UNL A   1      44.158  27.580  34.080  1.00  0.00     0.031 C 
ATOM     67  C   UNL A   1      44.528  25.836  32.199  1.00  0.00     0.037 A 
BRANCH  54  68
ATOM     68  C   UNL A   1      43.617  23.495  26.516  1.00  0.00     0.057 A 
ATOM     69  C   UNL A   1      43.399  22.103  26.442  1.00  0.00     0.134 A 
ATOM     70  C   UNL A   1      44.271  24.020  25.382  1.00  0.00     0.134 A 
ATOM     71  F   UNL A   1      42.731  21.446  27.398  1.00  0.00    -0.206 F 
ATOM     72  C   UNL A   1      43.847  21.307  25.376  1.00  0.00     0.040 A 
ATOM     73  C   UNL A   1      44.751  23.232  24.324  1.00  0.00     0.040 A 
ATOM     74  F   UNL A   1      44.441  25.329  25.190  1.00  0.00    -0.206 F 
ATOM     75  C   UNL A   1      44.544  21.866  24.318  1.00  0.00     0.006 A 
ENDBRANCH  54  68
BRANCH  55  76
ATOM     76  C   UNL A   1      40.869  30.615  32.993  1.00  0.00     0.057 A 
ATOM     77  C   UNL A   1      39.957  29.704  33.567  1.00  0.00     0.134 A 
ATOM     78  C   UNL A   1      40.682  31.960  33.325  1.00  0.00     0.134 A 
ATOM     79  F   UNL A   1      40.023  28.401  33.250  1.00  0.00    -0.206 F 
ATOM     80  C   UNL A   1      39.026  30.082  34.540  1.00  0.00     0.040 A 
ATOM     81  C   UNL A   1      39.732  32.357  34.286  1.00  0.00     0.040 A 
ATOM     82  F   UNL A   1      41.501  32.904  32.841  1.00  0.00    -0.206 F 
ATOM     83  C   UNL A   1      38.935  31.411  34.930  1.00  0.00     0.006 A 
ENDBRANCH  55  76
BRANCH  67  84
ATOM     84  C   UNL A   1      45.115  24.667  32.961  1.00  0.00     0.057 A 
ATOM     85  C   UNL A   1      46.357  24.700  33.612  1.00  0.00     0.134 A 
ATOM     86  C   UNL A   1      44.351  23.500  33.204  1.00  0.00     0.134 A 
ATOM     87  F   UNL A   1      47.134  25.789  33.603  1.00  0.00    -0.206 F 
ATOM     88  C   UNL A   1      46.840  23.623  34.366  1.00  0.00     0.040 A 
ATOM     89  C   UNL A   1      44.786  22.460  34.026  1.00  0.00     0.040 A 
ATOM     90  F   UNL A   1      43.129  23.324  32.681  1.00  0.00    -0.206 F 
ATOM     91  C   UNL A   1      46.049  22.505  34.589  1.00  0.00     0.006 A 
ENDBRANCH  67  84
ENDBRANCH  41  42
ENDBRANCH  34  36
ENDBRANCH  33  34
ENDBRANCH  32  33
ENDBRANCH   1  32
TORSDOF 15
ENDMDL
MODEL 2
REMARK VINA RESULT:     -13.9      3.704      9.426
REMARK SMILES Cc1ccc(NC(=O)c2ccccc2NC(=O)[C@H]2CCCC[C@H]2C(=O)OCCOC(=O)c2ccc(-c3c4nc(c(-c5c(F)cccc5F)c5ccc([nH]5)c(-c5c(F)cccc5F)c5nc(c(-c6c(F)cccc6F)c6ccc3[nH]6)C=C5)C=C4)cc2)cc1
REMARK SMILES IDX 27 1 26 2 24 3 25 4 23 5 18 6 19 7 20 8 22 9 21 10 16 11
REMARK SMILES IDX 15 12 17 14 14 15 9 16 10 17 11 18 13 19 12 20 7 21 6 22
REMARK SMILES IDX 8 24 5 25 1 26 2 27 3 28 87 29 4 30 86 31 28 32 29 33 30 34
REMARK SMILES IDX 31 35 32 36 33 37 85 38 34 39 84 40 35 41 36 42 37 43 78 44
REMARK SMILES IDX 38 45 83 46 77 47 79 48 39 49 82 50 76 51 75 52 40 54 66 55
REMARK SMILES IDX 49 56 65 57 50 58 53 59 64 60 80 61 51 62 52 63 63 65 81 66
REMARK SMILES IDX 54 67 41 68 42 69 47 70 43 71 44 72 46 73 48 74 45 75 67 76
REMARK SMILES IDX 68 77 73 78 69 79 70 80 72 81 74 82 71 83 55 84 56 85 61 86
REMARK SMILES IDX 57 87 58 88 60 89 62 90 59 91
REMARK H PARENT 15 13 6 23 79 53 53 64
REMARK Flexibility Score: inf
ROOT
ATOM      1  C   UNL A   1      39.094  21.516  25.932  1.00  0.00     0.274 C 
ENDROOT
BRANCH   1   2
ATOM      2  O   UNL A   1      38.290  22.567  26.494  1.00  0.00    -0.462 OA
BRANCH   2   3
ATOM      3  C   UNL A   1      37.162  23.049  25.697  1.00  0.00     0.309 C 
ATOM      4  O   UNL A   1      37.668  23.980  25.005  1.00  0.00    -0.252 OA
BRANCH   3   5
ATOM      5  C   UNL A   1      35.123  22.221  25.799  1.00  0.00     0.111 C 
ATOM      6  C   UNL A   1      33.522  22.998  25.725  1.00  0.00     0.093 C 
ATOM      7  C   UNL A   1      32.252  22.158  25.969  1.00  0.00     0.014 C 
ATOM      8  C   UNL A   1      32.135  20.946  25.079  1.00  0.00     0.001 C 
ATOM      9  C   UNL A   1      34.593  20.529  25.331  1.00  0.00     0.016 C 
ATOM     10  C   UNL A   1      33.185  19.985  25.536  1.00  0.00     0.001 C 
BRANCH   6  11
ATOM     11  C   UNL A   1      33.177  23.820  24.500  1.00  0.00     0.228 C 
ATOM     12  N   UNL A   1      32.980  25.165  24.592  1.00  0.00    -0.325 N 
ATOM     13  H   UNL A   1      32.938  25.571  23.697  1.00  0.00     0.169 HD
ATOM     14  O   UNL A   1      33.225  23.318  23.373  1.00  0.00    -0.274 OA
BRANCH  12  15
ATOM     15  C   UNL A   1      32.819  26.149  25.592  1.00  0.00     0.054 A 
ATOM     16  C   UNL A   1      31.538  26.335  26.169  1.00  0.00     0.063 A 
ATOM     17  C   UNL A   1      31.316  27.461  26.996  1.00  0.00     0.016 A 
ATOM     18  C   UNL A   1      32.336  28.361  27.289  1.00  0.00     0.001 A 
ATOM     19  C   UNL A   1      33.856  26.993  26.014  1.00  0.00     0.027 A 
ATOM     20  C   UNL A   1      33.612  28.113  26.815  1.00  0.00     0.002 A 
BRANCH  16  21
ATOM     21  C   UNL A   1      30.297  25.555  25.847  1.00  0.00     0.257 C 
ATOM     22  N   UNL A   1      29.351  25.883  24.896  1.00  0.00    -0.322 N 
ATOM     23  H   UNL A   1      28.526  25.352  24.979  1.00  0.00     0.170 HD
ATOM     24  O   UNL A   1      30.040  24.583  26.567  1.00  0.00    -0.269 OA
BRANCH  22  25
ATOM     25  C   UNL A   1      29.302  26.806  23.838  1.00  0.00     0.041 A 
ATOM     26  C   UNL A   1      29.176  30.591  21.824  1.00  0.00     0.044 C 
ATOM     27  C   UNL A   1      29.177  29.196  22.380  1.00  0.00    -0.051 A 
ATOM     28  C   UNL A   1      30.370  28.464  22.445  1.00  0.00     0.005 A 
ATOM     29  C   UNL A   1      28.018  28.658  22.947  1.00  0.00     0.005 A 
ATOM     30  C   UNL A   1      30.430  27.260  23.157  1.00  0.00     0.026 A 
ATOM     31  C   UNL A   1      28.074  27.455  23.655  1.00  0.00     0.026 A 
ENDBRANCH  22  25
ENDBRANCH  16  21
ENDBRANCH  12  15
ENDBRANCH   6  11
ENDBRANCH   3   5
ENDBRANCH   2   3
ENDBRANCH   1   2
BRANCH   1  32
ATOM     32  C   UNL A   1      40.580  21.888  26.047  1.00  0.00     0.275 C 
BRANCH  32  33
ATOM     33  O   UNL A   1      40.962  22.744  27.175  1.00  0.00    -0.458 OA
BRANCH  33  34
ATOM     34  C   UNL A   1      41.418  24.030  27.196  1.00  0.00     0.338 C 
ATOM     35  O   UNL A   1      42.530  24.330  27.608  1.00  0.00    -0.246 OA
BRANCH  34  36
ATOM     36  C   UNL A   1      40.430  25.118  27.010  1.00  0.00     0.060 A 
ATOM     37  C   UNL A   1      41.039  26.504  26.046  1.00  0.00     0.016 A 
ATOM     38  C   UNL A   1      39.293  25.388  28.356  1.00  0.00     0.016 A 
ATOM     39  C   UNL A   1      40.633  28.189  26.587  1.00  0.00     0.010 A 
ATOM     40  C   UNL A   1      38.797  27.047  28.839  1.00  0.00     0.010 A 
ATOM     41  C   UNL A   1      39.597  28.442  28.053  1.00  0.00    -0.014 A 
BRANCH  41  42
ATOM     42  C   UNL A   1      39.718  29.566  28.960  1.00  0.00     0.031 A 
ATOM     43  C   UNL A   1      38.625  30.556  28.978  1.00  0.00     0.074 A 
ATOM     44  C   UNL A   1      40.734  29.522  29.851  1.00  0.00     0.049 A 
ATOM     45  N   UNL A   1      38.817  31.814  29.161  1.00  0.00    -0.248 NA
ATOM     46  C   UNL A   1      37.227  30.252  28.642  1.00  0.00     0.031 C 
ATOM     47  C   UNL A   1      40.952  30.356  31.022  1.00  0.00     0.029 A 
ATOM     48  N   UNL A   1      41.892  28.744  29.824  1.00  0.00    -0.354 N 
ATOM     49  C   UNL A   1      37.570  32.385  29.326  1.00  0.00     0.074 A 
ATOM     50  C   UNL A   1      36.658  31.453  28.740  1.00  0.00     0.031 C 
ATOM     51  C   UNL A   1      42.258  30.288  31.359  1.00  0.00     0.029 A 
ATOM     52  C   UNL A   1      42.936  29.484  30.350  1.00  0.00     0.049 A 
ATOM     53  H   UNL A   1      41.955  27.821  29.488  1.00  0.00     0.167 HD
ATOM     54  C   UNL A   1      37.443  33.455  30.162  1.00  0.00     0.037 A 
ATOM     55  C   UNL A   1      43.989  29.872  29.570  1.00  0.00     0.037 A 
ATOM     56  C   UNL A   1      38.772  33.817  30.667  1.00  0.00     0.049 A 
ATOM     57  C   UNL A   1      43.937  31.373  29.365  1.00  0.00     0.074 A 
ATOM     58  C   UNL A   1      39.429  33.515  31.851  1.00  0.00     0.029 A 
ATOM     59  N   UNL A   1      39.759  34.204  29.764  1.00  0.00    -0.354 N 
ATOM     60  N   UNL A   1      42.851  32.088  29.518  1.00  0.00    -0.248 NA
ATOM     61  C   UNL A   1      45.097  32.191  29.031  1.00  0.00     0.031 C 
ATOM     62  C   UNL A   1      40.828  33.649  31.620  1.00  0.00     0.029 A 
ATOM     63  C   UNL A   1      41.021  34.049  30.307  1.00  0.00     0.049 A 
ATOM     64  H   UNL A   1      39.580  34.543  28.857  1.00  0.00     0.167 HD
ATOM     65  C   UNL A   1      43.145  33.416  29.374  1.00  0.00     0.074 A 
ATOM     66  C   UNL A   1      44.564  33.426  29.064  1.00  0.00     0.031 C 
ATOM     67  C   UNL A   1      42.208  34.401  29.532  1.00  0.00     0.037 A 
BRANCH  54  68
ATOM     68  C   UNL A   1      36.138  33.943  30.774  1.00  0.00     0.057 A 
ATOM     69  C   UNL A   1      35.147  34.520  29.952  1.00  0.00     0.134 A 
ATOM     70  C   UNL A   1      35.788  33.921  32.140  1.00  0.00     0.134 A 
ATOM     71  F   UNL A   1      35.278  34.564  28.621  1.00  0.00    -0.206 F 
ATOM     72  C   UNL A   1      33.958  35.077  30.451  1.00  0.00     0.040 A 
ATOM     73  C   UNL A   1      34.618  34.501  32.656  1.00  0.00     0.040 A 
ATOM     74  F   UNL A   1      36.520  33.292  33.061  1.00  0.00    -0.206 F 
ATOM     75  C   UNL A   1      33.696  35.087  31.810  1.00  0.00     0.006 A 
ENDBRANCH  54  68
BRANCH  55  76
ATOM     76  C   UNL A   1      44.471  28.846  28.589  1.00  0.00     0.057 A 
ATOM     77  C   UNL A   1      44.228  29.081  27.220  1.00  0.00     0.134 A 
ATOM     78  C   UNL A   1      45.403  27.846  28.883  1.00  0.00     0.134 A 
ATOM     79  F   UNL A   1      43.300  29.977  26.849  1.00  0.00    -0.206 F 
ATOM     80  C   UNL A   1      44.983  28.481  26.206  1.00  0.00     0.040 A 
ATOM     81  C   UNL A   1      46.154  27.218  27.871  1.00  0.00     0.040 A 
ATOM     82  F   UNL A   1      45.713  27.553  30.154  1.00  0.00    -0.206 F 
ATOM     83  C   UNL A   1      45.978  27.570  26.533  1.00  0.00     0.006 A 
ENDBRANCH  55  76
BRANCH  67  84
ATOM     84  C   UNL A   1      42.352  35.825  29.041  1.00  0.00     0.057 A 
ATOM     85  C   UNL A   1      43.136  36.798  29.677  1.00  0.00     0.134 A 
ATOM     86  C   UNL A   1      41.819  36.220  27.790  1.00  0.00     0.134 A 
ATOM     87  F   UNL A   1      43.828  36.534  30.791  1.00  0.00    -0.206 F 
ATOM     88  C   UNL A   1      43.302  38.088  29.158  1.00  0.00     0.040 A 
ATOM     89  C   UNL A   1      42.051  37.474  27.222  1.00  0.00     0.040 A 
ATOM     90  F   UNL A   1      41.071  35.399  27.039  1.00  0.00    -0.206 F 
ATOM     91  C   UNL A   1      42.773  38.426  27.921  1.00  0.00     0.006 A 
ENDBRANCH  67  84
ENDBRANCH  41  42
ENDBRANCH  34  36
ENDBRANCH  33  34
ENDBRANCH  32  33
ENDBRANCH   1  32
TORSDOF 15
ENDMDL
MODEL 3
REMARK VINA RESULT:     -13.7      3.608      9.242
REMARK SMILES Cc1ccc(NC(=O)c2ccccc2NC(=O)[C@H]2CCCC[C@H]2C(=O)OCCOC(=O)c2ccc(-c3c4nc(c(-c5c(F)cccc5F)c5ccc([nH]5)c(-c5c(F)cccc5F)c5nc(c(-c6c(F)cccc6F)c6ccc3[nH]6)C=C5)C=C4)cc2)cc1
REMARK SMILES IDX 27 1 26 2 24 3 25 4 23 5 18 6 19 7 20 8 22 9 21 10 16 11
REMARK SMILES IDX 15 12 17 14 14 15 9 16 10 17 11 18 13 19 12 20 7 21 6 22
REMARK SMILES IDX 8 24 5 25 1 26 2 27 3 28 87 29 4 30 86 31 28 32 29 33 30 34
REMARK SMILES IDX 31 35 32 36 33 37 85 38 34 39 84 40 35 41 36 42 37 43 78 44
REMARK SMILES IDX 38 45 83 46 77 47 79 48 39 49 82 50 76 51 75 52 40 54 66 55
REMARK SMILES IDX 49 56 65 57 50 58 53 59 64 60 80 61 51 62 52 63 63 65 81 66
REMARK SMILES IDX 54 67 41 68 42 69 47 70 43 71 44 72 46 73 48 74 45 75 67 76
REMARK SMILES IDX 68 77 73 78 69 79 70 80 72 81 74 82 71 83 55 84 56 85 61 86
REMARK SMILES IDX 57 87 58 88 60 89 62 90 59 91
REMARK H PARENT 15 13 6 23 79 53 53 64
REMARK Flexibility Score: inf
ROOT
ATOM      1  C   UNL A   1      38.455  22.155  25.796  1.00  0.00     0.274 C 
ENDROOT
BRANCH   1   2
ATOM      2  O   UNL A   1      37.662  21.168  25.115  1.00  0.00    -0.462 OA
BRANCH   2   3
ATOM      3  C   UNL A   1      36.208  21.270  25.241  1.00  0.00     0.309 C 
ATOM      4  O   UNL A   1      36.022  22.488  25.528  1.00  0.00    -0.252 OA
BRANCH   3   5
ATOM      5  C   UNL A   1      34.815  19.588  24.955  1.00  0.00     0.111 C 
ATOM      6  C   UNL A   1      33.051  19.537  24.711  1.00  0.00     0.093 C 
ATOM      7  C   UNL A   1      32.322  18.178  24.681  1.00  0.00     0.014 C 
ATOM      8  C   UNL A   1      32.879  17.203  23.674  1.00  0.00     0.001 C 
ATOM      9  C   UNL A   1      35.204  17.937  24.256  1.00  0.00     0.016 C 
ATOM     10  C   UNL A   1      34.216  16.780  24.193  1.00  0.00     0.001 C 
BRANCH   6  11
ATOM     11  C   UNL A   1      32.466  20.283  23.531  1.00  0.00     0.228 C 
ATOM     12  N   UNL A   1      32.298  21.635  23.571  1.00  0.00    -0.325 N 
ATOM     13  H   UNL A   1      32.074  21.983  22.678  1.00  0.00     0.169 HD
ATOM     14  O   UNL A   1      32.278  19.708  22.454  1.00  0.00    -0.274 OA
BRANCH  12  15
ATOM     15  C   UNL A   1      32.350  22.685  24.515  1.00  0.00     0.054 A 
ATOM     16  C   UNL A   1      33.094  23.850  24.202  1.00  0.00     0.063 A 
ATOM     17  C   UNL A   1      33.340  24.799  25.220  1.00  0.00     0.016 A 
ATOM     18  C   UNL A   1      32.834  24.635  26.506  1.00  0.00     0.001 A 
ATOM     19  C   UNL A   1      31.741  22.615  25.776  1.00  0.00     0.027 A 
ATOM     20  C   UNL A   1      32.015  23.553  26.776  1.00  0.00     0.002 A 
BRANCH  16  21
ATOM     21  C   UNL A   1      33.832  24.115  22.923  1.00  0.00     0.257 C 
ATOM     22  N   UNL A   1      33.642  25.191  22.079  1.00  0.00    -0.322 N 
ATOM     23  H   UNL A   1      34.083  25.076  21.206  1.00  0.00     0.170 HD
ATOM     24  O   UNL A   1      34.613  23.240  22.530  1.00  0.00    -0.269 OA
BRANCH  22  25
ATOM     25  C   UNL A   1      32.958  26.415  22.187  1.00  0.00     0.041 A 
ATOM     26  C   UNL A   1      30.431  29.460  23.842  1.00  0.00     0.044 C 
ATOM     27  C   UNL A   1      31.308  28.481  23.117  1.00  0.00    -0.051 A 
ATOM     28  C   UNL A   1      32.702  28.598  23.185  1.00  0.00     0.005 A 
ATOM     29  C   UNL A   1      30.750  27.375  22.467  1.00  0.00     0.005 A 
ATOM     30  C   UNL A   1      33.529  27.575  22.705  1.00  0.00     0.026 A 
ATOM     31  C   UNL A   1      31.573  26.355  21.983  1.00  0.00     0.026 A 
ENDBRANCH  22  25
ENDBRANCH  16  21
ENDBRANCH  12  15
ENDBRANCH   6  11
ENDBRANCH   3   5
ENDBRANCH   2   3
ENDBRANCH   1   2
BRANCH   1  32
ATOM     32  C   UNL A   1      39.809  21.545  26.186  1.00  0.00     0.275 C 
BRANCH  32  33
ATOM     33  O   UNL A   1      40.983  22.418  26.080  1.00  0.00    -0.458 OA
BRANCH  33  34
ATOM     34  C   UNL A   1      41.317  23.543  26.778  1.00  0.00     0.338 C 
ATOM     35  O   UNL A   1      42.201  23.557  27.623  1.00  0.00    -0.246 OA
BRANCH  34  36
ATOM     36  C   UNL A   1      40.378  24.688  26.736  1.00  0.00     0.060 A 
ATOM     37  C   UNL A   1      41.026  26.135  25.895  1.00  0.00     0.016 A 
ATOM     38  C   UNL A   1      39.295  24.871  28.139  1.00  0.00     0.016 A 
ATOM     39  C   UNL A   1      40.719  27.773  26.616  1.00  0.00     0.010 A 
ATOM     40  C   UNL A   1      38.894  26.493  28.802  1.00  0.00     0.010 A 
ATOM     41  C   UNL A   1      39.739  27.923  28.133  1.00  0.00    -0.014 A 
BRANCH  41  42
ATOM     42  C   UNL A   1      39.940  28.942  29.143  1.00  0.00     0.031 A 
ATOM     43  C   UNL A   1      38.863  29.927  29.351  1.00  0.00     0.074 A 
ATOM     44  C   UNL A   1      41.020  28.799  29.945  1.00  0.00     0.049 A 
ATOM     45  N   UNL A   1      39.082  31.158  29.653  1.00  0.00    -0.248 NA
ATOM     46  C   UNL A   1      37.440  29.666  29.092  1.00  0.00     0.031 C 
ATOM     47  C   UNL A   1      41.335  29.501  31.179  1.00  0.00     0.029 A 
ATOM     48  N   UNL A   1      42.163  28.025  29.747  1.00  0.00    -0.354 N 
ATOM     49  C   UNL A   1      37.858  31.712  29.972  1.00  0.00     0.074 A 
ATOM     50  C   UNL A   1      36.893  30.851  29.360  1.00  0.00     0.031 C 
ATOM     51  C   UNL A   1      42.661  29.394  31.406  1.00  0.00     0.029 A 
ATOM     52  C   UNL A   1      43.252  28.701  30.269  1.00  0.00     0.049 A 
ATOM     53  H   UNL A   1      42.191  27.143  29.310  1.00  0.00     0.167 HD
ATOM     54  C   UNL A   1      37.806  32.686  30.925  1.00  0.00     0.037 A 
ATOM     55  C   UNL A   1      44.248  29.168  29.457  1.00  0.00     0.037 A 
ATOM     56  C   UNL A   1      39.173  32.988  31.364  1.00  0.00     0.049 A 
ATOM     57  C   UNL A   1      44.197  30.682  29.418  1.00  0.00     0.074 A 
ATOM     58  C   UNL A   1      39.913  32.558  32.455  1.00  0.00     0.029 A 
ATOM     59  N   UNL A   1      40.093  33.466  30.435  1.00  0.00    -0.354 N 
ATOM     60  N   UNL A   1      43.134  31.380  29.730  1.00  0.00    -0.248 NA
ATOM     61  C   UNL A   1      45.338  31.528  29.088  1.00  0.00     0.031 C 
ATOM     62  C   UNL A   1      41.292  32.711  32.135  1.00  0.00     0.029 A 
ATOM     63  C   UNL A   1      41.391  33.250  30.862  1.00  0.00     0.049 A 
ATOM     64  H   UNL A   1      39.851  33.902  29.586  1.00  0.00     0.167 HD
ATOM     65  C   UNL A   1      43.432  32.714  29.707  1.00  0.00     0.074 A 
ATOM     66  C   UNL A   1      44.823  32.753  29.293  1.00  0.00     0.031 C 
ATOM     67  C   UNL A   1      42.520  33.679  30.040  1.00  0.00     0.037 A 
BRANCH  54  68
ATOM     68  C   UNL A   1      36.556  33.109  31.683  1.00  0.00     0.057 A 
ATOM     69  C   UNL A   1      35.621  33.972  31.074  1.00  0.00     0.134 A 
ATOM     70  C   UNL A   1      36.211  32.754  33.004  1.00  0.00     0.134 A 
ATOM     71  F   UNL A   1      35.751  34.360  29.799  1.00  0.00    -0.206 F 
ATOM     72  C   UNL A   1      34.493  34.482  31.738  1.00  0.00     0.040 A 
ATOM     73  C   UNL A   1      35.104  33.279  33.690  1.00  0.00     0.040 A 
ATOM     74  F   UNL A   1      36.884  31.837  33.703  1.00  0.00    -0.206 F 
ATOM     75  C   UNL A   1      34.239  34.151  33.058  1.00  0.00     0.006 A 
ENDBRANCH  54  68
BRANCH  55  76
ATOM     76  C   UNL A   1      44.643  28.252  28.338  1.00  0.00     0.057 A 
ATOM     77  C   UNL A   1      44.313  28.640  27.023  1.00  0.00     0.134 A 
ATOM     78  C   UNL A   1      45.573  27.215  28.455  1.00  0.00     0.134 A 
ATOM     79  F   UNL A   1      43.379  29.583  26.818  1.00  0.00    -0.206 F 
ATOM     80  C   UNL A   1      44.987  28.149  25.900  1.00  0.00     0.040 A 
ATOM     81  C   UNL A   1      46.243  26.695  27.330  1.00  0.00     0.040 A 
ATOM     82  F   UNL A   1      45.963  26.779  29.661  1.00  0.00    -0.206 F 
ATOM     83  C   UNL A   1      45.984  27.196  26.055  1.00  0.00     0.006 A 
ENDBRANCH  55  76
BRANCH  67  84
ATOM     84  C   UNL A   1      42.643  35.148  29.696  1.00  0.00     0.057 A 
ATOM     85  C   UNL A   1      43.539  36.028  30.319  1.00  0.00     0.134 A 
ATOM     86  C   UNL A   1      41.957  35.693  28.583  1.00  0.00     0.134 A 
ATOM     87  F   UNL A   1      44.368  35.626  31.289  1.00  0.00    -0.206 F 
ATOM     88  C   UNL A   1      43.675  37.366  29.929  1.00  0.00     0.040 A 
ATOM     89  C   UNL A   1      42.150  37.000  28.132  1.00  0.00     0.040 A 
ATOM     90  F   UNL A   1      41.086  34.977  27.858  1.00  0.00    -0.206 F 
ATOM     91  C   UNL A   1      42.992  37.853  28.824  1.00  0.00     0.006 A 
ENDBRANCH  67  84
ENDBRANCH  41  42
ENDBRANCH  34  36
ENDBRANCH  33  34
ENDBRANCH  32  33
ENDBRANCH   1  32
TORSDOF 15
ENDMDL
