MODEL 1
REMARK VINA RESULT:      -9.6      0.000      0.000
REMARK SMILES Cc1ccc(S(=O)(=O)n2cc(C(=O)C(=O)N[C@@H](Cc3c[nH]c4ccccc34)C(=O)NCC(=O)OCCOC(=O)c3ccc(-c4c5nc(c(-c6c(F)cccc6F)c6ccc([nH]6)c(-c6c(F)cccc6F)c6nc(c(-c7c(F)cccc7F)c7ccc4[nH]7)C=C6)C=C5)cc3)c3ccccc32)cc1
REMARK SMILES IDX 32 1 33 2 31 3 30 4 28 5 29 6 17 8 16 9 14 10 15 11 12 13
REMARK SMILES IDX 13 14 11 15 9 16 10 17 99 18 94 19 98 20 95 21 97 22 96 23
REMARK SMILES IDX 6 24 7 25 8 26 5 27 1 28 2 29 3 30 101 31 4 32 100 33 18 34
REMARK SMILES IDX 19 35 20 36 27 37 21 38 22 39 26 40 23 42 25 43 24 44 34 45
REMARK SMILES IDX 35 46 36 47 37 48 38 49 39 50 40 51 41 52 93 53 42 54 92 55
REMARK SMILES IDX 43 56 44 57 45 58 86 59 46 60 91 61 85 62 87 63 47 64 90 65
REMARK SMILES IDX 84 66 83 67 48 69 74 70 57 71 73 72 58 73 61 74 72 75 88 76
REMARK SMILES IDX 59 77 60 78 71 80 89 81 62 82 49 83 50 84 55 85 51 86 52 87
REMARK SMILES IDX 54 88 56 89 53 90 75 91 76 92 81 93 77 94 78 95 80 96 82 97
REMARK SMILES IDX 79 98 63 99 64 100 69 101 65 102 66 103 68 104 70 105 67 106
REMARK H PARENT 30 7 16 12 21 41 87 68 61 79
REMARK Flexibility Score: inf
ROOT
ATOM      1  C   UNL A   1      48.851  29.598  30.379  1.00  0.00     0.325 C 
ATOM      2  O   UNL A   1      48.962  30.481  31.217  1.00  0.00    -0.250 OA
ENDROOT
BRANCH   1   3
ATOM      3  C   UNL A   1      47.808  29.594  29.242  1.00  0.00     0.238 C 
BRANCH   3   4
ATOM      4  N   UNL A   1      46.519  29.020  29.631  1.00  0.00    -0.343 N 
ATOM      5  C   UNL A   1      45.268  29.097  29.089  1.00  0.00     0.243 C 
ATOM      6  O   UNL A   1      44.365  28.531  29.720  1.00  0.00    -0.273 OA
ATOM      7  H   UNL A   1      46.562  28.471  30.447  1.00  0.00     0.164 HD
BRANCH   5   8
ATOM      8  C   UNL A   1      44.912  29.947  27.824  1.00  0.00     0.176 C 
BRANCH   8   9
ATOM      9  N   UNL A   1      44.194  29.258  26.756  1.00  0.00    -0.337 N 
ATOM     10  C   UNL A   1      44.533  28.262  25.871  1.00  0.00     0.293 C 
ATOM     11  O   UNL A   1      43.767  27.919  24.978  1.00  0.00    -0.265 OA
ATOM     12  H   UNL A   1      43.267  29.573  26.647  1.00  0.00     0.164 HD
BRANCH  10  13
ATOM     13  C   UNL A   1      45.820  27.495  26.077  1.00  0.00     0.252 C 
ATOM     14  O   UNL A   1      46.845  28.175  26.000  1.00  0.00    -0.283 OA
BRANCH  13  15
ATOM     15  C   UNL A   1      45.858  26.041  26.250  1.00  0.00     0.054 A 
ATOM     16  N   UNL A   1      46.201  23.811  26.106  1.00  0.00    -0.240 N 
ATOM     17  C   UNL A   1      46.537  25.042  25.543  1.00  0.00     0.117 A 
ATOM     18  C   UNL A   1      45.534  24.068  27.315  1.00  0.00     0.065 A 
ATOM     19  C   UNL A   1      45.056  25.370  27.220  1.00  0.00     0.012 A 
ATOM     20  C   UNL A   1      45.092  23.201  28.334  1.00  0.00     0.028 A 
ATOM     21  C   UNL A   1      43.985  25.766  28.048  1.00  0.00     0.011 A 
ATOM     22  C   UNL A   1      43.999  23.597  29.104  1.00  0.00     0.002 A 
ATOM     23  C   UNL A   1      43.424  24.849  28.937  1.00  0.00     0.001 A 
BRANCH  16  24
ATOM     24  S   UNL A   1      45.473  22.482  25.231  1.00  0.00     0.268 S 
ATOM     25  O   UNL A   1      46.354  21.366  25.528  1.00  0.00    -0.201 OA
ATOM     26  O   UNL A   1      45.352  23.008  23.879  1.00  0.00    -0.201 OA
BRANCH  24  27
ATOM     27  C   UNL A   1      43.845  21.887  25.524  1.00  0.00     0.088 A 
ATOM     28  C   UNL A   1      39.663  21.407  26.498  1.00  0.00     0.044 C 
ATOM     29  C   UNL A   1      41.112  21.529  26.120  1.00  0.00    -0.051 A 
ATOM     30  C   UNL A   1      41.577  22.790  25.769  1.00  0.00     0.005 A 
ATOM     31  C   UNL A   1      42.024  20.450  26.158  1.00  0.00     0.005 A 
ATOM     32  C   UNL A   1      42.917  22.955  25.467  1.00  0.00     0.022 A 
ATOM     33  C   UNL A   1      43.401  20.620  25.864  1.00  0.00     0.022 A 
ENDBRANCH  24  27
ENDBRANCH  16  24
ENDBRANCH  13  15
ENDBRANCH  10  13
ENDBRANCH   8   9
BRANCH   8  34
ATOM     34  C   UNL A   1      44.137  31.249  28.232  1.00  0.00     0.072 C 
BRANCH  34  35
ATOM     35  C   UNL A   1      44.938  32.537  28.395  1.00  0.00    -0.020 A 
ATOM     36  C   UNL A   1      46.241  32.698  27.893  1.00  0.00     0.087 A 
ATOM     37  C   UNL A   1      44.603  33.748  29.105  1.00  0.00     0.003 A 
ATOM     38  N   UNL A   1      46.924  33.841  28.304  1.00  0.00    -0.361 N 
ATOM     39  C   UNL A   1      46.202  34.528  29.247  1.00  0.00     0.046 A 
ATOM     40  C   UNL A   1      43.184  34.471  30.031  1.00  0.00     0.010 A 
ATOM     41  H   UNL A   1      47.805  34.118  27.964  1.00  0.00     0.166 HD
ATOM     42  C   UNL A   1      46.509  35.748  30.582  1.00  0.00     0.026 A 
ATOM     43  C   UNL A   1      43.404  35.889  31.174  1.00  0.00     0.001 A 
ATOM     44  C   UNL A   1      45.096  36.396  31.583  1.00  0.00     0.002 A 
ENDBRANCH  34  35
ENDBRANCH   8  34
ENDBRANCH   5   8
ENDBRANCH   3   4
ENDBRANCH   1   3
BRANCH   1  45
ATOM     45  O   UNL A   1      49.627  28.481  30.312  1.00  0.00    -0.461 OA
BRANCH  45  46
ATOM     46  C   UNL A   1      49.278  27.200  30.912  1.00  0.00     0.274 C 
BRANCH  46  47
ATOM     47  C   UNL A   1      48.857  27.099  32.400  1.00  0.00     0.275 C 
BRANCH  47  48
ATOM     48  O   UNL A   1      48.128  25.905  32.757  1.00  0.00    -0.458 OA
BRANCH  48  49
ATOM     49  C   UNL A   1      47.453  25.945  33.937  1.00  0.00     0.338 C 
ATOM     50  O   UNL A   1      47.903  25.622  35.021  1.00  0.00    -0.246 OA
BRANCH  49  51
ATOM     51  C   UNL A   1      46.042  26.292  33.679  1.00  0.00     0.060 A 
ATOM     52  C   UNL A   1      45.301  25.776  32.652  1.00  0.00     0.016 A 
ATOM     53  C   UNL A   1      45.371  27.065  34.588  1.00  0.00     0.016 A 
ATOM     54  C   UNL A   1      44.006  26.324  32.448  1.00  0.00     0.010 A 
ATOM     55  C   UNL A   1      43.992  27.210  34.531  1.00  0.00     0.010 A 
ATOM     56  C   UNL A   1      43.297  27.455  33.255  1.00  0.00    -0.014 A 
BRANCH  56  57
ATOM     57  C   UNL A   1      42.042  29.088  32.700  1.00  0.00     0.031 A 
ATOM     58  C   UNL A   1      41.291  30.289  33.700  1.00  0.00     0.074 A 
ATOM     59  C   UNL A   1      41.654  29.763  31.445  1.00  0.00     0.049 A 
ATOM     60  N   UNL A   1      41.802  31.457  34.034  1.00  0.00    -0.248 NA
ATOM     61  C   UNL A   1      39.963  30.059  34.311  1.00  0.00     0.031 C 
ATOM     62  C   UNL A   1      41.327  31.180  31.186  1.00  0.00     0.029 A 
ATOM     63  N   UNL A   1      41.692  29.299  30.090  1.00  0.00    -0.354 N 
ATOM     64  C   UNL A   1      40.909  32.089  34.893  1.00  0.00     0.074 A 
ATOM     65  C   UNL A   1      39.871  31.096  35.143  1.00  0.00     0.031 C 
ATOM     66  C   UNL A   1      40.953  31.355  29.905  1.00  0.00     0.029 A 
ATOM     67  C   UNL A   1      40.860  30.052  29.296  1.00  0.00     0.049 A 
ATOM     68  H   UNL A   1      42.237  28.543  29.771  1.00  0.00     0.167 HD
ATOM     69  C   UNL A   1      40.481  33.364  34.664  1.00  0.00     0.037 A 
ATOM     70  C   UNL A   1      39.819  29.458  28.660  1.00  0.00     0.037 A 
ATOM     71  C   UNL A   1      39.855  33.591  33.376  1.00  0.00     0.049 A 
ATOM     72  C   UNL A   1      38.562  30.135  29.097  1.00  0.00     0.074 A 
ATOM     73  C   UNL A   1      40.193  34.346  32.268  1.00  0.00     0.029 A 
ATOM     74  N   UNL A   1      38.706  32.886  33.031  1.00  0.00    -0.354 N 
ATOM     75  N   UNL A   1      38.477  30.760  30.239  1.00  0.00    -0.248 NA
ATOM     76  C   UNL A   1      37.360  30.269  28.286  1.00  0.00     0.031 C 
ATOM     77  C   UNL A   1      39.275  34.033  31.231  1.00  0.00     0.029 A 
ATOM     78  C   UNL A   1      38.362  33.111  31.718  1.00  0.00     0.049 A 
ATOM     79  H   UNL A   1      38.204  32.304  33.645  1.00  0.00     0.167 HD
ATOM     80  C   UNL A   1      37.359  31.528  30.230  1.00  0.00     0.074 A 
ATOM     81  C   UNL A   1      36.632  31.110  29.045  1.00  0.00     0.031 C 
ATOM     82  C   UNL A   1      37.163  32.522  31.136  1.00  0.00     0.037 A 
BRANCH  69  83
ATOM     83  C   UNL A   1      40.925  34.412  35.656  1.00  0.00     0.057 A 
ATOM     84  C   UNL A   1      40.187  34.721  36.812  1.00  0.00     0.134 A 
ATOM     85  C   UNL A   1      42.136  35.127  35.517  1.00  0.00     0.134 A 
ATOM     86  F   UNL A   1      39.036  34.097  37.097  1.00  0.00    -0.206 F 
ATOM     87  C   UNL A   1      40.606  35.682  37.746  1.00  0.00     0.040 A 
ATOM     88  C   UNL A   1      42.566  36.088  36.444  1.00  0.00     0.040 A 
ATOM     89  F   UNL A   1      42.967  34.901  34.487  1.00  0.00    -0.206 F 
ATOM     90  C   UNL A   1      41.797  36.372  37.563  1.00  0.00     0.006 A 
ENDBRANCH  69  83
BRANCH  70  91
ATOM     91  C   UNL A   1      40.046  28.021  28.315  1.00  0.00     0.057 A 
ATOM     92  C   UNL A   1      39.481  27.035  29.159  1.00  0.00     0.134 A 
ATOM     93  C   UNL A   1      40.498  27.579  27.069  1.00  0.00     0.134 A 
ATOM     94  F   UNL A   1      38.999  27.378  30.366  1.00  0.00    -0.206 F 
ATOM     95  C   UNL A   1      39.287  25.710  28.752  1.00  0.00     0.040 A 
ATOM     96  C   UNL A   1      40.333  26.242  26.660  1.00  0.00     0.040 A 
ATOM     97  F   UNL A   1      41.020  28.440  26.185  1.00  0.00    -0.206 F 
ATOM     98  C   UNL A   1      39.699  25.313  27.487  1.00  0.00     0.006 A 
ENDBRANCH  70  91
BRANCH  82  99
ATOM     99  C   UNL A   1      35.823  33.111  31.428  1.00  0.00     0.057 A 
ATOM    100  C   UNL A   1      35.176  32.928  32.658  1.00  0.00     0.134 A 
ATOM    101  C   UNL A   1      35.229  34.039  30.552  1.00  0.00     0.134 A 
ATOM    102  F   UNL A   1      35.710  32.159  33.620  1.00  0.00    -0.206 F 
ATOM    103  C   UNL A   1      33.981  33.574  32.974  1.00  0.00     0.040 A 
ATOM    104  C   UNL A   1      34.057  34.723  30.874  1.00  0.00     0.040 A 
ATOM    105  F   UNL A   1      35.780  34.346  29.369  1.00  0.00    -0.206 F 
ATOM    106  C   UNL A   1      33.422  34.481  32.083  1.00  0.00     0.006 A 
ENDBRANCH  82  99
ENDBRANCH  56  57
ENDBRANCH  49  51
ENDBRANCH  48  49
ENDBRANCH  47  48
ENDBRANCH  46  47
ENDBRANCH  45  46
ENDBRANCH   1  45
TORSDOF 20
ENDMDL
MODEL 2
REMARK VINA RESULT:      -9.1      1.343      2.064
REMARK SMILES Cc1ccc(S(=O)(=O)n2cc(C(=O)C(=O)N[C@@H](Cc3c[nH]c4ccccc34)C(=O)NCC(=O)OCCOC(=O)c3ccc(-c4c5nc(c(-c6c(F)cccc6F)c6ccc([nH]6)c(-c6c(F)cccc6F)c6nc(c(-c7c(F)cccc7F)c7ccc4[nH]7)C=C6)C=C5)cc3)c3ccccc32)cc1
REMARK SMILES IDX 32 1 33 2 31 3 30 4 28 5 29 6 17 8 16 9 14 10 15 11 12 13
REMARK SMILES IDX 13 14 11 15 9 16 10 17 99 18 94 19 98 20 95 21 97 22 96 23
REMARK SMILES IDX 6 24 7 25 8 26 5 27 1 28 2 29 3 30 101 31 4 32 100 33 18 34
REMARK SMILES IDX 19 35 20 36 27 37 21 38 22 39 26 40 23 42 25 43 24 44 34 45
REMARK SMILES IDX 35 46 36 47 37 48 38 49 39 50 40 51 41 52 93 53 42 54 92 55
REMARK SMILES IDX 43 56 44 57 45 58 86 59 46 60 91 61 85 62 87 63 47 64 90 65
REMARK SMILES IDX 84 66 83 67 48 69 74 70 57 71 73 72 58 73 61 74 72 75 88 76
REMARK SMILES IDX 59 77 60 78 71 80 89 81 62 82 49 83 50 84 55 85 51 86 52 87
REMARK SMILES IDX 54 88 56 89 53 90 75 91 76 92 81 93 77 94 78 95 80 96 82 97
REMARK SMILES IDX 79 98 63 99 64 100 69 101 65 102 66 103 68 104 70 105 67 106
REMARK H PARENT 30 7 16 12 21 41 87 68 61 79
REMARK Flexibility Score: inf
ROOT
ATOM      1  C   UNL A   1      49.849  28.038  31.042  1.00  0.00     0.325 C 
ATOM      2  O   UNL A   1      50.136  28.890  31.869  1.00  0.00    -0.250 OA
ENDROOT
BRANCH   1   3
ATOM      3  C   UNL A   1      48.880  28.252  29.860  1.00  0.00     0.238 C 
BRANCH   3   4
ATOM      4  N   UNL A   1      47.468  28.187  30.240  1.00  0.00    -0.343 N 
ATOM      5  C   UNL A   1      46.335  28.725  29.699  1.00  0.00     0.243 C 
ATOM      6  O   UNL A   1      45.284  28.521  30.321  1.00  0.00    -0.273 OA
ATOM      7  H   UNL A   1      47.302  27.648  31.048  1.00  0.00     0.164 HD
BRANCH   5   8
ATOM      8  C   UNL A   1      46.323  29.663  28.447  1.00  0.00     0.176 C 
BRANCH   8   9
ATOM      9  N   UNL A   1      45.360  29.339  27.399  1.00  0.00    -0.337 N 
ATOM     10  C   UNL A   1      45.393  28.515  26.299  1.00  0.00     0.293 C 
ATOM     11  O   UNL A   1      44.470  28.495  25.493  1.00  0.00    -0.265 OA
ATOM     12  H   UNL A   1      44.502  29.812  27.502  1.00  0.00     0.164 HD
BRANCH  10  13
ATOM     13  C   UNL A   1      46.529  27.528  26.147  1.00  0.00     0.252 C 
ATOM     14  O   UNL A   1      47.603  28.027  25.806  1.00  0.00    -0.283 OA
BRANCH  13  15
ATOM     15  C   UNL A   1      46.348  26.081  26.289  1.00  0.00     0.054 A 
ATOM     16  N   UNL A   1      46.384  23.827  26.119  1.00  0.00    -0.240 N 
ATOM     17  C   UNL A   1      46.931  25.005  25.611  1.00  0.00     0.117 A 
ATOM     18  C   UNL A   1      45.669  24.162  27.281  1.00  0.00     0.065 A 
ATOM     19  C   UNL A   1      45.388  25.520  27.181  1.00  0.00     0.012 A 
ATOM     20  C   UNL A   1      45.033  23.354  28.244  1.00  0.00     0.028 A 
ATOM     21  C   UNL A   1      44.323  26.054  27.937  1.00  0.00     0.011 A 
ATOM     22  C   UNL A   1      43.951  23.892  28.941  1.00  0.00     0.002 A 
ATOM     23  C   UNL A   1      43.572  25.215  28.760  1.00  0.00     0.001 A 
BRANCH  16  24
ATOM     24  S   UNL A   1      45.544  22.626  25.162  1.00  0.00     0.268 S 
ATOM     25  O   UNL A   1      46.440  21.483  25.204  1.00  0.00    -0.201 OA
ATOM     26  O   UNL A   1      45.276  23.330  23.916  1.00  0.00    -0.201 OA
BRANCH  24  27
ATOM     27  C   UNL A   1      43.953  21.993  25.557  1.00  0.00     0.088 A 
ATOM     28  C   UNL A   1      40.424  19.566  26.131  1.00  0.00     0.044 C 
ATOM     29  C   UNL A   1      41.636  20.442  25.979  1.00  0.00    -0.051 A 
ATOM     30  C   UNL A   1      42.869  19.814  25.864  1.00  0.00     0.005 A 
ATOM     31  C   UNL A   1      41.576  21.851  25.894  1.00  0.00     0.005 A 
ATOM     32  C   UNL A   1      44.002  20.582  25.668  1.00  0.00     0.022 A 
ATOM     33  C   UNL A   1      42.735  22.640  25.677  1.00  0.00     0.022 A 
ENDBRANCH  24  27
ENDBRANCH  16  24
ENDBRANCH  13  15
ENDBRANCH  10  13
ENDBRANCH   8   9
BRANCH   8  34
ATOM     34  C   UNL A   1      46.154  31.162  28.880  1.00  0.00     0.072 C 
BRANCH  34  35
ATOM     35  C   UNL A   1      46.733  32.239  27.969  1.00  0.00    -0.020 A 
ATOM     36  C   UNL A   1      46.109  32.655  26.780  1.00  0.00     0.087 A 
ATOM     37  C   UNL A   1      47.980  32.960  28.069  1.00  0.00     0.003 A 
ATOM     38  N   UNL A   1      46.858  33.484  25.947  1.00  0.00    -0.361 N 
ATOM     39  C   UNL A   1      48.139  33.623  26.420  1.00  0.00     0.046 A 
ATOM     40  C   UNL A   1      49.407  33.119  29.224  1.00  0.00     0.010 A 
ATOM     41  H   UNL A   1      46.514  33.913  25.131  1.00  0.00     0.166 HD
ATOM     42  C   UNL A   1      49.794  34.071  25.770  1.00  0.00     0.026 A 
ATOM     43  C   UNL A   1      51.008  33.830  28.682  1.00  0.00     0.001 A 
ATOM     44  C   UNL A   1      51.248  34.129  26.910  1.00  0.00     0.002 A 
ENDBRANCH  34  35
ENDBRANCH   8  34
ENDBRANCH   5   8
ENDBRANCH   3   4
ENDBRANCH   1   3
BRANCH   1  45
ATOM     45  O   UNL A   1      50.335  26.766  31.028  1.00  0.00    -0.461 OA
BRANCH  45  46
ATOM     46  C   UNL A   1      49.689  25.630  31.672  1.00  0.00     0.274 C 
BRANCH  46  47
ATOM     47  C   UNL A   1      49.176  25.721  33.131  1.00  0.00     0.275 C 
BRANCH  47  48
ATOM     48  O   UNL A   1      48.246  24.689  33.525  1.00  0.00    -0.458 OA
BRANCH  48  49
ATOM     49  C   UNL A   1      47.372  25.016  34.516  1.00  0.00     0.338 C 
ATOM     50  O   UNL A   1      47.576  24.887  35.709  1.00  0.00    -0.246 OA
BRANCH  49  51
ATOM     51  C   UNL A   1      46.081  25.404  33.917  1.00  0.00     0.060 A 
ATOM     52  C   UNL A   1      45.719  25.128  32.628  1.00  0.00     0.016 A 
ATOM     53  C   UNL A   1      45.115  25.951  34.719  1.00  0.00     0.016 A 
ATOM     54  C   UNL A   1      44.507  25.701  32.157  1.00  0.00     0.010 A 
ATOM     55  C   UNL A   1      43.808  26.098  34.273  1.00  0.00     0.010 A 
ATOM     56  C   UNL A   1      43.509  26.619  32.928  1.00  0.00    -0.014 A 
BRANCH  56  57
ATOM     57  C   UNL A   1      42.360  28.328  32.374  1.00  0.00     0.031 A 
ATOM     58  C   UNL A   1      41.648  29.550  33.378  1.00  0.00     0.074 A 
ATOM     59  C   UNL A   1      42.043  29.047  31.123  1.00  0.00     0.049 A 
ATOM     60  N   UNL A   1      42.213  30.681  33.749  1.00  0.00    -0.248 NA
ATOM     61  C   UNL A   1      40.294  29.382  33.950  1.00  0.00     0.031 C 
ATOM     62  C   UNL A   1      41.800  30.484  30.885  1.00  0.00     0.029 A 
ATOM     63  N   UNL A   1      42.092  28.606  29.760  1.00  0.00    -0.354 N 
ATOM     64  C   UNL A   1      41.333  31.345  34.597  1.00  0.00     0.074 A 
ATOM     65  C   UNL A   1      40.236  30.406  34.800  1.00  0.00     0.031 C 
ATOM     66  C   UNL A   1      41.471  30.703  29.598  1.00  0.00     0.029 A 
ATOM     67  C   UNL A   1      41.323  29.419  28.961  1.00  0.00     0.049 A 
ATOM     68  H   UNL A   1      42.604  27.828  29.441  1.00  0.00     0.167 HD
ATOM     69  C   UNL A   1      40.981  32.646  34.383  1.00  0.00     0.037 A 
ATOM     70  C   UNL A   1      40.269  28.895  28.286  1.00  0.00     0.037 A 
ATOM     71  C   UNL A   1      40.402  32.931  33.084  1.00  0.00     0.049 A 
ATOM     72  C   UNL A   1      39.040  29.632  28.704  1.00  0.00     0.074 A 
ATOM     73  C   UNL A   1      40.811  33.687  32.000  1.00  0.00     0.029 A 
ATOM     74  N   UNL A   1      39.227  32.297  32.695  1.00  0.00    -0.354 N 
ATOM     75  N   UNL A   1      38.958  30.239  29.856  1.00  0.00    -0.248 NA
ATOM     76  C   UNL A   1      37.869  29.846  27.866  1.00  0.00     0.031 C 
ATOM     77  C   UNL A   1      39.906  33.444  30.934  1.00  0.00     0.029 A 
ATOM     78  C   UNL A   1      38.931  32.564  31.379  1.00  0.00     0.049 A 
ATOM     79  H   UNL A   1      38.678  31.731  33.285  1.00  0.00     0.167 HD
ATOM     80  C   UNL A   1      37.884  31.066  29.834  1.00  0.00     0.074 A 
ATOM     81  C   UNL A   1      37.167  30.711  28.622  1.00  0.00     0.031 C 
ATOM     82  C   UNL A   1      37.718  32.053  30.755  1.00  0.00     0.037 A 
BRANCH  69  83
ATOM     83  C   UNL A   1      41.455  33.650  35.407  1.00  0.00     0.057 A 
ATOM     84  C   UNL A   1      42.738  34.223  35.365  1.00  0.00     0.134 A 
ATOM     85  C   UNL A   1      40.629  34.117  36.454  1.00  0.00     0.134 A 
ATOM     86  F   UNL A   1      43.618  33.905  34.407  1.00  0.00    -0.206 F 
ATOM     87  C   UNL A   1      43.176  35.170  36.305  1.00  0.00     0.040 A 
ATOM     88  C   UNL A   1      41.056  35.064  37.397  1.00  0.00     0.040 A 
ATOM     89  F   UNL A   1      39.362  33.693  36.588  1.00  0.00    -0.206 F 
ATOM     90  C   UNL A   1      42.336  35.593  37.327  1.00  0.00     0.006 A 
ENDBRANCH  69  83
BRANCH  70  91
ATOM     91  C   UNL A   1      40.427  27.455  27.919  1.00  0.00     0.057 A 
ATOM     92  C   UNL A   1      39.784  26.485  28.726  1.00  0.00     0.134 A 
ATOM     93  C   UNL A   1      40.890  27.012  26.677  1.00  0.00     0.134 A 
ATOM     94  F   UNL A   1      39.286  26.831  29.926  1.00  0.00    -0.206 F 
ATOM     95  C   UNL A   1      39.530  25.181  28.287  1.00  0.00     0.040 A 
ATOM     96  C   UNL A   1      40.665  25.693  26.236  1.00  0.00     0.040 A 
ATOM     97  F   UNL A   1      41.484  27.859  25.826  1.00  0.00    -0.206 F 
ATOM     98  C   UNL A   1      39.957  24.786  27.026  1.00  0.00     0.006 A 
ENDBRANCH  70  91
BRANCH  82  99
ATOM     99  C   UNL A   1      36.404  32.709  31.023  1.00  0.00     0.057 A 
ATOM    100  C   UNL A   1      35.638  32.412  32.159  1.00  0.00     0.134 A 
ATOM    101  C   UNL A   1      35.962  33.797  30.249  1.00  0.00     0.134 A 
ATOM    102  F   UNL A   1      36.025  31.474  33.037  1.00  0.00    -0.206 F 
ATOM    103  C   UNL A   1      34.470  33.108  32.472  1.00  0.00     0.040 A 
ATOM    104  C   UNL A   1      34.820  34.529  30.574  1.00  0.00     0.040 A 
ATOM    105  F   UNL A   1      36.638  34.218  29.170  1.00  0.00    -0.206 F 
ATOM    106  C   UNL A   1      34.062  34.176  31.682  1.00  0.00     0.006 A 
ENDBRANCH  82  99
ENDBRANCH  56  57
ENDBRANCH  49  51
ENDBRANCH  48  49
ENDBRANCH  47  48
ENDBRANCH  46  47
ENDBRANCH  45  46
ENDBRANCH   1  45
TORSDOF 20
ENDMDL
MODEL 3
REMARK VINA RESULT:      -8.9      1.522      2.237
REMARK SMILES Cc1ccc(S(=O)(=O)n2cc(C(=O)C(=O)N[C@@H](Cc3c[nH]c4ccccc34)C(=O)NCC(=O)OCCOC(=O)c3ccc(-c4c5nc(c(-c6c(F)cccc6F)c6ccc([nH]6)c(-c6c(F)cccc6F)c6nc(c(-c7c(F)cccc7F)c7ccc4[nH]7)C=C6)C=C5)cc3)c3ccccc32)cc1
REMARK SMILES IDX 32 1 33 2 31 3 30 4 28 5 29 6 17 8 16 9 14 10 15 11 12 13
REMARK SMILES IDX 13 14 11 15 9 16 10 17 99 18 94 19 98 20 95 21 97 22 96 23
REMARK SMILES IDX 6 24 7 25 8 26 5 27 1 28 2 29 3 30 101 31 4 32 100 33 18 34
REMARK SMILES IDX 19 35 20 36 27 37 21 38 22 39 26 40 23 42 25 43 24 44 34 45
REMARK SMILES IDX 35 46 36 47 37 48 38 49 39 50 40 51 41 52 93 53 42 54 92 55
REMARK SMILES IDX 43 56 44 57 45 58 86 59 46 60 91 61 85 62 87 63 47 64 90 65
REMARK SMILES IDX 84 66 83 67 48 69 74 70 57 71 73 72 58 73 61 74 72 75 88 76
REMARK SMILES IDX 59 77 60 78 71 80 89 81 62 82 49 83 50 84 55 85 51 86 52 87
REMARK SMILES IDX 54 88 56 89 53 90 75 91 76 92 81 93 77 94 78 95 80 96 82 97
REMARK SMILES IDX 79 98 63 99 64 100 69 101 65 102 66 103 68 104 70 105 67 106
REMARK H PARENT 30 7 16 12 21 41 87 68 61 79
REMARK Flexibility Score: inf
ROOT
ATOM      1  C   UNL A   1      49.468  29.988  31.520  1.00  0.00     0.325 C 
ATOM      2  O   UNL A   1      49.586  31.076  32.064  1.00  0.00    -0.250 OA
ENDROOT
BRANCH   1   3
ATOM      3  C   UNL A   1      48.457  29.673  30.398  1.00  0.00     0.238 C 
BRANCH   3   4
ATOM      4  N   UNL A   1      47.197  30.408  30.521  1.00  0.00    -0.343 N 
ATOM      5  C   UNL A   1      46.261  30.804  29.608  1.00  0.00     0.243 C 
ATOM      6  O   UNL A   1      45.323  31.482  30.049  1.00  0.00    -0.273 OA
ATOM      7  H   UNL A   1      46.982  30.671  31.445  1.00  0.00     0.164 HD
BRANCH   5   8
ATOM      8  C   UNL A   1      46.384  30.564  28.067  1.00  0.00     0.176 C 
BRANCH   8   9
ATOM      9  N   UNL A   1      45.134  30.503  27.315  1.00  0.00    -0.337 N 
ATOM     10  C   UNL A   1      44.355  29.472  26.845  1.00  0.00     0.293 C 
ATOM     11  O   UNL A   1      43.381  29.686  26.133  1.00  0.00    -0.265 OA
ATOM     12  H   UNL A   1      44.769  31.392  27.099  1.00  0.00     0.164 HD
BRANCH  10  13
ATOM     13  C   UNL A   1      44.633  28.062  27.314  1.00  0.00     0.252 C 
ATOM     14  O   UNL A   1      44.486  27.882  28.525  1.00  0.00    -0.283 OA
BRANCH  13  15
ATOM     15  C   UNL A   1      45.138  27.014  26.424  1.00  0.00     0.054 A 
ATOM     16  N   UNL A   1      45.441  25.244  25.051  1.00  0.00    -0.240 N 
ATOM     17  C   UNL A   1      44.481  25.983  25.742  1.00  0.00     0.117 A 
ATOM     18  C   UNL A   1      46.643  25.971  25.091  1.00  0.00     0.065 A 
ATOM     19  C   UNL A   1      46.530  26.839  26.171  1.00  0.00     0.012 A 
ATOM     20  C   UNL A   1      47.881  25.752  24.456  1.00  0.00     0.028 A 
ATOM     21  C   UNL A   1      47.704  27.367  26.747  1.00  0.00     0.011 A 
ATOM     22  C   UNL A   1      49.031  26.242  25.075  1.00  0.00     0.002 A 
ATOM     23  C   UNL A   1      48.949  27.007  26.230  1.00  0.00     0.001 A 
BRANCH  16  24
ATOM     24  S   UNL A   1      45.712  23.527  25.255  1.00  0.00     0.268 S 
ATOM     25  O   UNL A   1      46.729  23.473  26.292  1.00  0.00    -0.201 OA
ATOM     26  O   UNL A   1      45.993  23.077  23.899  1.00  0.00    -0.201 OA
BRANCH  24  27
ATOM     27  C   UNL A   1      44.469  22.389  25.754  1.00  0.00     0.088 A 
ATOM     28  C   UNL A   1      41.698  19.095  26.124  1.00  0.00     0.044 C 
ATOM     29  C   UNL A   1      42.663  20.245  26.055  1.00  0.00    -0.051 A 
ATOM     30  C   UNL A   1      43.812  20.071  25.294  1.00  0.00     0.005 A 
ATOM     31  C   UNL A   1      42.435  21.495  26.672  1.00  0.00     0.005 A 
ATOM     32  C   UNL A   1      44.699  21.124  25.161  1.00  0.00     0.022 A 
ATOM     33  C   UNL A   1      43.334  22.582  26.524  1.00  0.00     0.022 A 
ENDBRANCH  24  27
ENDBRANCH  16  24
ENDBRANCH  13  15
ENDBRANCH  10  13
ENDBRANCH   8   9
BRANCH   8  34
ATOM     34  C   UNL A   1      47.346  31.618  27.416  1.00  0.00     0.072 C 
BRANCH  34  35
ATOM     35  C   UNL A   1      46.945  33.088  27.480  1.00  0.00    -0.020 A 
ATOM     36  C   UNL A   1      47.552  34.012  28.349  1.00  0.00     0.087 A 
ATOM     37  C   UNL A   1      45.893  33.789  26.783  1.00  0.00     0.003 A 
ATOM     38  N   UNL A   1      46.939  35.259  28.452  1.00  0.00    -0.361 N 
ATOM     39  C   UNL A   1      45.756  35.279  27.754  1.00  0.00     0.046 A 
ATOM     40  C   UNL A   1      44.625  33.462  25.487  1.00  0.00     0.010 A 
ATOM     41  H   UNL A   1      47.304  36.021  28.955  1.00  0.00     0.166 HD
ATOM     42  C   UNL A   1      44.192  36.236  27.746  1.00  0.00     0.026 A 
ATOM     43  C   UNL A   1      43.177  34.565  25.258  1.00  0.00     0.001 A 
ATOM     44  C   UNL A   1      42.874  35.839  26.512  1.00  0.00     0.002 A 
ENDBRANCH  34  35
ENDBRANCH   8  34
ENDBRANCH   5   8
ENDBRANCH   3   4
ENDBRANCH   1   3
BRANCH   1  45
ATOM     45  O   UNL A   1      50.208  28.883  31.812  1.00  0.00    -0.461 OA
BRANCH  45  46
ATOM     46  C   UNL A   1      49.808  27.518  31.495  1.00  0.00     0.274 C 
BRANCH  46  47
ATOM     47  C   UNL A   1      49.485  26.496  32.615  1.00  0.00     0.275 C 
BRANCH  47  48
ATOM     48  O   UNL A   1      48.397  25.590  32.329  1.00  0.00    -0.458 OA
BRANCH  48  49
ATOM     49  C   UNL A   1      47.644  25.203  33.394  1.00  0.00     0.338 C 
ATOM     50  O   UNL A   1      48.035  24.525  34.326  1.00  0.00    -0.246 OA
BRANCH  49  51
ATOM     51  C   UNL A   1      46.242  25.601  33.169  1.00  0.00     0.060 A 
ATOM     52  C   UNL A   1      45.433  25.054  32.211  1.00  0.00     0.016 A 
ATOM     53  C   UNL A   1      45.647  26.466  34.048  1.00  0.00     0.016 A 
ATOM     54  C   UNL A   1      44.157  25.649  32.021  1.00  0.00     0.010 A 
ATOM     55  C   UNL A   1      44.275  26.674  34.035  1.00  0.00     0.010 A 
ATOM     56  C   UNL A   1      43.538  26.866  32.775  1.00  0.00    -0.014 A 
BRANCH  56  57
ATOM     57  C   UNL A   1      42.338  28.518  32.158  1.00  0.00     0.031 A 
ATOM     58  C   UNL A   1      41.636  29.786  33.109  1.00  0.00     0.074 A 
ATOM     59  C   UNL A   1      41.965  29.153  30.877  1.00  0.00     0.049 A 
ATOM     60  N   UNL A   1      42.191  30.948  33.390  1.00  0.00    -0.248 NA
ATOM     61  C   UNL A   1      40.305  29.630  33.737  1.00  0.00     0.031 C 
ATOM     62  C   UNL A   1      41.686  30.568  30.560  1.00  0.00     0.029 A 
ATOM     63  N   UNL A   1      41.976  28.630  29.542  1.00  0.00    -0.354 N 
ATOM     64  C   UNL A   1      41.327  31.648  34.227  1.00  0.00     0.074 A 
ATOM     65  C   UNL A   1      40.256  30.704  34.525  1.00  0.00     0.031 C 
ATOM     66  C   UNL A   1      41.309  30.701  29.275  1.00  0.00     0.029 A 
ATOM     67  C   UNL A   1      41.165  29.378  28.723  1.00  0.00     0.049 A 
ATOM     68  H   UNL A   1      42.492  27.842  29.253  1.00  0.00     0.167 HD
ATOM     69  C   UNL A   1      40.942  32.927  33.946  1.00  0.00     0.037 A 
ATOM     70  C   UNL A   1      40.099  28.795  28.118  1.00  0.00     0.037 A 
ATOM     71  C   UNL A   1      40.315  33.121  32.653  1.00  0.00     0.049 A 
ATOM     72  C   UNL A   1      38.870  29.534  28.533  1.00  0.00     0.074 A 
ATOM     73  C   UNL A   1      40.672  33.815  31.512  1.00  0.00     0.029 A 
ATOM     74  N   UNL A   1      39.140  32.443  32.345  1.00  0.00    -0.354 N 
ATOM     75  N   UNL A   1      38.816  30.209  29.648  1.00  0.00    -0.248 NA
ATOM     76  C   UNL A   1      37.668  29.676  27.724  1.00  0.00     0.031 C 
ATOM     77  C   UNL A   1      39.736  33.491  30.494  1.00  0.00     0.029 A 
ATOM     78  C   UNL A   1      38.794  32.624  31.026  1.00  0.00     0.049 A 
ATOM     79  H   UNL A   1      38.622  31.905  32.986  1.00  0.00     0.167 HD
ATOM     80  C   UNL A   1      37.726  31.015  29.613  1.00  0.00     0.074 A 
ATOM     81  C   UNL A   1      36.975  30.574  28.450  1.00  0.00     0.031 C 
ATOM     82  C   UNL A   1      37.571  32.054  30.477  1.00  0.00     0.037 A 
BRANCH  69  83
ATOM     83  C   UNL A   1      41.431  34.000  34.889  1.00  0.00     0.057 A 
ATOM     84  C   UNL A   1      42.732  34.003  35.421  1.00  0.00     0.134 A 
ATOM     85  C   UNL A   1      40.631  35.100  35.271  1.00  0.00     0.134 A 
ATOM     86  F   UNL A   1      43.616  33.044  35.118  1.00  0.00    -0.206 F 
ATOM     87  C   UNL A   1      43.196  35.009  36.285  1.00  0.00     0.040 A 
ATOM     88  C   UNL A   1      41.084  36.111  36.131  1.00  0.00     0.040 A 
ATOM     89  F   UNL A   1      39.382  35.253  34.801  1.00  0.00    -0.206 F 
ATOM     90  C   UNL A   1      42.371  36.067  36.645  1.00  0.00     0.006 A 
ENDBRANCH  69  83
BRANCH  70  91
ATOM     91  C   UNL A   1      40.273  27.337  27.834  1.00  0.00     0.057 A 
ATOM     92  C   UNL A   1      39.627  26.409  28.686  1.00  0.00     0.134 A 
ATOM     93  C   UNL A   1      40.756  26.830  26.625  1.00  0.00     0.134 A 
ATOM     94  F   UNL A   1      39.111  26.818  29.858  1.00  0.00    -0.206 F 
ATOM     95  C   UNL A   1      39.388  25.081  28.317  1.00  0.00     0.040 A 
ATOM     96  C   UNL A   1      40.546  25.487  26.256  1.00  0.00     0.040 A 
ATOM     97  F   UNL A   1      41.355  27.633  25.736  1.00  0.00    -0.206 F 
ATOM     98  C   UNL A   1      39.835  24.619  27.086  1.00  0.00     0.006 A 
ENDBRANCH  70  91
BRANCH  82  99
ATOM     99  C   UNL A   1      36.255  32.702  30.750  1.00  0.00     0.057 A 
ATOM    100  C   UNL A   1      35.531  32.459  31.927  1.00  0.00     0.134 A 
ATOM    101  C   UNL A   1      35.767  33.735  29.929  1.00  0.00     0.134 A 
ATOM    102  F   UNL A   1      35.964  31.581  32.844  1.00  0.00    -0.206 F 
ATOM    103  C   UNL A   1      34.361  33.153  32.237  1.00  0.00     0.040 A 
ATOM    104  C   UNL A   1      34.623  34.465  30.250  1.00  0.00     0.040 A 
ATOM    105  F   UNL A   1      36.400  34.104  28.806  1.00  0.00    -0.206 F 
ATOM    106  C   UNL A   1      33.907  34.165  31.400  1.00  0.00     0.006 A 
ENDBRANCH  82  99
ENDBRANCH  56  57
ENDBRANCH  49  51
ENDBRANCH  48  49
ENDBRANCH  47  48
ENDBRANCH  46  47
ENDBRANCH  45  46
ENDBRANCH   1  45
TORSDOF 20
ENDMDL
