MODEL 1
REMARK VINA RESULT:     -11.4      0.000      0.000
REMARK SMILES O=C(Cc1ccccc1Nc1c(F)cccc1C(F)(F)F)OCCOC(=O)c1ccc(-c2c3nc(c(-c4c(F)cccc4F)c4ccc([nH]4)c(-c4c(F)cccc4F)c4nc(c(-c5c(F)cccc5F)c5ccc2[nH]5)C=C4)C=C3)cc1
REMARK SMILES IDX 23 1 22 2 2 3 1 4 3 5 4 6 5 7 9 8 6 9 8 10 7 11 10 12 11 14
REMARK SMILES IDX 12 15 17 16 13 17 14 18 16 19 15 20 18 21 19 22 20 23 21 24
REMARK SMILES IDX 24 25 25 26 26 27 27 28 28 29 29 30 81 31 30 32 80 33 31 34
REMARK SMILES IDX 32 35 33 36 74 37 34 38 79 39 73 40 75 41 35 42 78 43 72 44
REMARK SMILES IDX 71 45 36 47 62 48 45 49 61 50 46 51 49 52 60 53 76 54 47 55
REMARK SMILES IDX 48 56 59 58 77 59 50 60 37 61 38 62 43 63 39 64 40 65 42 66
REMARK SMILES IDX 44 67 41 68 63 69 64 70 69 71 65 72 66 73 68 74 70 75 67 76
REMARK SMILES IDX 51 77 52 78 57 79 53 80 54 81 56 82 58 83 55 84
REMARK H PARENT 10 13 75 46 49 57
REMARK Flexibility Score: inf
ROOT
ATOM      1  C   UNL A   1      31.796  31.170  26.493  1.00  0.00     0.274 C 
ENDROOT
BRANCH   1   2
ATOM      2  O   UNL A   1      32.599  30.252  27.257  1.00  0.00    -0.462 OA
BRANCH   2   3
ATOM      3  C   UNL A   1      32.403  28.907  27.176  1.00  0.00     0.310 C 
ATOM      4  O   UNL A   1      31.355  28.407  27.580  1.00  0.00    -0.252 OA
BRANCH   3   5
ATOM      5  C   UNL A   1      33.584  28.052  26.768  1.00  0.00     0.160 C 
BRANCH   5   6
ATOM      6  C   UNL A   1      33.596  27.576  25.335  1.00  0.00    -0.013 A 
ATOM      7  C   UNL A   1      33.553  28.541  24.312  1.00  0.00     0.006 A 
ATOM      8  C   UNL A   1      33.630  26.206  24.994  1.00  0.00     0.042 A 
ATOM      9  C   UNL A   1      33.518  28.160  22.974  1.00  0.00     0.000 A 
ATOM     10  C   UNL A   1      33.583  25.844  23.642  1.00  0.00     0.026 A 
ATOM     11  C   UNL A   1      33.527  26.812  22.638  1.00  0.00     0.002 A 
BRANCH   8  12
ATOM     12  N   UNL A   1      33.655  25.215  25.996  1.00  0.00    -0.352 N 
ATOM     13  H   UNL A   1      33.579  25.564  26.912  1.00  0.00     0.167 HD
BRANCH  12  14
ATOM     14  C   UNL A   1      33.769  23.809  25.919  1.00  0.00     0.087 A 
ATOM     15  C   UNL A   1      35.078  23.285  25.834  1.00  0.00     0.147 A 
ATOM     16  C   UNL A   1      32.696  22.898  25.916  1.00  0.00     0.082 A 
ATOM     17  F   UNL A   1      36.114  24.139  25.771  1.00  0.00    -0.205 F 
ATOM     18  C   UNL A   1      35.344  21.921  25.810  1.00  0.00     0.041 A 
ATOM     19  C   UNL A   1      32.980  21.510  25.922  1.00  0.00     0.015 A 
ATOM     20  C   UNL A   1      34.287  21.025  25.874  1.00  0.00     0.004 A 
BRANCH  16  21
ATOM     21  C   UNL A   1      31.238  23.296  25.851  1.00  0.00     0.418 C 
ATOM     22  F   UNL A   1      30.936  23.914  24.665  1.00  0.00    -0.166 F 
ATOM     23  F   UNL A   1      30.393  22.232  25.916  1.00  0.00    -0.166 F 
ATOM     24  F   UNL A   1      30.843  24.186  26.799  1.00  0.00    -0.166 F 
ENDBRANCH  16  21
ENDBRANCH  12  14
ENDBRANCH   8  12
ENDBRANCH   5   6
ENDBRANCH   3   5
ENDBRANCH   2   3
ENDBRANCH   1   2
BRANCH   1  25
ATOM     25  C   UNL A   1      31.591  32.513  27.199  1.00  0.00     0.275 C 
BRANCH  25  26
ATOM     26  O   UNL A   1      32.750  33.354  27.059  1.00  0.00    -0.458 OA
BRANCH  26  27
ATOM     27  C   UNL A   1      33.260  33.806  28.233  1.00  0.00     0.338 C 
ATOM     28  O   UNL A   1      32.710  34.547  29.029  1.00  0.00    -0.246 OA
BRANCH  27  29
ATOM     29  C   UNL A   1      34.545  33.126  28.521  1.00  0.00     0.060 A 
ATOM     30  C   UNL A   1      34.481  31.804  28.979  1.00  0.00     0.016 A 
ATOM     31  C   UNL A   1      35.785  33.753  28.357  1.00  0.00     0.016 A 
ATOM     32  C   UNL A   1      35.649  31.129  29.335  1.00  0.00     0.010 A 
ATOM     33  C   UNL A   1      36.956  33.072  28.715  1.00  0.00     0.010 A 
ATOM     34  C   UNL A   1      36.889  31.773  29.248  1.00  0.00    -0.014 A 
BRANCH  34  35
ATOM     35  C   UNL A   1      38.071  31.148  29.894  1.00  0.00     0.031 A 
ATOM     36  C   UNL A   1      38.359  31.474  31.336  1.00  0.00     0.074 A 
ATOM     37  C   UNL A   1      38.840  30.256  29.246  1.00  0.00     0.049 A 
ATOM     38  N   UNL A   1      39.269  30.976  32.136  1.00  0.00    -0.248 NA
ATOM     39  C   UNL A   1      37.505  32.498  31.958  1.00  0.00     0.031 C 
ATOM     40  C   UNL A   1      38.664  29.833  27.858  1.00  0.00     0.029 A 
ATOM     41  N   UNL A   1      39.924  29.537  29.685  1.00  0.00    -0.354 N 
ATOM     42  C   UNL A   1      39.086  31.614  33.355  1.00  0.00     0.074 A 
ATOM     43  C   UNL A   1      38.014  32.569  33.179  1.00  0.00     0.031 C 
ATOM     44  C   UNL A   1      39.606  28.919  27.560  1.00  0.00     0.029 A 
ATOM     45  C   UNL A   1      40.454  28.701  28.732  1.00  0.00     0.049 A 
ATOM     46  H   UNL A   1      40.288  29.613  30.595  1.00  0.00     0.167 HD
ATOM     47  C   UNL A   1      39.736  31.412  34.526  1.00  0.00     0.037 A 
ATOM     48  C   UNL A   1      41.500  27.854  28.802  1.00  0.00     0.037 A 
ATOM     49  C   UNL A   1      40.806  30.471  34.713  1.00  0.00     0.049 A 
ATOM     50  C   UNL A   1      42.255  27.700  30.098  1.00  0.00     0.074 A 
ATOM     51  C   UNL A   1      41.504  30.178  35.872  1.00  0.00     0.029 A 
ATOM     52  N   UNL A   1      41.342  29.679  33.711  1.00  0.00    -0.354 N 
ATOM     53  N   UNL A   1      42.030  28.258  31.262  1.00  0.00    -0.248 NA
ATOM     54  C   UNL A   1      43.407  26.785  30.087  1.00  0.00     0.031 C 
ATOM     55  C   UNL A   1      42.495  29.241  35.560  1.00  0.00     0.029 A 
ATOM     56  C   UNL A   1      42.384  28.919  34.217  1.00  0.00     0.049 A 
ATOM     57  H   UNL A   1      41.030  29.660  32.777  1.00  0.00     0.167 HD
ATOM     58  C   UNL A   1      42.983  27.734  32.127  1.00  0.00     0.074 A 
ATOM     59  C   UNL A   1      43.787  26.811  31.356  1.00  0.00     0.031 C 
ATOM     60  C   UNL A   1      43.170  27.991  33.445  1.00  0.00     0.037 A 
BRANCH  47  61
ATOM     61  C   UNL A   1      39.305  32.245  35.696  1.00  0.00     0.057 A 
ATOM     62  C   UNL A   1      39.802  33.539  35.903  1.00  0.00     0.134 A 
ATOM     63  C   UNL A   1      38.378  31.751  36.622  1.00  0.00     0.134 A 
ATOM     64  F   UNL A   1      40.705  34.062  35.060  1.00  0.00    -0.206 F 
ATOM     65  C   UNL A   1      39.410  34.302  37.003  1.00  0.00     0.040 A 
ATOM     66  C   UNL A   1      37.961  32.514  37.713  1.00  0.00     0.040 A 
ATOM     67  F   UNL A   1      37.864  30.520  36.480  1.00  0.00    -0.206 F 
ATOM     68  C   UNL A   1      38.483  33.792  37.909  1.00  0.00     0.006 A 
ENDBRANCH  47  61
BRANCH  48  69
ATOM     69  C   UNL A   1      41.896  27.057  27.614  1.00  0.00     0.057 A 
ATOM     70  C   UNL A   1      42.735  27.592  26.631  1.00  0.00     0.134 A 
ATOM     71  C   UNL A   1      41.407  25.761  27.412  1.00  0.00     0.134 A 
ATOM     72  F   UNL A   1      43.212  28.840  26.757  1.00  0.00    -0.206 F 
ATOM     73  C   UNL A   1      43.059  26.877  25.477  1.00  0.00     0.040 A 
ATOM     74  C   UNL A   1      41.740  25.025  26.273  1.00  0.00     0.040 A 
ATOM     75  F   UNL A   1      40.594  25.195  28.316  1.00  0.00    -0.206 F 
ATOM     76  C   UNL A   1      42.562  25.587  25.298  1.00  0.00     0.006 A 
ENDBRANCH  48  69
BRANCH  60  77
ATOM     77  C   UNL A   1      44.259  27.234  34.152  1.00  0.00     0.057 A 
ATOM     78  C   UNL A   1      45.559  27.742  34.269  1.00  0.00     0.134 A 
ATOM     79  C   UNL A   1      43.990  26.000  34.757  1.00  0.00     0.134 A 
ATOM     80  F   UNL A   1      45.885  28.914  33.703  1.00  0.00    -0.206 F 
ATOM     81  C   UNL A   1      46.558  27.037  34.944  1.00  0.00     0.040 A 
ATOM     82  C   UNL A   1      44.973  25.299  35.455  1.00  0.00     0.040 A 
ATOM     83  F   UNL A   1      42.763  25.461  34.690  1.00  0.00    -0.206 F 
ATOM     84  C   UNL A   1      46.264  25.815  35.546  1.00  0.00     0.006 A 
ENDBRANCH  60  77
ENDBRANCH  34  35
ENDBRANCH  27  29
ENDBRANCH  26  27
ENDBRANCH  25  26
ENDBRANCH   1  25
TORSDOF 15
ENDMDL
MODEL 2
REMARK VINA RESULT:     -11.4      1.749      3.009
REMARK SMILES O=C(Cc1ccccc1Nc1c(F)cccc1C(F)(F)F)OCCOC(=O)c1ccc(-c2c3nc(c(-c4c(F)cccc4F)c4ccc([nH]4)c(-c4c(F)cccc4F)c4nc(c(-c5c(F)cccc5F)c5ccc2[nH]5)C=C4)C=C3)cc1
REMARK SMILES IDX 23 1 22 2 2 3 1 4 3 5 4 6 5 7 9 8 6 9 8 10 7 11 10 12 11 14
REMARK SMILES IDX 12 15 17 16 13 17 14 18 16 19 15 20 18 21 19 22 20 23 21 24
REMARK SMILES IDX 24 25 25 26 26 27 27 28 28 29 29 30 81 31 30 32 80 33 31 34
REMARK SMILES IDX 32 35 33 36 74 37 34 38 79 39 73 40 75 41 35 42 78 43 72 44
REMARK SMILES IDX 71 45 36 47 62 48 45 49 61 50 46 51 49 52 60 53 76 54 47 55
REMARK SMILES IDX 48 56 59 58 77 59 50 60 37 61 38 62 43 63 39 64 40 65 42 66
REMARK SMILES IDX 44 67 41 68 63 69 64 70 69 71 65 72 66 73 68 74 70 75 67 76
REMARK SMILES IDX 51 77 52 78 57 79 53 80 54 81 56 82 58 83 55 84
REMARK H PARENT 10 13 75 46 49 57
REMARK Flexibility Score: inf
ROOT
ATOM      1  C   UNL A   1      31.272  31.756  26.357  1.00  0.00     0.274 C 
ENDROOT
BRANCH   1   2
ATOM      2  O   UNL A   1      32.276  30.734  26.497  1.00  0.00    -0.462 OA
BRANCH   2   3
ATOM      3  C   UNL A   1      32.046  29.459  26.080  1.00  0.00     0.310 C 
ATOM      4  O   UNL A   1      31.408  28.681  26.786  1.00  0.00    -0.252 OA
BRANCH   3   5
ATOM      5  C   UNL A   1      32.770  28.989  24.836  1.00  0.00     0.160 C 
BRANCH   5   6
ATOM      6  C   UNL A   1      32.986  27.500  24.716  1.00  0.00    -0.013 A 
ATOM      7  C   UNL A   1      33.778  26.861  25.687  1.00  0.00     0.006 A 
ATOM      8  C   UNL A   1      32.438  26.739  23.659  1.00  0.00     0.042 A 
ATOM      9  C   UNL A   1      34.047  25.498  25.604  1.00  0.00     0.000 A 
ATOM     10  C   UNL A   1      32.729  25.371  23.588  1.00  0.00     0.026 A 
ATOM     11  C   UNL A   1      33.528  24.754  24.552  1.00  0.00     0.002 A 
BRANCH   8  12
ATOM     12  N   UNL A   1      31.655  27.354  22.661  1.00  0.00    -0.352 N 
ATOM     13  H   UNL A   1      32.011  27.253  21.749  1.00  0.00     0.167 HD
BRANCH  12  14
ATOM     14  C   UNL A   1      30.451  28.088  22.736  1.00  0.00     0.087 A 
ATOM     15  C   UNL A   1      30.459  29.374  22.153  1.00  0.00     0.147 A 
ATOM     16  C   UNL A   1      29.259  27.648  23.340  1.00  0.00     0.082 A 
ATOM     17  F   UNL A   1      31.604  29.840  21.626  1.00  0.00    -0.205 F 
ATOM     18  C   UNL A   1      29.331  30.186  22.101  1.00  0.00     0.041 A 
ATOM     19  C   UNL A   1      28.108  28.470  23.256  1.00  0.00     0.015 A 
ATOM     20  C   UNL A   1      28.139  29.722  22.640  1.00  0.00     0.004 A 
BRANCH  16  21
ATOM     21  C   UNL A   1      29.126  26.369  24.135  1.00  0.00     0.418 C 
ATOM     22  F   UNL A   1      27.830  26.144  24.519  1.00  0.00    -0.166 F 
ATOM     23  F   UNL A   1      29.477  25.263  23.425  1.00  0.00    -0.166 F 
ATOM     24  F   UNL A   1      29.827  26.341  25.300  1.00  0.00    -0.166 F 
ENDBRANCH  16  21
ENDBRANCH  12  14
ENDBRANCH   8  12
ENDBRANCH   5   6
ENDBRANCH   3   5
ENDBRANCH   2   3
ENDBRANCH   1   2
BRANCH   1  25
ATOM     25  C   UNL A   1      31.789  33.152  26.714  1.00  0.00     0.275 C 
BRANCH  25  26
ATOM     26  O   UNL A   1      32.268  33.196  28.070  1.00  0.00    -0.458 OA
BRANCH  26  27
ATOM     27  C   UNL A   1      33.271  34.085  28.283  1.00  0.00     0.338 C 
ATOM     28  O   UNL A   1      33.162  35.295  28.383  1.00  0.00    -0.246 OA
BRANCH  27  29
ATOM     29  C   UNL A   1      34.535  33.365  28.561  1.00  0.00     0.060 A 
ATOM     30  C   UNL A   1      34.433  32.050  29.034  1.00  0.00     0.016 A 
ATOM     31  C   UNL A   1      35.794  33.947  28.373  1.00  0.00     0.016 A 
ATOM     32  C   UNL A   1      35.581  31.339  29.382  1.00  0.00     0.010 A 
ATOM     33  C   UNL A   1      36.946  33.229  28.723  1.00  0.00     0.010 A 
ATOM     34  C   UNL A   1      36.842  31.939  29.271  1.00  0.00    -0.014 A 
BRANCH  34  35
ATOM     35  C   UNL A   1      38.011  31.281  29.908  1.00  0.00     0.031 A 
ATOM     36  C   UNL A   1      38.307  31.583  31.353  1.00  0.00     0.074 A 
ATOM     37  C   UNL A   1      38.760  30.381  29.248  1.00  0.00     0.049 A 
ATOM     38  N   UNL A   1      39.207  31.055  32.145  1.00  0.00    -0.248 NA
ATOM     39  C   UNL A   1      37.476  32.617  31.989  1.00  0.00     0.031 C 
ATOM     40  C   UNL A   1      38.573  29.979  27.855  1.00  0.00     0.029 A 
ATOM     41  N   UNL A   1      39.829  29.632  29.676  1.00  0.00    -0.354 N 
ATOM     42  C   UNL A   1      39.039  31.681  33.373  1.00  0.00     0.074 A 
ATOM     43  C   UNL A   1      37.987  32.661  33.210  1.00  0.00     0.031 C 
ATOM     44  C   UNL A   1      39.495  29.048  27.544  1.00  0.00     0.029 A 
ATOM     45  C   UNL A   1      40.339  28.798  28.712  1.00  0.00     0.049 A 
ATOM     46  H   UNL A   1      40.195  29.690  30.587  1.00  0.00     0.167 HD
ATOM     47  C   UNL A   1      39.685  31.451  34.541  1.00  0.00     0.037 A 
ATOM     48  C   UNL A   1      41.366  27.927  28.770  1.00  0.00     0.037 A 
ATOM     49  C   UNL A   1      40.735  30.484  34.715  1.00  0.00     0.049 A 
ATOM     50  C   UNL A   1      42.119  27.740  30.063  1.00  0.00     0.074 A 
ATOM     51  C   UNL A   1      41.427  30.162  35.869  1.00  0.00     0.029 A 
ATOM     52  N   UNL A   1      41.253  29.693  33.702  1.00  0.00    -0.354 N 
ATOM     53  N   UNL A   1      41.907  28.289  31.234  1.00  0.00    -0.248 NA
ATOM     54  C   UNL A   1      43.251  26.801  30.039  1.00  0.00     0.031 C 
ATOM     55  C   UNL A   1      42.398  29.208  35.543  1.00  0.00     0.029 A 
ATOM     56  C   UNL A   1      42.279  28.905  34.197  1.00  0.00     0.049 A 
ATOM     57  H   UNL A   1      40.940  29.693  32.768  1.00  0.00     0.167 HD
ATOM     58  C   UNL A   1      42.850  27.734  32.092  1.00  0.00     0.074 A 
ATOM     59  C   UNL A   1      43.633  26.803  31.308  1.00  0.00     0.031 C 
ATOM     60  C   UNL A   1      43.044  27.970  33.413  1.00  0.00     0.037 A 
BRANCH  47  61
ATOM     61  C   UNL A   1      39.274  32.278  35.722  1.00  0.00     0.057 A 
ATOM     62  C   UNL A   1      39.788  33.563  35.937  1.00  0.00     0.134 A 
ATOM     63  C   UNL A   1      38.347  31.787  36.649  1.00  0.00     0.134 A 
ATOM     64  F   UNL A   1      40.692  34.083  35.092  1.00  0.00    -0.206 F 
ATOM     65  C   UNL A   1      39.414  34.321  37.047  1.00  0.00     0.040 A 
ATOM     66  C   UNL A   1      37.948  32.545  37.751  1.00  0.00     0.040 A 
ATOM     67  F   UNL A   1      37.817  30.564  36.501  1.00  0.00    -0.206 F 
ATOM     68  C   UNL A   1      38.488  33.814  37.954  1.00  0.00     0.006 A 
ENDBRANCH  47  61
BRANCH  48  69
ATOM     69  C   UNL A   1      41.744  27.137  27.572  1.00  0.00     0.057 A 
ATOM     70  C   UNL A   1      42.592  27.667  26.593  1.00  0.00     0.134 A 
ATOM     71  C   UNL A   1      41.229  25.854  27.355  1.00  0.00     0.134 A 
ATOM     72  F   UNL A   1      43.094  28.903  26.733  1.00  0.00    -0.206 F 
ATOM     73  C   UNL A   1      42.899  26.959  25.430  1.00  0.00     0.040 A 
ATOM     74  C   UNL A   1      41.544  25.125  26.206  1.00  0.00     0.040 A 
ATOM     75  F   UNL A   1      40.406  25.293  28.254  1.00  0.00    -0.206 F 
ATOM     76  C   UNL A   1      42.376  25.682  25.237  1.00  0.00     0.006 A 
ENDBRANCH  48  69
BRANCH  60  77
ATOM     77  C   UNL A   1      44.116  27.181  34.108  1.00  0.00     0.057 A 
ATOM     78  C   UNL A   1      43.863  25.926  34.676  1.00  0.00     0.134 A 
ATOM     79  C   UNL A   1      45.429  27.668  34.175  1.00  0.00     0.134 A 
ATOM     80  F   UNL A   1      42.626  25.408  34.656  1.00  0.00    -0.206 F 
ATOM     81  C   UNL A   1      44.873  25.194  35.304  1.00  0.00     0.040 A 
ATOM     82  C   UNL A   1      46.450  26.934  34.778  1.00  0.00     0.040 A 
ATOM     83  F   UNL A   1      45.741  28.860  33.643  1.00  0.00    -0.206 F 
ATOM     84  C   UNL A   1      46.173  25.694  35.350  1.00  0.00     0.006 A 
ENDBRANCH  60  77
ENDBRANCH  34  35
ENDBRANCH  27  29
ENDBRANCH  26  27
ENDBRANCH  25  26
ENDBRANCH   1  25
TORSDOF 15
ENDMDL
MODEL 3
REMARK VINA RESULT:     -11.4      4.440      8.964
REMARK SMILES O=C(Cc1ccccc1Nc1c(F)cccc1C(F)(F)F)OCCOC(=O)c1ccc(-c2c3nc(c(-c4c(F)cccc4F)c4ccc([nH]4)c(-c4c(F)cccc4F)c4nc(c(-c5c(F)cccc5F)c5ccc2[nH]5)C=C4)C=C3)cc1
REMARK SMILES IDX 23 1 22 2 2 3 1 4 3 5 4 6 5 7 9 8 6 9 8 10 7 11 10 12 11 14
REMARK SMILES IDX 12 15 17 16 13 17 14 18 16 19 15 20 18 21 19 22 20 23 21 24
REMARK SMILES IDX 24 25 25 26 26 27 27 28 28 29 29 30 81 31 30 32 80 33 31 34
REMARK SMILES IDX 32 35 33 36 74 37 34 38 79 39 73 40 75 41 35 42 78 43 72 44
REMARK SMILES IDX 71 45 36 47 62 48 45 49 61 50 46 51 49 52 60 53 76 54 47 55
REMARK SMILES IDX 48 56 59 58 77 59 50 60 37 61 38 62 43 63 39 64 40 65 42 66
REMARK SMILES IDX 44 67 41 68 63 69 64 70 69 71 65 72 66 73 68 74 70 75 67 76
REMARK SMILES IDX 51 77 52 78 57 79 53 80 54 81 56 82 58 83 55 84
REMARK H PARENT 10 13 75 46 49 57
REMARK Flexibility Score: inf
ROOT
ATOM      1  C   UNL A   1      38.158  21.329  25.298  1.00  0.00     0.274 C 
ENDROOT
BRANCH   1   2
ATOM      2  O   UNL A   1      37.185  21.563  24.263  1.00  0.00    -0.462 OA
BRANCH   2   3
ATOM      3  C   UNL A   1      36.691  22.809  24.029  1.00  0.00     0.310 C 
ATOM      4  O   UNL A   1      36.611  23.240  22.881  1.00  0.00    -0.252 OA
BRANCH   3   5
ATOM      5  C   UNL A   1      36.444  23.699  25.229  1.00  0.00     0.160 C 
BRANCH   5   6
ATOM      6  C   UNL A   1      35.076  23.600  25.860  1.00  0.00    -0.013 A 
ATOM      7  C   UNL A   1      34.841  22.565  26.782  1.00  0.00     0.006 A 
ATOM      8  C   UNL A   1      34.030  24.495  25.540  1.00  0.00     0.042 A 
ATOM      9  C   UNL A   1      33.587  22.398  27.363  1.00  0.00     0.000 A 
ATOM     10  C   UNL A   1      32.773  24.302  26.127  1.00  0.00     0.026 A 
ATOM     11  C   UNL A   1      32.551  23.263  27.031  1.00  0.00     0.002 A 
BRANCH   8  12
ATOM     12  N   UNL A   1      34.229  25.531  24.606  1.00  0.00    -0.352 N 
ATOM     13  H   UNL A   1      35.038  25.429  24.055  1.00  0.00     0.167 HD
BRANCH  12  14
ATOM     14  C   UNL A   1      33.473  26.689  24.318  1.00  0.00     0.087 A 
ATOM     15  C   UNL A   1      33.596  27.764  25.226  1.00  0.00     0.147 A 
ATOM     16  C   UNL A   1      32.616  26.855  23.215  1.00  0.00     0.082 A 
ATOM     17  F   UNL A   1      34.359  27.604  26.320  1.00  0.00    -0.205 F 
ATOM     18  C   UNL A   1      32.957  28.985  25.039  1.00  0.00     0.041 A 
ATOM     19  C   UNL A   1      31.994  28.113  23.018  1.00  0.00     0.015 A 
ATOM     20  C   UNL A   1      32.164  29.168  23.916  1.00  0.00     0.004 A 
BRANCH  16  21
ATOM     21  C   UNL A   1      32.258  25.758  22.238  1.00  0.00     0.418 C 
ATOM     22  F   UNL A   1      33.374  25.219  21.652  1.00  0.00    -0.166 F 
ATOM     23  F   UNL A   1      31.630  24.705  22.827  1.00  0.00    -0.166 F 
ATOM     24  F   UNL A   1      31.489  26.151  21.188  1.00  0.00    -0.166 F 
ENDBRANCH  16  21
ENDBRANCH  12  14
ENDBRANCH   8  12
ENDBRANCH   5   6
ENDBRANCH   3   5
ENDBRANCH   2   3
ENDBRANCH   1   2
BRANCH   1  25
ATOM     25  C   UNL A   1      38.901  20.001  25.128  1.00  0.00     0.275 C 
BRANCH  25  26
ATOM     26  O   UNL A   1      39.683  19.692  26.295  1.00  0.00    -0.458 OA
BRANCH  26  27
ATOM     27  C   UNL A   1      41.025  19.713  26.094  1.00  0.00     0.338 C 
ATOM     28  O   UNL A   1      41.681  18.898  25.469  1.00  0.00    -0.246 OA
BRANCH  27  29
ATOM     29  C   UNL A   1      41.591  20.987  26.596  1.00  0.00     0.060 A 
ATOM     30  C   UNL A   1      41.618  21.173  27.984  1.00  0.00     0.016 A 
ATOM     31  C   UNL A   1      42.082  21.983  25.745  1.00  0.00     0.016 A 
ATOM     32  C   UNL A   1      42.073  22.378  28.521  1.00  0.00     0.010 A 
ATOM     33  C   UNL A   1      42.540  23.192  26.287  1.00  0.00     0.010 A 
ATOM     34  C   UNL A   1      42.496  23.411  27.675  1.00  0.00    -0.014 A 
BRANCH  34  35
ATOM     35  C   UNL A   1      42.701  24.767  28.243  1.00  0.00     0.031 A 
ATOM     36  C   UNL A   1      44.097  25.187  28.620  1.00  0.00     0.074 A 
ATOM     37  C   UNL A   1      41.687  25.642  28.365  1.00  0.00     0.049 A 
ATOM     38  N   UNL A   1      44.532  26.349  29.037  1.00  0.00    -0.248 NA
ATOM     39  C   UNL A   1      45.142  24.157  28.508  1.00  0.00     0.031 C 
ATOM     40  C   UNL A   1      40.291  25.377  28.021  1.00  0.00     0.029 A 
ATOM     41  N   UNL A   1      41.686  26.942  28.806  1.00  0.00    -0.354 N 
ATOM     42  C   UNL A   1      45.900  26.194  29.221  1.00  0.00     0.074 A 
ATOM     43  C   UNL A   1      46.215  24.814  28.920  1.00  0.00     0.031 C 
ATOM     44  C   UNL A   1      39.567  26.487  28.257  1.00  0.00     0.029 A 
ATOM     45  C   UNL A   1      40.446  27.534  28.777  1.00  0.00     0.049 A 
ATOM     46  H   UNL A   1      42.496  27.406  29.115  1.00  0.00     0.167 HD
ATOM     47  C   UNL A   1      46.819  27.117  29.590  1.00  0.00     0.037 A 
ATOM     48  C   UNL A   1      40.069  28.780  29.124  1.00  0.00     0.037 A 
ATOM     49  C   UNL A   1      46.518  28.489  29.898  1.00  0.00     0.049 A 
ATOM     50  C   UNL A   1      41.100  29.771  29.601  1.00  0.00     0.074 A 
ATOM     51  C   UNL A   1      47.390  29.504  30.252  1.00  0.00     0.029 A 
ATOM     52  N   UNL A   1      45.244  29.034  29.902  1.00  0.00    -0.354 N 
ATOM     53  N   UNL A   1      42.399  29.631  29.707  1.00  0.00    -0.248 NA
ATOM     54  C   UNL A   1      40.607  31.099  29.998  1.00  0.00     0.031 C 
ATOM     55  C   UNL A   1      46.636  30.654  30.516  1.00  0.00     0.029 A 
ATOM     56  C   UNL A   1      45.302  30.365  30.282  1.00  0.00     0.049 A 
ATOM     57  H   UNL A   1      44.420  28.548  29.669  1.00  0.00     0.167 HD
ATOM     58  C   UNL A   1      42.880  30.861  30.143  1.00  0.00     0.074 A 
ATOM     59  C   UNL A   1      41.736  31.735  30.277  1.00  0.00     0.031 C 
ATOM     60  C   UNL A   1      44.159  31.233  30.401  1.00  0.00     0.037 A 
BRANCH  47  61
ATOM     61  C   UNL A   1      48.243  26.659  29.691  1.00  0.00     0.057 A 
ATOM     62  C   UNL A   1      48.749  26.077  30.860  1.00  0.00     0.134 A 
ATOM     63  C   UNL A   1      49.115  26.794  28.604  1.00  0.00     0.134 A 
ATOM     64  F   UNL A   1      47.967  25.934  31.942  1.00  0.00    -0.206 F 
ATOM     65  C   UNL A   1      50.080  25.668  30.953  1.00  0.00     0.040 A 
ATOM     66  C   UNL A   1      50.441  26.368  28.677  1.00  0.00     0.040 A 
ATOM     67  F   UNL A   1      48.692  27.344  27.455  1.00  0.00    -0.206 F 
ATOM     68  C   UNL A   1      50.928  25.808  29.858  1.00  0.00     0.006 A 
ENDBRANCH  47  61
BRANCH  48  69
ATOM     69  C   UNL A   1      38.645  29.186  29.017  1.00  0.00     0.057 A 
ATOM     70  C   UNL A   1      37.786  29.106  30.119  1.00  0.00     0.134 A 
ATOM     71  C   UNL A   1      38.101  29.617  27.802  1.00  0.00     0.134 A 
ATOM     72  F   UNL A   1      38.245  28.674  31.303  1.00  0.00    -0.206 F 
ATOM     73  C   UNL A   1      36.430  29.421  30.012  1.00  0.00     0.040 A 
ATOM     74  C   UNL A   1      36.751  29.955  27.686  1.00  0.00     0.040 A 
ATOM     75  F   UNL A   1      38.872  29.709  26.709  1.00  0.00    -0.206 F 
ATOM     76  C   UNL A   1      35.910  29.849  28.792  1.00  0.00     0.006 A 
ENDBRANCH  48  69
BRANCH  60  77
ATOM     77  C   UNL A   1      44.397  32.657  30.814  1.00  0.00     0.057 A 
ATOM     78  C   UNL A   1      44.432  33.042  32.160  1.00  0.00     0.134 A 
ATOM     79  C   UNL A   1      44.633  33.647  29.852  1.00  0.00     0.134 A 
ATOM     80  F   UNL A   1      44.203  32.144  33.131  1.00  0.00    -0.206 F 
ATOM     81  C   UNL A   1      44.673  34.366  32.533  1.00  0.00     0.040 A 
ATOM     82  C   UNL A   1      44.899  34.968  30.214  1.00  0.00     0.040 A 
ATOM     83  F   UNL A   1      44.622  33.344  28.545  1.00  0.00    -0.206 F 
ATOM     84  C   UNL A   1      44.914  35.332  31.559  1.00  0.00     0.006 A 
ENDBRANCH  60  77
ENDBRANCH  34  35
ENDBRANCH  27  29
ENDBRANCH  26  27
ENDBRANCH  25  26
ENDBRANCH   1  25
TORSDOF 15
ENDMDL
