MODEL 1
REMARK VINA RESULT:     -11.5      0.000      0.000
REMARK SMILES CCOc1cc(C(=O)N2CCC(C(=O)OCCOC(=O)c3ccc(-c4c5nc(c(-c6c(F)cccc6F)c6ccc([nH]6)c(-c6c(F)cccc6F)c6nc(c(-c7c(F)cccc7F)c7ccc4[nH]7)C=C6)C=C5)cc3)(c3ccccc3)CC2)ccc1OC
REMARK SMILES IDX 16 1 15 2 13 3 14 4 12 5 7 6 8 7 9 8 10 9 82 10 11 11 81 12
REMARK SMILES IDX 6 13 4 14 5 15 85 16 84 17 83 18 3 19 2 20 1 21 86 22 87 23
REMARK SMILES IDX 75 24 76 25 80 26 77 27 79 28 78 29 17 30 18 31 19 32 20 33
REMARK SMILES IDX 21 34 22 35 74 36 23 37 73 38 24 39 25 40 26 41 67 42 27 43
REMARK SMILES IDX 72 44 66 45 68 46 28 47 71 48 65 49 64 50 29 52 55 53 38 54
REMARK SMILES IDX 54 55 39 56 42 57 53 58 69 59 40 60 41 61 52 63 70 64 43 65
REMARK SMILES IDX 30 66 31 67 36 68 32 69 33 70 35 71 37 72 34 73 56 74 57 75
REMARK SMILES IDX 62 76 58 77 59 78 61 79 63 80 60 81 44 82 45 83 50 84 46 85
REMARK SMILES IDX 47 86 49 87 51 88 48 89
REMARK H PARENT 68 51 42 62
REMARK Flexibility Score: inf
ROOT
ATOM      1  C   UNL A   1      37.846  21.651  25.374  1.00  0.00     0.274 C 
ENDROOT
BRANCH   1   2
ATOM      2  O   UNL A   1      37.095  22.876  25.240  1.00  0.00    -0.461 OA
BRANCH   2   3
ATOM      3  C   UNL A   1      36.329  23.018  24.121  1.00  0.00     0.316 C 
ATOM      4  O   UNL A   1      36.800  22.968  22.990  1.00  0.00    -0.251 OA
BRANCH   3   5
ATOM      5  C   UNL A   1      34.831  23.348  24.450  1.00  0.00     0.096 C 
ATOM      6  C   UNL A   1      32.092  26.400  25.993  1.00  0.00     0.253 C 
ATOM      7  O   UNL A   1      32.109  26.780  27.161  1.00  0.00    -0.269 OA
ATOM      8  N   UNL A   1      32.980  25.446  25.476  1.00  0.00    -0.339 N 
ATOM      9  C   UNL A   1      33.461  24.444  26.413  1.00  0.00     0.121 C 
ATOM     10  C   UNL A   1      33.160  25.213  24.044  1.00  0.00     0.121 C 
ATOM     11  C   UNL A   1      34.686  23.642  25.975  1.00  0.00     0.045 C 
ATOM     12  C   UNL A   1      34.539  24.671  23.705  1.00  0.00     0.045 C 
BRANCH   6  13
ATOM     13  C   UNL A   1      31.002  26.900  25.118  1.00  0.00     0.043 A 
ATOM     14  C   UNL A   1      30.052  28.602  23.685  1.00  0.00     0.161 A 
ATOM     15  C   UNL A   1      31.111  28.137  24.482  1.00  0.00     0.064 A 
ATOM     16  C   UNL A   1      28.916  27.806  23.478  1.00  0.00     0.160 A 
ATOM     17  C   UNL A   1      28.795  26.604  24.182  1.00  0.00     0.051 A 
ATOM     18  C   UNL A   1      29.817  26.165  25.019  1.00  0.00     0.018 A 
BRANCH  14  19
ATOM     19  O   UNL A   1      30.161  29.828  23.085  1.00  0.00    -0.490 OA
BRANCH  19  20
ATOM     20  C   UNL A   1      29.883  30.905  23.991  1.00  0.00     0.226 C 
ATOM     21  C   UNL A   1      28.458  31.375  23.752  1.00  0.00     0.049 C 
ENDBRANCH  19  20
ENDBRANCH  14  19
BRANCH  16  22
ATOM     22  O   UNL A   1      27.831  28.069  22.689  1.00  0.00    -0.493 OA
ATOM     23  C   UNL A   1      26.574  28.241  23.327  1.00  0.00     0.278 C 
ENDBRANCH  16  22
ENDBRANCH   6  13
BRANCH   5  24
ATOM     24  C   UNL A   1      33.874  22.235  23.907  1.00  0.00    -0.031 A 
ATOM     25  C   UNL A   1      33.062  22.470  22.775  1.00  0.00     0.005 A 
ATOM     26  C   UNL A   1      33.733  20.974  24.517  1.00  0.00     0.005 A 
ATOM     27  C   UNL A   1      32.194  21.497  22.265  1.00  0.00     0.000 A 
ATOM     28  C   UNL A   1      32.830  20.015  24.035  1.00  0.00     0.000 A 
ATOM     29  C   UNL A   1      32.068  20.271  22.902  1.00  0.00     0.000 A 
ENDBRANCH   5  24
ENDBRANCH   3   5
ENDBRANCH   2   3
ENDBRANCH   1   2
BRANCH   1  30
ATOM     30  C   UNL A   1      39.212  21.941  25.985  1.00  0.00     0.275 C 
BRANCH  30  31
ATOM     31  O   UNL A   1      39.237  23.305  26.438  1.00  0.00    -0.458 OA
BRANCH  31  32
ATOM     32  C   UNL A   1      40.456  23.848  26.634  1.00  0.00     0.338 C 
ATOM     33  O   UNL A   1      41.530  23.469  26.184  1.00  0.00    -0.246 OA
BRANCH  32  34
ATOM     34  C   UNL A   1      40.310  25.039  27.479  1.00  0.00     0.060 A 
ATOM     35  C   UNL A   1      41.198  26.099  27.310  1.00  0.00     0.016 A 
ATOM     36  C   UNL A   1      39.357  25.075  28.496  1.00  0.00     0.016 A 
ATOM     37  C   UNL A   1      41.165  27.184  28.180  1.00  0.00     0.010 A 
ATOM     38  C   UNL A   1      39.288  26.194  29.336  1.00  0.00     0.010 A 
ATOM     39  C   UNL A   1      40.208  27.248  29.200  1.00  0.00    -0.014 A 
BRANCH  39  40
ATOM     40  C   UNL A   1      40.237  28.380  30.163  1.00  0.00     0.031 A 
ATOM     41  C   UNL A   1      41.315  28.444  31.210  1.00  0.00     0.074 A 
ATOM     42  C   UNL A   1      39.346  29.387  30.071  1.00  0.00     0.049 A 
ATOM     43  N   UNL A   1      41.442  29.267  32.220  1.00  0.00    -0.248 NA
ATOM     44  C   UNL A   1      42.392  27.448  31.104  1.00  0.00     0.031 C 
ATOM     45  C   UNL A   1      38.297  29.500  29.058  1.00  0.00     0.029 A 
ATOM     46  N   UNL A   1      39.193  30.516  30.837  1.00  0.00    -0.354 N 
ATOM     47  C   UNL A   1      42.587  28.862  32.894  1.00  0.00     0.074 A 
ATOM     48  C   UNL A   1      43.116  27.719  32.178  1.00  0.00     0.031 C 
ATOM     49  C   UNL A   1      37.628  30.649  29.247  1.00  0.00     0.029 A 
ATOM     50  C   UNL A   1      38.154  31.317  30.434  1.00  0.00     0.049 A 
ATOM     51  H   UNL A   1      39.774  30.731  31.604  1.00  0.00     0.167 HD
ATOM     52  C   UNL A   1      43.144  29.388  34.010  1.00  0.00     0.037 A 
ATOM     53  C   UNL A   1      37.656  32.444  30.978  1.00  0.00     0.037 A 
ATOM     54  C   UNL A   1      42.638  30.541  34.707  1.00  0.00     0.049 A 
ATOM     55  C   UNL A   1      38.258  32.985  32.244  1.00  0.00     0.074 A 
ATOM     56  C   UNL A   1      43.112  31.127  35.869  1.00  0.00     0.029 A 
ATOM     57  N   UNL A   1      41.552  31.297  34.294  1.00  0.00    -0.354 N 
ATOM     58  N   UNL A   1      39.285  32.541  32.926  1.00  0.00    -0.248 NA
ATOM     59  C   UNL A   1      37.617  34.172  32.830  1.00  0.00     0.031 C 
ATOM     60  C   UNL A   1      42.295  32.223  36.172  1.00  0.00     0.029 A 
ATOM     61  C   UNL A   1      41.333  32.339  35.180  1.00  0.00     0.049 A 
ATOM     62  H   UNL A   1      41.014  31.119  33.488  1.00  0.00     0.167 HD
ATOM     63  C   UNL A   1      39.408  33.384  34.022  1.00  0.00     0.074 A 
ATOM     64  C   UNL A   1      38.372  34.388  33.897  1.00  0.00     0.031 C 
ATOM     65  C   UNL A   1      40.291  33.324  35.049  1.00  0.00     0.037 A 
BRANCH  52  66
ATOM     66  C   UNL A   1      44.339  28.680  34.571  1.00  0.00     0.057 A 
ATOM     67  C   UNL A   1      45.646  29.026  34.210  1.00  0.00     0.134 A 
ATOM     68  C   UNL A   1      44.175  27.629  35.483  1.00  0.00     0.134 A 
ATOM     69  F   UNL A   1      45.869  30.009  33.324  1.00  0.00    -0.206 F 
ATOM     70  C   UNL A   1      46.749  28.334  34.716  1.00  0.00     0.040 A 
ATOM     71  C   UNL A   1      45.269  26.945  36.013  1.00  0.00     0.040 A 
ATOM     72  F   UNL A   1      42.947  27.250  35.872  1.00  0.00    -0.206 F 
ATOM     73  C   UNL A   1      46.561  27.292  35.624  1.00  0.00     0.006 A 
ENDBRANCH  52  66
BRANCH  53  74
ATOM     74  C   UNL A   1      36.486  33.111  30.352  1.00  0.00     0.057 A 
ATOM     75  C   UNL A   1      35.204  32.989  30.898  1.00  0.00     0.134 A 
ATOM     76  C   UNL A   1      36.625  33.885  29.193  1.00  0.00     0.134 A 
ATOM     77  F   UNL A   1      35.005  32.240  31.992  1.00  0.00    -0.206 F 
ATOM     78  C   UNL A   1      34.100  33.612  30.313  1.00  0.00     0.040 A 
ATOM     79  C   UNL A   1      35.536  34.532  28.611  1.00  0.00     0.040 A 
ATOM     80  F   UNL A   1      37.829  34.036  28.621  1.00  0.00    -0.206 F 
ATOM     81  C   UNL A   1      34.267  34.393  29.169  1.00  0.00     0.006 A 
ENDBRANCH  53  74
BRANCH  65  82
ATOM     82  C   UNL A   1      40.171  34.369  36.115  1.00  0.00     0.057 A 
ATOM     83  C   UNL A   1      40.834  35.598  36.012  1.00  0.00     0.134 A 
ATOM     84  C   UNL A   1      39.363  34.160  37.239  1.00  0.00     0.134 A 
ATOM     85  F   UNL A   1      41.633  35.853  34.966  1.00  0.00    -0.206 F 
ATOM     86  C   UNL A   1      40.710  36.578  37.000  1.00  0.00     0.040 A 
ATOM     87  C   UNL A   1      39.216  35.138  38.223  1.00  0.00     0.040 A 
ATOM     88  F   UNL A   1      38.697  33.005  37.394  1.00  0.00    -0.206 F 
ATOM     89  C   UNL A   1      39.895  36.350  38.107  1.00  0.00     0.006 A 
ENDBRANCH  65  82
ENDBRANCH  39  40
ENDBRANCH  32  34
ENDBRANCH  31  32
ENDBRANCH  30  31
ENDBRANCH   1  30
TORSDOF 16
ENDMDL
MODEL 2
REMARK VINA RESULT:     -11.5      3.271      4.078
REMARK SMILES CCOc1cc(C(=O)N2CCC(C(=O)OCCOC(=O)c3ccc(-c4c5nc(c(-c6c(F)cccc6F)c6ccc([nH]6)c(-c6c(F)cccc6F)c6nc(c(-c7c(F)cccc7F)c7ccc4[nH]7)C=C6)C=C5)cc3)(c3ccccc3)CC2)ccc1OC
REMARK SMILES IDX 16 1 15 2 13 3 14 4 12 5 7 6 8 7 9 8 10 9 82 10 11 11 81 12
REMARK SMILES IDX 6 13 4 14 5 15 85 16 84 17 83 18 3 19 2 20 1 21 86 22 87 23
REMARK SMILES IDX 75 24 76 25 80 26 77 27 79 28 78 29 17 30 18 31 19 32 20 33
REMARK SMILES IDX 21 34 22 35 74 36 23 37 73 38 24 39 25 40 26 41 67 42 27 43
REMARK SMILES IDX 72 44 66 45 68 46 28 47 71 48 65 49 64 50 29 52 55 53 38 54
REMARK SMILES IDX 54 55 39 56 42 57 53 58 69 59 40 60 41 61 52 63 70 64 43 65
REMARK SMILES IDX 30 66 31 67 36 68 32 69 33 70 35 71 37 72 34 73 56 74 57 75
REMARK SMILES IDX 62 76 58 77 59 78 61 79 63 80 60 81 44 82 45 83 50 84 46 85
REMARK SMILES IDX 47 86 49 87 51 88 48 89
REMARK H PARENT 68 51 42 62
REMARK Flexibility Score: inf
ROOT
ATOM      1  C   UNL A   1      37.160  21.006  24.857  1.00  0.00     0.274 C 
ENDROOT
BRANCH   1   2
ATOM      2  O   UNL A   1      36.935  22.431  24.875  1.00  0.00    -0.461 OA
BRANCH   2   3
ATOM      3  C   UNL A   1      36.245  22.966  23.827  1.00  0.00     0.316 C 
ATOM      4  O   UNL A   1      36.765  23.181  22.737  1.00  0.00    -0.251 OA
BRANCH   3   5
ATOM      5  C   UNL A   1      34.774  23.359  24.207  1.00  0.00     0.096 C 
ATOM      6  C   UNL A   1      32.209  26.553  25.762  1.00  0.00     0.253 C 
ATOM      7  O   UNL A   1      32.289  26.969  26.914  1.00  0.00    -0.269 OA
ATOM      8  N   UNL A   1      33.041  25.552  25.239  1.00  0.00    -0.339 N 
ATOM      9  C   UNL A   1      33.527  24.564  26.189  1.00  0.00     0.121 C 
ATOM     10  C   UNL A   1      33.152  25.268  23.810  1.00  0.00     0.121 C 
ATOM     11  C   UNL A   1      34.704  23.705  25.726  1.00  0.00     0.045 C 
ATOM     12  C   UNL A   1      34.496  24.667  23.432  1.00  0.00     0.045 C 
BRANCH   6  13
ATOM     13  C   UNL A   1      31.101  27.063  24.917  1.00  0.00     0.043 A 
ATOM     14  C   UNL A   1      30.068  28.826  23.620  1.00  0.00     0.161 A 
ATOM     15  C   UNL A   1      31.143  28.355  24.389  1.00  0.00     0.064 A 
ATOM     16  C   UNL A   1      28.981  27.987  23.330  1.00  0.00     0.160 A 
ATOM     17  C   UNL A   1      28.923  26.724  23.928  1.00  0.00     0.051 A 
ATOM     18  C   UNL A   1      29.961  26.274  24.738  1.00  0.00     0.018 A 
BRANCH  14  19
ATOM     19  O   UNL A   1      30.111  30.102  23.128  1.00  0.00    -0.490 OA
BRANCH  19  20
ATOM     20  C   UNL A   1      29.556  31.058  24.043  1.00  0.00     0.226 C 
ATOM     21  C   UNL A   1      28.375  31.735  23.368  1.00  0.00     0.049 C 
ENDBRANCH  19  20
ENDBRANCH  14  19
BRANCH  16  22
ATOM     22  O   UNL A   1      27.890  28.254  22.551  1.00  0.00    -0.493 OA
ATOM     23  C   UNL A   1      26.682  28.618  23.204  1.00  0.00     0.278 C 
ENDBRANCH  16  22
ENDBRANCH   6  13
BRANCH   5  24
ATOM     24  C   UNL A   1      33.758  22.264  23.742  1.00  0.00    -0.031 A 
ATOM     25  C   UNL A   1      32.993  22.440  22.566  1.00  0.00     0.005 A 
ATOM     26  C   UNL A   1      33.514  21.080  24.463  1.00  0.00     0.005 A 
ATOM     27  C   UNL A   1      32.075  21.482  22.122  1.00  0.00     0.000 A 
ATOM     28  C   UNL A   1      32.560  20.141  24.046  1.00  0.00     0.000 A 
ATOM     29  C   UNL A   1      31.848  20.335  22.869  1.00  0.00     0.000 A 
ENDBRANCH   5  24
ENDBRANCH   3   5
ENDBRANCH   2   3
ENDBRANCH   1   2
BRANCH   1  30
ATOM     30  C   UNL A   1      38.544  20.690  25.410  1.00  0.00     0.275 C 
BRANCH  30  31
ATOM     31  O   UNL A   1      39.165  21.915  25.834  1.00  0.00    -0.458 OA
BRANCH  31  32
ATOM     32  C   UNL A   1      40.037  21.821  26.859  1.00  0.00     0.338 C 
ATOM     33  O   UNL A   1      40.571  20.812  27.302  1.00  0.00    -0.246 OA
BRANCH  32  34
ATOM     34  C   UNL A   1      40.301  23.168  27.378  1.00  0.00     0.060 A 
ATOM     35  C   UNL A   1      39.578  24.243  26.864  1.00  0.00     0.016 A 
ATOM     36  C   UNL A   1      41.319  23.385  28.305  1.00  0.00     0.016 A 
ATOM     37  C   UNL A   1      39.895  25.543  27.243  1.00  0.00     0.010 A 
ATOM     38  C   UNL A   1      41.599  24.690  28.729  1.00  0.00     0.010 A 
ATOM     39  C   UNL A   1      40.904  25.784  28.182  1.00  0.00    -0.014 A 
BRANCH  39  40
ATOM     40  C   UNL A   1      41.275  27.184  28.518  1.00  0.00     0.031 A 
ATOM     41  C   UNL A   1      42.695  27.645  28.336  1.00  0.00     0.074 A 
ATOM     42  C   UNL A   1      40.341  28.066  28.923  1.00  0.00     0.049 A 
ATOM     43  N   UNL A   1      43.251  28.776  28.691  1.00  0.00    -0.248 NA
ATOM     44  C   UNL A   1      43.608  26.707  27.665  1.00  0.00     0.031 C 
ATOM     45  C   UNL A   1      38.914  27.783  29.067  1.00  0.00     0.029 A 
ATOM     46  N   UNL A   1      40.457  29.389  29.275  1.00  0.00    -0.354 N 
ATOM     47  C   UNL A   1      44.587  28.668  28.327  1.00  0.00     0.074 A 
ATOM     48  C   UNL A   1      44.757  27.362  27.724  1.00  0.00     0.031 C 
ATOM     49  C   UNL A   1      38.281  28.905  29.448  1.00  0.00     0.029 A 
ATOM     50  C   UNL A   1      39.266  29.965  29.644  1.00  0.00     0.049 A 
ATOM     51  H   UNL A   1      41.311  29.878  29.264  1.00  0.00     0.167 HD
ATOM     52  C   UNL A   1      45.584  29.571  28.486  1.00  0.00     0.037 A 
ATOM     53  C   UNL A   1      39.000  31.197  30.120  1.00  0.00     0.037 A 
ATOM     54  C   UNL A   1      45.413  30.881  29.056  1.00  0.00     0.049 A 
ATOM     55  C   UNL A   1      40.127  32.168  30.333  1.00  0.00     0.074 A 
ATOM     56  C   UNL A   1      46.370  31.854  29.293  1.00  0.00     0.029 A 
ATOM     57  N   UNL A   1      44.198  31.410  29.464  1.00  0.00    -0.354 N 
ATOM     58  N   UNL A   1      41.403  32.023  30.071  1.00  0.00    -0.248 NA
ATOM     59  C   UNL A   1      39.780  33.466  30.931  1.00  0.00     0.031 C 
ATOM     60  C   UNL A   1      45.736  32.961  29.868  1.00  0.00     0.029 A 
ATOM     61  C   UNL A   1      44.380  32.691  29.958  1.00  0.00     0.049 A 
ATOM     62  H   UNL A   1      43.333  30.943  29.410  1.00  0.00     0.167 HD
ATOM     63  C   UNL A   1      42.011  33.203  30.479  1.00  0.00     0.074 A 
ATOM     64  C   UNL A   1      40.960  34.067  30.974  1.00  0.00     0.031 C 
ATOM     65  C   UNL A   1      43.325  33.535  30.458  1.00  0.00     0.037 A 
BRANCH  52  66
ATOM     66  C   UNL A   1      46.960  29.142  28.077  1.00  0.00     0.057 A 
ATOM     67  C   UNL A   1      47.434  29.309  26.770  1.00  0.00     0.134 A 
ATOM     68  C   UNL A   1      47.820  28.546  29.008  1.00  0.00     0.134 A 
ATOM     69  F   UNL A   1      46.650  29.853  25.827  1.00  0.00    -0.206 F 
ATOM     70  C   UNL A   1      48.707  28.873  26.397  1.00  0.00     0.040 A 
ATOM     71  C   UNL A   1      49.103  28.127  28.653  1.00  0.00     0.040 A 
ATOM     72  F   UNL A   1      47.426  28.361  30.278  1.00  0.00    -0.206 F 
ATOM     73  C   UNL A   1      49.547  28.283  27.342  1.00  0.00     0.006 A 
ENDBRANCH  52  66
BRANCH  53  74
ATOM     74  C   UNL A   1      37.608  31.564  30.478  1.00  0.00     0.057 A 
ATOM     75  C   UNL A   1      37.103  31.332  31.761  1.00  0.00     0.134 A 
ATOM     76  C   UNL A   1      36.750  32.157  29.543  1.00  0.00     0.134 A 
ATOM     77  F   UNL A   1      37.869  30.743  32.691  1.00  0.00    -0.206 F 
ATOM     78  C   UNL A   1      35.793  31.673  32.103  1.00  0.00     0.040 A 
ATOM     79  C   UNL A   1      35.447  32.526  29.877  1.00  0.00     0.040 A 
ATOM     80  F   UNL A   1      37.175  32.403  28.294  1.00  0.00    -0.206 F 
ATOM     81  C   UNL A   1      34.964  32.280  31.160  1.00  0.00     0.006 A 
ENDBRANCH  53  74
BRANCH  65  82
ATOM     82  C   UNL A   1      43.696  34.886  30.989  1.00  0.00     0.057 A 
ATOM     83  C   UNL A   1      43.727  36.014  30.160  1.00  0.00     0.134 A 
ATOM     84  C   UNL A   1      43.996  35.069  32.344  1.00  0.00     0.134 A 
ATOM     85  F   UNL A   1      43.462  35.902  28.850  1.00  0.00    -0.206 F 
ATOM     86  C   UNL A   1      44.058  37.276  30.658  1.00  0.00     0.040 A 
ATOM     87  C   UNL A   1      44.311  36.328  32.857  1.00  0.00     0.040 A 
ATOM     88  F   UNL A   1      43.980  34.029  33.192  1.00  0.00    -0.206 F 
ATOM     89  C   UNL A   1      44.347  37.435  32.012  1.00  0.00     0.006 A 
ENDBRANCH  65  82
ENDBRANCH  39  40
ENDBRANCH  32  34
ENDBRANCH  31  32
ENDBRANCH  30  31
ENDBRANCH   1  30
TORSDOF 16
ENDMDL
MODEL 3
REMARK VINA RESULT:     -11.4      6.083     12.869
REMARK SMILES CCOc1cc(C(=O)N2CCC(C(=O)OCCOC(=O)c3ccc(-c4c5nc(c(-c6c(F)cccc6F)c6ccc([nH]6)c(-c6c(F)cccc6F)c6nc(c(-c7c(F)cccc7F)c7ccc4[nH]7)C=C6)C=C5)cc3)(c3ccccc3)CC2)ccc1OC
REMARK SMILES IDX 16 1 15 2 13 3 14 4 12 5 7 6 8 7 9 8 10 9 82 10 11 11 81 12
REMARK SMILES IDX 6 13 4 14 5 15 85 16 84 17 83 18 3 19 2 20 1 21 86 22 87 23
REMARK SMILES IDX 75 24 76 25 80 26 77 27 79 28 78 29 17 30 18 31 19 32 20 33
REMARK SMILES IDX 21 34 22 35 74 36 23 37 73 38 24 39 25 40 26 41 67 42 27 43
REMARK SMILES IDX 72 44 66 45 68 46 28 47 71 48 65 49 64 50 29 52 55 53 38 54
REMARK SMILES IDX 54 55 39 56 42 57 53 58 69 59 40 60 41 61 52 63 70 64 43 65
REMARK SMILES IDX 30 66 31 67 36 68 32 69 33 70 35 71 37 72 34 73 56 74 57 75
REMARK SMILES IDX 62 76 58 77 59 78 61 79 63 80 60 81 44 82 45 83 50 84 46 85
REMARK SMILES IDX 47 86 49 87 51 88 48 89
REMARK H PARENT 68 51 42 62
REMARK Flexibility Score: inf
ROOT
ATOM      1  C   UNL A   1      44.101  36.330  33.796  1.00  0.00     0.274 C 
ENDROOT
BRANCH   1   2
ATOM      2  O   UNL A   1      42.836  35.756  33.403  1.00  0.00    -0.461 OA
BRANCH   2   3
ATOM      3  C   UNL A   1      42.762  34.395  33.343  1.00  0.00     0.316 C 
ATOM      4  O   UNL A   1      43.688  33.670  33.686  1.00  0.00    -0.251 OA
BRANCH   3   5
ATOM      5  C   UNL A   1      41.423  33.890  32.699  1.00  0.00     0.096 C 
ATOM      6  C   UNL A   1      37.573  31.955  33.495  1.00  0.00     0.253 C 
ATOM      7  O   UNL A   1      37.478  30.786  33.858  1.00  0.00    -0.269 OA
ATOM      8  N   UNL A   1      38.798  32.598  33.264  1.00  0.00    -0.339 N 
ATOM      9  C   UNL A   1      39.890  31.752  32.812  1.00  0.00     0.121 C 
ATOM     10  C   UNL A   1      38.927  34.048  33.126  1.00  0.00     0.121 C 
ATOM     11  C   UNL A   1      41.293  32.350  32.910  1.00  0.00     0.045 C 
ATOM     12  C   UNL A   1      40.302  34.556  33.529  1.00  0.00     0.045 C 
BRANCH   6  13
ATOM     13  C   UNL A   1      36.320  32.686  33.181  1.00  0.00     0.043 A 
ATOM     14  C   UNL A   1      34.583  33.336  31.627  1.00  0.00     0.161 A 
ATOM     15  C   UNL A   1      35.751  32.610  31.909  1.00  0.00     0.064 A 
ATOM     16  C   UNL A   1      33.955  34.089  32.631  1.00  0.00     0.160 A 
ATOM     17  C   UNL A   1      34.581  34.212  33.875  1.00  0.00     0.051 A 
ATOM     18  C   UNL A   1      35.769  33.539  34.142  1.00  0.00     0.018 A 
BRANCH  14  19
ATOM     19  O   UNL A   1      34.047  33.271  30.369  1.00  0.00    -0.490 OA
BRANCH  19  20
ATOM     20  C   UNL A   1      34.995  32.808  29.396  1.00  0.00     0.226 C 
ATOM     21  C   UNL A   1      34.715  33.518  28.082  1.00  0.00     0.049 C 
ENDBRANCH  19  20
ENDBRANCH  14  19
BRANCH  16  22
ATOM     22  O   UNL A   1      32.789  34.798  32.552  1.00  0.00    -0.493 OA
ATOM     23  C   UNL A   1      32.867  36.161  32.161  1.00  0.00     0.278 C 
ENDBRANCH  16  22
ENDBRANCH   6  13
BRANCH   5  24
ATOM     24  C   UNL A   1      41.301  34.355  31.210  1.00  0.00    -0.031 A 
ATOM     25  C   UNL A   1      42.440  34.782  30.491  1.00  0.00     0.005 A 
ATOM     26  C   UNL A   1      40.077  34.415  30.517  1.00  0.00     0.005 A 
ATOM     27  C   UNL A   1      42.367  35.205  29.158  1.00  0.00     0.000 A 
ATOM     28  C   UNL A   1      39.994  34.884  29.198  1.00  0.00     0.000 A 
ATOM     29  C   UNL A   1      41.140  35.269  28.514  1.00  0.00     0.000 A 
ENDBRANCH   5  24
ENDBRANCH   3   5
ENDBRANCH   2   3
ENDBRANCH   1   2
BRANCH   1  30
ATOM     30  C   UNL A   1      44.822  36.887  32.574  1.00  0.00     0.275 C 
BRANCH  30  31
ATOM     31  O   UNL A   1      45.902  36.001  32.229  1.00  0.00    -0.458 OA
BRANCH  31  32
ATOM     32  C   UNL A   1      46.210  35.915  30.919  1.00  0.00     0.338 C 
ATOM     33  O   UNL A   1      46.614  36.804  30.181  1.00  0.00    -0.246 OA
BRANCH  32  34
ATOM     34  C   UNL A   1      46.015  34.528  30.481  1.00  0.00     0.060 A 
ATOM     35  C   UNL A   1      45.862  34.265  29.121  1.00  0.00     0.016 A 
ATOM     36  C   UNL A   1      45.897  33.498  31.414  1.00  0.00     0.016 A 
ATOM     37  C   UNL A   1      45.549  32.980  28.689  1.00  0.00     0.010 A 
ATOM     38  C   UNL A   1      45.638  32.195  30.972  1.00  0.00     0.010 A 
ATOM     39  C   UNL A   1      45.438  31.929  29.606  1.00  0.00    -0.014 A 
BRANCH  39  40
ATOM     40  C   UNL A   1      45.031  30.580  29.131  1.00  0.00     0.031 A 
ATOM     41  C   UNL A   1      43.578  30.195  29.128  1.00  0.00     0.074 A 
ATOM     42  C   UNL A   1      45.944  29.718  28.641  1.00  0.00     0.049 A 
ATOM     43  N   UNL A   1      43.028  29.033  28.881  1.00  0.00    -0.248 NA
ATOM     44  C   UNL A   1      42.616  31.262  29.446  1.00  0.00     0.031 C 
ATOM     45  C   UNL A   1      47.375  29.984  28.507  1.00  0.00     0.029 A 
ATOM     46  N   UNL A   1      45.794  28.444  28.150  1.00  0.00    -0.354 N 
ATOM     47  C   UNL A   1      41.663  29.218  29.056  1.00  0.00     0.074 A 
ATOM     48  C   UNL A   1      41.468  30.603  29.431  1.00  0.00     0.031 C 
ATOM     49  C   UNL A   1      47.968  28.920  27.943  1.00  0.00     0.029 A 
ATOM     50  C   UNL A   1      46.972  27.871  27.742  1.00  0.00     0.049 A 
ATOM     51  H   UNL A   1      44.924  27.985  28.097  1.00  0.00     0.167 HD
ATOM     52  C   UNL A   1      40.662  28.315  28.924  1.00  0.00     0.037 A 
ATOM     53  C   UNL A   1      47.230  26.628  27.289  1.00  0.00     0.037 A 
ATOM     54  C   UNL A   1      40.848  26.945  28.523  1.00  0.00     0.049 A 
ATOM     55  C   UNL A   1      46.114  25.627  27.194  1.00  0.00     0.074 A 
ATOM     56  C   UNL A   1      39.901  25.944  28.396  1.00  0.00     0.029 A 
ATOM     57  N   UNL A   1      42.066  26.388  28.164  1.00  0.00    -0.354 N 
ATOM     58  N   UNL A   1      44.838  25.786  27.451  1.00  0.00    -0.248 NA
ATOM     59  C   UNL A   1      46.477  24.267  26.770  1.00  0.00     0.031 C 
ATOM     60  C   UNL A   1      40.550  24.774  27.986  1.00  0.00     0.029 A 
ATOM     61  C   UNL A   1      41.898  25.056  27.824  1.00  0.00     0.049 A 
ATOM     62  H   UNL A   1      42.925  26.870  28.153  1.00  0.00     0.167 HD
ATOM     63  C   UNL A   1      44.249  24.548  27.229  1.00  0.00     0.074 A 
ATOM     64  C   UNL A   1      45.300  23.657  26.783  1.00  0.00     0.031 C 
ATOM     65  C   UNL A   1      42.955  24.179  27.393  1.00  0.00     0.037 A 
BRANCH  52  66
ATOM     66  C   UNL A   1      39.280  28.778  29.269  1.00  0.00     0.057 A 
ATOM     67  C   UNL A   1      38.742  28.624  30.552  1.00  0.00     0.134 A 
ATOM     68  C   UNL A   1      38.473  29.381  28.295  1.00  0.00     0.134 A 
ATOM     69  F   UNL A   1      39.457  28.033  31.522  1.00  0.00    -0.206 F 
ATOM     70  C   UNL A   1      37.439  29.030  30.848  1.00  0.00     0.040 A 
ATOM     71  C   UNL A   1      37.178  29.812  28.585  1.00  0.00     0.040 A 
ATOM     72  F   UNL A   1      38.932  29.560  27.046  1.00  0.00    -0.206 F 
ATOM     73  C   UNL A   1      36.655  29.630  29.863  1.00  0.00     0.006 A 
ENDBRANCH  52  66
BRANCH  53  74
ATOM     74  C   UNL A   1      48.621  26.246  26.938  1.00  0.00     0.057 A 
ATOM     75  C   UNL A   1      49.448  25.595  27.858  1.00  0.00     0.134 A 
ATOM     76  C   UNL A   1      49.153  26.523  25.672  1.00  0.00     0.134 A 
ATOM     77  F   UNL A   1      49.003  25.327  29.094  1.00  0.00    -0.206 F 
ATOM     78  C   UNL A   1      50.758  25.235  27.534  1.00  0.00     0.040 A 
ATOM     79  C   UNL A   1      50.451  26.147  25.326  1.00  0.00     0.040 A 
ATOM     80  F   UNL A   1      48.409  27.148  24.747  1.00  0.00    -0.206 F 
ATOM     81  C   UNL A   1      51.259  25.505  26.261  1.00  0.00     0.006 A 
ENDBRANCH  53  74
BRANCH  65  82
ATOM     82  C   UNL A   1      42.609  22.752  27.093  1.00  0.00     0.057 A 
ATOM     83  C   UNL A   1      42.334  21.836  28.116  1.00  0.00     0.134 A 
ATOM     84  C   UNL A   1      42.521  22.297  25.772  1.00  0.00     0.134 A 
ATOM     85  F   UNL A   1      42.415  22.208  29.402  1.00  0.00    -0.206 F 
ATOM     86  C   UNL A   1      41.997  20.510  27.834  1.00  0.00     0.040 A 
ATOM     87  C   UNL A   1      42.168  20.979  25.479  1.00  0.00     0.040 A 
ATOM     88  F   UNL A   1      42.769  23.126  24.747  1.00  0.00    -0.206 F 
ATOM     89  C   UNL A   1      41.910  20.080  26.512  1.00  0.00     0.006 A 
ENDBRANCH  65  82
ENDBRANCH  39  40
ENDBRANCH  32  34
ENDBRANCH  31  32
ENDBRANCH  30  31
ENDBRANCH   1  30
TORSDOF 16
ENDMDL
