MODEL 1
REMARK VINA RESULT:     -11.1      0.000      0.000
REMARK SMILES O=C(OCCOC(=O)c1ccc(C(F)(F)F)nc1NC[C@@H]1CCOC1)c1ccc(-c2c3nc(c(-c4c(F)cccc4F)c4ccc([nH]4)c(-c4c(F)cccc4F)c4nc(c(-c5c(F)cccc5F)c5ccc2[nH]5)C=C4)C=C3)cc1
REMARK SMILES IDX 5 1 4 2 3 3 2 4 1 5 26 6 27 7 79 8 28 9 78 10 29 11 30 12
REMARK SMILES IDX 31 13 72 14 32 15 77 16 71 17 73 18 33 19 76 20 70 21 69 22
REMARK SMILES IDX 34 24 60 25 43 26 59 27 44 28 47 29 58 30 74 31 45 32 46 33
REMARK SMILES IDX 57 35 75 36 48 37 35 38 36 39 41 40 37 41 38 42 40 43 42 44
REMARK SMILES IDX 39 45 61 46 62 47 67 48 63 49 64 50 66 51 68 52 65 53 49 54
REMARK SMILES IDX 50 55 55 56 51 57 52 58 54 59 56 60 53 61 6 62 7 63 8 64
REMARK SMILES IDX 9 65 10 66 18 67 11 68 17 69 12 70 19 71 20 73 21 74 22 75
REMARK SMILES IDX 25 76 23 77 24 78 13 79 14 80 15 81 16 82
REMARK H PARENT 73 23 47 34 19 72
REMARK Flexibility Score: inf
ROOT
ATOM      1  C   UNL A   1      31.417  31.686  26.752  1.00  0.00     0.275 C 
ENDROOT
BRANCH   1   2
ATOM      2  C   UNL A   1      32.463  32.806  26.768  1.00  0.00     0.275 C 
BRANCH   2   3
ATOM      3  O   UNL A   1      32.154  33.919  27.624  1.00  0.00    -0.458 OA
BRANCH   3   4
ATOM      4  C   UNL A   1      32.952  34.551  28.520  1.00  0.00     0.338 C 
ATOM      5  O   UNL A   1      32.732  35.729  28.794  1.00  0.00    -0.246 OA
BRANCH   4   6
ATOM      6  C   UNL A   1      34.202  33.928  29.052  1.00  0.00     0.060 A 
ATOM      7  C   UNL A   1      35.506  34.254  28.681  1.00  0.00     0.016 A 
ATOM      8  C   UNL A   1      34.028  32.923  30.019  1.00  0.00     0.016 A 
ATOM      9  C   UNL A   1      36.602  33.680  29.326  1.00  0.00     0.010 A 
ATOM     10  C   UNL A   1      35.115  32.365  30.691  1.00  0.00     0.010 A 
ATOM     11  C   UNL A   1      36.414  32.742  30.340  1.00  0.00    -0.014 A 
BRANCH  11  12
ATOM     12  C   UNL A   1      37.582  32.025  30.889  1.00  0.00     0.031 A 
ATOM     13  C   UNL A   1      38.072  32.426  32.247  1.00  0.00     0.074 A 
ATOM     14  C   UNL A   1      38.139  30.997  30.224  1.00  0.00     0.049 A 
ATOM     15  N   UNL A   1      39.033  31.905  32.960  1.00  0.00    -0.248 NA
ATOM     16  C   UNL A   1      37.356  33.530  32.910  1.00  0.00     0.031 C 
ATOM     17  C   UNL A   1      37.662  30.454  28.953  1.00  0.00     0.029 A 
ATOM     18  N   UNL A   1      39.235  30.227  30.515  1.00  0.00    -0.354 N 
ATOM     19  C   UNL A   1      39.008  32.589  34.166  1.00  0.00     0.074 A 
ATOM     20  C   UNL A   1      37.994  33.611  34.067  1.00  0.00     0.031 C 
ATOM     21  C   UNL A   1      38.506  29.498  28.530  1.00  0.00     0.029 A 
ATOM     22  C   UNL A   1      39.569  29.344  29.515  1.00  0.00     0.049 A 
ATOM     23  H   UNL A   1      39.735  30.299  31.359  1.00  0.00     0.167 HD
ATOM     24  C   UNL A   1      39.740  32.349  35.276  1.00  0.00     0.037 A 
ATOM     25  C   UNL A   1      40.618  28.507  29.415  1.00  0.00     0.037 A 
ATOM     26  C   UNL A   1      40.754  31.337  35.350  1.00  0.00     0.049 A 
ATOM     27  C   UNL A   1      41.528  28.376  30.606  1.00  0.00     0.074 A 
ATOM     28  C   UNL A   1      41.560  31.000  36.421  1.00  0.00     0.029 A 
ATOM     29  N   UNL A   1      41.114  30.510  34.295  1.00  0.00    -0.354 N 
ATOM     30  N   UNL A   1      41.454  28.981  31.768  1.00  0.00    -0.248 NA
ATOM     31  C   UNL A   1      42.632  27.414  30.498  1.00  0.00     0.031 C 
ATOM     32  C   UNL A   1      42.449  30.008  35.994  1.00  0.00     0.029 A 
ATOM     33  C   UNL A   1      42.157  29.687  34.677  1.00  0.00     0.049 A 
ATOM     34  H   UNL A   1      40.690  30.510  33.407  1.00  0.00     0.167 HD
ATOM     35  C   UNL A   1      42.462  28.433  32.548  1.00  0.00     0.074 A 
ATOM     36  C   UNL A   1      43.133  27.447  31.724  1.00  0.00     0.031 C 
ATOM     37  C   UNL A   1      42.794  28.706  33.834  1.00  0.00     0.037 A 
BRANCH  24  38
ATOM     38  C   UNL A   1      39.466  33.207  36.473  1.00  0.00     0.057 A 
ATOM     39  C   UNL A   1      40.149  34.412  36.690  1.00  0.00     0.134 A 
ATOM     40  C   UNL A   1      38.515  32.821  37.422  1.00  0.00     0.134 A 
ATOM     41  F   UNL A   1      41.093  34.823  35.830  1.00  0.00    -0.206 F 
ATOM     42  C   UNL A   1      39.908  35.193  37.820  1.00  0.00     0.040 A 
ATOM     43  C   UNL A   1      38.247  33.606  38.545  1.00  0.00     0.040 A 
ATOM     44  F   UNL A   1      37.834  31.674  37.277  1.00  0.00    -0.206 F 
ATOM     45  C   UNL A   1      38.948  34.792  38.749  1.00  0.00     0.006 A 
ENDBRANCH  24  38
BRANCH  25  46
ATOM     46  C   UNL A   1      40.860  27.729  28.171  1.00  0.00     0.057 A 
ATOM     47  C   UNL A   1      41.621  28.243  27.115  1.00  0.00     0.134 A 
ATOM     48  C   UNL A   1      40.281  26.466  27.987  1.00  0.00     0.134 A 
ATOM     49  F   UNL A   1      42.197  29.448  27.222  1.00  0.00    -0.206 F 
ATOM     50  C   UNL A   1      41.764  27.551  25.909  1.00  0.00     0.040 A 
ATOM     51  C   UNL A   1      40.433  25.754  26.795  1.00  0.00     0.040 A 
ATOM     52  F   UNL A   1      39.554  25.905  28.964  1.00  0.00    -0.206 F 
ATOM     53  C   UNL A   1      41.165  26.303  25.746  1.00  0.00     0.006 A 
ENDBRANCH  25  46
BRANCH  37  54
ATOM     54  C   UNL A   1      43.899  27.893  34.438  1.00  0.00     0.057 A 
ATOM     55  C   UNL A   1      45.216  28.364  34.500  1.00  0.00     0.134 A 
ATOM     56  C   UNL A   1      43.626  26.644  35.009  1.00  0.00     0.134 A 
ATOM     57  F   UNL A   1      45.541  29.547  33.958  1.00  0.00    -0.206 F 
ATOM     58  C   UNL A   1      46.228  27.608  35.088  1.00  0.00     0.040 A 
ATOM     59  C   UNL A   1      44.623  25.894  35.630  1.00  0.00     0.040 A 
ATOM     60  F   UNL A   1      42.381  26.142  34.991  1.00  0.00    -0.206 F 
ATOM     61  C   UNL A   1      45.931  26.375  35.665  1.00  0.00     0.006 A 
ENDBRANCH  37  54
ENDBRANCH  11  12
ENDBRANCH   4   6
ENDBRANCH   3   4
ENDBRANCH   2   3
ENDBRANCH   1   2
BRANCH   1  62
ATOM     62  O   UNL A   1      31.717  30.597  25.865  1.00  0.00    -0.458 OA
BRANCH  62  63
ATOM     63  C   UNL A   1      31.744  29.369  26.450  1.00  0.00     0.342 C 
ATOM     64  O   UNL A   1      31.515  29.122  27.622  1.00  0.00    -0.246 OA
BRANCH  63  65
ATOM     65  C   UNL A   1      32.022  28.335  25.439  1.00  0.00     0.102 A 
ATOM     66  C   UNL A   1      33.002  27.367  25.679  1.00  0.00     0.022 A 
ATOM     67  C   UNL A   1      31.305  28.305  24.241  1.00  0.00     0.141 A 
ATOM     68  C   UNL A   1      33.295  26.431  24.691  1.00  0.00     0.034 A 
ATOM     69  N   UNL A   1      31.628  27.412  23.275  1.00  0.00    -0.226 NA
ATOM     70  C   UNL A   1      32.628  26.509  23.474  1.00  0.00     0.146 A 
BRANCH  67  71
ATOM     71  N   UNL A   1      30.332  29.238  23.944  1.00  0.00    -0.369 N 
ATOM     72  H   UNL A   1      29.744  29.560  24.665  1.00  0.00     0.162 HD
BRANCH  71  73
ATOM     73  C   UNL A   1      30.146  29.758  22.603  1.00  0.00     0.120 C 
BRANCH  73  74
ATOM     74  C   UNL A   1      28.698  29.659  22.092  1.00  0.00     0.036 C 
ATOM     75  C   UNL A   1      28.172  31.022  21.669  1.00  0.00     0.036 C 
ATOM     76  C   UNL A   1      27.645  29.265  23.117  1.00  0.00     0.165 C 
ATOM     77  C   UNL A   1      27.651  31.591  22.971  1.00  0.00     0.160 C 
ATOM     78  O   UNL A   1      27.214  30.475  23.759  1.00  0.00    -0.381 OA
ENDBRANCH  73  74
ENDBRANCH  71  73
ENDBRANCH  67  71
BRANCH  70  79
ATOM     79  C   UNL A   1      33.023  25.602  22.315  1.00  0.00     0.433 C 
ATOM     80  F   UNL A   1      33.287  26.293  21.168  1.00  0.00    -0.165 F 
ATOM     81  F   UNL A   1      34.141  24.864  22.575  1.00  0.00    -0.165 F 
ATOM     82  F   UNL A   1      32.056  24.699  21.981  1.00  0.00    -0.165 F 
ENDBRANCH  70  79
ENDBRANCH  63  65
ENDBRANCH  62  63
ENDBRANCH   1  62
TORSDOF 15
ENDMDL
MODEL 2
REMARK VINA RESULT:     -11.1      5.958     10.479
REMARK SMILES O=C(OCCOC(=O)c1ccc(C(F)(F)F)nc1NC[C@@H]1CCOC1)c1ccc(-c2c3nc(c(-c4c(F)cccc4F)c4ccc([nH]4)c(-c4c(F)cccc4F)c4nc(c(-c5c(F)cccc5F)c5ccc2[nH]5)C=C4)C=C3)cc1
REMARK SMILES IDX 5 1 4 2 3 3 2 4 1 5 26 6 27 7 79 8 28 9 78 10 29 11 30 12
REMARK SMILES IDX 31 13 72 14 32 15 77 16 71 17 73 18 33 19 76 20 70 21 69 22
REMARK SMILES IDX 34 24 60 25 43 26 59 27 44 28 47 29 58 30 74 31 45 32 46 33
REMARK SMILES IDX 57 35 75 36 48 37 35 38 36 39 41 40 37 41 38 42 40 43 42 44
REMARK SMILES IDX 39 45 61 46 62 47 67 48 63 49 64 50 66 51 68 52 65 53 49 54
REMARK SMILES IDX 50 55 55 56 51 57 52 58 54 59 56 60 53 61 6 62 7 63 8 64
REMARK SMILES IDX 9 65 10 66 18 67 11 68 17 69 12 70 19 71 20 73 21 74 22 75
REMARK SMILES IDX 25 76 23 77 24 78 13 79 14 80 15 81 16 82
REMARK H PARENT 73 23 47 34 19 72
REMARK Flexibility Score: inf
ROOT
ATOM      1  C   UNL A   1      37.986  20.853  25.501  1.00  0.00     0.275 C 
ENDROOT
BRANCH   1   2
ATOM      2  C   UNL A   1      38.689  19.619  24.924  1.00  0.00     0.275 C 
BRANCH   2   3
ATOM      3  O   UNL A   1      39.683  19.027  25.777  1.00  0.00    -0.458 OA
BRANCH   3   4
ATOM      4  C   UNL A   1      40.978  19.386  25.954  1.00  0.00     0.338 C 
ATOM      5  O   UNL A   1      41.861  18.546  25.799  1.00  0.00    -0.246 OA
BRANCH   4   6
ATOM      6  C   UNL A   1      41.366  20.719  26.506  1.00  0.00     0.060 A 
ATOM      7  C   UNL A   1      41.353  21.087  27.852  1.00  0.00     0.016 A 
ATOM      8  C   UNL A   1      41.783  21.679  25.569  1.00  0.00     0.016 A 
ATOM      9  C   UNL A   1      41.840  22.327  28.263  1.00  0.00     0.010 A 
ATOM     10  C   UNL A   1      42.301  22.911  25.971  1.00  0.00     0.010 A 
ATOM     11  C   UNL A   1      42.327  23.241  27.328  1.00  0.00    -0.014 A 
BRANCH  11  12
ATOM     12  C   UNL A   1      42.679  24.607  27.766  1.00  0.00     0.031 A 
ATOM     13  C   UNL A   1      44.132  24.956  27.863  1.00  0.00     0.074 A 
ATOM     14  C   UNL A   1      41.725  25.528  27.995  1.00  0.00     0.049 A 
ATOM     15  N   UNL A   1      44.684  26.100  28.162  1.00  0.00    -0.248 NA
ATOM     16  C   UNL A   1      45.093  23.886  27.540  1.00  0.00     0.031 C 
ATOM     17  C   UNL A   1      40.290  25.322  27.812  1.00  0.00     0.029 A 
ATOM     18  N   UNL A   1      41.814  26.821  28.441  1.00  0.00    -0.354 N 
ATOM     19  C   UNL A   1      46.049  25.898  28.020  1.00  0.00     0.074 A 
ATOM     20  C   UNL A   1      46.252  24.509  27.686  1.00  0.00     0.031 C 
ATOM     21  C   UNL A   1      39.626  26.416  28.222  1.00  0.00     0.029 A 
ATOM     22  C   UNL A   1      40.593  27.409  28.672  1.00  0.00     0.049 A 
ATOM     23  H   UNL A   1      42.671  27.284  28.583  1.00  0.00     0.167 HD
ATOM     24  C   UNL A   1      47.041  26.810  28.116  1.00  0.00     0.037 A 
ATOM     25  C   UNL A   1      40.297  28.616  29.189  1.00  0.00     0.037 A 
ATOM     26  C   UNL A   1      46.820  28.185  28.464  1.00  0.00     0.049 A 
ATOM     27  C   UNL A   1      41.435  29.565  29.451  1.00  0.00     0.074 A 
ATOM     28  C   UNL A   1      47.746  29.202  28.590  1.00  0.00     0.029 A 
ATOM     29  N   UNL A   1      45.577  28.727  28.761  1.00  0.00    -0.354 N 
ATOM     30  N   UNL A   1      42.719  29.385  29.250  1.00  0.00    -0.248 NA
ATOM     31  C   UNL A   1      41.087  30.898  29.959  1.00  0.00     0.031 C 
ATOM     32  C   UNL A   1      47.070  30.347  29.022  1.00  0.00     0.029 A 
ATOM     33  C   UNL A   1      45.716  30.059  29.108  1.00  0.00     0.049 A 
ATOM     34  H   UNL A   1      44.724  28.237  28.730  1.00  0.00     0.167 HD
ATOM     35  C   UNL A   1      43.326  30.596  29.549  1.00  0.00     0.074 A 
ATOM     36  C   UNL A   1      42.267  31.502  29.947  1.00  0.00     0.031 C 
ATOM     37  C   UNL A   1      44.637  30.936  29.486  1.00  0.00     0.037 A 
BRANCH  24  38
ATOM     38  C   UNL A   1      48.435  26.332  27.853  1.00  0.00     0.057 A 
ATOM     39  C   UNL A   1      49.009  26.393  26.575  1.00  0.00     0.134 A 
ATOM     40  C   UNL A   1      49.210  25.796  28.886  1.00  0.00     0.134 A 
ATOM     41  F   UNL A   1      48.307  26.869  25.536  1.00  0.00    -0.206 F 
ATOM     42  C   UNL A   1      50.299  25.921  26.332  1.00  0.00     0.040 A 
ATOM     43  C   UNL A   1      50.511  25.342  28.661  1.00  0.00     0.040 A 
ATOM     44  F   UNL A   1      48.715  25.702  30.130  1.00  0.00    -0.206 F 
ATOM     45  C   UNL A   1      51.056  25.399  27.380  1.00  0.00     0.006 A 
ENDBRANCH  24  38
BRANCH  25  46
ATOM     46  C   UNL A   1      38.890  29.001  29.479  1.00  0.00     0.057 A 
ATOM     47  C   UNL A   1      38.067  29.577  28.506  1.00  0.00     0.134 A 
ATOM     48  C   UNL A   1      38.354  28.852  30.765  1.00  0.00     0.134 A 
ATOM     49  F   UNL A   1      38.520  29.755  27.257  1.00  0.00    -0.206 F 
ATOM     50  C   UNL A   1      36.779  30.029  28.808  1.00  0.00     0.040 A 
ATOM     51  C   UNL A   1      37.060  29.279  31.077  1.00  0.00     0.040 A 
ATOM     52  F   UNL A   1      39.080  28.291  31.743  1.00  0.00    -0.206 F 
ATOM     53  C   UNL A   1      36.274  29.883  30.099  1.00  0.00     0.006 A 
ENDBRANCH  25  46
BRANCH  37  54
ATOM     54  C   UNL A   1      44.987  32.357  29.809  1.00  0.00     0.057 A 
ATOM     55  C   UNL A   1      45.362  32.752  31.099  1.00  0.00     0.134 A 
ATOM     56  C   UNL A   1      44.995  33.329  28.801  1.00  0.00     0.134 A 
ATOM     57  F   UNL A   1      45.359  31.870  32.109  1.00  0.00    -0.206 F 
ATOM     58  C   UNL A   1      45.710  34.073  31.379  1.00  0.00     0.040 A 
ATOM     59  C   UNL A   1      45.375  34.644  29.062  1.00  0.00     0.040 A 
ATOM     60  F   UNL A   1      44.656  33.010  27.542  1.00  0.00    -0.206 F 
ATOM     61  C   UNL A   1      45.727  35.020  30.357  1.00  0.00     0.006 A 
ENDBRANCH  37  54
ENDBRANCH  11  12
ENDBRANCH   4   6
ENDBRANCH   3   4
ENDBRANCH   2   3
ENDBRANCH   1   2
BRANCH   1  62
ATOM     62  O   UNL A   1      36.568  20.897  25.271  1.00  0.00    -0.458 OA
BRANCH  62  63
ATOM     63  C   UNL A   1      36.161  21.840  24.377  1.00  0.00     0.342 C 
ATOM     64  O   UNL A   1      36.789  22.239  23.411  1.00  0.00    -0.246 OA
BRANCH  63  65
ATOM     65  C   UNL A   1      34.790  22.275  24.693  1.00  0.00     0.102 A 
ATOM     66  C   UNL A   1      34.528  23.622  24.960  1.00  0.00     0.022 A 
ATOM     67  C   UNL A   1      33.742  21.352  24.719  1.00  0.00     0.141 A 
ATOM     68  C   UNL A   1      33.238  24.010  25.315  1.00  0.00     0.034 A 
ATOM     69  N   UNL A   1      32.502  21.738  25.103  1.00  0.00    -0.226 NA
ATOM     70  C   UNL A   1      32.252  23.037  25.431  1.00  0.00     0.146 A 
BRANCH  67  71
ATOM     71  N   UNL A   1      33.941  20.008  24.472  1.00  0.00    -0.369 N 
ATOM     72  H   UNL A   1      34.518  19.742  23.721  1.00  0.00     0.162 HD
BRANCH  71  73
ATOM     73  C   UNL A   1      33.325  18.976  25.284  1.00  0.00     0.120 C 
BRANCH  73  74
ATOM     74  C   UNL A   1      32.453  17.992  24.484  1.00  0.00     0.036 C 
ATOM     75  C   UNL A   1      32.958  16.566  24.634  1.00  0.00     0.036 C 
ATOM     76  C   UNL A   1      32.486  18.137  22.970  1.00  0.00     0.165 C 
ATOM     77  C   UNL A   1      34.014  16.476  23.553  1.00  0.00     0.160 C 
ATOM     78  O   UNL A   1      33.596  17.356  22.500  1.00  0.00    -0.381 OA
ENDBRANCH  73  74
ENDBRANCH  71  73
ENDBRANCH  67  71
BRANCH  70  79
ATOM     79  C   UNL A   1      30.869  23.394  25.961  1.00  0.00     0.433 C 
ATOM     80  F   UNL A   1      30.215  24.292  25.170  1.00  0.00    -0.165 F 
ATOM     81  F   UNL A   1      30.044  22.312  26.063  1.00  0.00    -0.165 F 
ATOM     82  F   UNL A   1      30.895  23.956  27.204  1.00  0.00    -0.165 F 
ENDBRANCH  70  79
ENDBRANCH  63  65
ENDBRANCH  62  63
ENDBRANCH   1  62
TORSDOF 15
ENDMDL
MODEL 3
REMARK VINA RESULT:     -10.9      6.183      9.985
REMARK SMILES O=C(OCCOC(=O)c1ccc(C(F)(F)F)nc1NC[C@@H]1CCOC1)c1ccc(-c2c3nc(c(-c4c(F)cccc4F)c4ccc([nH]4)c(-c4c(F)cccc4F)c4nc(c(-c5c(F)cccc5F)c5ccc2[nH]5)C=C4)C=C3)cc1
REMARK SMILES IDX 5 1 4 2 3 3 2 4 1 5 26 6 27 7 79 8 28 9 78 10 29 11 30 12
REMARK SMILES IDX 31 13 72 14 32 15 77 16 71 17 73 18 33 19 76 20 70 21 69 22
REMARK SMILES IDX 34 24 60 25 43 26 59 27 44 28 47 29 58 30 74 31 45 32 46 33
REMARK SMILES IDX 57 35 75 36 48 37 35 38 36 39 41 40 37 41 38 42 40 43 42 44
REMARK SMILES IDX 39 45 61 46 62 47 67 48 63 49 64 50 66 51 68 52 65 53 49 54
REMARK SMILES IDX 50 55 55 56 51 57 52 58 54 59 56 60 53 61 6 62 7 63 8 64
REMARK SMILES IDX 9 65 10 66 18 67 11 68 17 69 12 70 19 71 20 73 21 74 22 75
REMARK SMILES IDX 25 76 23 77 24 78 13 79 14 80 15 81 16 82
REMARK H PARENT 73 23 47 34 19 72
REMARK Flexibility Score: inf
ROOT
ATOM      1  C   UNL A   1      38.122  21.052  25.432  1.00  0.00     0.275 C 
ENDROOT
BRANCH   1   2
ATOM      2  C   UNL A   1      38.795  19.744  25.002  1.00  0.00     0.275 C 
BRANCH   2   3
ATOM      3  O   UNL A   1      39.751  19.213  25.936  1.00  0.00    -0.458 OA
BRANCH   3   4
ATOM      4  C   UNL A   1      41.084  19.446  26.015  1.00  0.00     0.338 C 
ATOM      5  O   UNL A   1      41.867  18.506  25.894  1.00  0.00    -0.246 OA
BRANCH   4   6
ATOM      6  C   UNL A   1      41.638  20.772  26.423  1.00  0.00     0.060 A 
ATOM      7  C   UNL A   1      41.758  21.246  27.730  1.00  0.00     0.016 A 
ATOM      8  C   UNL A   1      42.077  21.607  25.382  1.00  0.00     0.016 A 
ATOM      9  C   UNL A   1      42.392  22.459  27.999  1.00  0.00     0.010 A 
ATOM     10  C   UNL A   1      42.740  22.807  25.641  1.00  0.00     0.010 A 
ATOM     11  C   UNL A   1      42.895  23.240  26.959  1.00  0.00    -0.014 A 
BRANCH  11  12
ATOM     12  C   UNL A   1      43.408  24.594  27.253  1.00  0.00     0.031 A 
ATOM     13  C   UNL A   1      42.412  25.660  27.591  1.00  0.00     0.074 A 
ATOM     14  C   UNL A   1      44.731  24.840  27.290  1.00  0.00     0.049 A 
ATOM     15  N   UNL A   1      42.623  26.899  27.944  1.00  0.00    -0.248 NA
ATOM     16  C   UNL A   1      40.991  25.269  27.571  1.00  0.00     0.031 C 
ATOM     17  C   UNL A   1      45.782  23.844  27.094  1.00  0.00     0.029 A 
ATOM     18  N   UNL A   1      45.422  26.006  27.495  1.00  0.00    -0.354 N 
ATOM     19  C   UNL A   1      41.368  27.418  28.228  1.00  0.00     0.074 A 
ATOM     20  C   UNL A   1      40.395  26.393  27.935  1.00  0.00     0.031 C 
ATOM     21  C   UNL A   1      46.980  24.451  27.103  1.00  0.00     0.029 A 
ATOM     22  C   UNL A   1      46.781  25.876  27.332  1.00  0.00     0.049 A 
ATOM     23  H   UNL A   1      44.986  26.855  27.736  1.00  0.00     0.167 HD
ATOM     24  C   UNL A   1      41.064  28.632  28.736  1.00  0.00     0.037 A 
ATOM     25  C   UNL A   1      47.749  26.810  27.366  1.00  0.00     0.037 A 
ATOM     26  C   UNL A   1      42.045  29.644  29.006  1.00  0.00     0.049 A 
ATOM     27  C   UNL A   1      47.363  28.207  27.771  1.00  0.00     0.074 A 
ATOM     28  C   UNL A   1      41.858  30.912  29.522  1.00  0.00     0.029 A 
ATOM     29  N   UNL A   1      43.404  29.502  28.761  1.00  0.00    -0.354 N 
ATOM     30  N   UNL A   1      46.182  28.670  28.103  1.00  0.00    -0.248 NA
ATOM     31  C   UNL A   1      48.444  29.197  27.860  1.00  0.00     0.031 C 
ATOM     32  C   UNL A   1      43.097  31.559  29.533  1.00  0.00     0.029 A 
ATOM     33  C   UNL A   1      44.065  30.675  29.080  1.00  0.00     0.049 A 
ATOM     34  H   UNL A   1      43.834  28.688  28.412  1.00  0.00     0.167 HD
ATOM     35  C   UNL A   1      46.383  29.986  28.495  1.00  0.00     0.074 A 
ATOM     36  C   UNL A   1      47.803  30.244  28.357  1.00  0.00     0.031 C 
ATOM     37  C   UNL A   1      45.482  30.894  28.943  1.00  0.00     0.037 A 
BRANCH  24  38
ATOM     38  C   UNL A   1      39.619  28.916  29.008  1.00  0.00     0.057 A 
ATOM     39  C   UNL A   1      39.051  28.709  30.273  1.00  0.00     0.134 A 
ATOM     40  C   UNL A   1      38.784  29.393  27.992  1.00  0.00     0.134 A 
ATOM     41  F   UNL A   1      39.792  28.226  31.281  1.00  0.00    -0.206 F 
ATOM     42  C   UNL A   1      37.697  28.950  30.512  1.00  0.00     0.040 A 
ATOM     43  C   UNL A   1      37.434  29.661  28.225  1.00  0.00     0.040 A 
ATOM     44  F   UNL A   1      39.266  29.603  26.758  1.00  0.00    -0.206 F 
ATOM     45  C   UNL A   1      36.887  29.434  29.486  1.00  0.00     0.006 A 
ENDBRANCH  24  38
BRANCH  25  46
ATOM     46  C   UNL A   1      49.156  26.467  27.026  1.00  0.00     0.057 A 
ATOM     47  C   UNL A   1      49.616  26.463  25.705  1.00  0.00     0.134 A 
ATOM     48  C   UNL A   1      50.062  26.074  28.021  1.00  0.00     0.134 A 
ATOM     49  F   UNL A   1      48.799  26.821  24.704  1.00  0.00    -0.206 F 
ATOM     50  C   UNL A   1      50.909  26.044  25.379  1.00  0.00     0.040 A 
ATOM     51  C   UNL A   1      51.364  25.673  27.712  1.00  0.00     0.040 A 
ATOM     52  F   UNL A   1      49.694  26.070  29.310  1.00  0.00    -0.206 F 
ATOM     53  C   UNL A   1      51.787  25.645  26.386  1.00  0.00     0.006 A 
ENDBRANCH  25  46
BRANCH  37  54
ATOM     54  C   UNL A   1      46.016  32.231  29.362  1.00  0.00     0.057 A 
ATOM     55  C   UNL A   1      46.103  33.305  28.469  1.00  0.00     0.134 A 
ATOM     56  C   UNL A   1      46.398  32.454  30.690  1.00  0.00     0.134 A 
ATOM     57  F   UNL A   1      45.764  33.149  27.180  1.00  0.00    -0.206 F 
ATOM     58  C   UNL A   1      46.576  34.551  28.879  1.00  0.00     0.040 A 
ATOM     59  C   UNL A   1      46.840  33.704  31.119  1.00  0.00     0.040 A 
ATOM     60  F   UNL A   1      46.328  31.467  31.597  1.00  0.00    -0.206 F 
ATOM     61  C   UNL A   1      46.936  34.755  30.210  1.00  0.00     0.006 A 
ENDBRANCH  37  54
ENDBRANCH  11  12
ENDBRANCH   4   6
ENDBRANCH   3   4
ENDBRANCH   2   3
ENDBRANCH   1   2
BRANCH   1  62
ATOM     62  O   UNL A   1      36.694  21.072  25.275  1.00  0.00    -0.458 OA
BRANCH  62  63
ATOM     63  C   UNL A   1      36.231  21.945  24.339  1.00  0.00     0.342 C 
ATOM     64  O   UNL A   1      36.813  22.294  23.325  1.00  0.00    -0.246 OA
BRANCH  63  65
ATOM     65  C   UNL A   1      34.862  22.369  24.679  1.00  0.00     0.102 A 
ATOM     66  C   UNL A   1      34.595  23.714  24.954  1.00  0.00     0.022 A 
ATOM     67  C   UNL A   1      33.822  21.438  24.720  1.00  0.00     0.141 A 
ATOM     68  C   UNL A   1      33.308  24.092  25.332  1.00  0.00     0.034 A 
ATOM     69  N   UNL A   1      32.585  21.815  25.125  1.00  0.00    -0.226 NA
ATOM     70  C   UNL A   1      32.332  23.111  25.461  1.00  0.00     0.146 A 
BRANCH  67  71
ATOM     71  N   UNL A   1      34.025  20.097  24.466  1.00  0.00    -0.369 N 
ATOM     72  H   UNL A   1      34.568  19.836  23.687  1.00  0.00     0.162 HD
BRANCH  71  73
ATOM     73  C   UNL A   1      33.465  19.059  25.309  1.00  0.00     0.120 C 
BRANCH  73  74
ATOM     74  C   UNL A   1      32.529  18.089  24.565  1.00  0.00     0.036 C 
ATOM     75  C   UNL A   1      32.976  16.648  24.749  1.00  0.00     0.036 C 
ATOM     76  C   UNL A   1      32.527  18.184  23.047  1.00  0.00     0.165 C 
ATOM     77  C   UNL A   1      33.997  16.477  23.644  1.00  0.00     0.160 C 
ATOM     78  O   UNL A   1      33.589  17.340  22.574  1.00  0.00    -0.381 OA
ENDBRANCH  73  74
ENDBRANCH  71  73
ENDBRANCH  67  71
BRANCH  70  79
ATOM     79  C   UNL A   1      30.956  23.457  26.015  1.00  0.00     0.433 C 
ATOM     80  F   UNL A   1      30.273  24.337  25.228  1.00  0.00    -0.165 F 
ATOM     81  F   UNL A   1      30.147  22.366  26.148  1.00  0.00    -0.165 F 
ATOM     82  F   UNL A   1      30.999  24.033  27.251  1.00  0.00    -0.165 F 
ENDBRANCH  70  79
ENDBRANCH  63  65
ENDBRANCH  62  63
ENDBRANCH   1  62
TORSDOF 15
ENDMDL
