MODEL 1
REMARK VINA RESULT:     -11.6      0.000      0.000
REMARK SMILES O=C(OCCOC(=O)[C@H]1CCCN1S(=O)(=O)c1ccccc1Cl)c1ccc(-c2c3nc(c(-c4c(F)cccc4F)c4ccc([nH]4)c(-c4c(F)cccc4F)c4nc(c(-c5c(F)cccc5F)c5ccc2[nH]5)C=C4)C=C3)cc1
REMARK SMILES IDX 4 1 3 2 2 3 1 4 24 5 25 6 77 7 26 8 76 9 27 10 28 11 29 12
REMARK SMILES IDX 70 13 30 14 75 15 69 16 71 17 31 18 74 19 68 20 67 21 32 23
REMARK SMILES IDX 58 24 41 25 57 26 42 27 45 28 56 29 72 30 43 31 44 32 55 34
REMARK SMILES IDX 73 35 46 36 33 37 34 38 39 39 35 40 36 41 38 42 40 43 37 44
REMARK SMILES IDX 59 45 60 46 65 47 61 48 62 49 64 50 66 51 63 52 47 53 48 54
REMARK SMILES IDX 53 55 49 56 50 57 52 58 54 59 51 60 5 61 6 62 7 63 8 64 9 65
REMARK SMILES IDX 10 66 13 67 11 68 12 69 14 70 15 71 16 72 17 73 18 74 22 75
REMARK SMILES IDX 19 76 21 77 23 78 20 79
REMARK H PARENT 71 22 45 33
REMARK Flexibility Score: inf
ROOT
ATOM      1  C   UNL A   1      31.191  32.302  27.085  1.00  0.00     0.275 C 
ENDROOT
BRANCH   1   2
ATOM      2  O   UNL A   1      32.065  33.457  27.077  1.00  0.00    -0.458 OA
BRANCH   2   3
ATOM      3  C   UNL A   1      32.869  34.042  27.998  1.00  0.00     0.338 C 
ATOM      4  O   UNL A   1      32.549  35.170  28.379  1.00  0.00    -0.246 OA
BRANCH   3   5
ATOM      5  C   UNL A   1      34.175  33.501  28.530  1.00  0.00     0.060 A 
ATOM      6  C   UNL A   1      35.359  34.210  28.753  1.00  0.00     0.016 A 
ATOM      7  C   UNL A   1      34.166  32.145  28.936  1.00  0.00     0.016 A 
ATOM      8  C   UNL A   1      36.410  33.645  29.517  1.00  0.00     0.010 A 
ATOM      9  C   UNL A   1      35.216  31.573  29.679  1.00  0.00     0.010 A 
ATOM     10  C   UNL A   1      36.329  32.339  30.032  1.00  0.00    -0.014 A 
BRANCH  10  11
ATOM     11  C   UNL A   1      37.485  31.746  30.773  1.00  0.00     0.031 A 
ATOM     12  C   UNL A   1      38.354  30.805  30.018  1.00  0.00     0.074 A 
ATOM     13  C   UNL A   1      37.778  32.004  32.066  1.00  0.00     0.049 A 
ATOM     14  N   UNL A   1      39.423  30.179  30.423  1.00  0.00    -0.248 NA
ATOM     15  C   UNL A   1      37.932  30.483  28.647  1.00  0.00     0.031 C 
ATOM     16  C   UNL A   1      36.915  32.742  32.951  1.00  0.00     0.029 A 
ATOM     17  N   UNL A   1      38.838  31.694  32.890  1.00  0.00    -0.354 N 
ATOM     18  C   UNL A   1      39.781  29.359  29.372  1.00  0.00     0.074 A 
ATOM     19  C   UNL A   1      38.823  29.568  28.308  1.00  0.00     0.031 C 
ATOM     20  C   UNL A   1      37.495  32.973  34.133  1.00  0.00     0.029 A 
ATOM     21  C   UNL A   1      38.751  32.258  34.154  1.00  0.00     0.049 A 
ATOM     22  H   UNL A   1      39.589  31.124  32.606  1.00  0.00     0.167 HD
ATOM     23  C   UNL A   1      40.807  28.484  29.322  1.00  0.00     0.037 A 
ATOM     24  C   UNL A   1      39.546  32.161  35.238  1.00  0.00     0.037 A 
ATOM     25  C   UNL A   1      41.708  28.250  30.416  1.00  0.00     0.049 A 
ATOM     26  C   UNL A   1      40.696  31.207  35.136  1.00  0.00     0.074 A 
ATOM     27  C   UNL A   1      42.789  27.394  30.465  1.00  0.00     0.029 A 
ATOM     28  N   UNL A   1      41.609  28.854  31.664  1.00  0.00    -0.354 N 
ATOM     29  N   UNL A   1      41.072  30.495  34.102  1.00  0.00    -0.248 NA
ATOM     30  C   UNL A   1      41.495  30.986  36.348  1.00  0.00     0.031 C 
ATOM     31  C   UNL A   1      43.318  27.442  31.758  1.00  0.00     0.029 A 
ATOM     32  C   UNL A   1      42.604  28.372  32.499  1.00  0.00     0.049 A 
ATOM     33  H   UNL A   1      40.935  29.525  31.917  1.00  0.00     0.167 HD
ATOM     34  C   UNL A   1      42.131  29.723  34.539  1.00  0.00     0.074 A 
ATOM     35  C   UNL A   1      42.377  30.094  35.919  1.00  0.00     0.031 C 
ATOM     36  C   UNL A   1      42.821  28.771  33.867  1.00  0.00     0.037 A 
BRANCH  23  37
ATOM     37  C   UNL A   1      40.926  27.683  28.067  1.00  0.00     0.057 A 
ATOM     38  C   UNL A   1      40.309  26.432  27.926  1.00  0.00     0.134 A 
ATOM     39  C   UNL A   1      41.731  28.135  27.017  1.00  0.00     0.134 A 
ATOM     40  F   UNL A   1      39.561  25.926  28.920  1.00  0.00    -0.206 F 
ATOM     41  C   UNL A   1      40.517  25.645  26.795  1.00  0.00     0.040 A 
ATOM     42  C   UNL A   1      41.924  27.368  25.869  1.00  0.00     0.040 A 
ATOM     43  F   UNL A   1      42.366  29.313  27.102  1.00  0.00    -0.206 F 
ATOM     44  C   UNL A   1      41.323  26.115  25.760  1.00  0.00     0.006 A 
ENDBRANCH  23  37
BRANCH  24  45
ATOM     45  C   UNL A   1      39.259  32.887  36.515  1.00  0.00     0.057 A 
ATOM     46  C   UNL A   1      39.874  34.113  36.810  1.00  0.00     0.134 A 
ATOM     47  C   UNL A   1      38.403  32.365  37.495  1.00  0.00     0.134 A 
ATOM     48  F   UNL A   1      40.731  34.665  35.938  1.00  0.00    -0.206 F 
ATOM     49  C   UNL A   1      39.666  34.775  38.026  1.00  0.00     0.040 A 
ATOM     50  C   UNL A   1      38.151  33.037  38.696  1.00  0.00     0.040 A 
ATOM     51  F   UNL A   1      37.788  31.190  37.302  1.00  0.00    -0.206 F 
ATOM     52  C   UNL A   1      38.795  34.240  38.971  1.00  0.00     0.006 A 
ENDBRANCH  24  45
BRANCH  36  53
ATOM     53  C   UNL A   1      43.922  28.093  34.616  1.00  0.00     0.057 A 
ATOM     54  C   UNL A   1      43.719  26.884  35.291  1.00  0.00     0.134 A 
ATOM     55  C   UNL A   1      45.212  28.635  34.610  1.00  0.00     0.134 A 
ATOM     56  F   UNL A   1      42.497  26.332  35.350  1.00  0.00    -0.206 F 
ATOM     57  C   UNL A   1      44.767  26.237  35.944  1.00  0.00     0.040 A 
ATOM     58  C   UNL A   1      46.273  27.982  35.234  1.00  0.00     0.040 A 
ATOM     59  F   UNL A   1      45.463  29.791  33.980  1.00  0.00    -0.206 F 
ATOM     60  C   UNL A   1      46.050  26.781  35.905  1.00  0.00     0.006 A 
ENDBRANCH  36  53
ENDBRANCH  10  11
ENDBRANCH   3   5
ENDBRANCH   2   3
ENDBRANCH   1   2
BRANCH   1  61
ATOM     61  C   UNL A   1      31.721  31.138  26.238  1.00  0.00     0.274 C 
BRANCH  61  62
ATOM     62  O   UNL A   1      32.123  30.094  27.120  1.00  0.00    -0.461 OA
BRANCH  62  63
ATOM     63  C   UNL A   1      31.782  28.782  26.936  1.00  0.00     0.324 C 
ATOM     64  O   UNL A   1      31.354  28.046  27.810  1.00  0.00    -0.250 OA
BRANCH  63  65
ATOM     65  C   UNL A   1      31.967  28.429  25.447  1.00  0.00     0.183 C 
ATOM     66  C   UNL A   1      33.449  28.304  25.186  1.00  0.00     0.034 C 
ATOM     67  N   UNL A   1      31.485  27.097  24.938  1.00  0.00    -0.184 NA
ATOM     68  C   UNL A   1      33.773  26.933  25.735  1.00  0.00     0.019 C 
ATOM     69  C   UNL A   1      32.559  26.103  25.353  1.00  0.00     0.103 C 
BRANCH  67  70
ATOM     70  S   UNL A   1      31.211  26.954  23.215  1.00  0.00     0.245 S 
ATOM     71  O   UNL A   1      32.421  27.307  22.501  1.00  0.00    -0.207 OA
ATOM     72  O   UNL A   1      30.665  25.628  23.017  1.00  0.00    -0.207 OA
BRANCH  70  73
ATOM     73  C   UNL A   1      29.961  28.126  22.792  1.00  0.00     0.101 A 
ATOM     74  C   UNL A   1      30.398  29.313  22.184  1.00  0.00     0.023 A 
ATOM     75  C   UNL A   1      28.612  27.986  23.136  1.00  0.00     0.061 A 
ATOM     76  C   UNL A   1      29.484  30.304  21.834  1.00  0.00     0.002 A 
ATOM     77  C   UNL A   1      27.695  28.963  22.729  1.00  0.00     0.022 A 
ATOM     78  Cl  UNL A   1      27.941  26.704  24.076  1.00  0.00    -0.083 Cl
ATOM     79  C   UNL A   1      28.128  30.113  22.073  1.00  0.00     0.002 A 
ENDBRANCH  70  73
ENDBRANCH  67  70
ENDBRANCH  63  65
ENDBRANCH  62  63
ENDBRANCH  61  62
ENDBRANCH   1  61
TORSDOF 13
ENDMDL
MODEL 2
REMARK VINA RESULT:     -11.5      0.748      6.396
REMARK SMILES O=C(OCCOC(=O)[C@H]1CCCN1S(=O)(=O)c1ccccc1Cl)c1ccc(-c2c3nc(c(-c4c(F)cccc4F)c4ccc([nH]4)c(-c4c(F)cccc4F)c4nc(c(-c5c(F)cccc5F)c5ccc2[nH]5)C=C4)C=C3)cc1
REMARK SMILES IDX 4 1 3 2 2 3 1 4 24 5 25 6 77 7 26 8 76 9 27 10 28 11 29 12
REMARK SMILES IDX 70 13 30 14 75 15 69 16 71 17 31 18 74 19 68 20 67 21 32 23
REMARK SMILES IDX 58 24 41 25 57 26 42 27 45 28 56 29 72 30 43 31 44 32 55 34
REMARK SMILES IDX 73 35 46 36 33 37 34 38 39 39 35 40 36 41 38 42 40 43 37 44
REMARK SMILES IDX 59 45 60 46 65 47 61 48 62 49 64 50 66 51 63 52 47 53 48 54
REMARK SMILES IDX 53 55 49 56 50 57 52 58 54 59 51 60 5 61 6 62 7 63 8 64 9 65
REMARK SMILES IDX 10 66 13 67 11 68 12 69 14 70 15 71 16 72 17 73 18 74 22 75
REMARK SMILES IDX 19 76 21 77 23 78 20 79
REMARK H PARENT 71 22 45 33
REMARK Flexibility Score: inf
ROOT
ATOM      1  C   UNL A   1      31.275  32.281  26.852  1.00  0.00     0.275 C 
ENDROOT
BRANCH   1   2
ATOM      2  O   UNL A   1      32.226  33.363  27.003  1.00  0.00    -0.458 OA
BRANCH   2   3
ATOM      3  C   UNL A   1      33.068  33.752  27.991  1.00  0.00     0.338 C 
ATOM      4  O   UNL A   1      32.784  34.795  28.584  1.00  0.00    -0.246 OA
BRANCH   3   5
ATOM      5  C   UNL A   1      34.375  33.100  28.373  1.00  0.00     0.060 A 
ATOM      6  C   UNL A   1      35.643  33.686  28.390  1.00  0.00     0.016 A 
ATOM      7  C   UNL A   1      34.287  31.773  28.861  1.00  0.00     0.016 A 
ATOM      8  C   UNL A   1      36.730  33.048  29.038  1.00  0.00     0.010 A 
ATOM      9  C   UNL A   1      35.369  31.126  29.488  1.00  0.00     0.010 A 
ATOM     10  C   UNL A   1      36.592  31.783  29.639  1.00  0.00    -0.014 A 
BRANCH  10  11
ATOM     11  C   UNL A   1      37.775  31.105  30.251  1.00  0.00     0.031 A 
ATOM     12  C   UNL A   1      38.026  31.364  31.694  1.00  0.00     0.074 A 
ATOM     13  C   UNL A   1      38.619  30.288  29.583  1.00  0.00     0.049 A 
ATOM     14  N   UNL A   1      38.966  30.883  32.457  1.00  0.00    -0.248 NA
ATOM     15  C   UNL A   1      37.137  32.337  32.346  1.00  0.00     0.031 C 
ATOM     16  C   UNL A   1      38.595  30.107  28.155  1.00  0.00     0.029 A 
ATOM     17  N   UNL A   1      39.659  29.467  29.959  1.00  0.00    -0.354 N 
ATOM     18  C   UNL A   1      38.808  31.522  33.671  1.00  0.00     0.074 A 
ATOM     19  C   UNL A   1      37.681  32.420  33.548  1.00  0.00     0.031 C 
ATOM     20  C   UNL A   1      39.439  29.150  27.760  1.00  0.00     0.029 A 
ATOM     21  C   UNL A   1      40.199  28.730  28.916  1.00  0.00     0.049 A 
ATOM     22  H   UNL A   1      39.989  29.409  30.885  1.00  0.00     0.167 HD
ATOM     23  C   UNL A   1      39.568  31.387  34.777  1.00  0.00     0.037 A 
ATOM     24  C   UNL A   1      41.232  27.865  28.867  1.00  0.00     0.037 A 
ATOM     25  C   UNL A   1      40.720  30.533  34.854  1.00  0.00     0.049 A 
ATOM     26  C   UNL A   1      42.032  27.712  30.124  1.00  0.00     0.074 A 
ATOM     27  C   UNL A   1      41.551  30.312  35.933  1.00  0.00     0.029 A 
ATOM     28  N   UNL A   1      41.219  29.783  33.795  1.00  0.00    -0.354 N 
ATOM     29  N   UNL A   1      41.820  28.265  31.294  1.00  0.00    -0.248 NA
ATOM     30  C   UNL A   1      43.239  26.880  30.055  1.00  0.00     0.031 C 
ATOM     31  C   UNL A   1      42.583  29.468  35.517  1.00  0.00     0.029 A 
ATOM     32  C   UNL A   1      42.364  29.112  34.194  1.00  0.00     0.049 A 
ATOM     33  H   UNL A   1      40.819  29.735  32.897  1.00  0.00     0.167 HD
ATOM     34  C   UNL A   1      42.876  27.872  32.094  1.00  0.00     0.074 A 
ATOM     35  C   UNL A   1      43.700  26.986  31.294  1.00  0.00     0.031 C 
ATOM     36  C   UNL A   1      43.154  28.233  33.368  1.00  0.00     0.037 A 
BRANCH  23  37
ATOM     37  C   UNL A   1      39.194  32.249  35.938  1.00  0.00     0.057 A 
ATOM     38  C   UNL A   1      38.256  31.836  36.895  1.00  0.00     0.134 A 
ATOM     39  C   UNL A   1      39.721  33.539  36.057  1.00  0.00     0.134 A 
ATOM     40  F   UNL A   1      37.681  30.626  36.807  1.00  0.00    -0.206 F 
ATOM     41  C   UNL A   1      37.832  32.691  37.911  1.00  0.00     0.040 A 
ATOM     42  C   UNL A   1      39.326  34.393  37.085  1.00  0.00     0.040 A 
ATOM     43  F   UNL A   1      40.605  34.000  35.159  1.00  0.00    -0.206 F 
ATOM     44  C   UNL A   1      38.371  33.973  38.010  1.00  0.00     0.006 A 
ENDBRANCH  23  37
BRANCH  24  45
ATOM     45  C   UNL A   1      41.631  27.158  27.610  1.00  0.00     0.057 A 
ATOM     46  C   UNL A   1      42.510  27.749  26.690  1.00  0.00     0.134 A 
ATOM     47  C   UNL A   1      41.120  25.898  27.265  1.00  0.00     0.134 A 
ATOM     48  F   UNL A   1      43.020  28.966  26.930  1.00  0.00    -0.206 F 
ATOM     49  C   UNL A   1      42.846  27.130  25.479  1.00  0.00     0.040 A 
ATOM     50  C   UNL A   1      41.480  25.249  26.080  1.00  0.00     0.040 A 
ATOM     51  F   UNL A   1      40.259  25.271  28.079  1.00  0.00    -0.206 F 
ATOM     52  C   UNL A   1      42.335  25.871  25.176  1.00  0.00     0.006 A 
ENDBRANCH  24  45
BRANCH  36  53
ATOM     53  C   UNL A   1      44.386  27.643  33.974  1.00  0.00     0.057 A 
ATOM     54  C   UNL A   1      45.617  28.309  33.939  1.00  0.00     0.134 A 
ATOM     55  C   UNL A   1      44.320  26.419  34.648  1.00  0.00     0.134 A 
ATOM     56  F   UNL A   1      45.744  29.474  33.285  1.00  0.00    -0.206 F 
ATOM     57  C   UNL A   1      46.747  27.770  34.552  1.00  0.00     0.040 A 
ATOM     58  C   UNL A   1      45.436  25.885  35.289  1.00  0.00     0.040 A 
ATOM     59  F   UNL A   1      43.166  25.738  34.712  1.00  0.00    -0.206 F 
ATOM     60  C   UNL A   1      46.653  26.561  35.239  1.00  0.00     0.006 A 
ENDBRANCH  36  53
ENDBRANCH  10  11
ENDBRANCH   3   5
ENDBRANCH   2   3
ENDBRANCH   1   2
BRANCH   1  61
ATOM     61  C   UNL A   1      31.919  30.973  26.374  1.00  0.00     0.274 C 
BRANCH  61  62
ATOM     62  O   UNL A   1      31.705  29.981  27.373  1.00  0.00    -0.461 OA
BRANCH  62  63
ATOM     63  C   UNL A   1      31.830  28.639  27.139  1.00  0.00     0.324 C 
ATOM     64  O   UNL A   1      31.659  27.769  27.976  1.00  0.00    -0.250 OA
BRANCH  63  65
ATOM     65  C   UNL A   1      32.153  28.428  25.647  1.00  0.00     0.183 C 
ATOM     66  C   UNL A   1      33.574  27.927  25.551  1.00  0.00     0.034 C 
ATOM     67  N   UNL A   1      31.430  27.353  24.879  1.00  0.00    -0.184 NA
ATOM     68  C   UNL A   1      33.440  26.464  25.912  1.00  0.00     0.019 C 
ATOM     69  C   UNL A   1      32.129  26.057  25.260  1.00  0.00     0.103 C 
BRANCH  67  70
ATOM     70  S   UNL A   1      31.407  27.497  23.135  1.00  0.00     0.245 S 
ATOM     71  O   UNL A   1      32.581  28.223  22.693  1.00  0.00    -0.207 OA
ATOM     72  O   UNL A   1      31.208  26.154  22.636  1.00  0.00    -0.207 OA
BRANCH  70  73
ATOM     73  C   UNL A   1      29.982  28.451  22.715  1.00  0.00     0.101 A 
ATOM     74  C   UNL A   1      30.218  29.683  22.087  1.00  0.00     0.023 A 
ATOM     75  C   UNL A   1      28.676  28.104  23.079  1.00  0.00     0.061 A 
ATOM     76  C   UNL A   1      29.155  30.513  21.737  1.00  0.00     0.002 A 
ATOM     77  C   UNL A   1      27.612  28.917  22.673  1.00  0.00     0.022 A 
ATOM     78  Cl  UNL A   1      28.228  26.746  24.043  1.00  0.00    -0.083 Cl
ATOM     79  C   UNL A   1      27.849  30.113  21.997  1.00  0.00     0.002 A 
ENDBRANCH  70  73
ENDBRANCH  67  70
ENDBRANCH  63  65
ENDBRANCH  62  63
ENDBRANCH  61  62
ENDBRANCH   1  61
TORSDOF 13
ENDMDL
MODEL 3
REMARK VINA RESULT:     -11.3      4.186      9.219
REMARK SMILES O=C(OCCOC(=O)[C@H]1CCCN1S(=O)(=O)c1ccccc1Cl)c1ccc(-c2c3nc(c(-c4c(F)cccc4F)c4ccc([nH]4)c(-c4c(F)cccc4F)c4nc(c(-c5c(F)cccc5F)c5ccc2[nH]5)C=C4)C=C3)cc1
REMARK SMILES IDX 4 1 3 2 2 3 1 4 24 5 25 6 77 7 26 8 76 9 27 10 28 11 29 12
REMARK SMILES IDX 70 13 30 14 75 15 69 16 71 17 31 18 74 19 68 20 67 21 32 23
REMARK SMILES IDX 58 24 41 25 57 26 42 27 45 28 56 29 72 30 43 31 44 32 55 34
REMARK SMILES IDX 73 35 46 36 33 37 34 38 39 39 35 40 36 41 38 42 40 43 37 44
REMARK SMILES IDX 59 45 60 46 65 47 61 48 62 49 64 50 66 51 63 52 47 53 48 54
REMARK SMILES IDX 53 55 49 56 50 57 52 58 54 59 51 60 5 61 6 62 7 63 8 64 9 65
REMARK SMILES IDX 10 66 13 67 11 68 12 69 14 70 15 71 16 72 17 73 18 74 22 75
REMARK SMILES IDX 19 76 21 77 23 78 20 79
REMARK H PARENT 71 22 45 33
REMARK Flexibility Score: inf
ROOT
ATOM      1  C   UNL A   1      33.963  33.075  28.031  1.00  0.00     0.275 C 
ENDROOT
BRANCH   1   2
ATOM      2  O   UNL A   1      33.656  31.720  27.624  1.00  0.00    -0.458 OA
BRANCH   2   3
ATOM      3  C   UNL A   1      34.392  30.595  27.445  1.00  0.00     0.338 C 
ATOM      4  O   UNL A   1      33.926  29.741  26.689  1.00  0.00    -0.246 OA
BRANCH   3   5
ATOM      5  C   UNL A   1      35.674  30.233  28.157  1.00  0.00     0.060 A 
ATOM      6  C   UNL A   1      35.809  29.707  29.445  1.00  0.00     0.016 A 
ATOM      7  C   UNL A   1      36.861  30.350  27.395  1.00  0.00     0.016 A 
ATOM      8  C   UNL A   1      37.039  29.149  29.875  1.00  0.00     0.010 A 
ATOM      9  C   UNL A   1      38.091  29.815  27.826  1.00  0.00     0.010 A 
ATOM     10  C   UNL A   1      38.179  29.151  29.051  1.00  0.00    -0.014 A 
BRANCH  10  11
ATOM     11  C   UNL A   1      39.481  28.621  29.562  1.00  0.00     0.031 A 
ATOM     12  C   UNL A   1      39.990  29.202  30.832  1.00  0.00     0.074 A 
ATOM     13  C   UNL A   1      40.213  27.666  28.946  1.00  0.00     0.049 A 
ATOM     14  N   UNL A   1      41.075  28.901  31.489  1.00  0.00    -0.248 NA
ATOM     15  C   UNL A   1      39.207  30.306  31.406  1.00  0.00     0.031 C 
ATOM     16  C   UNL A   1      39.926  27.163  27.628  1.00  0.00     0.029 A 
ATOM     17  N   UNL A   1      41.334  26.945  29.292  1.00  0.00    -0.354 N 
ATOM     18  C   UNL A   1      41.126  29.802  32.534  1.00  0.00     0.074 A 
ATOM     19  C   UNL A   1      39.964  30.657  32.430  1.00  0.00     0.031 C 
ATOM     20  C   UNL A   1      40.714  26.133  27.306  1.00  0.00     0.029 A 
ATOM     21  C   UNL A   1      41.693  25.983  28.359  1.00  0.00     0.049 A 
ATOM     22  H   UNL A   1      41.835  27.098  30.126  1.00  0.00     0.167 HD
ATOM     23  C   UNL A   1      42.085  29.918  33.475  1.00  0.00     0.037 A 
ATOM     24  C   UNL A   1      42.729  25.122  28.309  1.00  0.00     0.037 A 
ATOM     25  C   UNL A   1      43.261  29.095  33.520  1.00  0.00     0.049 A 
ATOM     26  C   UNL A   1      43.757  25.255  29.390  1.00  0.00     0.074 A 
ATOM     27  C   UNL A   1      44.289  29.120  34.441  1.00  0.00     0.029 A 
ATOM     28  N   UNL A   1      43.578  28.118  32.583  1.00  0.00    -0.354 N 
ATOM     29  N   UNL A   1      43.750  26.062  30.423  1.00  0.00    -0.248 NA
ATOM     30  C   UNL A   1      44.959  24.419  29.281  1.00  0.00     0.031 C 
ATOM     31  C   UNL A   1      45.254  28.194  34.036  1.00  0.00     0.029 A 
ATOM     32  C   UNL A   1      44.801  27.547  32.896  1.00  0.00     0.049 A 
ATOM     33  H   UNL A   1      43.018  27.868  31.813  1.00  0.00     0.167 HD
ATOM     34  C   UNL A   1      44.952  25.854  31.073  1.00  0.00     0.074 A 
ATOM     35  C   UNL A   1      45.641  24.802  30.351  1.00  0.00     0.031 C 
ATOM     36  C   UNL A   1      45.452  26.496  32.154  1.00  0.00     0.037 A 
BRANCH  23  37
ATOM     37  C   UNL A   1      41.907  31.026  34.460  1.00  0.00     0.057 A 
ATOM     38  C   UNL A   1      41.122  30.874  35.612  1.00  0.00     0.134 A 
ATOM     39  C   UNL A   1      42.463  32.285  34.214  1.00  0.00     0.134 A 
ATOM     40  F   UNL A   1      40.524  29.701  35.877  1.00  0.00    -0.206 F 
ATOM     41  C   UNL A   1      40.871  31.946  36.466  1.00  0.00     0.040 A 
ATOM     42  C   UNL A   1      42.244  33.357  35.076  1.00  0.00     0.040 A 
ATOM     43  F   UNL A   1      43.205  32.500  33.117  1.00  0.00    -0.206 F 
ATOM     44  C   UNL A   1      41.437  33.192  36.201  1.00  0.00     0.006 A 
ENDBRANCH  23  37
BRANCH  24  45
ATOM     45  C   UNL A   1      42.909  24.143  27.192  1.00  0.00     0.057 A 
ATOM     46  C   UNL A   1      43.593  24.494  26.019  1.00  0.00     0.134 A 
ATOM     47  C   UNL A   1      42.371  22.848  27.238  1.00  0.00     0.134 A 
ATOM     48  F   UNL A   1      44.111  25.723  25.883  1.00  0.00    -0.206 F 
ATOM     49  C   UNL A   1      43.716  23.612  24.938  1.00  0.00     0.040 A 
ATOM     50  C   UNL A   1      42.524  21.941  26.184  1.00  0.00     0.040 A 
ATOM     51  F   UNL A   1      41.686  22.437  28.315  1.00  0.00    -0.206 F 
ATOM     52  C   UNL A   1      43.187  22.327  25.023  1.00  0.00     0.006 A 
ENDBRANCH  24  45
BRANCH  36  53
ATOM     53  C   UNL A   1      46.797  26.050  32.630  1.00  0.00     0.057 A 
ATOM     54  C   UNL A   1      47.976  26.664  32.190  1.00  0.00     0.134 A 
ATOM     55  C   UNL A   1      46.903  25.030  33.581  1.00  0.00     0.134 A 
ATOM     56  F   UNL A   1      47.935  27.631  31.260  1.00  0.00    -0.206 F 
ATOM     57  C   UNL A   1      49.221  26.271  32.679  1.00  0.00     0.040 A 
ATOM     58  C   UNL A   1      48.139  24.649  34.099  1.00  0.00     0.040 A 
ATOM     59  F   UNL A   1      45.806  24.407  34.037  1.00  0.00    -0.206 F 
ATOM     60  C   UNL A   1      49.302  25.270  33.646  1.00  0.00     0.006 A 
ENDBRANCH  36  53
ENDBRANCH  10  11
ENDBRANCH   3   5
ENDBRANCH   2   3
ENDBRANCH   1   2
BRANCH   1  61
ATOM     61  C   UNL A   1      32.743  34.005  28.003  1.00  0.00     0.274 C 
BRANCH  61  62
ATOM     62  O   UNL A   1      32.590  34.576  29.299  1.00  0.00    -0.461 OA
BRANCH  62  63
ATOM     63  C   UNL A   1      32.975  35.852  29.609  1.00  0.00     0.324 C 
ATOM     64  O   UNL A   1      32.597  36.853  29.023  1.00  0.00    -0.250 OA
BRANCH  63  65
ATOM     65  C   UNL A   1      33.898  35.802  30.842  1.00  0.00     0.183 C 
ATOM     66  C   UNL A   1      33.428  36.861  31.810  1.00  0.00     0.034 C 
ATOM     67  N   UNL A   1      33.877  34.588  31.732  1.00  0.00    -0.184 NA
ATOM     68  C   UNL A   1      32.226  36.213  32.461  1.00  0.00     0.019 C 
ATOM     69  C   UNL A   1      32.644  34.759  32.606  1.00  0.00     0.103 C 
BRANCH  67  70
ATOM     70  S   UNL A   1      35.271  34.327  32.757  1.00  0.00     0.245 S 
ATOM     71  O   UNL A   1      35.524  35.518  33.543  1.00  0.00    -0.207 OA
ATOM     72  O   UNL A   1      35.011  33.090  33.461  1.00  0.00    -0.207 OA
BRANCH  70  73
ATOM     73  C   UNL A   1      36.654  34.068  31.693  1.00  0.00     0.101 A 
ATOM     74  C   UNL A   1      36.373  33.575  30.410  1.00  0.00     0.023 A 
ATOM     75  C   UNL A   1      37.987  34.207  32.098  1.00  0.00     0.061 A 
ATOM     76  C   UNL A   1      37.404  33.320  29.509  1.00  0.00     0.002 A 
ATOM     77  C   UNL A   1      39.012  34.002  31.168  1.00  0.00     0.022 A 
ATOM     78  Cl  UNL A   1      38.519  34.584  33.696  1.00  0.00    -0.083 Cl
ATOM     79  C   UNL A   1      38.722  33.569  29.876  1.00  0.00     0.002 A 
ENDBRANCH  70  73
ENDBRANCH  67  70
ENDBRANCH  63  65
ENDBRANCH  62  63
ENDBRANCH  61  62
ENDBRANCH   1  61
TORSDOF 13
ENDMDL
