MODEL 1
REMARK VINA RESULT:     -11.1      0.000      0.000
REMARK SMILES C[C@@](NC(=O)CSCc1ccccc1)(C(=O)OCCOC(=O)c1ccc(-c2c3nc(c(-c4c(F)cccc4F)c4ccc([nH]4)c(-c4c(F)cccc4F)c4nc(c(-c5c(F)cccc5F)c5ccc2[nH]5)C=C4)C=C3)cc1)C1CC1
REMARK SMILES IDX 17 1 15 2 16 3 2 4 1 5 3 6 4 7 5 9 6 10 7 11 8 12 9 13 10 14
REMARK SMILES IDX 14 15 11 16 13 17 12 18 77 19 78 20 79 21 18 22 19 23 20 24
REMARK SMILES IDX 21 25 22 26 23 27 24 28 76 29 25 30 75 31 26 32 27 33 28 34
REMARK SMILES IDX 69 35 29 36 74 37 68 38 70 39 30 40 73 41 67 42 66 43 31 45
REMARK SMILES IDX 57 46 40 47 56 48 41 49 44 50 55 51 71 52 42 53 43 54 54 56
REMARK SMILES IDX 72 57 45 58 32 59 33 60 38 61 34 62 35 63 37 64 39 65 36 66
REMARK SMILES IDX 58 67 59 68 64 69 60 70 61 71 63 72 65 73 62 74 46 75 47 76
REMARK SMILES IDX 52 77 48 78 49 79 51 80 53 81 50 82
REMARK H PARENT 3 8 70 44 44 55
REMARK Flexibility Score: inf
ROOT
ATOM      1  O   UNL A   1      33.463  28.291  25.127  1.00  0.00    -0.460 OA
ENDROOT
BRANCH   1   2
ATOM      2  C   UNL A   1      33.357  27.111  24.441  1.00  0.00     0.331 C 
ATOM      3  O   UNL A   1      33.566  27.015  23.235  1.00  0.00    -0.249 OA
BRANCH   2   4
ATOM      4  C   UNL A   1      32.820  25.931  25.323  1.00  0.00     0.138 C 
ATOM      5  C   UNL A   1      32.163  26.511  26.601  1.00  0.00     0.048 C 
BRANCH   4   6
ATOM      6  N   UNL A   1      31.758  25.095  24.687  1.00  0.00    -0.340 N 
ATOM      7  C   UNL A   1      30.651  25.379  23.951  1.00  0.00     0.230 C 
ATOM      8  H   UNL A   1      31.888  24.130  24.831  1.00  0.00     0.164 HD
ATOM      9  O   UNL A   1      30.342  24.564  23.075  1.00  0.00    -0.274 OA
BRANCH   7  10
ATOM     10  C   UNL A   1      29.731  26.537  24.266  1.00  0.00     0.169 C 
BRANCH  10  11
ATOM     11  S   UNL A   1      29.782  27.845  22.997  1.00  0.00    -0.147 SA
BRANCH  11  12
ATOM     12  C   UNL A   1      28.062  28.451  23.003  1.00  0.00     0.105 C 
BRANCH  12  13
ATOM     13  C   UNL A   1      28.052  29.898  22.606  1.00  0.00    -0.038 A 
ATOM     14  C   UNL A   1      28.150  30.898  23.584  1.00  0.00     0.004 A 
ATOM     15  C   UNL A   1      28.068  30.254  21.252  1.00  0.00     0.004 A 
ATOM     16  C   UNL A   1      28.284  32.233  23.212  1.00  0.00     0.000 A 
ATOM     17  C   UNL A   1      28.206  31.590  20.883  1.00  0.00     0.000 A 
ATOM     18  C   UNL A   1      28.320  32.576  21.862  1.00  0.00     0.000 A 
ENDBRANCH  12  13
ENDBRANCH  11  12
ENDBRANCH  10  11
ENDBRANCH   7  10
ENDBRANCH   4   6
BRANCH   4  19
ATOM     19  C   UNL A   1      33.887  24.920  25.790  1.00  0.00     0.026 C 
ATOM     20  C   UNL A   1      33.887  23.434  25.517  1.00  0.00     0.007 C 
ATOM     21  C   UNL A   1      34.881  24.321  24.821  1.00  0.00     0.007 C 
ENDBRANCH   4  19
ENDBRANCH   2   4
ENDBRANCH   1   2
BRANCH   1  22
ATOM     22  C   UNL A   1      32.724  29.425  24.613  1.00  0.00     0.274 C 
BRANCH  22  23
ATOM     23  C   UNL A   1      31.829  30.052  25.673  1.00  0.00     0.275 C 
BRANCH  23  24
ATOM     24  O   UNL A   1      32.565  30.115  26.899  1.00  0.00    -0.458 OA
BRANCH  24  25
ATOM     25  C   UNL A   1      33.096  31.319  27.189  1.00  0.00     0.338 C 
ATOM     26  O   UNL A   1      32.541  32.399  27.265  1.00  0.00    -0.246 OA
BRANCH  25  27
ATOM     27  C   UNL A   1      34.489  31.099  27.582  1.00  0.00     0.060 A 
ATOM     28  C   UNL A   1      34.872  29.793  27.877  1.00  0.00     0.016 A 
ATOM     29  C   UNL A   1      35.353  32.166  27.796  1.00  0.00     0.016 A 
ATOM     30  C   UNL A   1      36.087  29.547  28.499  1.00  0.00     0.010 A 
ATOM     31  C   UNL A   1      36.610  31.907  28.345  1.00  0.00     0.010 A 
ATOM     32  C   UNL A   1      36.964  30.604  28.749  1.00  0.00    -0.014 A 
BRANCH  32  33
ATOM     33  C   UNL A   1      38.190  30.386  29.552  1.00  0.00     0.031 A 
ATOM     34  C   UNL A   1      39.289  29.549  28.966  1.00  0.00     0.074 A 
ATOM     35  C   UNL A   1      38.345  30.937  30.769  1.00  0.00     0.049 A 
ATOM     36  N   UNL A   1      40.276  28.940  29.564  1.00  0.00    -0.248 NA
ATOM     37  C   UNL A   1      39.254  29.358  27.507  1.00  0.00     0.031 C 
ATOM     38  C   UNL A   1      37.419  31.870  31.410  1.00  0.00     0.029 A 
ATOM     39  N   UNL A   1      39.350  30.777  31.690  1.00  0.00    -0.354 N 
ATOM     40  C   UNL A   1      40.924  28.219  28.570  1.00  0.00     0.074 A 
ATOM     41  C   UNL A   1      40.240  28.493  27.325  1.00  0.00     0.031 C 
ATOM     42  C   UNL A   1      37.903  32.209  32.615  1.00  0.00     0.029 A 
ATOM     43  C   UNL A   1      39.112  31.435  32.872  1.00  0.00     0.049 A 
ATOM     44  H   UNL A   1      40.160  30.244  31.520  1.00  0.00     0.167 HD
ATOM     45  C   UNL A   1      41.979  27.383  28.702  1.00  0.00     0.037 A 
ATOM     46  C   UNL A   1      39.753  31.360  34.053  1.00  0.00     0.037 A 
ATOM     47  C   UNL A   1      42.685  27.181  29.938  1.00  0.00     0.049 A 
ATOM     48  C   UNL A   1      40.905  30.405  34.193  1.00  0.00     0.074 A 
ATOM     49  C   UNL A   1      43.758  26.348  30.200  1.00  0.00     0.029 A 
ATOM     50  N   UNL A   1      42.398  27.851  31.118  1.00  0.00    -0.354 N 
ATOM     51  N   UNL A   1      41.435  29.613  33.292  1.00  0.00    -0.248 NA
ATOM     52  C   UNL A   1      41.522  30.305  35.522  1.00  0.00     0.031 C 
ATOM     53  C   UNL A   1      44.108  26.502  31.547  1.00  0.00     0.029 A 
ATOM     54  C   UNL A   1      43.271  27.451  32.113  1.00  0.00     0.049 A 
ATOM     55  H   UNL A   1      41.679  28.514  31.231  1.00  0.00     0.167 HD
ATOM     56  C   UNL A   1      42.442  28.914  33.945  1.00  0.00     0.074 A 
ATOM     57  C   UNL A   1      42.465  29.396  35.312  1.00  0.00     0.031 C 
ATOM     58  C   UNL A   1      43.266  27.951  33.464  1.00  0.00     0.037 A 
BRANCH  45  59
ATOM     59  C   UNL A   1      42.377  26.583  27.499  1.00  0.00     0.057 A 
ATOM     60  C   UNL A   1      43.298  27.050  26.556  1.00  0.00     0.134 A 
ATOM     61  C   UNL A   1      41.813  25.318  27.284  1.00  0.00     0.134 A 
ATOM     62  F   UNL A   1      43.853  28.263  26.691  1.00  0.00    -0.206 F 
ATOM     63  C   UNL A   1      43.631  26.296  25.429  1.00  0.00     0.040 A 
ATOM     64  C   UNL A   1      42.154  24.545  26.173  1.00  0.00     0.040 A 
ATOM     65  F   UNL A   1      40.920  24.814  28.148  1.00  0.00    -0.206 F 
ATOM     66  C   UNL A   1      43.060  25.037  25.238  1.00  0.00     0.006 A 
ENDBRANCH  45  59
BRANCH  46  67
ATOM     67  C   UNL A   1      39.256  32.143  35.209  1.00  0.00     0.057 A 
ATOM     68  C   UNL A   1      38.370  31.586  36.136  1.00  0.00     0.134 A 
ATOM     69  C   UNL A   1      39.678  33.461  35.430  1.00  0.00     0.134 A 
ATOM     70  F   UNL A   1      37.912  30.338  35.964  1.00  0.00    -0.206 F 
ATOM     71  C   UNL A   1      37.922  32.309  37.243  1.00  0.00     0.040 A 
ATOM     72  C   UNL A   1      39.259  34.187  36.545  1.00  0.00     0.040 A 
ATOM     73  F   UNL A   1      40.528  34.052  34.576  1.00  0.00    -0.206 F 
ATOM     74  C   UNL A   1      38.375  33.611  37.454  1.00  0.00     0.006 A 
ENDBRANCH  46  67
BRANCH  58  75
ATOM     75  C   UNL A   1      44.263  27.375  34.418  1.00  0.00     0.057 A 
ATOM     76  C   UNL A   1      45.512  27.975  34.618  1.00  0.00     0.134 A 
ATOM     77  C   UNL A   1      43.953  26.240  35.177  1.00  0.00     0.134 A 
ATOM     78  F   UNL A   1      45.868  29.057  33.910  1.00  0.00    -0.206 F 
ATOM     79  C   UNL A   1      46.426  27.457  35.535  1.00  0.00     0.040 A 
ATOM     80  C   UNL A   1      44.852  25.724  36.110  1.00  0.00     0.040 A 
ATOM     81  F   UNL A   1      42.768  25.628  35.031  1.00  0.00    -0.206 F 
ATOM     82  C   UNL A   1      46.093  26.331  36.289  1.00  0.00     0.006 A 
ENDBRANCH  58  75
ENDBRANCH  32  33
ENDBRANCH  25  27
ENDBRANCH  24  25
ENDBRANCH  23  24
ENDBRANCH  22  23
ENDBRANCH   1  22
TORSDOF 17
ENDMDL
MODEL 2
REMARK VINA RESULT:     -10.7      1.769      4.075
REMARK SMILES C[C@@](NC(=O)CSCc1ccccc1)(C(=O)OCCOC(=O)c1ccc(-c2c3nc(c(-c4c(F)cccc4F)c4ccc([nH]4)c(-c4c(F)cccc4F)c4nc(c(-c5c(F)cccc5F)c5ccc2[nH]5)C=C4)C=C3)cc1)C1CC1
REMARK SMILES IDX 17 1 15 2 16 3 2 4 1 5 3 6 4 7 5 9 6 10 7 11 8 12 9 13 10 14
REMARK SMILES IDX 14 15 11 16 13 17 12 18 77 19 78 20 79 21 18 22 19 23 20 24
REMARK SMILES IDX 21 25 22 26 23 27 24 28 76 29 25 30 75 31 26 32 27 33 28 34
REMARK SMILES IDX 69 35 29 36 74 37 68 38 70 39 30 40 73 41 67 42 66 43 31 45
REMARK SMILES IDX 57 46 40 47 56 48 41 49 44 50 55 51 71 52 42 53 43 54 54 56
REMARK SMILES IDX 72 57 45 58 32 59 33 60 38 61 34 62 35 63 37 64 39 65 36 66
REMARK SMILES IDX 58 67 59 68 64 69 60 70 61 71 63 72 65 73 62 74 46 75 47 76
REMARK SMILES IDX 52 77 48 78 49 79 51 80 53 81 50 82
REMARK H PARENT 3 8 70 44 44 55
REMARK Flexibility Score: inf
ROOT
ATOM      1  O   UNL A   1      32.052  28.404  25.075  1.00  0.00    -0.460 OA
ENDROOT
BRANCH   1   2
ATOM      2  C   UNL A   1      31.321  27.308  24.702  1.00  0.00     0.331 C 
ATOM      3  O   UNL A   1      30.186  27.384  24.240  1.00  0.00    -0.249 OA
BRANCH   2   4
ATOM      4  C   UNL A   1      32.029  25.951  25.043  1.00  0.00     0.138 C 
ATOM      5  C   UNL A   1      33.142  26.207  26.090  1.00  0.00     0.048 C 
BRANCH   4   6
ATOM      6  N   UNL A   1      31.149  24.913  25.659  1.00  0.00    -0.340 N 
ATOM      7  C   UNL A   1      31.374  23.857  26.483  1.00  0.00     0.230 C 
ATOM      8  H   UNL A   1      30.200  25.019  25.417  1.00  0.00     0.164 HD
ATOM      9  O   UNL A   1      30.482  23.585  27.295  1.00  0.00    -0.274 OA
BRANCH   7  10
ATOM     10  C   UNL A   1      32.567  22.940  26.336  1.00  0.00     0.169 C 
BRANCH  10  11
ATOM     11  S   UNL A   1      32.178  21.417  25.413  1.00  0.00    -0.147 SA
BRANCH  11  12
ATOM     12  C   UNL A   1      33.078  21.676  23.849  1.00  0.00     0.105 C 
BRANCH  12  13
ATOM     13  C   UNL A   1      34.545  21.787  24.142  1.00  0.00    -0.038 A 
ATOM     14  C   UNL A   1      35.192  20.792  24.891  1.00  0.00     0.004 A 
ATOM     15  C   UNL A   1      35.300  22.819  23.571  1.00  0.00     0.004 A 
ATOM     16  C   UNL A   1      36.575  20.817  25.045  1.00  0.00     0.000 A 
ATOM     17  C   UNL A   1      36.684  22.839  23.725  1.00  0.00     0.000 A 
ATOM     18  C   UNL A   1      37.320  21.836  24.455  1.00  0.00     0.000 A 
ENDBRANCH  12  13
ENDBRANCH  11  12
ENDBRANCH  10  11
ENDBRANCH   7  10
ENDBRANCH   4   6
BRANCH   4  19
ATOM     19  C   UNL A   1      32.697  25.239  23.848  1.00  0.00     0.026 C 
ATOM     20  C   UNL A   1      32.201  25.240  22.420  1.00  0.00     0.007 C 
ATOM     21  C   UNL A   1      33.438  26.016  22.783  1.00  0.00     0.007 C 
ENDBRANCH   4  19
ENDBRANCH   2   4
ENDBRANCH   1   2
BRANCH   1  22
ATOM     22  C   UNL A   1      31.443  29.704  24.882  1.00  0.00     0.274 C 
BRANCH  22  23
ATOM     23  C   UNL A   1      31.558  30.579  26.122  1.00  0.00     0.275 C 
BRANCH  23  24
ATOM     24  O   UNL A   1      32.896  30.471  26.623  1.00  0.00    -0.458 OA
BRANCH  24  25
ATOM     25  C   UNL A   1      33.359  31.560  27.265  1.00  0.00     0.338 C 
ATOM     26  O   UNL A   1      32.754  32.560  27.605  1.00  0.00    -0.246 OA
BRANCH  25  27
ATOM     27  C   UNL A   1      34.740  31.279  27.662  1.00  0.00     0.060 A 
ATOM     28  C   UNL A   1      35.062  29.959  27.968  1.00  0.00     0.016 A 
ATOM     29  C   UNL A   1      35.652  32.307  27.868  1.00  0.00     0.016 A 
ATOM     30  C   UNL A   1      36.263  29.662  28.594  1.00  0.00     0.010 A 
ATOM     31  C   UNL A   1      36.895  31.994  28.421  1.00  0.00     0.010 A 
ATOM     32  C   UNL A   1      37.188  30.679  28.836  1.00  0.00    -0.014 A 
BRANCH  32  33
ATOM     33  C   UNL A   1      38.402  30.411  29.643  1.00  0.00     0.031 A 
ATOM     34  C   UNL A   1      39.480  29.554  29.049  1.00  0.00     0.074 A 
ATOM     35  C   UNL A   1      38.564  30.935  30.871  1.00  0.00     0.049 A 
ATOM     36  N   UNL A   1      40.446  28.905  29.641  1.00  0.00    -0.248 NA
ATOM     37  C   UNL A   1      39.450  29.391  27.586  1.00  0.00     0.031 C 
ATOM     38  C   UNL A   1      37.662  31.883  31.523  1.00  0.00     0.029 A 
ATOM     39  N   UNL A   1      39.558  30.729  31.794  1.00  0.00    -0.354 N 
ATOM     40  C   UNL A   1      41.079  28.184  28.638  1.00  0.00     0.074 A 
ATOM     41  C   UNL A   1      40.412  28.501  27.394  1.00  0.00     0.031 C 
ATOM     42  C   UNL A   1      38.147  32.186  32.737  1.00  0.00     0.029 A 
ATOM     43  C   UNL A   1      39.331  31.372  32.987  1.00  0.00     0.049 A 
ATOM     44  H   UNL A   1      40.353  30.176  31.620  1.00  0.00     0.167 HD
ATOM     45  C   UNL A   1      42.109  27.316  28.761  1.00  0.00     0.037 A 
ATOM     46  C   UNL A   1      39.962  31.257  34.170  1.00  0.00     0.037 A 
ATOM     47  C   UNL A   1      42.800  27.072  29.998  1.00  0.00     0.049 A 
ATOM     48  C   UNL A   1      41.085  30.267  34.300  1.00  0.00     0.074 A 
ATOM     49  C   UNL A   1      43.847  26.203  30.251  1.00  0.00     0.029 A 
ATOM     50  N   UNL A   1      42.525  27.727  31.188  1.00  0.00    -0.354 N 
ATOM     51  N   UNL A   1      41.598  29.476  33.389  1.00  0.00    -0.248 NA
ATOM     52  C   UNL A   1      41.690  30.125  35.631  1.00  0.00     0.031 C 
ATOM     53  C   UNL A   1      44.192  26.322  31.602  1.00  0.00     0.029 A 
ATOM     54  C   UNL A   1      43.379  27.284  32.181  1.00  0.00     0.049 A 
ATOM     55  H   UNL A   1      41.824  28.409  31.309  1.00  0.00     0.167 HD
ATOM     56  C   UNL A   1      42.580  28.737  34.035  1.00  0.00     0.074 A 
ATOM     57  C   UNL A   1      42.607  29.193  35.411  1.00  0.00     0.031 C 
ATOM     58  C   UNL A   1      43.379  27.760  33.541  1.00  0.00     0.037 A 
BRANCH  45  59
ATOM     59  C   UNL A   1      42.492  26.527  27.547  1.00  0.00     0.057 A 
ATOM     60  C   UNL A   1      43.425  26.989  26.613  1.00  0.00     0.134 A 
ATOM     61  C   UNL A   1      41.900  25.279  27.309  1.00  0.00     0.134 A 
ATOM     62  F   UNL A   1      44.007  28.187  26.769  1.00  0.00    -0.206 F 
ATOM     63  C   UNL A   1      43.744  26.246  25.475  1.00  0.00     0.040 A 
ATOM     64  C   UNL A   1      42.226  24.517  26.187  1.00  0.00     0.040 A 
ATOM     65  F   UNL A   1      40.993  24.781  28.163  1.00  0.00    -0.206 F 
ATOM     66  C   UNL A   1      43.146  25.003  25.261  1.00  0.00     0.006 A 
ENDBRANCH  45  59
BRANCH  46  67
ATOM     67  C   UNL A   1      39.480  32.033  35.338  1.00  0.00     0.057 A 
ATOM     68  C   UNL A   1      39.946  33.326  35.593  1.00  0.00     0.134 A 
ATOM     69  C   UNL A   1      38.519  31.508  36.214  1.00  0.00     0.134 A 
ATOM     70  F   UNL A   1      40.883  33.872  34.804  1.00  0.00    -0.206 F 
ATOM     71  C   UNL A   1      39.474  34.073  36.674  1.00  0.00     0.040 A 
ATOM     72  C   UNL A   1      38.020  32.252  37.283  1.00  0.00     0.040 A 
ATOM     73  F   UNL A   1      38.033  30.272  36.024  1.00  0.00    -0.206 F 
ATOM     74  C   UNL A   1      38.500  33.538  37.517  1.00  0.00     0.006 A 
ENDBRANCH  46  67
BRANCH  58  75
ATOM     75  C   UNL A   1      44.353  27.138  34.490  1.00  0.00     0.057 A 
ATOM     76  C   UNL A   1      44.040  25.968  35.192  1.00  0.00     0.134 A 
ATOM     77  C   UNL A   1      45.629  27.685  34.666  1.00  0.00     0.134 A 
ATOM     78  F   UNL A   1      42.829  25.406  35.073  1.00  0.00    -0.206 F 
ATOM     79  C   UNL A   1      44.964  25.369  36.049  1.00  0.00     0.040 A 
ATOM     80  C   UNL A   1      46.566  27.085  35.505  1.00  0.00     0.040 A 
ATOM     81  F   UNL A   1      45.986  28.802  34.013  1.00  0.00    -0.206 F 
ATOM     82  C   UNL A   1      46.234  25.925  36.202  1.00  0.00     0.006 A 
ENDBRANCH  58  75
ENDBRANCH  32  33
ENDBRANCH  25  27
ENDBRANCH  24  25
ENDBRANCH  23  24
ENDBRANCH  22  23
ENDBRANCH   1  22
TORSDOF 17
ENDMDL
MODEL 3
REMARK VINA RESULT:     -10.7      1.879      4.280
REMARK SMILES C[C@@](NC(=O)CSCc1ccccc1)(C(=O)OCCOC(=O)c1ccc(-c2c3nc(c(-c4c(F)cccc4F)c4ccc([nH]4)c(-c4c(F)cccc4F)c4nc(c(-c5c(F)cccc5F)c5ccc2[nH]5)C=C4)C=C3)cc1)C1CC1
REMARK SMILES IDX 17 1 15 2 16 3 2 4 1 5 3 6 4 7 5 9 6 10 7 11 8 12 9 13 10 14
REMARK SMILES IDX 14 15 11 16 13 17 12 18 77 19 78 20 79 21 18 22 19 23 20 24
REMARK SMILES IDX 21 25 22 26 23 27 24 28 76 29 25 30 75 31 26 32 27 33 28 34
REMARK SMILES IDX 69 35 29 36 74 37 68 38 70 39 30 40 73 41 67 42 66 43 31 45
REMARK SMILES IDX 57 46 40 47 56 48 41 49 44 50 55 51 71 52 42 53 43 54 54 56
REMARK SMILES IDX 72 57 45 58 32 59 33 60 38 61 34 62 35 63 37 64 39 65 36 66
REMARK SMILES IDX 58 67 59 68 64 69 60 70 61 71 63 72 65 73 62 74 46 75 47 76
REMARK SMILES IDX 52 77 48 78 49 79 51 80 53 81 50 82
REMARK H PARENT 3 8 70 44 44 55
REMARK Flexibility Score: inf
ROOT
ATOM      1  O   UNL A   1      32.375  27.364  25.112  1.00  0.00    -0.460 OA
ENDROOT
BRANCH   1   2
ATOM      2  C   UNL A   1      32.606  26.535  24.048  1.00  0.00     0.331 C 
ATOM      3  O   UNL A   1      33.508  26.721  23.236  1.00  0.00    -0.249 OA
BRANCH   2   4
ATOM      4  C   UNL A   1      31.528  25.405  23.901  1.00  0.00     0.138 C 
ATOM      5  C   UNL A   1      32.018  24.367  22.861  1.00  0.00     0.048 C 
BRANCH   4   6
ATOM      6  N   UNL A   1      31.262  24.617  25.141  1.00  0.00    -0.340 N 
ATOM      7  C   UNL A   1      32.051  24.128  26.133  1.00  0.00     0.230 C 
ATOM      8  H   UNL A   1      30.309  24.406  25.267  1.00  0.00     0.164 HD
ATOM      9  O   UNL A   1      31.559  24.089  27.267  1.00  0.00    -0.274 OA
BRANCH   7  10
ATOM     10  C   UNL A   1      33.405  23.507  25.875  1.00  0.00     0.169 C 
BRANCH  10  11
ATOM     11  S   UNL A   1      33.396  21.693  26.055  1.00  0.00    -0.147 SA
BRANCH  11  12
ATOM     12  C   UNL A   1      32.292  21.179  24.698  1.00  0.00     0.105 C 
BRANCH  12  13
ATOM     13  C   UNL A   1      32.802  19.895  24.113  1.00  0.00    -0.038 A 
ATOM     14  C   UNL A   1      33.848  19.201  24.741  1.00  0.00     0.004 A 
ATOM     15  C   UNL A   1      32.160  19.321  23.009  1.00  0.00     0.004 A 
ATOM     16  C   UNL A   1      34.229  17.942  24.283  1.00  0.00     0.000 A 
ATOM     17  C   UNL A   1      32.541  18.061  22.557  1.00  0.00     0.000 A 
ATOM     18  C   UNL A   1      33.569  17.370  23.198  1.00  0.00     0.000 A 
ENDBRANCH  12  13
ENDBRANCH  11  12
ENDBRANCH  10  11
ENDBRANCH   7  10
ENDBRANCH   4   6
BRANCH   4  19
ATOM     19  C   UNL A   1      30.137  25.882  23.433  1.00  0.00     0.026 C 
ATOM     20  C   UNL A   1      29.031  26.408  24.318  1.00  0.00     0.007 C 
ATOM     21  C   UNL A   1      29.774  27.350  23.411  1.00  0.00     0.007 C 
ENDBRANCH   4  19
ENDBRANCH   2   4
ENDBRANCH   1   2
BRANCH   1  22
ATOM     22  C   UNL A   1      33.015  28.663  25.092  1.00  0.00     0.274 C 
BRANCH  22  23
ATOM     23  C   UNL A   1      32.117  29.752  25.663  1.00  0.00     0.275 C 
BRANCH  23  24
ATOM     24  O   UNL A   1      32.526  30.008  27.011  1.00  0.00    -0.458 OA
BRANCH  24  25
ATOM     25  C   UNL A   1      33.072  31.221  27.225  1.00  0.00     0.338 C 
ATOM     26  O   UNL A   1      32.528  32.309  27.248  1.00  0.00    -0.246 OA
BRANCH  25  27
ATOM     27  C   UNL A   1      34.469  31.010  27.610  1.00  0.00     0.060 A 
ATOM     28  C   UNL A   1      34.852  29.713  27.942  1.00  0.00     0.016 A 
ATOM     29  C   UNL A   1      35.338  32.080  27.779  1.00  0.00     0.016 A 
ATOM     30  C   UNL A   1      36.073  29.483  28.559  1.00  0.00     0.010 A 
ATOM     31  C   UNL A   1      36.600  31.835  28.322  1.00  0.00     0.010 A 
ATOM     32  C   UNL A   1      36.955  30.545  28.765  1.00  0.00    -0.014 A 
BRANCH  32  33
ATOM     33  C   UNL A   1      38.189  30.349  29.561  1.00  0.00     0.031 A 
ATOM     34  C   UNL A   1      39.296  29.524  28.973  1.00  0.00     0.074 A 
ATOM     35  C   UNL A   1      38.344  30.910  30.774  1.00  0.00     0.049 A 
ATOM     36  N   UNL A   1      40.296  28.933  29.568  1.00  0.00    -0.248 NA
ATOM     37  C   UNL A   1      39.254  29.324  27.515  1.00  0.00     0.031 C 
ATOM     38  C   UNL A   1      37.410  31.834  31.415  1.00  0.00     0.029 A 
ATOM     39  N   UNL A   1      39.358  30.770  31.688  1.00  0.00    -0.354 N 
ATOM     40  C   UNL A   1      40.948  28.215  28.574  1.00  0.00     0.074 A 
ATOM     41  C   UNL A   1      40.252  28.471  27.332  1.00  0.00     0.031 C 
ATOM     42  C   UNL A   1      37.897  32.188  32.614  1.00  0.00     0.029 A 
ATOM     43  C   UNL A   1      39.118  31.432  32.868  1.00  0.00     0.049 A 
ATOM     44  H   UNL A   1      40.174  30.247  31.517  1.00  0.00     0.167 HD
ATOM     45  C   UNL A   1      42.015  27.394  28.704  1.00  0.00     0.037 A 
ATOM     46  C   UNL A   1      39.768  31.373  34.045  1.00  0.00     0.037 A 
ATOM     47  C   UNL A   1      42.732  27.211  29.937  1.00  0.00     0.049 A 
ATOM     48  C   UNL A   1      40.935  30.436  34.184  1.00  0.00     0.074 A 
ATOM     49  C   UNL A   1      43.818  26.395  30.197  1.00  0.00     0.029 A 
ATOM     50  N   UNL A   1      42.443  27.884  31.115  1.00  0.00    -0.354 N 
ATOM     51  N   UNL A   1      41.470  29.646  33.284  1.00  0.00    -0.248 NA
ATOM     52  C   UNL A   1      41.562  30.353  35.509  1.00  0.00     0.031 C 
ATOM     53  C   UNL A   1      44.175  26.561  31.540  1.00  0.00     0.029 A 
ATOM     54  C   UNL A   1      43.328  27.502  32.107  1.00  0.00     0.049 A 
ATOM     55  H   UNL A   1      41.715  28.537  31.228  1.00  0.00     0.167 HD
ATOM     56  C   UNL A   1      42.491  28.965  33.935  1.00  0.00     0.074 A 
ATOM     57  C   UNL A   1      42.516  29.456  35.299  1.00  0.00     0.031 C 
ATOM     58  C   UNL A   1      43.325  28.011  33.454  1.00  0.00     0.037 A 
BRANCH  45  59
ATOM     59  C   UNL A   1      42.416  26.593  27.504  1.00  0.00     0.057 A 
ATOM     60  C   UNL A   1      43.336  27.061  26.560  1.00  0.00     0.134 A 
ATOM     61  C   UNL A   1      41.857  25.325  27.292  1.00  0.00     0.134 A 
ATOM     62  F   UNL A   1      43.887  28.276  26.692  1.00  0.00    -0.206 F 
ATOM     63  C   UNL A   1      43.672  26.305  25.435  1.00  0.00     0.040 A 
ATOM     64  C   UNL A   1      42.201  24.551  26.183  1.00  0.00     0.040 A 
ATOM     65  F   UNL A   1      40.965  24.820  28.157  1.00  0.00    -0.206 F 
ATOM     66  C   UNL A   1      43.106  25.043  25.247  1.00  0.00     0.006 A 
ENDBRANCH  45  59
BRANCH  46  67
ATOM     67  C   UNL A   1      39.268  32.157  35.200  1.00  0.00     0.057 A 
ATOM     68  C   UNL A   1      38.388  31.596  36.130  1.00  0.00     0.134 A 
ATOM     69  C   UNL A   1      39.680  33.479  35.415  1.00  0.00     0.134 A 
ATOM     70  F   UNL A   1      37.939  30.343  35.964  1.00  0.00    -0.206 F 
ATOM     71  C   UNL A   1      37.937  32.320  37.236  1.00  0.00     0.040 A 
ATOM     72  C   UNL A   1      39.257  34.205  36.528  1.00  0.00     0.040 A 
ATOM     73  F   UNL A   1      40.523  34.074  34.557  1.00  0.00    -0.206 F 
ATOM     74  C   UNL A   1      38.381  33.626  37.442  1.00  0.00     0.006 A 
ENDBRANCH  46  67
BRANCH  58  75
ATOM     75  C   UNL A   1      44.337  27.455  34.405  1.00  0.00     0.057 A 
ATOM     76  C   UNL A   1      45.568  28.088  34.612  1.00  0.00     0.134 A 
ATOM     77  C   UNL A   1      44.057  26.306  35.154  1.00  0.00     0.134 A 
ATOM     78  F   UNL A   1      45.895  29.185  33.913  1.00  0.00    -0.206 F 
ATOM     79  C   UNL A   1      46.495  27.588  35.526  1.00  0.00     0.040 A 
ATOM     80  C   UNL A   1      44.969  25.808  36.084  1.00  0.00     0.040 A 
ATOM     81  F   UNL A   1      42.890  25.662  35.001  1.00  0.00    -0.206 F 
ATOM     82  C   UNL A   1      46.192  26.447  36.271  1.00  0.00     0.006 A 
ENDBRANCH  58  75
ENDBRANCH  32  33
ENDBRANCH  25  27
ENDBRANCH  24  25
ENDBRANCH  23  24
ENDBRANCH  22  23
ENDBRANCH   1  22
TORSDOF 17
ENDMDL
