MODEL 1
REMARK VINA RESULT:     -10.4      0.000      0.000
REMARK SMILES O=C(C[C@H]1C(=O)Nc2ccccc21)OCCOC(=O)c1ccc(-c2c3nc(c(-c4c(F)cccc4F)c4ccc([nH]4)c(-c4c(F)cccc4F)c4nc(c(-c5c(F)cccc5F)c5ccc2[nH]5)C=C4)C=C3)cc1
REMARK SMILES IDX 16 1 15 2 14 3 2 4 1 5 3 6 4 7 5 8 13 9 6 10 7 11 8 12 12 13
REMARK SMILES IDX 9 15 11 16 10 17 17 18 18 19 19 20 20 21 21 22 73 23 22 24
REMARK SMILES IDX 72 25 23 26 24 27 25 28 66 29 26 30 71 31 65 32 67 33 27 34
REMARK SMILES IDX 70 35 64 36 63 37 28 39 54 40 37 41 53 42 38 43 41 44 52 45
REMARK SMILES IDX 68 46 39 47 40 48 51 50 69 51 42 52 29 53 30 54 35 55 31 56
REMARK SMILES IDX 32 57 34 58 36 59 33 60 55 61 56 62 61 63 57 64 58 65 60 66
REMARK SMILES IDX 62 67 59 68 43 69 44 70 49 71 45 72 46 73 48 74 50 75 47 76
REMARK H PARENT 7 14 67 38 41 49
REMARK Flexibility Score: inf
ROOT
ATOM      1  C   UNL A   1      33.591  33.591  28.077  1.00  0.00     0.275 C 
ENDROOT
BRANCH   1   2
ATOM      2  C   UNL A   1      33.999  35.031  28.402  1.00  0.00     0.274 C 
BRANCH   2   3
ATOM      3  O   UNL A   1      32.915  35.795  28.972  1.00  0.00    -0.462 OA
BRANCH   3   4
ATOM      4  C   UNL A   1      32.954  36.363  30.199  1.00  0.00     0.307 C 
ATOM      5  O   UNL A   1      32.884  37.584  30.327  1.00  0.00    -0.252 OA
BRANCH   4   6
ATOM      6  C   UNL A   1      33.147  35.485  31.402  1.00  0.00     0.141 C 
BRANCH   6   7
ATOM      7  C   UNL A   1      34.483  35.742  32.081  1.00  0.00     0.122 C 
ATOM      8  C   UNL A   1      34.227  36.194  33.535  1.00  0.00     0.232 C 
ATOM      9  C   UNL A   1      35.244  34.462  32.299  1.00  0.00    -0.011 A 
ATOM     10  O   UNL A   1      33.650  37.210  33.892  1.00  0.00    -0.274 OA
ATOM     11  N   UNL A   1      34.719  35.211  34.379  1.00  0.00    -0.325 N 
ATOM     12  C   UNL A   1      35.318  34.190  33.663  1.00  0.00     0.045 A 
ATOM     13  C   UNL A   1      35.786  33.591  31.373  1.00  0.00     0.007 A 
ATOM     14  H   UNL A   1      34.650  35.236  35.361  1.00  0.00     0.169 HD
ATOM     15  C   UNL A   1      35.906  33.049  34.160  1.00  0.00     0.026 A 
ATOM     16  C   UNL A   1      36.394  32.427  31.852  1.00  0.00     0.000 A 
ATOM     17  C   UNL A   1      36.450  32.156  33.232  1.00  0.00     0.002 A 
ENDBRANCH   6   7
ENDBRANCH   4   6
ENDBRANCH   3   4
ENDBRANCH   2   3
ENDBRANCH   1   2
BRANCH   1  18
ATOM     18  O   UNL A   1      34.734  32.793  27.716  1.00  0.00    -0.458 OA
BRANCH  18  19
ATOM     19  C   UNL A   1      34.599  31.457  27.904  1.00  0.00     0.338 C 
ATOM     20  O   UNL A   1      33.673  30.760  27.525  1.00  0.00    -0.246 OA
BRANCH  19  21
ATOM     21  C   UNL A   1      35.845  30.901  28.492  1.00  0.00     0.060 A 
ATOM     22  C   UNL A   1      37.042  31.578  28.227  1.00  0.00     0.016 A 
ATOM     23  C   UNL A   1      35.857  29.766  29.312  1.00  0.00     0.016 A 
ATOM     24  C   UNL A   1      38.248  31.106  28.746  1.00  0.00     0.010 A 
ATOM     25  C   UNL A   1      37.069  29.293  29.833  1.00  0.00     0.010 A 
ATOM     26  C   UNL A   1      38.276  29.945  29.533  1.00  0.00    -0.014 A 
BRANCH  26  27
ATOM     27  C   UNL A   1      39.587  29.373  29.933  1.00  0.00     0.031 A 
ATOM     28  C   UNL A   1      40.287  29.911  31.152  1.00  0.00     0.074 A 
ATOM     29  C   UNL A   1      40.127  28.342  29.257  1.00  0.00     0.049 A 
ATOM     30  N   UNL A   1      41.381  29.490  31.735  1.00  0.00    -0.248 NA
ATOM     31  C   UNL A   1      39.671  31.079  31.801  1.00  0.00     0.031 C 
ATOM     32  C   UNL A   1      39.563  27.721  28.061  1.00  0.00     0.029 A 
ATOM     33  N   UNL A   1      41.279  27.630  29.495  1.00  0.00    -0.354 N 
ATOM     34  C   UNL A   1      41.568  30.319  32.834  1.00  0.00     0.074 A 
ATOM     35  C   UNL A   1      40.508  31.305  32.803  1.00  0.00     0.031 C 
ATOM     36  C   UNL A   1      40.371  26.720  27.668  1.00  0.00     0.029 A 
ATOM     37  C   UNL A   1      41.509  26.632  28.581  1.00  0.00     0.049 A 
ATOM     38  H   UNL A   1      41.882  27.819  30.251  1.00  0.00     0.167 HD
ATOM     39  C   UNL A   1      42.518  30.254  33.797  1.00  0.00     0.037 A 
ATOM     40  C   UNL A   1      42.521  25.746  28.494  1.00  0.00     0.037 A 
ATOM     41  C   UNL A   1      43.588  29.293  33.829  1.00  0.00     0.049 A 
ATOM     42  C   UNL A   1      43.599  25.730  29.548  1.00  0.00     0.074 A 
ATOM     43  C   UNL A   1      44.593  29.151  34.772  1.00  0.00     0.029 A 
ATOM     44  N   UNL A   1      43.801  28.315  32.871  1.00  0.00    -0.354 N 
ATOM     45  N   UNL A   1      43.727  26.480  30.616  1.00  0.00    -0.248 NA
ATOM     46  C   UNL A   1      44.664  24.727  29.391  1.00  0.00     0.031 C 
ATOM     47  C   UNL A   1      45.437  28.112  34.364  1.00  0.00     0.029 A 
ATOM     48  C   UNL A   1      44.931  27.579  33.190  1.00  0.00     0.049 A 
ATOM     49  H   UNL A   1      43.233  28.165  32.082  1.00  0.00     0.167 HD
ATOM     50  C   UNL A   1      44.868  26.023  31.268  1.00  0.00     0.074 A 
ATOM     51  C   UNL A   1      45.382  24.919  30.488  1.00  0.00     0.031 C 
ATOM     52  C   UNL A   1      45.438  26.480  32.409  1.00  0.00     0.037 A 
BRANCH  39  53
ATOM     53  C   UNL A   1      42.435  31.255  34.909  1.00  0.00     0.057 A 
ATOM     54  C   UNL A   1      43.069  32.502  34.818  1.00  0.00     0.134 A 
ATOM     55  C   UNL A   1      41.684  30.994  36.060  1.00  0.00     0.134 A 
ATOM     56  F   UNL A   1      43.814  32.808  33.745  1.00  0.00    -0.206 F 
ATOM     57  C   UNL A   1      42.970  33.448  35.839  1.00  0.00     0.040 A 
ATOM     58  C   UNL A   1      41.559  31.940  37.080  1.00  0.00     0.040 A 
ATOM     59  F   UNL A   1      41.050  29.821  36.208  1.00  0.00    -0.206 F 
ATOM     60  C   UNL A   1      42.206  33.170  36.971  1.00  0.00     0.006 A 
ENDBRANCH  39  53
BRANCH  40  61
ATOM     61  C   UNL A   1      42.574  24.783  27.365  1.00  0.00     0.057 A 
ATOM     62  C   UNL A   1      42.031  23.497  27.477  1.00  0.00     0.134 A 
ATOM     63  C   UNL A   1      43.222  25.108  26.167  1.00  0.00     0.134 A 
ATOM     64  F   UNL A   1      41.422  23.119  28.611  1.00  0.00    -0.206 F 
ATOM     65  C   UNL A   1      42.156  22.559  26.451  1.00  0.00     0.040 A 
ATOM     66  C   UNL A   1      43.334  24.188  25.124  1.00  0.00     0.040 A 
ATOM     67  F   UNL A   1      43.762  26.324  25.998  1.00  0.00    -0.206 F 
ATOM     68  C   UNL A   1      42.809  22.905  25.270  1.00  0.00     0.006 A 
ENDBRANCH  40  61
BRANCH  52  69
ATOM     69  C   UNL A   1      46.669  25.771  32.896  1.00  0.00     0.057 A 
ATOM     70  C   UNL A   1      47.952  26.136  32.466  1.00  0.00     0.134 A 
ATOM     71  C   UNL A   1      46.574  24.723  33.822  1.00  0.00     0.134 A 
ATOM     72  F   UNL A   1      48.113  27.123  31.572  1.00  0.00    -0.206 F 
ATOM     73  C   UNL A   1      49.092  25.465  32.914  1.00  0.00     0.040 A 
ATOM     74  C   UNL A   1      47.708  24.062  34.298  1.00  0.00     0.040 A 
ATOM     75  F   UNL A   1      45.378  24.329  34.284  1.00  0.00    -0.206 F 
ATOM     76  C   UNL A   1      48.971  24.428  33.837  1.00  0.00     0.006 A 
ENDBRANCH  52  69
ENDBRANCH  26  27
ENDBRANCH  19  21
ENDBRANCH  18  19
ENDBRANCH   1  18
TORSDOF 12
ENDMDL
MODEL 2
REMARK VINA RESULT:     -10.0      1.479      2.017
REMARK SMILES O=C(C[C@H]1C(=O)Nc2ccccc21)OCCOC(=O)c1ccc(-c2c3nc(c(-c4c(F)cccc4F)c4ccc([nH]4)c(-c4c(F)cccc4F)c4nc(c(-c5c(F)cccc5F)c5ccc2[nH]5)C=C4)C=C3)cc1
REMARK SMILES IDX 16 1 15 2 14 3 2 4 1 5 3 6 4 7 5 8 13 9 6 10 7 11 8 12 12 13
REMARK SMILES IDX 9 15 11 16 10 17 17 18 18 19 19 20 20 21 21 22 73 23 22 24
REMARK SMILES IDX 72 25 23 26 24 27 25 28 66 29 26 30 71 31 65 32 67 33 27 34
REMARK SMILES IDX 70 35 64 36 63 37 28 39 54 40 37 41 53 42 38 43 41 44 52 45
REMARK SMILES IDX 68 46 39 47 40 48 51 50 69 51 42 52 29 53 30 54 35 55 31 56
REMARK SMILES IDX 32 57 34 58 36 59 33 60 55 61 56 62 61 63 57 64 58 65 60 66
REMARK SMILES IDX 62 67 59 68 43 69 44 70 49 71 45 72 46 73 48 74 50 75 47 76
REMARK H PARENT 7 14 67 38 41 49
REMARK Flexibility Score: inf
ROOT
ATOM      1  C   UNL A   1      33.413  33.747  28.330  1.00  0.00     0.275 C 
ENDROOT
BRANCH   1   2
ATOM      2  C   UNL A   1      33.880  34.648  29.477  1.00  0.00     0.274 C 
BRANCH   2   3
ATOM      3  O   UNL A   1      35.109  34.183  30.077  1.00  0.00    -0.462 OA
BRANCH   3   4
ATOM      4  C   UNL A   1      35.162  33.369  31.157  1.00  0.00     0.307 C 
ATOM      5  O   UNL A   1      34.142  32.837  31.591  1.00  0.00    -0.252 OA
BRANCH   4   6
ATOM      6  C   UNL A   1      36.476  33.173  31.856  1.00  0.00     0.141 C 
BRANCH   6   7
ATOM      7  C   UNL A   1      37.192  34.493  32.094  1.00  0.00     0.122 C 
ATOM      8  C   UNL A   1      37.612  34.576  33.578  1.00  0.00     0.232 C 
ATOM      9  C   UNL A   1      38.531  34.523  31.406  1.00  0.00    -0.011 A 
ATOM     10  O   UNL A   1      36.868  34.603  34.545  1.00  0.00    -0.274 OA
ATOM     11  N   UNL A   1      38.996  34.555  33.630  1.00  0.00    -0.325 N 
ATOM     12  C   UNL A   1      39.546  34.525  32.360  1.00  0.00     0.045 A 
ATOM     13  C   UNL A   1      38.829  34.507  30.056  1.00  0.00     0.007 A 
ATOM     14  H   UNL A   1      39.522  34.561  34.463  1.00  0.00     0.169 HD
ATOM     15  C   UNL A   1      40.880  34.490  32.022  1.00  0.00     0.026 A 
ATOM     16  C   UNL A   1      40.176  34.477  29.687  1.00  0.00     0.000 A 
ATOM     17  C   UNL A   1      41.193  34.465  30.661  1.00  0.00     0.002 A 
ENDBRANCH   6   7
ENDBRANCH   4   6
ENDBRANCH   3   4
ENDBRANCH   2   3
ENDBRANCH   1   2
BRANCH   1  18
ATOM     18  O   UNL A   1      34.505  32.975  27.795  1.00  0.00    -0.458 OA
BRANCH  18  19
ATOM     19  C   UNL A   1      34.407  31.632  27.955  1.00  0.00     0.338 C 
ATOM     20  O   UNL A   1      33.428  30.943  27.723  1.00  0.00    -0.246 OA
BRANCH  19  21
ATOM     21  C   UNL A   1      35.739  31.064  28.288  1.00  0.00     0.060 A 
ATOM     22  C   UNL A   1      35.780  29.740  28.743  1.00  0.00     0.016 A 
ATOM     23  C   UNL A   1      36.931  31.782  28.132  1.00  0.00     0.016 A 
ATOM     24  C   UNL A   1      37.000  29.148  29.076  1.00  0.00     0.010 A 
ATOM     25  C   UNL A   1      38.154  31.186  28.467  1.00  0.00     0.010 A 
ATOM     26  C   UNL A   1      38.195  29.873  28.966  1.00  0.00    -0.014 A 
BRANCH  26  27
ATOM     27  C   UNL A   1      39.454  29.278  29.482  1.00  0.00     0.031 A 
ATOM     28  C   UNL A   1      40.046  29.800  30.764  1.00  0.00     0.074 A 
ATOM     29  C   UNL A   1      40.037  28.241  28.854  1.00  0.00     0.049 A 
ATOM     30  N   UNL A   1      41.074  29.359  31.443  1.00  0.00    -0.248 NA
ATOM     31  C   UNL A   1      39.391  30.975  31.359  1.00  0.00     0.031 C 
ATOM     32  C   UNL A   1      39.577  27.634  27.607  1.00  0.00     0.029 A 
ATOM     33  N   UNL A   1      41.151  27.510  29.194  1.00  0.00    -0.354 N 
ATOM     34  C   UNL A   1      41.171  30.180  32.559  1.00  0.00     0.074 A 
ATOM     35  C   UNL A   1      40.134  31.183  32.436  1.00  0.00     0.031 C 
ATOM     36  C   UNL A   1      40.402  26.621  27.285  1.00  0.00     0.029 A 
ATOM     37  C   UNL A   1      41.449  26.511  28.300  1.00  0.00     0.049 A 
ATOM     38  H   UNL A   1      41.684  27.686  30.003  1.00  0.00     0.167 HD
ATOM     39  C   UNL A   1      42.027  30.096  33.606  1.00  0.00     0.037 A 
ATOM     40  C   UNL A   1      42.451  25.610  28.302  1.00  0.00     0.037 A 
ATOM     41  C   UNL A   1      43.074  29.118  33.732  1.00  0.00     0.049 A 
ATOM     42  C   UNL A   1      43.426  25.572  29.451  1.00  0.00     0.074 A 
ATOM     43  C   UNL A   1      43.985  28.956  34.763  1.00  0.00     0.029 A 
ATOM     44  N   UNL A   1      43.360  28.141  32.792  1.00  0.00    -0.354 N 
ATOM     45  N   UNL A   1      43.466  26.316  30.530  1.00  0.00    -0.248 NA
ATOM     46  C   UNL A   1      44.485  24.553  29.388  1.00  0.00     0.031 C 
ATOM     47  C   UNL A   1      44.846  27.905  34.429  1.00  0.00     0.029 A 
ATOM     48  C   UNL A   1      44.444  27.385  33.211  1.00  0.00     0.049 A 
ATOM     49  H   UNL A   1      42.865  28.002  31.953  1.00  0.00     0.167 HD
ATOM     50  C   UNL A   1      44.534  25.838  31.283  1.00  0.00     0.074 A 
ATOM     51  C   UNL A   1      45.101  24.728  30.547  1.00  0.00     0.031 C 
ATOM     52  C   UNL A   1      45.003  26.281  32.474  1.00  0.00     0.037 A 
BRANCH  39  53
ATOM     53  C   UNL A   1      41.857  31.095  34.711  1.00  0.00     0.057 A 
ATOM     54  C   UNL A   1      42.533  32.322  34.696  1.00  0.00     0.134 A 
ATOM     55  C   UNL A   1      40.982  30.850  35.775  1.00  0.00     0.134 A 
ATOM     56  F   UNL A   1      43.395  32.611  33.709  1.00  0.00    -0.206 F 
ATOM     57  C   UNL A   1      42.355  33.266  35.709  1.00  0.00     0.040 A 
ATOM     58  C   UNL A   1      40.778  31.795  36.783  1.00  0.00     0.040 A 
ATOM     59  F   UNL A   1      40.302  29.696  35.847  1.00  0.00    -0.206 F 
ATOM     60  C   UNL A   1      41.469  33.005  36.752  1.00  0.00     0.006 A 
ENDBRANCH  39  53
BRANCH  40  61
ATOM     61  C   UNL A   1      42.593  24.651  27.178  1.00  0.00     0.057 A 
ATOM     62  C   UNL A   1      41.986  23.389  27.214  1.00  0.00     0.134 A 
ATOM     63  C   UNL A   1      43.388  24.953  26.065  1.00  0.00     0.134 A 
ATOM     64  F   UNL A   1      41.235  23.033  28.266  1.00  0.00    -0.206 F 
ATOM     65  C   UNL A   1      42.189  22.451  26.200  1.00  0.00     0.040 A 
ATOM     66  C   UNL A   1      43.581  24.034  25.033  1.00  0.00     0.040 A 
ATOM     67  F   UNL A   1      43.996  26.145  25.971  1.00  0.00    -0.206 F 
ATOM     68  C   UNL A   1      42.989  22.774  25.105  1.00  0.00     0.006 A 
ENDBRANCH  40  61
BRANCH  52  69
ATOM     69  C   UNL A   1      46.173  25.550  33.069  1.00  0.00     0.057 A 
ATOM     70  C   UNL A   1      47.495  25.936  32.812  1.00  0.00     0.134 A 
ATOM     71  C   UNL A   1      45.975  24.459  33.926  1.00  0.00     0.134 A 
ATOM     72  F   UNL A   1      47.754  26.965  31.991  1.00  0.00    -0.206 F 
ATOM     73  C   UNL A   1      48.578  25.245  33.359  1.00  0.00     0.040 A 
ATOM     74  C   UNL A   1      47.049  23.777  34.502  1.00  0.00     0.040 A 
ATOM     75  F   UNL A   1      44.736  24.043  34.226  1.00  0.00    -0.206 F 
ATOM     76  C   UNL A   1      48.356  24.165  34.211  1.00  0.00     0.006 A 
ENDBRANCH  52  69
ENDBRANCH  26  27
ENDBRANCH  19  21
ENDBRANCH  18  19
ENDBRANCH   1  18
TORSDOF 12
ENDMDL
MODEL 3
REMARK VINA RESULT:     -10.0      3.575      5.995
REMARK SMILES O=C(C[C@H]1C(=O)Nc2ccccc21)OCCOC(=O)c1ccc(-c2c3nc(c(-c4c(F)cccc4F)c4ccc([nH]4)c(-c4c(F)cccc4F)c4nc(c(-c5c(F)cccc5F)c5ccc2[nH]5)C=C4)C=C3)cc1
REMARK SMILES IDX 16 1 15 2 14 3 2 4 1 5 3 6 4 7 5 8 13 9 6 10 7 11 8 12 12 13
REMARK SMILES IDX 9 15 11 16 10 17 17 18 18 19 19 20 20 21 21 22 73 23 22 24
REMARK SMILES IDX 72 25 23 26 24 27 25 28 66 29 26 30 71 31 65 32 67 33 27 34
REMARK SMILES IDX 70 35 64 36 63 37 28 39 54 40 37 41 53 42 38 43 41 44 52 45
REMARK SMILES IDX 68 46 39 47 40 48 51 50 69 51 42 52 29 53 30 54 35 55 31 56
REMARK SMILES IDX 32 57 34 58 36 59 33 60 55 61 56 62 61 63 57 64 58 65 60 66
REMARK SMILES IDX 62 67 59 68 43 69 44 70 49 71 45 72 46 73 48 74 50 75 47 76
REMARK H PARENT 7 14 67 38 41 49
REMARK Flexibility Score: inf
ROOT
ATOM      1  C   UNL A   1      32.135  33.100  26.875  1.00  0.00     0.275 C 
ENDROOT
BRANCH   1   2
ATOM      2  C   UNL A   1      31.794  31.612  26.765  1.00  0.00     0.274 C 
BRANCH   2   3
ATOM      3  O   UNL A   1      32.943  30.806  26.426  1.00  0.00    -0.462 OA
BRANCH   3   4
ATOM      4  C   UNL A   1      32.867  29.548  25.936  1.00  0.00     0.307 C 
ATOM      5  O   UNL A   1      33.881  28.870  25.788  1.00  0.00    -0.252 OA
BRANCH   4   6
ATOM      6  C   UNL A   1      31.528  29.011  25.517  1.00  0.00     0.141 C 
BRANCH   6   7
ATOM      7  C   UNL A   1      31.333  29.091  24.012  1.00  0.00     0.122 C 
ATOM      8  C   UNL A   1      31.189  27.660  23.448  1.00  0.00     0.232 C 
ATOM      9  C   UNL A   1      29.994  29.683  23.662  1.00  0.00    -0.011 A 
ATOM     10  O   UNL A   1      32.035  26.780  23.469  1.00  0.00    -0.274 OA
ATOM     11  N   UNL A   1      29.900  27.524  22.959  1.00  0.00    -0.325 N 
ATOM     12  C   UNL A   1      29.190  28.706  23.079  1.00  0.00     0.045 A 
ATOM     13  C   UNL A   1      29.512  30.960  23.877  1.00  0.00     0.007 A 
ATOM     14  H   UNL A   1      29.535  26.693  22.575  1.00  0.00     0.169 HD
ATOM     15  C   UNL A   1      27.885  28.944  22.709  1.00  0.00     0.026 A 
ATOM     16  C   UNL A   1      28.192  31.229  23.506  1.00  0.00     0.000 A 
ATOM     17  C   UNL A   1      27.384  30.229  22.931  1.00  0.00     0.002 A 
ENDBRANCH   6   7
ENDBRANCH   4   6
ENDBRANCH   3   4
ENDBRANCH   2   3
ENDBRANCH   1   2
BRANCH   1  18
ATOM     18  O   UNL A   1      32.202  33.521  28.251  1.00  0.00    -0.458 OA
BRANCH  18  19
ATOM     19  C   UNL A   1      33.168  34.427  28.541  1.00  0.00     0.338 C 
ATOM     20  O   UNL A   1      33.025  35.634  28.637  1.00  0.00    -0.246 OA
BRANCH  19  21
ATOM     21  C   UNL A   1      34.423  33.726  28.916  1.00  0.00     0.060 A 
ATOM     22  C   UNL A   1      34.303  32.508  29.596  1.00  0.00     0.016 A 
ATOM     23  C   UNL A   1      35.693  34.216  28.588  1.00  0.00     0.016 A 
ATOM     24  C   UNL A   1      35.444  31.800  29.980  1.00  0.00     0.010 A 
ATOM     25  C   UNL A   1      36.837  33.504  28.973  1.00  0.00     0.010 A 
ATOM     26  C   UNL A   1      36.720  32.304  29.695  1.00  0.00    -0.014 A 
BRANCH  26  27
ATOM     27  C   UNL A   1      37.912  31.619  30.257  1.00  0.00     0.031 A 
ATOM     28  C   UNL A   1      38.334  31.913  31.672  1.00  0.00     0.074 A 
ATOM     29  C   UNL A   1      38.581  30.696  29.542  1.00  0.00     0.049 A 
ATOM     30  N   UNL A   1      39.274  31.354  32.391  1.00  0.00    -0.248 NA
ATOM     31  C   UNL A   1      37.596  32.978  32.369  1.00  0.00     0.031 C 
ATOM     32  C   UNL A   1      38.287  30.311  28.164  1.00  0.00     0.029 A 
ATOM     33  N   UNL A   1      39.652  29.907  29.891  1.00  0.00    -0.354 N 
ATOM     34  C   UNL A   1      39.222  31.977  33.632  1.00  0.00     0.074 A 
ATOM     35  C   UNL A   1      38.197  32.996  33.550  1.00  0.00     0.031 C 
ATOM     36  C   UNL A   1      39.157  29.359  27.783  1.00  0.00     0.029 A 
ATOM     37  C   UNL A   1      40.071  29.070  28.887  1.00  0.00     0.049 A 
ATOM     38  H   UNL A   1      40.079  29.941  30.779  1.00  0.00     0.167 HD
ATOM     39  C   UNL A   1      39.941  31.710  34.748  1.00  0.00     0.037 A 
ATOM     40  C   UNL A   1      41.075  28.171  28.864  1.00  0.00     0.037 A 
ATOM     41  C   UNL A   1      40.976  30.714  34.839  1.00  0.00     0.049 A 
ATOM     42  C   UNL A   1      41.899  27.932  30.103  1.00  0.00     0.074 A 
ATOM     43  C   UNL A   1      41.753  30.374  35.934  1.00  0.00     0.029 A 
ATOM     44  N   UNL A   1      41.388  29.905  33.792  1.00  0.00    -0.354 N 
ATOM     45  N   UNL A   1      41.796  28.484  31.287  1.00  0.00    -0.248 NA
ATOM     46  C   UNL A   1      42.970  26.928  30.003  1.00  0.00     0.031 C 
ATOM     47  C   UNL A   1      42.661  29.385  35.539  1.00  0.00     0.029 A 
ATOM     48  C   UNL A   1      42.420  29.080  34.210  1.00  0.00     0.049 A 
ATOM     49  H   UNL A   1      41.003  29.915  32.886  1.00  0.00     0.167 HD
ATOM     50  C   UNL A   1      42.768  27.877  32.077  1.00  0.00     0.074 A 
ATOM     51  C   UNL A   1      43.435  26.901  31.243  1.00  0.00     0.031 C 
ATOM     52  C   UNL A   1      43.079  28.109  33.375  1.00  0.00     0.037 A 
BRANCH  39  53
ATOM     53  C   UNL A   1      39.624  32.511  35.975  1.00  0.00     0.057 A 
ATOM     54  C   UNL A   1      38.648  32.091  36.888  1.00  0.00     0.134 A 
ATOM     55  C   UNL A   1      40.326  33.685  36.271  1.00  0.00     0.134 A 
ATOM     56  F   UNL A   1      37.932  30.980  36.656  1.00  0.00    -0.206 F 
ATOM     57  C   UNL A   1      38.370  32.819  38.046  1.00  0.00     0.040 A 
ATOM     58  C   UNL A   1      40.073  34.411  37.437  1.00  0.00     0.040 A 
ATOM     59  F   UNL A   1      41.275  34.139  35.439  1.00  0.00    -0.206 F 
ATOM     60  C   UNL A   1      39.090  33.979  38.326  1.00  0.00     0.006 A 
ENDBRANCH  39  53
BRANCH  40  61
ATOM     61  C   UNL A   1      41.368  27.413  27.621  1.00  0.00     0.057 A 
ATOM     62  C   UNL A   1      40.864  26.122  27.420  1.00  0.00     0.134 A 
ATOM     63  C   UNL A   1      42.206  27.940  26.632  1.00  0.00     0.134 A 
ATOM     64  F   UNL A   1      40.078  25.553  28.344  1.00  0.00    -0.206 F 
ATOM     65  C   UNL A   1      41.208  25.371  26.294  1.00  0.00     0.040 A 
ATOM     66  C   UNL A   1      42.539  27.210  25.490  1.00  0.00     0.040 A 
ATOM     67  F   UNL A   1      42.720  29.172  26.765  1.00  0.00    -0.206 F 
ATOM     68  C   UNL A   1      42.048  25.916  25.325  1.00  0.00     0.006 A 
ENDBRANCH  40  61
BRANCH  52  69
ATOM     69  C   UNL A   1      44.174  27.278  33.980  1.00  0.00     0.057 A 
ATOM     70  C   UNL A   1      45.514  27.686  33.954  1.00  0.00     0.134 A 
ATOM     71  C   UNL A   1      43.883  26.064  34.616  1.00  0.00     0.134 A 
ATOM     72  F   UNL A   1      45.862  28.833  33.350  1.00  0.00    -0.206 F 
ATOM     73  C   UNL A   1      46.528  26.903  34.508  1.00  0.00     0.040 A 
ATOM     74  C   UNL A   1      44.885  25.285  35.199  1.00  0.00     0.040 A 
ATOM     75  F   UNL A   1      42.620  25.618  34.689  1.00  0.00    -0.206 F 
ATOM     76  C   UNL A   1      46.213  25.701  35.138  1.00  0.00     0.006 A 
ENDBRANCH  52  69
ENDBRANCH  26  27
ENDBRANCH  19  21
ENDBRANCH  18  19
ENDBRANCH   1  18
TORSDOF 12
ENDMDL
