MODEL 1
REMARK VINA RESULT:     -11.3      0.000      0.000
REMARK SMILES O=C(OCCOC(=O)c1cc(OCc2ccc(Br)cc2F)cs1)c1ccc(-c2c3nc(c(-c4c(F)cccc4F)c4ccc([nH]4)c(-c4c(F)cccc4F)c4nc(c(-c5c(F)cccc5F)c5ccc2[nH]5)C=C4)C=C3)cc1
REMARK SMILES IDX 5 1 4 2 3 3 2 4 1 5 24 6 25 7 77 8 26 9 76 10 27 11 28 12
REMARK SMILES IDX 29 13 70 14 30 15 75 16 69 17 71 18 31 19 74 20 68 21 67 22
REMARK SMILES IDX 32 24 58 25 41 26 57 27 42 28 45 29 56 30 72 31 43 32 44 33
REMARK SMILES IDX 55 35 73 36 46 37 33 38 34 39 39 40 35 41 36 42 38 43 40 44
REMARK SMILES IDX 37 45 59 46 60 47 65 48 61 49 62 50 64 51 66 52 63 53 47 54
REMARK SMILES IDX 48 55 53 56 49 57 50 58 52 59 54 60 51 61 6 62 7 63 8 64
REMARK SMILES IDX 9 65 10 66 23 67 11 68 22 69 12 70 13 71 14 72 15 73 20 74
REMARK SMILES IDX 16 75 19 76 21 77 17 78 18 79
REMARK H PARENT 71 23 45 34
REMARK Flexibility Score: inf
ROOT
ATOM      1  C   UNL A   1      32.266  30.922  26.340  1.00  0.00     0.275 C 
ENDROOT
BRANCH   1   2
ATOM      2  C   UNL A   1      31.458  32.084  26.953  1.00  0.00     0.275 C 
BRANCH   2   3
ATOM      3  O   UNL A   1      32.202  33.304  27.056  1.00  0.00    -0.458 OA
BRANCH   3   4
ATOM      4  C   UNL A   1      32.999  33.740  28.060  1.00  0.00     0.338 C 
ATOM      5  O   UNL A   1      32.607  34.687  28.741  1.00  0.00    -0.246 OA
BRANCH   4   6
ATOM      6  C   UNL A   1      34.357  33.173  28.371  1.00  0.00     0.060 A 
ATOM      7  C   UNL A   1      35.587  33.722  28.008  1.00  0.00     0.016 A 
ATOM      8  C   UNL A   1      34.383  32.015  29.170  1.00  0.00     0.016 A 
ATOM      9  C   UNL A   1      36.786  33.159  28.410  1.00  0.00     0.010 A 
ATOM     10  C   UNL A   1      35.585  31.521  29.686  1.00  0.00     0.010 A 
ATOM     11  C   UNL A   1      36.791  32.130  29.335  1.00  0.00    -0.014 A 
BRANCH  11  12
ATOM     12  C   UNL A   1      38.068  31.686  29.894  1.00  0.00     0.031 A 
ATOM     13  C   UNL A   1      38.373  31.960  31.315  1.00  0.00     0.074 A 
ATOM     14  C   UNL A   1      38.757  30.703  29.283  1.00  0.00     0.049 A 
ATOM     15  N   UNL A   1      39.254  31.381  32.081  1.00  0.00    -0.248 NA
ATOM     16  C   UNL A   1      37.459  32.885  31.999  1.00  0.00     0.031 C 
ATOM     17  C   UNL A   1      37.840  29.372  28.160  1.00  0.00     0.029 A 
ATOM     18  N   UNL A   1      40.383  29.972  29.677  1.00  0.00    -0.354 N 
ATOM     19  C   UNL A   1      38.998  31.858  33.348  1.00  0.00     0.074 A 
ATOM     20  C   UNL A   1      37.889  32.788  33.245  1.00  0.00     0.031 C 
ATOM     21  C   UNL A   1      39.009  27.901  27.977  1.00  0.00     0.029 A 
ATOM     22  C   UNL A   1      40.646  28.329  28.931  1.00  0.00     0.049 A 
ATOM     23  H   UNL A   1      41.055  30.422  30.239  1.00  0.00     0.167 HD
ATOM     24  C   UNL A   1      39.626  31.534  34.498  1.00  0.00     0.037 A 
ATOM     25  C   UNL A   1      41.759  27.605  28.829  1.00  0.00     0.037 A 
ATOM     26  C   UNL A   1      40.742  30.630  34.614  1.00  0.00     0.049 A 
ATOM     27  C   UNL A   1      42.520  27.603  30.076  1.00  0.00     0.074 A 
ATOM     28  C   UNL A   1      41.514  30.420  35.741  1.00  0.00     0.029 A 
ATOM     29  N   UNL A   1      41.262  29.803  33.615  1.00  0.00    -0.354 N 
ATOM     30  N   UNL A   1      42.212  28.245  31.173  1.00  0.00    -0.248 NA
ATOM     31  C   UNL A   1      43.628  26.662  30.171  1.00  0.00     0.031 C 
ATOM     32  C   UNL A   1      42.552  29.553  35.410  1.00  0.00     0.029 A 
ATOM     33  C   UNL A   1      42.386  29.134  34.100  1.00  0.00     0.049 A 
ATOM     34  H   UNL A   1      40.891  29.708  32.708  1.00  0.00     0.167 HD
ATOM     35  C   UNL A   1      43.079  27.771  32.119  1.00  0.00     0.074 A 
ATOM     36  C   UNL A   1      43.871  26.731  31.471  1.00  0.00     0.031 C 
ATOM     37  C   UNL A   1      43.202  28.168  33.404  1.00  0.00     0.037 A 
BRANCH  24  38
ATOM     38  C   UNL A   1      39.188  32.316  35.699  1.00  0.00     0.057 A 
ATOM     39  C   UNL A   1      38.274  31.820  36.637  1.00  0.00     0.134 A 
ATOM     40  C   UNL A   1      39.646  33.629  35.864  1.00  0.00     0.134 A 
ATOM     41  F   UNL A   1      37.753  30.591  36.498  1.00  0.00    -0.206 F 
ATOM     42  C   UNL A   1      37.815  32.615  37.688  1.00  0.00     0.040 A 
ATOM     43  C   UNL A   1      39.227  34.417  36.932  1.00  0.00     0.040 A 
ATOM     44  F   UNL A   1      40.498  34.168  34.979  1.00  0.00    -0.206 F 
ATOM     45  C   UNL A   1      38.301  33.913  37.842  1.00  0.00     0.006 A 
ENDBRANCH  24  38
BRANCH  25  46
ATOM     46  C   UNL A   1      41.992  26.777  27.637  1.00  0.00     0.057 A 
ATOM     47  C   UNL A   1      41.683  25.421  27.552  1.00  0.00     0.134 A 
ATOM     48  C   UNL A   1      42.590  27.368  26.510  1.00  0.00     0.134 A 
ATOM     49  F   UNL A   1      41.085  24.800  28.579  1.00  0.00    -0.206 F 
ATOM     50  C   UNL A   1      42.003  24.671  26.416  1.00  0.00     0.040 A 
ATOM     51  C   UNL A   1      42.896  26.638  25.361  1.00  0.00     0.040 A 
ATOM     52  F   UNL A   1      42.910  28.671  26.514  1.00  0.00    -0.206 F 
ATOM     53  C   UNL A   1      42.617  25.277  25.320  1.00  0.00     0.006 A 
ENDBRANCH  25  46
BRANCH  37  54
ATOM     54  C   UNL A   1      44.319  27.500  34.135  1.00  0.00     0.057 A 
ATOM     55  C   UNL A   1      45.615  28.037  34.120  1.00  0.00     0.134 A 
ATOM     56  C   UNL A   1      44.120  26.277  34.781  1.00  0.00     0.134 A 
ATOM     57  F   UNL A   1      45.865  29.199  33.496  1.00  0.00    -0.206 F 
ATOM     58  C   UNL A   1      46.691  27.334  34.649  1.00  0.00     0.040 A 
ATOM     59  C   UNL A   1      45.180  25.595  35.367  1.00  0.00     0.040 A 
ATOM     60  F   UNL A   1      42.900  25.719  34.833  1.00  0.00    -0.206 F 
ATOM     61  C   UNL A   1      46.474  26.111  35.277  1.00  0.00     0.006 A 
ENDBRANCH  37  54
ENDBRANCH  11  12
ENDBRANCH   4   6
ENDBRANCH   3   4
ENDBRANCH   2   3
ENDBRANCH   1   2
BRANCH   1  62
ATOM     62  O   UNL A   1      31.484  29.761  25.987  1.00  0.00    -0.458 OA
BRANCH  62  63
ATOM     63  C   UNL A   1      31.962  28.535  26.387  1.00  0.00     0.348 C 
ATOM     64  O   UNL A   1      32.671  28.361  27.367  1.00  0.00    -0.245 OA
BRANCH  63  65
ATOM     65  C   UNL A   1      31.435  27.514  25.503  1.00  0.00     0.116 A 
ATOM     66  C   UNL A   1      31.336  26.162  25.740  1.00  0.00     0.074 A 
ATOM     67  S   UNL A   1      30.841  27.896  23.945  1.00  0.00    -0.133 S 
ATOM     68  C   UNL A   1      30.888  25.421  24.611  1.00  0.00     0.131 A 
ATOM     69  C   UNL A   1      30.693  26.239  23.523  1.00  0.00     0.112 A 
BRANCH  68  70
ATOM     70  O   UNL A   1      30.675  24.087  24.486  1.00  0.00    -0.488 OA
BRANCH  70  71
ATOM     71  C   UNL A   1      31.182  23.485  23.294  1.00  0.00     0.268 C 
BRANCH  71  72
ATOM     72  C   UNL A   1      32.544  22.933  23.527  1.00  0.00     0.025 A 
ATOM     73  C   UNL A   1      32.872  21.471  24.471  1.00  0.00     0.011 A 
ATOM     74  C   UNL A   1      33.958  23.887  22.969  1.00  0.00     0.130 A 
ATOM     75  C   UNL A   1      34.493  20.900  24.915  1.00  0.00     0.016 A 
ATOM     76  C   UNL A   1      35.858  23.151  23.475  1.00  0.00     0.055 A 
ATOM     77  F   UNL A   1      33.577  25.010  22.281  1.00  0.00    -0.207 F 
ATOM     78  C   UNL A   1      35.971  21.680  24.450  1.00  0.00     0.020 A 
ATOM     79  Br  UNL A   1      37.649  21.117  25.087  1.00  0.00    -0.051 Br
ENDBRANCH  71  72
ENDBRANCH  70  71
ENDBRANCH  68  70
ENDBRANCH  63  65
ENDBRANCH  62  63
ENDBRANCH   1  62
TORSDOF 14
ENDMDL
MODEL 2
REMARK VINA RESULT:     -11.0      1.440      2.199
REMARK SMILES O=C(OCCOC(=O)c1cc(OCc2ccc(Br)cc2F)cs1)c1ccc(-c2c3nc(c(-c4c(F)cccc4F)c4ccc([nH]4)c(-c4c(F)cccc4F)c4nc(c(-c5c(F)cccc5F)c5ccc2[nH]5)C=C4)C=C3)cc1
REMARK SMILES IDX 5 1 4 2 3 3 2 4 1 5 24 6 25 7 77 8 26 9 76 10 27 11 28 12
REMARK SMILES IDX 29 13 70 14 30 15 75 16 69 17 71 18 31 19 74 20 68 21 67 22
REMARK SMILES IDX 32 24 58 25 41 26 57 27 42 28 45 29 56 30 72 31 43 32 44 33
REMARK SMILES IDX 55 35 73 36 46 37 33 38 34 39 39 40 35 41 36 42 38 43 40 44
REMARK SMILES IDX 37 45 59 46 60 47 65 48 61 49 62 50 64 51 66 52 63 53 47 54
REMARK SMILES IDX 48 55 53 56 49 57 50 58 52 59 54 60 51 61 6 62 7 63 8 64
REMARK SMILES IDX 9 65 10 66 23 67 11 68 22 69 12 70 13 71 14 72 15 73 20 74
REMARK SMILES IDX 16 75 19 76 21 77 17 78 18 79
REMARK H PARENT 71 23 45 34
REMARK Flexibility Score: inf
ROOT
ATOM      1  C   UNL A   1      31.317  31.708  26.502  1.00  0.00     0.275 C 
ENDROOT
BRANCH   1   2
ATOM      2  C   UNL A   1      32.531  32.334  27.217  1.00  0.00     0.275 C 
BRANCH   2   3
ATOM      3  O   UNL A   1      32.341  33.712  27.564  1.00  0.00    -0.458 OA
BRANCH   3   4
ATOM      4  C   UNL A   1      32.980  34.457  28.497  1.00  0.00     0.338 C 
ATOM      5  O   UNL A   1      32.532  35.574  28.751  1.00  0.00    -0.246 OA
BRANCH   4   6
ATOM      6  C   UNL A   1      34.233  34.027  29.210  1.00  0.00     0.060 A 
ATOM      7  C   UNL A   1      34.309  33.164  30.303  1.00  0.00     0.016 A 
ATOM      8  C   UNL A   1      35.448  34.485  28.669  1.00  0.00     0.016 A 
ATOM      9  C   UNL A   1      35.523  32.772  30.841  1.00  0.00     0.010 A 
ATOM     10  C   UNL A   1      36.673  33.989  29.124  1.00  0.00     0.010 A 
ATOM     11  C   UNL A   1      36.703  33.089  30.190  1.00  0.00    -0.014 A 
BRANCH  11  12
ATOM     12  C   UNL A   1      37.954  32.497  30.664  1.00  0.00     0.031 A 
ATOM     13  C   UNL A   1      38.307  32.598  32.097  1.00  0.00     0.074 A 
ATOM     14  C   UNL A   1      38.554  31.537  29.936  1.00  0.00     0.049 A 
ATOM     15  N   UNL A   1      39.157  31.879  32.773  1.00  0.00    -0.248 NA
ATOM     16  C   UNL A   1      37.479  33.510  32.898  1.00  0.00     0.031 C 
ATOM     17  C   UNL A   1      37.517  30.401  28.707  1.00  0.00     0.029 A 
ATOM     18  N   UNL A   1      40.128  30.651  30.207  1.00  0.00    -0.354 N 
ATOM     19  C   UNL A   1      38.964  32.237  34.090  1.00  0.00     0.074 A 
ATOM     20  C   UNL A   1      37.927  33.251  34.114  1.00  0.00     0.031 C 
ATOM     21  C   UNL A   1      38.568  28.876  28.341  1.00  0.00     0.029 A 
ATOM     22  C   UNL A   1      40.251  29.081  29.288  1.00  0.00     0.049 A 
ATOM     23  H   UNL A   1      40.843  30.990  30.793  1.00  0.00     0.167 HD
ATOM     24  C   UNL A   1      39.589  31.751  35.182  1.00  0.00     0.037 A 
ATOM     25  C   UNL A   1      41.304  28.293  29.080  1.00  0.00     0.037 A 
ATOM     26  C   UNL A   1      40.636  30.760  35.173  1.00  0.00     0.049 A 
ATOM     27  C   UNL A   1      42.089  28.104  30.299  1.00  0.00     0.074 A 
ATOM     28  C   UNL A   1      41.412  30.377  36.251  1.00  0.00     0.029 A 
ATOM     29  N   UNL A   1      41.072  30.007  34.080  1.00  0.00    -0.354 N 
ATOM     30  N   UNL A   1      41.852  28.648  31.465  1.00  0.00    -0.248 NA
ATOM     31  C   UNL A   1      43.124  27.081  30.265  1.00  0.00     0.031 C 
ATOM     32  C   UNL A   1      42.375  29.477  35.802  1.00  0.00     0.029 A 
ATOM     33  C   UNL A   1      42.151  29.211  34.462  1.00  0.00     0.049 A 
ATOM     34  H   UNL A   1      40.676  30.034  33.179  1.00  0.00     0.167 HD
ATOM     35  C   UNL A   1      42.699  28.016  32.332  1.00  0.00     0.074 A 
ATOM     36  C   UNL A   1      43.398  26.995  31.558  1.00  0.00     0.031 C 
ATOM     37  C   UNL A   1      42.879  28.266  33.647  1.00  0.00     0.037 A 
BRANCH  24  38
ATOM     38  C   UNL A   1      39.235  32.432  36.469  1.00  0.00     0.057 A 
ATOM     39  C   UNL A   1      38.221  31.973  37.318  1.00  0.00     0.134 A 
ATOM     40  C   UNL A   1      39.888  33.622  36.814  1.00  0.00     0.134 A 
ATOM     41  F   UNL A   1      37.519  30.872  37.009  1.00  0.00    -0.206 F 
ATOM     42  C   UNL A   1      37.854  32.689  38.458  1.00  0.00     0.040 A 
ATOM     43  C   UNL A   1      39.559  34.324  37.970  1.00  0.00     0.040 A 
ATOM     44  F   UNL A   1      40.846  34.126  36.022  1.00  0.00    -0.206 F 
ATOM     45  C   UNL A   1      38.532  33.862  38.791  1.00  0.00     0.006 A 
ENDBRANCH  24  38
BRANCH  25  46
ATOM     46  C   UNL A   1      41.450  27.579  27.804  1.00  0.00     0.057 A 
ATOM     47  C   UNL A   1      42.071  28.110  26.675  1.00  0.00     0.134 A 
ATOM     48  C   UNL A   1      40.910  26.285  27.688  1.00  0.00     0.134 A 
ATOM     49  F   UNL A   1      42.632  29.325  26.724  1.00  0.00    -0.206 F 
ATOM     50  C   UNL A   1      42.106  27.408  25.466  1.00  0.00     0.040 A 
ATOM     51  C   UNL A   1      40.957  25.564  26.495  1.00  0.00     0.040 A 
ATOM     52  F   UNL A   1      40.304  25.705  28.735  1.00  0.00    -0.206 F 
ATOM     53  C   UNL A   1      41.543  26.135  25.372  1.00  0.00     0.006 A 
ENDBRANCH  25  46
BRANCH  37  54
ATOM     54  C   UNL A   1      43.956  27.445  34.274  1.00  0.00     0.057 A 
ATOM     55  C   UNL A   1      43.669  26.203  34.859  1.00  0.00     0.134 A 
ATOM     56  C   UNL A   1      45.262  27.932  34.369  1.00  0.00     0.134 A 
ATOM     57  F   UNL A   1      42.426  25.698  34.813  1.00  0.00    -0.206 F 
ATOM     58  C   UNL A   1      44.627  25.515  35.594  1.00  0.00     0.040 A 
ATOM     59  C   UNL A   1      46.245  27.222  35.051  1.00  0.00     0.040 A 
ATOM     60  F   UNL A   1      45.596  29.111  33.822  1.00  0.00    -0.206 F 
ATOM     61  C   UNL A   1      45.920  26.024  35.688  1.00  0.00     0.006 A 
ENDBRANCH  37  54
ENDBRANCH  11  12
ENDBRANCH   4   6
ENDBRANCH   3   4
ENDBRANCH   2   3
ENDBRANCH   1   2
BRANCH   1  62
ATOM     62  O   UNL A   1      31.630  30.587  25.647  1.00  0.00    -0.458 OA
BRANCH  62  63
ATOM     63  C   UNL A   1      31.819  29.367  26.253  1.00  0.00     0.348 C 
ATOM     64  O   UNL A   1      31.456  29.101  27.389  1.00  0.00    -0.245 OA
BRANCH  63  65
ATOM     65  C   UNL A   1      32.446  28.466  25.306  1.00  0.00     0.116 A 
ATOM     66  C   UNL A   1      32.990  27.225  25.556  1.00  0.00     0.074 A 
ATOM     67  S   UNL A   1      32.605  28.870  23.653  1.00  0.00    -0.133 S 
ATOM     68  C   UNL A   1      33.641  26.657  24.426  1.00  0.00     0.131 A 
ATOM     69  C   UNL A   1      33.606  27.508  23.348  1.00  0.00     0.112 A 
BRANCH  68  70
ATOM     70  O   UNL A   1      34.276  25.463  24.310  1.00  0.00    -0.488 OA
BRANCH  70  71
ATOM     71  C   UNL A   1      34.565  24.790  25.536  1.00  0.00     0.268 C 
BRANCH  71  72
ATOM     72  C   UNL A   1      34.258  23.339  25.420  1.00  0.00     0.025 A 
ATOM     73  C   UNL A   1      35.489  22.070  25.323  1.00  0.00     0.011 A 
ATOM     74  C   UNL A   1      32.548  22.845  25.190  1.00  0.00     0.130 A 
ATOM     75  C   UNL A   1      35.150  20.358  24.999  1.00  0.00     0.016 A 
ATOM     76  C   UNL A   1      32.186  20.804  24.856  1.00  0.00     0.055 A 
ATOM     77  F   UNL A   1      31.694  23.916  25.251  1.00  0.00    -0.207 F 
ATOM     78  C   UNL A   1      33.563  19.697  24.771  1.00  0.00     0.020 A 
ATOM     79  Br  UNL A   1      33.282  17.906  24.271  1.00  0.00    -0.051 Br
ENDBRANCH  71  72
ENDBRANCH  70  71
ENDBRANCH  68  70
ENDBRANCH  63  65
ENDBRANCH  62  63
ENDBRANCH   1  62
TORSDOF 14
ENDMDL
MODEL 3
REMARK VINA RESULT:     -10.9      9.017     12.833
REMARK SMILES O=C(OCCOC(=O)c1cc(OCc2ccc(Br)cc2F)cs1)c1ccc(-c2c3nc(c(-c4c(F)cccc4F)c4ccc([nH]4)c(-c4c(F)cccc4F)c4nc(c(-c5c(F)cccc5F)c5ccc2[nH]5)C=C4)C=C3)cc1
REMARK SMILES IDX 5 1 4 2 3 3 2 4 1 5 24 6 25 7 77 8 26 9 76 10 27 11 28 12
REMARK SMILES IDX 29 13 70 14 30 15 75 16 69 17 71 18 31 19 74 20 68 21 67 22
REMARK SMILES IDX 32 24 58 25 41 26 57 27 42 28 45 29 56 30 72 31 43 32 44 33
REMARK SMILES IDX 55 35 73 36 46 37 33 38 34 39 39 40 35 41 36 42 38 43 40 44
REMARK SMILES IDX 37 45 59 46 60 47 65 48 61 49 62 50 64 51 66 52 63 53 47 54
REMARK SMILES IDX 48 55 53 56 49 57 50 58 52 59 54 60 51 61 6 62 7 63 8 64
REMARK SMILES IDX 9 65 10 66 23 67 11 68 22 69 12 70 13 71 14 72 15 73 20 74
REMARK SMILES IDX 16 75 19 76 21 77 17 78 18 79
REMARK H PARENT 71 23 45 34
REMARK Flexibility Score: inf
ROOT
ATOM      1  C   UNL A   1      45.612  40.153  26.474  1.00  0.00     0.275 C 
ENDROOT
BRANCH   1   2
ATOM      2  C   UNL A   1      45.569  38.732  27.071  1.00  0.00     0.275 C 
BRANCH   2   3
ATOM      3  O   UNL A   1      45.481  38.716  28.501  1.00  0.00    -0.458 OA
BRANCH   3   4
ATOM      4  C   UNL A   1      44.710  37.944  29.304  1.00  0.00     0.338 C 
ATOM      5  O   UNL A   1      44.007  38.504  30.144  1.00  0.00    -0.246 OA
BRANCH   4   6
ATOM      6  C   UNL A   1      44.692  36.440  29.269  1.00  0.00     0.060 A 
ATOM      7  C   UNL A   1      45.300  35.583  30.185  1.00  0.00     0.016 A 
ATOM      8  C   UNL A   1      43.920  35.848  28.252  1.00  0.00     0.016 A 
ATOM      9  C   UNL A   1      45.159  34.208  30.104  1.00  0.00     0.010 A 
ATOM     10  C   UNL A   1      43.668  34.473  28.245  1.00  0.00     0.010 A 
ATOM     11  C   UNL A   1      44.259  33.656  29.209  1.00  0.00    -0.014 A 
BRANCH  11  12
ATOM     12  C   UNL A   1      43.980  32.221  29.279  1.00  0.00     0.031 A 
ATOM     13  C   UNL A   1      42.640  31.763  29.704  1.00  0.00     0.074 A 
ATOM     14  C   UNL A   1      44.747  31.360  28.584  1.00  0.00     0.049 A 
ATOM     15  N   UNL A   1      42.085  30.600  29.514  1.00  0.00    -0.248 NA
ATOM     16  C   UNL A   1      41.759  32.794  30.267  1.00  0.00     0.031 C 
ATOM     17  C   UNL A   1      45.708  31.937  26.966  1.00  0.00     0.029 A 
ATOM     18  N   UNL A   1      44.708  29.536  28.503  1.00  0.00    -0.354 N 
ATOM     19  C   UNL A   1      40.777  30.755  29.920  1.00  0.00     0.074 A 
ATOM     20  C   UNL A   1      40.627  32.121  30.384  1.00  0.00     0.031 C 
ATOM     21  C   UNL A   1      46.167  30.377  26.007  1.00  0.00     0.029 A 
ATOM     22  C   UNL A   1      45.544  28.851  27.035  1.00  0.00     0.049 A 
ATOM     23  H   UNL A   1      44.277  28.975  29.189  1.00  0.00     0.167 HD
ATOM     24  C   UNL A   1      39.786  29.839  29.894  1.00  0.00     0.037 A 
ATOM     25  C   UNL A   1      45.890  27.596  26.756  1.00  0.00     0.037 A 
ATOM     26  C   UNL A   1      39.924  28.473  29.457  1.00  0.00     0.049 A 
ATOM     27  C   UNL A   1      44.819  26.654  27.081  1.00  0.00     0.074 A 
ATOM     28  C   UNL A   1      38.980  27.471  29.587  1.00  0.00     0.029 A 
ATOM     29  N   UNL A   1      41.032  27.898  28.830  1.00  0.00    -0.354 N 
ATOM     30  N   UNL A   1      43.663  26.950  27.615  1.00  0.00    -0.248 NA
ATOM     31  C   UNL A   1      44.978  25.286  26.606  1.00  0.00     0.031 C 
ATOM     32  C   UNL A   1      39.539  26.278  29.138  1.00  0.00     0.029 A 
ATOM     33  C   UNL A   1      40.803  26.536  28.632  1.00  0.00     0.049 A 
ATOM     34  H   UNL A   1      41.849  28.380  28.570  1.00  0.00     0.167 HD
ATOM     35  C   UNL A   1      42.924  25.804  27.526  1.00  0.00     0.074 A 
ATOM     36  C   UNL A   1      43.750  24.834  26.814  1.00  0.00     0.031 C 
ATOM     37  C   UNL A   1      41.678  25.581  27.995  1.00  0.00     0.037 A 
BRANCH  24  38
ATOM     38  C   UNL A   1      38.497  30.284  30.516  1.00  0.00     0.057 A 
ATOM     39  C   UNL A   1      38.208  30.103  31.874  1.00  0.00     0.134 A 
ATOM     40  C   UNL A   1      37.502  30.839  29.703  1.00  0.00     0.134 A 
ATOM     41  F   UNL A   1      39.099  29.520  32.690  1.00  0.00    -0.206 F 
ATOM     42  C   UNL A   1      36.958  30.440  32.396  1.00  0.00     0.040 A 
ATOM     43  C   UNL A   1      36.266  31.217  30.221  1.00  0.00     0.040 A 
ATOM     44  F   UNL A   1      37.713  31.007  28.389  1.00  0.00    -0.206 F 
ATOM     45  C   UNL A   1      35.989  31.009  31.570  1.00  0.00     0.006 A 
ENDBRANCH  24  38
BRANCH  25  46
ATOM     46  C   UNL A   1      47.129  27.319  26.017  1.00  0.00     0.057 A 
ATOM     47  C   UNL A   1      47.249  27.394  24.631  1.00  0.00     0.134 A 
ATOM     48  C   UNL A   1      48.272  26.926  26.737  1.00  0.00     0.134 A 
ATOM     49  F   UNL A   1      46.209  27.789  23.885  1.00  0.00    -0.206 F 
ATOM     50  C   UNL A   1      48.437  27.041  23.983  1.00  0.00     0.040 A 
ATOM     51  C   UNL A   1      49.471  26.592  26.106  1.00  0.00     0.040 A 
ATOM     52  F   UNL A   1      48.236  26.839  28.076  1.00  0.00    -0.206 F 
ATOM     53  C   UNL A   1      49.549  26.632  24.719  1.00  0.00     0.006 A 
ENDBRANCH  25  46
BRANCH  37  54
ATOM     54  C   UNL A   1      41.206  24.177  27.805  1.00  0.00     0.057 A 
ATOM     55  C   UNL A   1      41.748  23.125  28.557  1.00  0.00     0.134 A 
ATOM     56  C   UNL A   1      40.273  23.866  26.813  1.00  0.00     0.134 A 
ATOM     57  F   UNL A   1      42.663  23.368  29.509  1.00  0.00    -0.206 F 
ATOM     58  C   UNL A   1      41.442  21.801  28.267  1.00  0.00     0.040 A 
ATOM     59  C   UNL A   1      39.913  22.547  26.555  1.00  0.00     0.040 A 
ATOM     60  F   UNL A   1      39.715  24.832  26.067  1.00  0.00    -0.206 F 
ATOM     61  C   UNL A   1      40.520  21.510  27.266  1.00  0.00     0.006 A 
ENDBRANCH  37  54
ENDBRANCH  11  12
ENDBRANCH   4   6
ENDBRANCH   3   4
ENDBRANCH   2   3
ENDBRANCH   1   2
BRANCH   1  62
ATOM     62  O   UNL A   1      44.624  40.411  25.453  1.00  0.00    -0.458 OA
BRANCH  62  63
ATOM     63  C   UNL A   1      43.489  41.088  25.832  1.00  0.00     0.348 C 
ATOM     64  O   UNL A   1      42.883  40.884  26.873  1.00  0.00    -0.245 OA
BRANCH  63  65
ATOM     65  C   UNL A   1      43.191  42.098  24.836  1.00  0.00     0.116 A 
ATOM     66  C   UNL A   1      42.201  42.074  23.879  1.00  0.00     0.074 A 
ATOM     67  S   UNL A   1      44.105  43.538  24.717  1.00  0.00    -0.133 S 
ATOM     68  C   UNL A   1      42.262  43.170  22.975  1.00  0.00     0.131 A 
ATOM     69  C   UNL A   1      43.333  43.986  23.251  1.00  0.00     0.112 A 
BRANCH  68  70
ATOM     70  O   UNL A   1      41.456  43.464  21.924  1.00  0.00    -0.488 OA
BRANCH  70  71
ATOM     71  C   UNL A   1      41.831  42.888  20.671  1.00  0.00     0.268 C 
BRANCH  71  72
ATOM     72  C   UNL A   1      42.288  43.944  19.728  1.00  0.00     0.025 A 
ATOM     73  C   UNL A   1      43.913  44.646  19.739  1.00  0.00     0.011 A 
ATOM     74  C   UNL A   1      41.081  44.679  18.622  1.00  0.00     0.130 A 
ATOM     75  C   UNL A   1      44.421  46.029  18.749  1.00  0.00     0.016 A 
ATOM     76  C   UNL A   1      41.736  46.282  17.434  1.00  0.00     0.055 A 
ATOM     77  F   UNL A   1      39.856  44.075  18.728  1.00  0.00    -0.207 F 
ATOM     78  C   UNL A   1      43.401  46.852  17.614  1.00  0.00     0.020 A 
ATOM     79  Br  UNL A   1      43.948  48.411  16.714  1.00  0.00    -0.051 Br
ENDBRANCH  71  72
ENDBRANCH  70  71
ENDBRANCH  68  70
ENDBRANCH  63  65
ENDBRANCH  62  63
ENDBRANCH   1  62
TORSDOF 14
ENDMDL
