MODEL 1
REMARK VINA RESULT:     -12.6      0.000      0.000
REMARK SMILES Cc1ccccc1NC(=O)CSc1nc(C(=O)OCCOC(=O)c2ccc(-c3c4nc(c(-c5c(F)cccc5F)c5ccc([nH]5)c(-c5c(F)cccc5F)c5nc(c(-c6c(F)cccc6F)c6ccc3[nH]6)C=C5)C=C4)cc2)c2ccccc2n1
REMARK SMILES IDX 19 1 18 2 16 3 17 4 15 5 13 6 14 7 84 8 83 9 78 10 82 11
REMARK SMILES IDX 79 12 81 13 80 14 12 15 11 16 9 17 8 18 10 20 7 21 1 22 2 23
REMARK SMILES IDX 3 24 4 25 6 26 5 27 20 28 21 29 22 30 23 31 24 32 25 33
REMARK SMILES IDX 77 34 26 35 76 36 27 37 28 38 29 39 70 40 30 41 75 42 69 43
REMARK SMILES IDX 71 44 31 45 74 46 68 47 67 48 32 50 58 51 41 52 57 53 42 54
REMARK SMILES IDX 45 55 56 56 72 57 43 58 44 59 55 61 73 62 46 63 33 64 34 65
REMARK SMILES IDX 39 66 35 67 36 68 38 69 40 70 37 71 59 72 60 73 65 74 61 75
REMARK SMILES IDX 62 76 64 77 66 78 63 79 47 80 48 81 53 82 49 83 50 84 52 85
REMARK SMILES IDX 54 86 51 87
REMARK H PARENT 8 19 71 49 45 60
REMARK Flexibility Score: inf
ROOT
ATOM      1  C   UNL A   1      32.956  29.728  27.122  1.00  0.00     0.275 C 
ENDROOT
BRANCH   1   2
ATOM      2  O   UNL A   1      33.349  28.745  26.153  1.00  0.00    -0.457 OA
BRANCH   2   3
ATOM      3  C   UNL A   1      32.733  27.549  26.345  1.00  0.00     0.357 C 
ATOM      4  O   UNL A   1      31.912  27.323  27.225  1.00  0.00    -0.244 OA
BRANCH   3   5
ATOM      5  C   UNL A   1      33.241  26.460  25.473  1.00  0.00     0.160 A 
ATOM      6  C   UNL A   1      34.852  24.925  24.996  1.00  0.00     0.189 A 
ATOM      7  N   UNL A   1      34.301  25.732  25.911  1.00  0.00    -0.215 NA
ATOM      8  N   UNL A   1      34.402  24.775  23.741  1.00  0.00    -0.222 NA
ATOM      9  C   UNL A   1      33.337  25.489  23.353  1.00  0.00     0.076 A 
ATOM     10  C   UNL A   1      32.682  26.378  24.197  1.00  0.00     0.034 A 
ATOM     11  C   UNL A   1      32.855  25.354  22.056  1.00  0.00     0.029 A 
ATOM     12  C   UNL A   1      31.557  27.114  23.731  1.00  0.00     0.013 A 
ATOM     13  C   UNL A   1      31.760  26.090  21.586  1.00  0.00     0.002 A 
ATOM     14  C   UNL A   1      31.107  26.976  22.427  1.00  0.00     0.001 A 
BRANCH   6  15
ATOM     15  S   UNL A   1      36.086  23.758  25.505  1.00  0.00    -0.076 SA
BRANCH  15  16
ATOM     16  C   UNL A   1      35.841  22.374  24.358  1.00  0.00     0.178 C 
BRANCH  16  17
ATOM     17  C   UNL A   1      35.261  21.114  24.961  1.00  0.00     0.234 C 
ATOM     18  N   UNL A   1      34.016  20.990  25.501  1.00  0.00    -0.325 N 
ATOM     19  H   UNL A   1      33.866  20.104  25.905  1.00  0.00     0.169 HD
ATOM     20  O   UNL A   1      35.976  20.103  25.015  1.00  0.00    -0.274 OA
BRANCH  18  21
ATOM     21  C   UNL A   1      32.893  21.834  25.618  1.00  0.00     0.044 A 
ATOM     22  C   UNL A   1      32.237  21.367  23.151  1.00  0.00     0.046 C 
ATOM     23  C   UNL A   1      32.088  22.068  24.478  1.00  0.00    -0.027 A 
ATOM     24  C   UNL A   1      31.092  23.066  24.531  1.00  0.00     0.005 A 
ATOM     25  C   UNL A   1      30.839  23.769  25.703  1.00  0.00     0.000 A 
ATOM     26  C   UNL A   1      32.550  22.476  26.811  1.00  0.00     0.026 A 
ATOM     27  C   UNL A   1      31.544  23.446  26.854  1.00  0.00     0.002 A 
ENDBRANCH  18  21
ENDBRANCH  16  17
ENDBRANCH  15  16
ENDBRANCH   6  15
ENDBRANCH   3   5
ENDBRANCH   2   3
ENDBRANCH   1   2
BRANCH   1  28
ATOM     28  C   UNL A   1      34.097  30.665  27.530  1.00  0.00     0.275 C 
BRANCH  28  29
ATOM     29  O   UNL A   1      35.232  30.095  28.244  1.00  0.00    -0.458 OA
BRANCH  29  30
ATOM     30  C   UNL A   1      36.449  30.636  28.508  1.00  0.00     0.338 C 
ATOM     31  O   UNL A   1      36.606  31.845  28.655  1.00  0.00    -0.246 OA
BRANCH  30  32
ATOM     32  C   UNL A   1      37.598  29.728  28.637  1.00  0.00     0.060 A 
ATOM     33  C   UNL A   1      37.719  28.909  29.771  1.00  0.00     0.016 A 
ATOM     34  C   UNL A   1      38.505  29.631  27.595  1.00  0.00     0.016 A 
ATOM     35  C   UNL A   1      38.692  27.913  29.815  1.00  0.00     0.010 A 
ATOM     36  C   UNL A   1      39.330  28.539  27.546  1.00  0.00     0.010 A 
ATOM     37  C   UNL A   1      39.475  27.722  28.678  1.00  0.00    -0.014 A 
BRANCH  37  38
ATOM     38  C   UNL A   1      40.708  26.947  28.661  1.00  0.00     0.031 A 
ATOM     39  C   UNL A   1      40.744  25.503  28.400  1.00  0.00     0.074 A 
ATOM     40  C   UNL A   1      41.795  27.734  28.820  1.00  0.00     0.049 A 
ATOM     41  N   UNL A   1      41.633  24.705  28.880  1.00  0.00    -0.248 NA
ATOM     42  C   UNL A   1      39.762  24.811  27.573  1.00  0.00     0.031 C 
ATOM     43  C   UNL A   1      43.212  27.475  28.679  1.00  0.00     0.029 A 
ATOM     44  N   UNL A   1      41.746  29.045  29.324  1.00  0.00    -0.354 N 
ATOM     45  C   UNL A   1      41.544  23.514  28.184  1.00  0.00     0.074 A 
ATOM     46  C   UNL A   1      40.284  23.581  27.489  1.00  0.00     0.031 C 
ATOM     47  C   UNL A   1      43.882  28.423  29.369  1.00  0.00     0.029 A 
ATOM     48  C   UNL A   1      42.898  29.244  30.073  1.00  0.00     0.049 A 
ATOM     49  H   UNL A   1      41.029  29.701  29.173  1.00  0.00     0.167 HD
ATOM     50  C   UNL A   1      42.648  22.711  28.114  1.00  0.00     0.037 A 
ATOM     51  C   UNL A   1      42.737  29.356  31.425  1.00  0.00     0.037 A 
ATOM     52  C   UNL A   1      43.736  23.325  28.878  1.00  0.00     0.049 A 
ATOM     53  C   UNL A   1      43.324  28.153  32.122  1.00  0.00     0.074 A 
ATOM     54  C   UNL A   1      44.753  24.177  28.478  1.00  0.00     0.029 A 
ATOM     55  N   UNL A   1      43.620  23.467  30.257  1.00  0.00    -0.354 N 
ATOM     56  N   UNL A   1      43.449  26.974  31.573  1.00  0.00    -0.248 NA
ATOM     57  C   UNL A   1      43.871  28.213  33.470  1.00  0.00     0.031 C 
ATOM     58  C   UNL A   1      45.172  24.917  29.613  1.00  0.00     0.029 A 
ATOM     59  C   UNL A   1      44.428  24.497  30.705  1.00  0.00     0.049 A 
ATOM     60  H   UNL A   1      43.045  22.913  30.833  1.00  0.00     0.167 HD
ATOM     61  C   UNL A   1      44.120  26.147  32.429  1.00  0.00     0.074 A 
ATOM     62  C   UNL A   1      44.362  26.970  33.603  1.00  0.00     0.031 C 
ATOM     63  C   UNL A   1      44.458  24.860  32.113  1.00  0.00     0.037 A 
BRANCH  50  64
ATOM     64  C   UNL A   1      42.868  21.610  27.093  1.00  0.00     0.057 A 
ATOM     65  C   UNL A   1      42.135  20.403  27.170  1.00  0.00     0.134 A 
ATOM     66  C   UNL A   1      43.796  21.644  26.038  1.00  0.00     0.134 A 
ATOM     67  F   UNL A   1      41.145  20.234  28.057  1.00  0.00    -0.206 F 
ATOM     68  C   UNL A   1      42.374  19.299  26.341  1.00  0.00     0.040 A 
ATOM     69  C   UNL A   1      44.069  20.532  25.219  1.00  0.00     0.040 A 
ATOM     70  F   UNL A   1      44.449  22.767  25.714  1.00  0.00    -0.206 F 
ATOM     71  C   UNL A   1      43.365  19.348  25.376  1.00  0.00     0.006 A 
ENDBRANCH  50  64
BRANCH  51  72
ATOM     72  C   UNL A   1      41.480  30.081  31.833  1.00  0.00     0.057 A 
ATOM     73  C   UNL A   1      40.451  29.356  32.479  1.00  0.00     0.134 A 
ATOM     74  C   UNL A   1      41.360  31.473  31.871  1.00  0.00     0.134 A 
ATOM     75  F   UNL A   1      40.474  28.013  32.483  1.00  0.00    -0.206 F 
ATOM     76  C   UNL A   1      39.434  29.975  33.217  1.00  0.00     0.040 A 
ATOM     77  C   UNL A   1      40.327  32.106  32.586  1.00  0.00     0.040 A 
ATOM     78  F   UNL A   1      42.270  32.256  31.279  1.00  0.00    -0.206 F 
ATOM     79  C   UNL A   1      39.384  31.359  33.292  1.00  0.00     0.006 A 
ENDBRANCH  51  72
BRANCH  63  80
ATOM     80  C   UNL A   1      44.965  23.848  33.104  1.00  0.00     0.057 A 
ATOM     81  C   UNL A   1      46.263  23.862  33.632  1.00  0.00     0.134 A 
ATOM     82  C   UNL A   1      44.091  22.895  33.670  1.00  0.00     0.134 A 
ATOM     83  F   UNL A   1      47.150  24.806  33.295  1.00  0.00    -0.206 F 
ATOM     84  C   UNL A   1      46.692  22.929  34.580  1.00  0.00     0.040 A 
ATOM     85  C   UNL A   1      44.489  22.007  34.671  1.00  0.00     0.040 A 
ATOM     86  F   UNL A   1      42.806  22.798  33.298  1.00  0.00    -0.206 F 
ATOM     87  C   UNL A   1      45.802  22.004  35.109  1.00  0.00     0.006 A 
ENDBRANCH  63  80
ENDBRANCH  37  38
ENDBRANCH  30  32
ENDBRANCH  29  30
ENDBRANCH  28  29
ENDBRANCH   1  28
TORSDOF 15
ENDMDL
MODEL 2
REMARK VINA RESULT:     -12.2      4.084      9.540
REMARK SMILES Cc1ccccc1NC(=O)CSc1nc(C(=O)OCCOC(=O)c2ccc(-c3c4nc(c(-c5c(F)cccc5F)c5ccc([nH]5)c(-c5c(F)cccc5F)c5nc(c(-c6c(F)cccc6F)c6ccc3[nH]6)C=C5)C=C4)cc2)c2ccccc2n1
REMARK SMILES IDX 19 1 18 2 16 3 17 4 15 5 13 6 14 7 84 8 83 9 78 10 82 11
REMARK SMILES IDX 79 12 81 13 80 14 12 15 11 16 9 17 8 18 10 20 7 21 1 22 2 23
REMARK SMILES IDX 3 24 4 25 6 26 5 27 20 28 21 29 22 30 23 31 24 32 25 33
REMARK SMILES IDX 77 34 26 35 76 36 27 37 28 38 29 39 70 40 30 41 75 42 69 43
REMARK SMILES IDX 71 44 31 45 74 46 68 47 67 48 32 50 58 51 41 52 57 53 42 54
REMARK SMILES IDX 45 55 56 56 72 57 43 58 44 59 55 61 73 62 46 63 33 64 34 65
REMARK SMILES IDX 39 66 35 67 36 68 38 69 40 70 37 71 59 72 60 73 65 74 61 75
REMARK SMILES IDX 62 76 64 77 66 78 63 79 47 80 48 81 53 82 49 83 50 84 52 85
REMARK SMILES IDX 54 86 51 87
REMARK H PARENT 8 19 71 49 45 60
REMARK Flexibility Score: inf
ROOT
ATOM      1  C   UNL A   1      44.684  18.827  25.223  1.00  0.00     0.275 C 
ENDROOT
BRANCH   1   2
ATOM      2  O   UNL A   1      43.317  19.206  25.000  1.00  0.00    -0.457 OA
BRANCH   2   3
ATOM      3  C   UNL A   1      42.488  18.767  25.984  1.00  0.00     0.357 C 
ATOM      4  O   UNL A   1      42.654  17.738  26.626  1.00  0.00    -0.244 OA
BRANCH   3   5
ATOM      5  C   UNL A   1      41.253  19.577  26.141  1.00  0.00     0.160 A 
ATOM      6  C   UNL A   1      39.149  20.092  25.444  1.00  0.00     0.189 A 
ATOM      7  N   UNL A   1      40.151  19.204  25.440  1.00  0.00    -0.215 NA
ATOM      8  N   UNL A   1      39.164  21.257  26.110  1.00  0.00    -0.222 NA
ATOM      9  C   UNL A   1      40.258  21.578  26.813  1.00  0.00     0.076 A 
ATOM     10  C   UNL A   1      41.377  20.756  26.878  1.00  0.00     0.034 A 
ATOM     11  C   UNL A   1      40.298  22.781  27.508  1.00  0.00     0.029 A 
ATOM     12  C   UNL A   1      42.514  21.149  27.637  1.00  0.00     0.013 A 
ATOM     13  C   UNL A   1      41.422  23.182  28.242  1.00  0.00     0.002 A 
ATOM     14  C   UNL A   1      42.537  22.363  28.306  1.00  0.00     0.001 A 
BRANCH   6  15
ATOM     15  S   UNL A   1      37.578  19.625  24.766  1.00  0.00    -0.076 SA
BRANCH  15  16
ATOM     16  C   UNL A   1      36.610  21.155  24.879  1.00  0.00     0.178 C 
BRANCH  16  17
ATOM     17  C   UNL A   1      35.394  21.099  25.775  1.00  0.00     0.234 C 
ATOM     18  N   UNL A   1      34.287  20.330  25.569  1.00  0.00    -0.325 N 
ATOM     19  H   UNL A   1      33.580  20.501  26.234  1.00  0.00     0.169 HD
ATOM     20  O   UNL A   1      35.361  21.837  26.771  1.00  0.00    -0.274 OA
BRANCH  18  21
ATOM     21  C   UNL A   1      33.918  19.351  24.626  1.00  0.00     0.044 A 
ATOM     22  C   UNL A   1      32.274  21.007  23.491  1.00  0.00     0.046 C 
ATOM     23  C   UNL A   1      32.908  19.652  23.682  1.00  0.00    -0.027 A 
ATOM     24  C   UNL A   1      32.389  18.618  22.875  1.00  0.00     0.005 A 
ATOM     25  C   UNL A   1      32.904  17.328  22.938  1.00  0.00     0.000 A 
ATOM     26  C   UNL A   1      34.490  18.076  24.596  1.00  0.00     0.026 A 
ATOM     27  C   UNL A   1      33.980  17.067  23.773  1.00  0.00     0.002 A 
ENDBRANCH  18  21
ENDBRANCH  16  17
ENDBRANCH  15  16
ENDBRANCH   6  15
ENDBRANCH   3   5
ENDBRANCH   2   3
ENDBRANCH   1   2
BRANCH   1  28
ATOM     28  C   UNL A   1      45.672  19.566  24.314  1.00  0.00     0.275 C 
BRANCH  28  29
ATOM     29  O   UNL A   1      45.836  21.001  24.502  1.00  0.00    -0.458 OA
BRANCH  29  30
ATOM     30  C   UNL A   1      45.036  22.023  24.103  1.00  0.00     0.338 C 
ATOM     31  O   UNL A   1      44.527  22.053  22.985  1.00  0.00    -0.246 OA
BRANCH  30  32
ATOM     32  C   UNL A   1      44.768  23.107  25.058  1.00  0.00     0.060 A 
ATOM     33  C   UNL A   1      45.413  23.117  26.305  1.00  0.00     0.016 A 
ATOM     34  C   UNL A   1      43.943  24.153  24.680  1.00  0.00     0.016 A 
ATOM     35  C   UNL A   1      45.316  24.232  27.135  1.00  0.00     0.010 A 
ATOM     36  C   UNL A   1      43.999  25.321  25.395  1.00  0.00     0.010 A 
ATOM     37  C   UNL A   1      44.625  25.342  26.651  1.00  0.00    -0.014 A 
BRANCH  37  38
ATOM     38  C   UNL A   1      44.182  26.450  27.485  1.00  0.00     0.031 A 
ATOM     39  C   UNL A   1      42.798  26.941  27.498  1.00  0.00     0.074 A 
ATOM     40  C   UNL A   1      45.170  26.893  28.294  1.00  0.00     0.049 A 
ATOM     41  N   UNL A   1      42.468  28.160  27.748  1.00  0.00    -0.248 NA
ATOM     42  C   UNL A   1      41.644  26.096  27.216  1.00  0.00     0.031 C 
ATOM     43  C   UNL A   1      45.173  27.812  29.412  1.00  0.00     0.029 A 
ATOM     44  N   UNL A   1      46.532  26.608  28.095  1.00  0.00    -0.354 N 
ATOM     45  C   UNL A   1      41.106  28.183  27.984  1.00  0.00     0.074 A 
ATOM     46  C   UNL A   1      40.623  26.913  27.503  1.00  0.00     0.031 C 
ATOM     47  C   UNL A   1      46.435  28.259  29.583  1.00  0.00     0.029 A 
ATOM     48  C   UNL A   1      47.251  27.726  28.493  1.00  0.00     0.049 A 
ATOM     49  H   UNL A   1      46.906  25.769  27.741  1.00  0.00     0.167 HD
ATOM     50  C   UNL A   1      40.591  29.189  28.752  1.00  0.00     0.037 A 
ATOM     51  C   UNL A   1      47.871  28.438  27.505  1.00  0.00     0.037 A 
ATOM     52  C   UNL A   1      41.672  30.094  29.144  1.00  0.00     0.049 A 
ATOM     53  C   UNL A   1      47.207  29.783  27.336  1.00  0.00     0.074 A 
ATOM     54  C   UNL A   1      42.475  30.107  30.274  1.00  0.00     0.029 A 
ATOM     55  N   UNL A   1      42.338  30.839  28.177  1.00  0.00    -0.354 N 
ATOM     56  N   UNL A   1      45.959  30.029  27.637  1.00  0.00    -0.248 NA
ATOM     57  C   UNL A   1      47.924  30.963  26.874  1.00  0.00     0.031 C 
ATOM     58  C   UNL A   1      43.683  30.771  29.941  1.00  0.00     0.029 A 
ATOM     59  C   UNL A   1      43.604  31.183  28.620  1.00  0.00     0.049 A 
ATOM     60  H   UNL A   1      41.963  31.086  27.301  1.00  0.00     0.167 HD
ATOM     61  C   UNL A   1      45.712  31.364  27.476  1.00  0.00     0.074 A 
ATOM     62  C   UNL A   1      46.973  31.904  26.995  1.00  0.00     0.031 C 
ATOM     63  C   UNL A   1      44.508  31.941  27.770  1.00  0.00     0.037 A 
BRANCH  50  64
ATOM     64  C   UNL A   1      39.238  29.160  29.442  1.00  0.00     0.057 A 
ATOM     65  C   UNL A   1      38.070  29.544  28.746  1.00  0.00     0.134 A 
ATOM     66  C   UNL A   1      39.011  28.806  30.783  1.00  0.00     0.134 A 
ATOM     67  F   UNL A   1      38.088  29.824  27.436  1.00  0.00    -0.206 F 
ATOM     68  C   UNL A   1      36.811  29.661  29.353  1.00  0.00     0.040 A 
ATOM     69  C   UNL A   1      37.760  28.950  31.414  1.00  0.00     0.040 A 
ATOM     70  F   UNL A   1      39.971  28.256  31.536  1.00  0.00    -0.206 F 
ATOM     71  C   UNL A   1      36.656  29.391  30.701  1.00  0.00     0.006 A 
ENDBRANCH  50  64
BRANCH  51  72
ATOM     72  C   UNL A   1      48.424  27.586  26.391  1.00  0.00     0.057 A 
ATOM     73  C   UNL A   1      47.679  27.453  25.197  1.00  0.00     0.134 A 
ATOM     74  C   UNL A   1      49.747  27.135  26.338  1.00  0.00     0.134 A 
ATOM     75  F   UNL A   1      46.395  27.846  25.156  1.00  0.00    -0.206 F 
ATOM     76  C   UNL A   1      48.245  27.012  23.994  1.00  0.00     0.040 A 
ATOM     77  C   UNL A   1      50.318  26.664  25.142  1.00  0.00     0.040 A 
ATOM     78  F   UNL A   1      50.537  27.200  27.417  1.00  0.00    -0.206 F 
ATOM     79  C   UNL A   1      49.581  26.638  23.959  1.00  0.00     0.006 A 
ENDBRANCH  51  72
BRANCH  63  80
ATOM     80  C   UNL A   1      44.117  33.338  27.374  1.00  0.00     0.057 A 
ATOM     81  C   UNL A   1      43.784  33.711  26.066  1.00  0.00     0.134 A 
ATOM     82  C   UNL A   1      43.926  34.337  28.355  1.00  0.00     0.134 A 
ATOM     83  F   UNL A   1      43.776  32.824  25.062  1.00  0.00    -0.206 F 
ATOM     84  C   UNL A   1      43.388  35.011  25.738  1.00  0.00     0.040 A 
ATOM     85  C   UNL A   1      43.460  35.616  28.049  1.00  0.00     0.040 A 
ATOM     86  F   UNL A   1      44.157  34.109  29.657  1.00  0.00    -0.206 F 
ATOM     87  C   UNL A   1      43.216  35.965  26.731  1.00  0.00     0.006 A 
ENDBRANCH  63  80
ENDBRANCH  37  38
ENDBRANCH  30  32
ENDBRANCH  29  30
ENDBRANCH  28  29
ENDBRANCH   1  28
TORSDOF 15
ENDMDL
MODEL 3
REMARK VINA RESULT:     -12.2      3.753      9.346
REMARK SMILES Cc1ccccc1NC(=O)CSc1nc(C(=O)OCCOC(=O)c2ccc(-c3c4nc(c(-c5c(F)cccc5F)c5ccc([nH]5)c(-c5c(F)cccc5F)c5nc(c(-c6c(F)cccc6F)c6ccc3[nH]6)C=C5)C=C4)cc2)c2ccccc2n1
REMARK SMILES IDX 19 1 18 2 16 3 17 4 15 5 13 6 14 7 84 8 83 9 78 10 82 11
REMARK SMILES IDX 79 12 81 13 80 14 12 15 11 16 9 17 8 18 10 20 7 21 1 22 2 23
REMARK SMILES IDX 3 24 4 25 6 26 5 27 20 28 21 29 22 30 23 31 24 32 25 33
REMARK SMILES IDX 77 34 26 35 76 36 27 37 28 38 29 39 70 40 30 41 75 42 69 43
REMARK SMILES IDX 71 44 31 45 74 46 68 47 67 48 32 50 58 51 41 52 57 53 42 54
REMARK SMILES IDX 45 55 56 56 72 57 43 58 44 59 55 61 73 62 46 63 33 64 34 65
REMARK SMILES IDX 39 66 35 67 36 68 38 69 40 70 37 71 59 72 60 73 65 74 61 75
REMARK SMILES IDX 62 76 64 77 66 78 63 79 47 80 48 81 53 82 49 83 50 84 52 85
REMARK SMILES IDX 54 86 51 87
REMARK H PARENT 8 19 71 49 45 60
REMARK Flexibility Score: inf
ROOT
ATOM      1  C   UNL A   1      37.045  23.411  26.010  1.00  0.00     0.275 C 
ENDROOT
BRANCH   1   2
ATOM      2  O   UNL A   1      36.083  22.350  25.895  1.00  0.00    -0.457 OA
BRANCH   2   3
ATOM      3  C   UNL A   1      34.806  22.787  26.050  1.00  0.00     0.357 C 
ATOM      4  O   UNL A   1      34.294  23.072  27.125  1.00  0.00    -0.244 OA
BRANCH   3   5
ATOM      5  C   UNL A   1      34.003  22.764  24.801  1.00  0.00     0.160 A 
ATOM      6  C   UNL A   1      32.744  23.871  23.262  1.00  0.00     0.189 A 
ATOM      7  N   UNL A   1      33.648  23.952  24.247  1.00  0.00    -0.215 NA
ATOM      8  N   UNL A   1      32.231  22.724  22.789  1.00  0.00    -0.222 NA
ATOM      9  C   UNL A   1      32.627  21.570  23.342  1.00  0.00     0.076 A 
ATOM     10  C   UNL A   1      33.545  21.513  24.385  1.00  0.00     0.034 A 
ATOM     11  C   UNL A   1      32.107  20.370  22.872  1.00  0.00     0.029 A 
ATOM     12  C   UNL A   1      33.927  20.259  24.937  1.00  0.00     0.013 A 
ATOM     13  C   UNL A   1      32.465  19.134  23.425  1.00  0.00     0.002 A 
ATOM     14  C   UNL A   1      33.379  19.077  24.464  1.00  0.00     0.001 A 
BRANCH   6  15
ATOM     15  S   UNL A   1      32.376  25.319  22.307  1.00  0.00    -0.076 SA
BRANCH  15  16
ATOM     16  C   UNL A   1      31.066  26.124  23.270  1.00  0.00     0.178 C 
BRANCH  16  17
ATOM     17  C   UNL A   1      30.846  27.592  22.982  1.00  0.00     0.234 C 
ATOM     18  N   UNL A   1      31.280  28.629  23.753  1.00  0.00    -0.325 N 
ATOM     19  H   UNL A   1      30.965  29.502  23.423  1.00  0.00     0.169 HD
ATOM     20  O   UNL A   1      30.182  27.904  21.982  1.00  0.00    -0.274 OA
BRANCH  18  21
ATOM     21  C   UNL A   1      32.073  28.743  24.912  1.00  0.00     0.044 A 
ATOM     22  C   UNL A   1      34.239  28.656  23.486  1.00  0.00     0.046 C 
ATOM     23  C   UNL A   1      33.481  28.685  24.790  1.00  0.00    -0.027 A 
ATOM     24  C   UNL A   1      34.270  28.589  25.955  1.00  0.00     0.005 A 
ATOM     25  C   UNL A   1      33.694  28.627  27.220  1.00  0.00     0.000 A 
ATOM     26  C   UNL A   1      31.527  28.887  26.191  1.00  0.00     0.026 A 
ATOM     27  C   UNL A   1      32.324  28.814  27.336  1.00  0.00     0.002 A 
ENDBRANCH  18  21
ENDBRANCH  16  17
ENDBRANCH  15  16
ENDBRANCH   6  15
ENDBRANCH   3   5
ENDBRANCH   2   3
ENDBRANCH   1   2
BRANCH   1  28
ATOM     28  C   UNL A   1      38.490  22.911  26.093  1.00  0.00     0.275 C 
BRANCH  28  29
ATOM     29  O   UNL A   1      39.358  23.483  27.114  1.00  0.00    -0.458 OA
BRANCH  29  30
ATOM     30  C   UNL A   1      40.406  24.335  26.981  1.00  0.00     0.338 C 
ATOM     31  O   UNL A   1      41.447  24.004  26.419  1.00  0.00    -0.246 OA
BRANCH  30  32
ATOM     32  C   UNL A   1      40.264  25.697  27.515  1.00  0.00     0.060 A 
ATOM     33  C   UNL A   1      40.588  26.802  26.711  1.00  0.00     0.016 A 
ATOM     34  C   UNL A   1      39.732  25.876  28.780  1.00  0.00     0.016 A 
ATOM     35  C   UNL A   1      40.277  28.092  27.135  1.00  0.00     0.010 A 
ATOM     36  C   UNL A   1      39.250  27.113  29.118  1.00  0.00     0.010 A 
ATOM     37  C   UNL A   1      39.580  28.229  28.334  1.00  0.00    -0.014 A 
BRANCH  37  38
ATOM     38  C   UNL A   1      39.443  29.486  29.056  1.00  0.00     0.031 A 
ATOM     39  C   UNL A   1      38.405  30.478  28.751  1.00  0.00     0.074 A 
ATOM     40  C   UNL A   1      40.321  29.572  30.080  1.00  0.00     0.049 A 
ATOM     41  N   UNL A   1      38.541  31.745  28.933  1.00  0.00    -0.248 NA
ATOM     42  C   UNL A   1      37.103  30.131  28.193  1.00  0.00     0.031 C 
ATOM     43  C   UNL A   1      40.443  30.505  31.180  1.00  0.00     0.029 A 
ATOM     44  N   UNL A   1      41.463  28.763  30.203  1.00  0.00    -0.354 N 
ATOM     45  C   UNL A   1      37.286  32.317  28.842  1.00  0.00     0.074 A 
ATOM     46  C   UNL A   1      36.456  31.303  28.244  1.00  0.00     0.031 C 
ATOM     47  C   UNL A   1      41.707  30.436  31.650  1.00  0.00     0.029 A 
ATOM     48  C   UNL A   1      42.462  29.539  30.774  1.00  0.00     0.049 A 
ATOM     49  H   UNL A   1      41.540  27.819  29.935  1.00  0.00     0.167 HD
ATOM     50  C   UNL A   1      37.059  33.503  29.482  1.00  0.00     0.037 A 
ATOM     51  C   UNL A   1      43.515  29.870  29.970  1.00  0.00     0.037 A 
ATOM     52  C   UNL A   1      38.296  33.943  30.130  1.00  0.00     0.049 A 
ATOM     53  C   UNL A   1      43.497  31.349  29.668  1.00  0.00     0.074 A 
ATOM     54  C   UNL A   1      38.766  33.733  31.417  1.00  0.00     0.029 A 
ATOM     55  N   UNL A   1      39.399  34.287  29.357  1.00  0.00    -0.354 N 
ATOM     56  N   UNL A   1      42.419  32.087  29.671  1.00  0.00    -0.248 NA
ATOM     57  C   UNL A   1      44.708  32.113  29.404  1.00  0.00     0.031 C 
ATOM     58  C   UNL A   1      40.179  33.843  31.386  1.00  0.00     0.029 A 
ATOM     59  C   UNL A   1      40.565  34.144  30.089  1.00  0.00     0.049 A 
ATOM     60  H   UNL A   1      39.357  34.589  28.421  1.00  0.00     0.167 HD
ATOM     61  C   UNL A   1      42.767  33.394  29.475  1.00  0.00     0.074 A 
ATOM     62  C   UNL A   1      44.211  33.358  29.311  1.00  0.00     0.031 C 
ATOM     63  C   UNL A   1      41.860  34.417  29.486  1.00  0.00     0.037 A 
BRANCH  50  64
ATOM     64  C   UNL A   1      35.691  34.061  29.834  1.00  0.00     0.057 A 
ATOM     65  C   UNL A   1      34.830  34.541  28.822  1.00  0.00     0.134 A 
ATOM     66  C   UNL A   1      35.170  34.192  31.133  1.00  0.00     0.134 A 
ATOM     67  F   UNL A   1      35.127  34.412  27.522  1.00  0.00    -0.206 F 
ATOM     68  C   UNL A   1      33.611  35.182  29.083  1.00  0.00     0.040 A 
ATOM     69  C   UNL A   1      33.964  34.861  31.413  1.00  0.00     0.040 A 
ATOM     70  F   UNL A   1      35.774  33.635  32.191  1.00  0.00    -0.206 F 
ATOM     71  C   UNL A   1      33.184  35.371  30.386  1.00  0.00     0.006 A 
ENDBRANCH  50  64
BRANCH  51  72
ATOM     72  C   UNL A   1      43.914  28.782  29.006  1.00  0.00     0.057 A 
ATOM     73  C   UNL A   1      43.677  28.972  27.624  1.00  0.00     0.134 A 
ATOM     74  C   UNL A   1      44.750  27.712  29.339  1.00  0.00     0.134 A 
ATOM     75  F   UNL A   1      42.876  29.966  27.208  1.00  0.00    -0.206 F 
ATOM     76  C   UNL A   1      44.325  28.223  26.633  1.00  0.00     0.040 A 
ATOM     77  C   UNL A   1      45.384  26.935  28.353  1.00  0.00     0.040 A 
ATOM     78  F   UNL A   1      45.029  27.434  30.619  1.00  0.00    -0.206 F 
ATOM     79  C   UNL A   1      45.203  27.213  26.999  1.00  0.00     0.006 A 
ENDBRANCH  51  72
BRANCH  63  80
ATOM     80  C   UNL A   1      42.157  35.819  29.030  1.00  0.00     0.057 A 
ATOM     81  C   UNL A   1      42.979  36.708  29.735  1.00  0.00     0.134 A 
ATOM     82  C   UNL A   1      41.724  36.270  27.763  1.00  0.00     0.134 A 
ATOM     83  F   UNL A   1      43.579  36.354  30.878  1.00  0.00    -0.206 F 
ATOM     84  C   UNL A   1      43.265  37.992  29.264  1.00  0.00     0.040 A 
ATOM     85  C   UNL A   1      42.066  37.523  27.251  1.00  0.00     0.040 A 
ATOM     86  F   UNL A   1      40.972  35.508  26.955  1.00  0.00    -0.206 F 
ATOM     87  C   UNL A   1      42.817  38.400  28.015  1.00  0.00     0.006 A 
ENDBRANCH  63  80
ENDBRANCH  37  38
ENDBRANCH  30  32
ENDBRANCH  29  30
ENDBRANCH  28  29
ENDBRANCH   1  28
TORSDOF 15
ENDMDL
