MODEL 1
REMARK VINA RESULT:     -11.2      0.000      0.000
REMARK SMILES O=C(OCCOC(=O)[C@@]1([NH2+]C2CC2)CCC[C@@H](Sc2ncn[nH]2)C1)c1ccc(-c2c3nc(c(-c4c(F)cccc4F)c4ccc([nH]4)c(-c4c(F)cccc4F)c4nc(c(-c5c(F)cccc5F)c5ccc2[nH]5)C=C4)C=C3)cc1
REMARK SMILES IDX 4 1 3 2 2 3 1 4 25 5 26 6 78 7 27 8 77 9 28 10 29 11 30 12
REMARK SMILES IDX 71 13 31 14 76 15 70 16 72 17 32 18 75 19 69 20 68 21 33 23
REMARK SMILES IDX 59 24 42 25 58 26 43 27 46 28 57 29 73 30 44 31 45 32 56 34
REMARK SMILES IDX 74 35 47 36 34 37 35 38 40 39 36 40 37 41 39 42 41 43 38 44
REMARK SMILES IDX 60 45 61 46 66 47 62 48 63 49 65 50 67 51 64 52 48 53 49 54
REMARK SMILES IDX 54 55 50 56 51 57 53 58 55 59 52 60 5 61 6 62 7 63 8 64 9 65
REMARK SMILES IDX 14 66 24 67 15 68 17 69 16 70 10 71 11 74 12 75 13 76 18 77
REMARK SMILES IDX 19 78 20 79 23 80 21 81 22 82
REMARK H PARENT 72 22 46 33 10 72 10 73 23 83
REMARK Flexibility Score: inf
ROOT
ATOM      1  C   UNL A   1      35.683  21.043  25.392  1.00  0.00     0.275 C 
ENDROOT
BRANCH   1   2
ATOM      2  O   UNL A   1      37.008  20.817  24.849  1.00  0.00    -0.458 OA
BRANCH   2   3
ATOM      3  C   UNL A   1      38.246  20.787  25.401  1.00  0.00     0.338 C 
ATOM      4  O   UNL A   1      38.787  19.689  25.535  1.00  0.00    -0.246 OA
BRANCH   3   5
ATOM      5  C   UNL A   1      39.000  21.975  25.934  1.00  0.00     0.060 A 
ATOM      6  C   UNL A   1      40.237  21.943  26.572  1.00  0.00     0.016 A 
ATOM      7  C   UNL A   1      38.389  23.244  25.794  1.00  0.00     0.016 A 
ATOM      8  C   UNL A   1      40.901  23.143  26.913  1.00  0.00     0.010 A 
ATOM      9  C   UNL A   1      39.052  24.444  26.130  1.00  0.00     0.010 A 
ATOM     10  C   UNL A   1      40.351  24.411  26.636  1.00  0.00    -0.014 A 
BRANCH  10  11
ATOM     11  C   UNL A   1      41.125  25.651  26.977  1.00  0.00     0.031 A 
ATOM     12  C   UNL A   1      40.512  26.612  27.936  1.00  0.00     0.074 A 
ATOM     13  C   UNL A   1      42.376  25.916  26.535  1.00  0.00     0.049 A 
ATOM     14  N   UNL A   1      41.032  27.689  28.457  1.00  0.00    -0.248 NA
ATOM     15  C   UNL A   1      39.129  26.331  28.345  1.00  0.00     0.031 C 
ATOM     16  C   UNL A   1      43.083  25.110  25.568  1.00  0.00     0.029 A 
ATOM     17  N   UNL A   1      43.305  26.889  26.847  1.00  0.00    -0.354 N 
ATOM     18  C   UNL A   1      40.032  28.231  29.240  1.00  0.00     0.074 A 
ATOM     19  C   UNL A   1      38.891  27.344  29.161  1.00  0.00     0.031 C 
ATOM     20  C   UNL A   1      44.366  25.486  25.485  1.00  0.00     0.029 A 
ATOM     21  C   UNL A   1      44.542  26.699  26.254  1.00  0.00     0.049 A 
ATOM     22  H   UNL A   1      43.106  27.650  27.439  1.00  0.00     0.167 HD
ATOM     23  C   UNL A   1      40.047  29.401  29.913  1.00  0.00     0.037 A 
ATOM     24  C   UNL A   1      45.679  27.428  26.253  1.00  0.00     0.037 A 
ATOM     25  C   UNL A   1      41.140  30.332  29.908  1.00  0.00     0.049 A 
ATOM     26  C   UNL A   1      45.641  28.748  26.964  1.00  0.00     0.074 A 
ATOM     27  C   UNL A   1      41.206  31.574  30.509  1.00  0.00     0.029 A 
ATOM     28  N   UNL A   1      42.341  30.145  29.236  1.00  0.00    -0.354 N 
ATOM     29  N   UNL A   1      44.689  29.238  27.718  1.00  0.00    -0.248 NA
ATOM     30  C   UNL A   1      46.789  29.647  26.779  1.00  0.00     0.031 C 
ATOM     31  C   UNL A   1      42.419  32.168  30.149  1.00  0.00     0.029 A 
ATOM     32  C   UNL A   1      43.137  31.270  29.376  1.00  0.00     0.049 A 
ATOM     33  H   UNL A   1      42.589  29.335  28.735  1.00  0.00     0.167 HD
ATOM     34  C   UNL A   1      45.113  30.503  28.085  1.00  0.00     0.074 A 
ATOM     35  C   UNL A   1      46.432  30.688  27.516  1.00  0.00     0.031 C 
ATOM     36  C   UNL A   1      44.450  31.437  28.806  1.00  0.00     0.037 A 
BRANCH  23  37
ATOM     37  C   UNL A   1      38.767  29.772  30.585  1.00  0.00     0.057 A 
ATOM     38  C   UNL A   1      37.805  30.575  29.960  1.00  0.00     0.134 A 
ATOM     39  C   UNL A   1      38.543  29.390  31.913  1.00  0.00     0.134 A 
ATOM     40  F   UNL A   1      37.994  31.014  28.707  1.00  0.00    -0.206 F 
ATOM     41  C   UNL A   1      36.671  31.007  30.647  1.00  0.00     0.040 A 
ATOM     42  C   UNL A   1      37.403  29.796  32.600  1.00  0.00     0.040 A 
ATOM     43  F   UNL A   1      39.446  28.645  32.567  1.00  0.00    -0.206 F 
ATOM     44  C   UNL A   1      36.468  30.615  31.969  1.00  0.00     0.006 A 
ENDBRANCH  23  37
BRANCH  24  45
ATOM     45  C   UNL A   1      46.901  27.021  25.484  1.00  0.00     0.057 A 
ATOM     46  C   UNL A   1      47.922  26.263  26.078  1.00  0.00     0.134 A 
ATOM     47  C   UNL A   1      47.126  27.444  24.164  1.00  0.00     0.134 A 
ATOM     48  F   UNL A   1      47.803  25.850  27.348  1.00  0.00    -0.206 F 
ATOM     49  C   UNL A   1      49.114  25.966  25.406  1.00  0.00     0.040 A 
ATOM     50  C   UNL A   1      48.293  27.118  23.466  1.00  0.00     0.040 A 
ATOM     51  F   UNL A   1      46.213  28.188  23.524  1.00  0.00    -0.206 F 
ATOM     52  C   UNL A   1      49.300  26.389  24.093  1.00  0.00     0.006 A 
ENDBRANCH  24  45
BRANCH  36  53
ATOM     53  C   UNL A   1      45.149  32.740  29.031  1.00  0.00     0.057 A 
ATOM     54  C   UNL A   1      44.950  33.840  28.187  1.00  0.00     0.134 A 
ATOM     55  C   UNL A   1      45.984  32.912  30.142  1.00  0.00     0.134 A 
ATOM     56  F   UNL A   1      44.179  33.728  27.095  1.00  0.00    -0.206 F 
ATOM     57  C   UNL A   1      45.562  35.067  28.439  1.00  0.00     0.040 A 
ATOM     58  C   UNL A   1      46.578  34.142  30.419  1.00  0.00     0.040 A 
ATOM     59  F   UNL A   1      46.212  31.895  30.986  1.00  0.00    -0.206 F 
ATOM     60  C   UNL A   1      46.368  35.223  29.565  1.00  0.00     0.006 A 
ENDBRANCH  36  53
ENDBRANCH  10  11
ENDBRANCH   3   5
ENDBRANCH   2   3
ENDBRANCH   1   2
BRANCH   1  61
ATOM     61  C   UNL A   1      34.689  21.567  24.363  1.00  0.00     0.274 C 
BRANCH  61  62
ATOM     62  O   UNL A   1      35.043  22.907  24.041  1.00  0.00    -0.457 OA
BRANCH  62  63
ATOM     63  C   UNL A   1      34.161  23.630  23.285  1.00  0.00     0.368 C 
ATOM     64  O   UNL A   1      33.888  23.405  22.110  1.00  0.00    -0.245 OA
BRANCH  63  65
ATOM     65  C   UNL A   1      33.543  24.742  24.154  1.00  0.00     0.195 C 
ATOM     66  C   UNL A   1      34.379  25.144  25.379  1.00  0.00     0.081 C 
ATOM     67  C   UNL A   1      33.464  25.990  23.219  1.00  0.00     0.096 C 
ATOM     68  C   UNL A   1      33.813  26.373  26.104  1.00  0.00     0.008 C 
ATOM     69  C   UNL A   1      32.926  27.261  23.892  1.00  0.00     0.061 C 
ATOM     70  C   UNL A   1      33.655  27.587  25.198  1.00  0.00     0.015 C 
BRANCH  65  71
ATOM     71  N   UNL A   1      32.183  24.341  24.576  1.00  0.00    -0.330 N 
ATOM     72  H   UNL A   1      31.787  23.835  23.784  1.00  0.00     0.347 HD
ATOM     73  H   UNL A   1      31.800  25.239  24.870  1.00  0.00     0.347 HD
BRANCH  71  74
ATOM     74  C   UNL A   1      31.897  23.513  25.764  1.00  0.00     0.183 C 
ATOM     75  C   UNL A   1      30.618  23.409  26.522  1.00  0.00     0.071 C 
ATOM     76  C   UNL A   1      31.075  22.265  25.662  1.00  0.00     0.071 C 
ENDBRANCH  71  74
ENDBRANCH  65  71
BRANCH  69  77
ATOM     77  S   UNL A   1      32.921  28.713  22.755  1.00  0.00    -0.083 SA
BRANCH  77  78
ATOM     78  C   UNL A   1      31.234  29.022  22.626  1.00  0.00     0.183 A 
ATOM     79  N   UNL A   1      30.261  28.422  23.262  1.00  0.00    -0.210 NA
ATOM     80  N   UNL A   1      30.729  29.845  21.668  1.00  0.00    -0.254 N 
ATOM     81  C   UNL A   1      29.151  28.892  22.618  1.00  0.00     0.247 A 
ATOM     82  N   UNL A   1      29.386  29.755  21.623  1.00  0.00    -0.162 NA
ATOM     83  H   UNL A   1      31.270  30.426  21.086  1.00  0.00     0.192 HD
ENDBRANCH  77  78
ENDBRANCH  69  77
ENDBRANCH  63  65
ENDBRANCH  62  63
ENDBRANCH  61  62
ENDBRANCH   1  61
TORSDOF 15
ENDMDL
MODEL 2
REMARK VINA RESULT:     -11.2      2.626      3.602
REMARK SMILES O=C(OCCOC(=O)[C@@]1([NH2+]C2CC2)CCC[C@@H](Sc2ncn[nH]2)C1)c1ccc(-c2c3nc(c(-c4c(F)cccc4F)c4ccc([nH]4)c(-c4c(F)cccc4F)c4nc(c(-c5c(F)cccc5F)c5ccc2[nH]5)C=C4)C=C3)cc1
REMARK SMILES IDX 4 1 3 2 2 3 1 4 25 5 26 6 78 7 27 8 77 9 28 10 29 11 30 12
REMARK SMILES IDX 71 13 31 14 76 15 70 16 72 17 32 18 75 19 69 20 68 21 33 23
REMARK SMILES IDX 59 24 42 25 58 26 43 27 46 28 57 29 73 30 44 31 45 32 56 34
REMARK SMILES IDX 74 35 47 36 34 37 35 38 40 39 36 40 37 41 39 42 41 43 38 44
REMARK SMILES IDX 60 45 61 46 66 47 62 48 63 49 65 50 67 51 64 52 48 53 49 54
REMARK SMILES IDX 54 55 50 56 51 57 53 58 55 59 52 60 5 61 6 62 7 63 8 64 9 65
REMARK SMILES IDX 14 66 24 67 15 68 17 69 16 70 10 71 11 74 12 75 13 76 18 77
REMARK SMILES IDX 19 78 20 79 23 80 21 81 22 82
REMARK H PARENT 72 22 46 33 10 72 10 73 23 83
REMARK Flexibility Score: inf
ROOT
ATOM      1  C   UNL A   1      38.536  19.916  25.030  1.00  0.00     0.275 C 
ENDROOT
BRANCH   1   2
ATOM      2  O   UNL A   1      39.594  19.418  25.885  1.00  0.00    -0.458 OA
BRANCH   2   3
ATOM      3  C   UNL A   1      40.920  19.687  25.976  1.00  0.00     0.338 C 
ATOM      4  O   UNL A   1      41.709  18.787  25.685  1.00  0.00    -0.246 OA
BRANCH   3   5
ATOM      5  C   UNL A   1      41.524  20.973  26.471  1.00  0.00     0.060 A 
ATOM      6  C   UNL A   1      42.186  21.920  25.696  1.00  0.00     0.016 A 
ATOM      7  C   UNL A   1      41.432  21.238  27.858  1.00  0.00     0.016 A 
ATOM      8  C   UNL A   1      42.599  23.148  26.259  1.00  0.00     0.010 A 
ATOM      9  C   UNL A   1      41.839  22.466  28.423  1.00  0.00     0.010 A 
ATOM     10  C   UNL A   1      42.371  23.468  27.613  1.00  0.00    -0.014 A 
BRANCH  10  11
ATOM     11  C   UNL A   1      42.787  24.810  28.144  1.00  0.00     0.031 A 
ATOM     12  C   UNL A   1      41.717  25.807  28.428  1.00  0.00     0.074 A 
ATOM     13  C   UNL A   1      44.059  25.146  28.458  1.00  0.00     0.049 A 
ATOM     14  N   UNL A   1      41.824  26.982  28.984  1.00  0.00    -0.248 NA
ATOM     15  C   UNL A   1      40.356  25.438  28.014  1.00  0.00     0.031 C 
ATOM     16  C   UNL A   1      45.207  24.311  28.199  1.00  0.00     0.029 A 
ATOM     17  N   UNL A   1      44.622  26.235  29.095  1.00  0.00    -0.354 N 
ATOM     18  C   UNL A   1      40.547  27.507  28.968  1.00  0.00     0.074 A 
ATOM     19  C   UNL A   1      39.675  26.508  28.387  1.00  0.00     0.031 C 
ATOM     20  C   UNL A   1      46.297  24.800  28.805  1.00  0.00     0.029 A 
ATOM     21  C   UNL A   1      45.977  26.103  29.347  1.00  0.00     0.049 A 
ATOM     22  H   UNL A   1      44.105  27.034  29.347  1.00  0.00     0.167 HD
ATOM     23  C   UNL A   1      40.151  28.741  29.347  1.00  0.00     0.037 A 
ATOM     24  C   UNL A   1      46.893  26.937  29.884  1.00  0.00     0.037 A 
ATOM     25  C   UNL A   1      41.032  29.769  29.826  1.00  0.00     0.049 A 
ATOM     26  C   UNL A   1      46.431  28.318  30.241  1.00  0.00     0.074 A 
ATOM     27  C   UNL A   1      40.718  31.071  30.165  1.00  0.00     0.029 A 
ATOM     28  N   UNL A   1      42.403  29.627  29.994  1.00  0.00    -0.354 N 
ATOM     29  N   UNL A   1      45.211  28.793  30.237  1.00  0.00    -0.248 NA
ATOM     30  C   UNL A   1      47.460  29.299  30.611  1.00  0.00     0.031 C 
ATOM     31  C   UNL A   1      41.907  31.738  30.475  1.00  0.00     0.029 A 
ATOM     32  C   UNL A   1      42.954  30.834  30.393  1.00  0.00     0.049 A 
ATOM     33  H   UNL A   1      42.907  28.795  29.850  1.00  0.00     0.167 HD
ATOM     34  C   UNL A   1      45.324  30.126  30.586  1.00  0.00     0.074 A 
ATOM     35  C   UNL A   1      46.727  30.377  30.849  1.00  0.00     0.031 C 
ATOM     36  C   UNL A   1      44.352  31.066  30.653  1.00  0.00     0.037 A 
BRANCH  23  37
ATOM     37  C   UNL A   1      38.712  29.056  29.107  1.00  0.00     0.057 A 
ATOM     38  C   UNL A   1      38.243  29.484  27.859  1.00  0.00     0.134 A 
ATOM     39  C   UNL A   1      37.805  29.015  30.172  1.00  0.00     0.134 A 
ATOM     40  F   UNL A   1      39.081  29.593  26.818  1.00  0.00    -0.206 F 
ATOM     41  C   UNL A   1      36.919  29.887  27.687  1.00  0.00     0.040 A 
ATOM     42  C   UNL A   1      36.476  29.392  30.005  1.00  0.00     0.040 A 
ATOM     43  F   UNL A   1      38.209  28.639  31.395  1.00  0.00    -0.206 F 
ATOM     44  C   UNL A   1      36.032  29.837  28.761  1.00  0.00     0.006 A 
ENDBRANCH  23  37
BRANCH  24  45
ATOM     45  C   UNL A   1      48.342  26.569  30.017  1.00  0.00     0.057 A 
ATOM     46  C   UNL A   1      49.262  26.832  28.990  1.00  0.00     0.134 A 
ATOM     47  C   UNL A   1      48.836  25.872  31.132  1.00  0.00     0.134 A 
ATOM     48  F   UNL A   1      48.865  27.461  27.874  1.00  0.00    -0.206 F 
ATOM     49  C   UNL A   1      50.593  26.401  29.055  1.00  0.00     0.040 A 
ATOM     50  C   UNL A   1      50.172  25.473  31.229  1.00  0.00     0.040 A 
ATOM     51  F   UNL A   1      48.024  25.561  32.153  1.00  0.00    -0.206 F 
ATOM     52  C   UNL A   1      51.053  25.724  30.181  1.00  0.00     0.006 A 
ENDBRANCH  24  45
BRANCH  36  53
ATOM     53  C   UNL A   1      44.771  32.449  31.039  1.00  0.00     0.057 A 
ATOM     54  C   UNL A   1      45.100  33.414  30.079  1.00  0.00     0.134 A 
ATOM     55  C   UNL A   1      44.787  32.833  32.385  1.00  0.00     0.134 A 
ATOM     56  F   UNL A   1      45.125  33.098  28.776  1.00  0.00    -0.206 F 
ATOM     57  C   UNL A   1      45.435  34.717  30.447  1.00  0.00     0.040 A 
ATOM     58  C   UNL A   1      45.092  34.140  32.761  1.00  0.00     0.040 A 
ATOM     59  F   UNL A   1      44.481  31.952  33.348  1.00  0.00    -0.206 F 
ATOM     60  C   UNL A   1      45.419  35.085  31.791  1.00  0.00     0.006 A 
ENDBRANCH  36  53
ENDBRANCH  10  11
ENDBRANCH   3   5
ENDBRANCH   2   3
ENDBRANCH   1   2
BRANCH   1  61
ATOM     61  C   UNL A   1      38.126  21.349  25.348  1.00  0.00     0.274 C 
BRANCH  61  62
ATOM     62  O   UNL A   1      36.750  21.350  25.713  1.00  0.00    -0.457 OA
BRANCH  62  63
ATOM     63  C   UNL A   1      35.863  21.910  24.835  1.00  0.00     0.368 C 
ATOM     64  O   UNL A   1      36.146  22.326  23.715  1.00  0.00    -0.245 OA
BRANCH  63  65
ATOM     65  C   UNL A   1      34.456  21.899  25.461  1.00  0.00     0.195 C 
ATOM     66  C   UNL A   1      34.321  22.711  26.759  1.00  0.00     0.081 C 
ATOM     67  C   UNL A   1      33.534  22.573  24.396  1.00  0.00     0.096 C 
ATOM     68  C   UNL A   1      32.868  22.818  27.240  1.00  0.00     0.008 C 
ATOM     69  C   UNL A   1      32.069  22.731  24.827  1.00  0.00     0.061 C 
ATOM     70  C   UNL A   1      31.928  23.404  26.195  1.00  0.00     0.015 C 
BRANCH  65  71
ATOM     71  N   UNL A   1      34.028  20.502  25.688  1.00  0.00    -0.330 N 
ATOM     72  H   UNL A   1      33.190  20.561  26.267  1.00  0.00     0.347 HD
ATOM     73  H   UNL A   1      34.888  20.093  26.052  1.00  0.00     0.347 HD
BRANCH  71  74
ATOM     74  C   UNL A   1      33.701  19.552  24.607  1.00  0.00     0.183 C 
ATOM     75  C   UNL A   1      34.141  18.134  24.468  1.00  0.00     0.071 C 
ATOM     76  C   UNL A   1      32.714  18.446  24.816  1.00  0.00     0.071 C 
ENDBRANCH  71  74
ENDBRANCH  65  71
BRANCH  69  77
ATOM     77  S   UNL A   1      31.048  23.593  23.556  1.00  0.00    -0.083 SA
BRANCH  77  78
ATOM     78  C   UNL A   1      32.210  24.663  22.874  1.00  0.00     0.183 A 
ATOM     79  N   UNL A   1      32.705  25.750  23.406  1.00  0.00    -0.210 NA
ATOM     80  N   UNL A   1      32.606  24.556  21.577  1.00  0.00    -0.254 N 
ATOM     81  C   UNL A   1      33.383  26.311  22.361  1.00  0.00     0.247 A 
ATOM     82  N   UNL A   1      33.340  25.624  21.214  1.00  0.00    -0.162 NA
ATOM     83  H   UNL A   1      32.385  23.801  20.984  1.00  0.00     0.192 HD
ENDBRANCH  77  78
ENDBRANCH  69  77
ENDBRANCH  63  65
ENDBRANCH  62  63
ENDBRANCH  61  62
ENDBRANCH   1  61
TORSDOF 15
ENDMDL
MODEL 3
REMARK VINA RESULT:     -11.1      0.630      6.377
REMARK SMILES O=C(OCCOC(=O)[C@@]1([NH2+]C2CC2)CCC[C@@H](Sc2ncn[nH]2)C1)c1ccc(-c2c3nc(c(-c4c(F)cccc4F)c4ccc([nH]4)c(-c4c(F)cccc4F)c4nc(c(-c5c(F)cccc5F)c5ccc2[nH]5)C=C4)C=C3)cc1
REMARK SMILES IDX 4 1 3 2 2 3 1 4 25 5 26 6 78 7 27 8 77 9 28 10 29 11 30 12
REMARK SMILES IDX 71 13 31 14 76 15 70 16 72 17 32 18 75 19 69 20 68 21 33 23
REMARK SMILES IDX 59 24 42 25 58 26 43 27 46 28 57 29 73 30 44 31 45 32 56 34
REMARK SMILES IDX 74 35 47 36 34 37 35 38 40 39 36 40 37 41 39 42 41 43 38 44
REMARK SMILES IDX 60 45 61 46 66 47 62 48 63 49 65 50 67 51 64 52 48 53 49 54
REMARK SMILES IDX 54 55 50 56 51 57 53 58 55 59 52 60 5 61 6 62 7 63 8 64 9 65
REMARK SMILES IDX 14 66 24 67 15 68 17 69 16 70 10 71 11 74 12 75 13 76 18 77
REMARK SMILES IDX 19 78 20 79 23 80 21 81 22 82
REMARK H PARENT 72 22 46 33 10 72 10 73 23 83
REMARK Flexibility Score: inf
ROOT
ATOM      1  C   UNL A   1      35.958  21.073  25.646  1.00  0.00     0.275 C 
ENDROOT
BRANCH   1   2
ATOM      2  O   UNL A   1      37.302  20.963  25.116  1.00  0.00    -0.458 OA
BRANCH   2   3
ATOM      3  C   UNL A   1      38.532  21.004  25.686  1.00  0.00     0.338 C 
ATOM      4  O   UNL A   1      39.169  19.952  25.750  1.00  0.00    -0.246 OA
BRANCH   3   5
ATOM      5  C   UNL A   1      39.170  22.212  26.315  1.00  0.00     0.060 A 
ATOM      6  C   UNL A   1      40.300  22.215  27.127  1.00  0.00     0.016 A 
ATOM      7  C   UNL A   1      38.553  23.464  26.080  1.00  0.00     0.016 A 
ATOM      8  C   UNL A   1      40.876  23.433  27.554  1.00  0.00     0.010 A 
ATOM      9  C   UNL A   1      39.129  24.682  26.502  1.00  0.00     0.010 A 
ATOM     10  C   UNL A   1      40.340  24.685  27.192  1.00  0.00    -0.014 A 
BRANCH  10  11
ATOM     11  C   UNL A   1      41.024  25.946  27.634  1.00  0.00     0.031 A 
ATOM     12  C   UNL A   1      42.396  26.210  27.119  1.00  0.00     0.074 A 
ATOM     13  C   UNL A   1      40.447  26.898  28.403  1.00  0.00     0.049 A 
ATOM     14  N   UNL A   1      43.137  27.272  27.276  1.00  0.00    -0.248 NA
ATOM     15  C   UNL A   1      43.020  25.128  26.343  1.00  0.00     0.031 C 
ATOM     16  C   UNL A   1      39.146  26.770  29.015  1.00  0.00     0.029 A 
ATOM     17  N   UNL A   1      40.828  28.172  28.778  1.00  0.00    -0.354 N 
ATOM     18  C   UNL A   1      44.327  26.981  26.639  1.00  0.00     0.074 A 
ATOM     19  C   UNL A   1      44.195  25.662  26.056  1.00  0.00     0.031 C 
ATOM     20  C   UNL A   1      38.747  27.939  29.532  1.00  0.00     0.029 A 
ATOM     21  C   UNL A   1      39.850  28.873  29.465  1.00  0.00     0.049 A 
ATOM     22  H   UNL A   1      41.715  28.548  28.576  1.00  0.00     0.167 HD
ATOM     23  C   UNL A   1      45.452  27.726  26.600  1.00  0.00     0.037 A 
ATOM     24  C   UNL A   1      39.835  30.094  30.042  1.00  0.00     0.037 A 
ATOM     25  C   UNL A   1      45.619  28.988  27.265  1.00  0.00     0.049 A 
ATOM     26  C   UNL A   1      41.119  30.869  30.028  1.00  0.00     0.074 A 
ATOM     27  C   UNL A   1      46.753  29.774  27.331  1.00  0.00     0.029 A 
ATOM     28  N   UNL A   1      44.640  29.629  28.012  1.00  0.00    -0.354 N 
ATOM     29  N   UNL A   1      42.233  30.586  29.402  1.00  0.00    -0.248 NA
ATOM     30  C   UNL A   1      41.178  32.090  30.845  1.00  0.00     0.031 C 
ATOM     31  C   UNL A   1      46.483  30.856  28.173  1.00  0.00     0.029 A 
ATOM     32  C   UNL A   1      45.160  30.781  28.578  1.00  0.00     0.049 A 
ATOM     33  H   UNL A   1      43.715  29.311  28.124  1.00  0.00     0.167 HD
ATOM     34  C   UNL A   1      43.128  31.579  29.757  1.00  0.00     0.074 A 
ATOM     35  C   UNL A   1      42.415  32.505  30.614  1.00  0.00     0.031 C 
ATOM     36  C   UNL A   1      44.435  31.694  29.425  1.00  0.00     0.037 A 
BRANCH  23  37
ATOM     37  C   UNL A   1      46.619  27.092  25.919  1.00  0.00     0.057 A 
ATOM     38  C   UNL A   1      47.521  26.268  26.604  1.00  0.00     0.134 A 
ATOM     39  C   UNL A   1      46.888  27.390  24.578  1.00  0.00     0.134 A 
ATOM     40  F   UNL A   1      47.340  25.993  27.904  1.00  0.00    -0.206 F 
ATOM     41  C   UNL A   1      48.669  25.782  25.979  1.00  0.00     0.040 A 
ATOM     42  C   UNL A   1      48.018  26.891  23.939  1.00  0.00     0.040 A 
ATOM     43  F   UNL A   1      46.072  28.198  23.885  1.00  0.00    -0.206 F 
ATOM     44  C   UNL A   1      48.917  26.091  24.643  1.00  0.00     0.006 A 
ENDBRANCH  23  37
BRANCH  24  45
ATOM     45  C   UNL A   1      38.641  30.626  30.778  1.00  0.00     0.057 A 
ATOM     46  C   UNL A   1      38.410  30.310  32.125  1.00  0.00     0.134 A 
ATOM     47  C   UNL A   1      37.653  31.395  30.141  1.00  0.00     0.134 A 
ATOM     48  F   UNL A   1      39.285  29.549  32.799  1.00  0.00    -0.206 F 
ATOM     49  C   UNL A   1      37.247  30.711  32.795  1.00  0.00     0.040 A 
ATOM     50  C   UNL A   1      36.508  31.839  30.809  1.00  0.00     0.040 A 
ATOM     51  F   UNL A   1      37.782  31.729  28.848  1.00  0.00    -0.206 F 
ATOM     52  C   UNL A   1      36.294  31.484  32.138  1.00  0.00     0.006 A 
ENDBRANCH  24  45
BRANCH  36  53
ATOM     53  C   UNL A   1      45.175  32.870  29.979  1.00  0.00     0.057 A 
ATOM     54  C   UNL A   1      45.887  32.793  31.182  1.00  0.00     0.134 A 
ATOM     55  C   UNL A   1      45.221  34.075  29.267  1.00  0.00     0.134 A 
ATOM     56  F   UNL A   1      45.861  31.673  31.919  1.00  0.00    -0.206 F 
ATOM     57  C   UNL A   1      46.621  33.879  31.660  1.00  0.00     0.040 A 
ATOM     58  C   UNL A   1      45.973  35.156  29.722  1.00  0.00     0.040 A 
ATOM     59  F   UNL A   1      44.558  34.207  28.109  1.00  0.00    -0.206 F 
ATOM     60  C   UNL A   1      46.674  35.060  30.922  1.00  0.00     0.006 A 
ENDBRANCH  36  53
ENDBRANCH  10  11
ENDBRANCH   3   5
ENDBRANCH   2   3
ENDBRANCH   1   2
BRANCH   1  61
ATOM     61  C   UNL A   1      34.956  21.630  24.641  1.00  0.00     0.274 C 
BRANCH  61  62
ATOM     62  O   UNL A   1      35.241  23.009  24.441  1.00  0.00    -0.457 OA
BRANCH  62  63
ATOM     63  C   UNL A   1      34.476  23.688  23.533  1.00  0.00     0.368 C 
ATOM     64  O   UNL A   1      34.404  23.428  22.336  1.00  0.00    -0.245 OA
BRANCH  63  65
ATOM     65  C   UNL A   1      33.697  24.801  24.259  1.00  0.00     0.195 C 
ATOM     66  C   UNL A   1      34.364  25.327  25.539  1.00  0.00     0.081 C 
ATOM     67  C   UNL A   1      33.645  25.987  23.244  1.00  0.00     0.096 C 
ATOM     68  C   UNL A   1      33.645  26.551  26.121  1.00  0.00     0.008 C 
ATOM     69  C   UNL A   1      32.956  27.253  23.775  1.00  0.00     0.061 C 
ATOM     70  C   UNL A   1      33.513  27.700  25.130  1.00  0.00     0.015 C 
BRANCH  65  71
ATOM     71  N   UNL A   1      32.326  24.330  24.557  1.00  0.00    -0.330 N 
ATOM     72  H   UNL A   1      32.069  23.722  23.780  1.00  0.00     0.347 HD
ATOM     73  H   UNL A   1      31.847  25.217  24.710  1.00  0.00     0.347 HD
BRANCH  71  74
ATOM     74  C   UNL A   1      31.953  23.595  25.781  1.00  0.00     0.183 C 
ATOM     75  C   UNL A   1      30.660  23.646  26.522  1.00  0.00     0.071 C 
ATOM     76  C   UNL A   1      31.023  22.423  25.730  1.00  0.00     0.071 C 
ENDBRANCH  71  74
ENDBRANCH  65  71
BRANCH  69  77
ATOM     77  S   UNL A   1      32.987  28.636  22.556  1.00  0.00    -0.083 SA
BRANCH  77  78
ATOM     78  C   UNL A   1      31.319  29.055  22.495  1.00  0.00     0.183 A 
ATOM     79  N   UNL A   1      30.322  28.454  23.090  1.00  0.00    -0.210 NA
ATOM     80  N   UNL A   1      30.850  29.995  21.632  1.00  0.00    -0.254 N 
ATOM     81  C   UNL A   1      29.233  29.049  22.519  1.00  0.00     0.247 A 
ATOM     82  N   UNL A   1      29.503  29.989  21.608  1.00  0.00    -0.162 NA
ATOM     83  H   UNL A   1      31.416  30.598  21.097  1.00  0.00     0.192 HD
ENDBRANCH  77  78
ENDBRANCH  69  77
ENDBRANCH  63  65
ENDBRANCH  62  63
ENDBRANCH  61  62
ENDBRANCH   1  61
TORSDOF 15
ENDMDL
