MODEL 1
REMARK VINA RESULT:     -12.1      0.000      0.000
REMARK SMILES CC(C)CCc1cc2c(cc1Cl)C=C(C(=O)OCCOC(=O)c1ccc(-c3c4nc(c(-c5c(F)cccc5F)c5ccc([nH]5)c(-c5c(F)cccc5F)c5nc(c(-c6c(F)cccc6F)c6ccc3[nH]6)C=C5)C=C4)cc1)[C@@H](C(F)(F)F)O2
REMARK SMILES IDX 18 1 17 2 15 3 16 4 14 5 6 6 7 7 11 8 8 9 10 10 12 11 9 12
REMARK SMILES IDX 82 13 13 14 77 15 5 16 4 17 2 18 1 19 3 20 78 21 79 22 80 23
REMARK SMILES IDX 81 24 19 25 20 26 21 27 22 28 23 29 24 30 76 31 25 32 75 33
REMARK SMILES IDX 26 34 27 35 28 36 69 37 29 38 74 39 68 40 70 41 30 42 73 43
REMARK SMILES IDX 67 44 66 45 31 47 57 48 40 49 56 50 41 51 44 52 55 53 71 54
REMARK SMILES IDX 42 55 43 56 54 58 72 59 45 60 32 61 33 62 38 63 34 64 35 65
REMARK SMILES IDX 37 66 39 67 36 68 58 69 59 70 64 71 60 72 61 73 63 74 65 75
REMARK SMILES IDX 62 76 46 77 47 78 52 79 48 80 49 81 51 82 53 83 50 84
REMARK H PARENT 70 46 44 57
REMARK Flexibility Score: inf
ROOT
ATOM      1  C   UNL A   1      35.147  21.416  25.902  1.00  0.00     0.275 C 
ENDROOT
BRANCH   1   2
ATOM      2  O   UNL A   1      34.617  22.663  25.401  1.00  0.00    -0.459 OA
BRANCH   2   3
ATOM      3  C   UNL A   1      33.633  23.227  26.140  1.00  0.00     0.338 C 
ATOM      4  O   UNL A   1      33.271  22.884  27.256  1.00  0.00    -0.246 OA
BRANCH   3   5
ATOM      5  C   UNL A   1      33.074  24.401  25.442  1.00  0.00     0.087 C 
ATOM      6  C   UNL A   1      31.110  28.922  24.425  1.00  0.00    -0.026 A 
ATOM      7  C   UNL A   1      31.186  27.700  23.721  1.00  0.00     0.052 A 
ATOM      8  C   UNL A   1      31.794  29.035  25.644  1.00  0.00     0.045 A 
ATOM      9  C   UNL A   1      31.857  26.599  24.254  1.00  0.00     0.128 A 
ATOM     10  C   UNL A   1      32.446  27.931  26.186  1.00  0.00     0.032 A 
ATOM     11  Cl  UNL A   1      31.872  30.501  26.552  1.00  0.00    -0.084 Cl
ATOM     12  C   UNL A   1      32.446  26.710  25.505  1.00  0.00     0.019 A 
ATOM     13  O   UNL A   1      31.884  25.455  23.507  1.00  0.00    -0.475 OA
ATOM     14  C   UNL A   1      33.027  25.546  26.128  1.00  0.00     0.027 C 
ATOM     15  C   UNL A   1      32.486  24.247  24.068  1.00  0.00     0.316 C 
BRANCH   6  16
ATOM     16  C   UNL A   1      30.243  30.030  23.866  1.00  0.00     0.037 C 
BRANCH  16  17
ATOM     17  C   UNL A   1      29.474  29.609  22.600  1.00  0.00     0.008 C 
BRANCH  17  18
ATOM     18  C   UNL A   1      27.953  29.873  22.622  1.00  0.00    -0.017 C 
ATOM     19  C   UNL A   1      27.159  28.674  23.140  1.00  0.00     0.007 C 
ATOM     20  C   UNL A   1      27.650  31.091  23.499  1.00  0.00     0.007 C 
ENDBRANCH  17  18
ENDBRANCH  16  17
ENDBRANCH   6  16
BRANCH  15  21
ATOM     21  C   UNL A   1      31.424  23.135  24.047  1.00  0.00     0.430 C 
ATOM     22  F   UNL A   1      31.985  21.920  23.832  1.00  0.00    -0.167 F 
ATOM     23  F   UNL A   1      30.763  23.052  25.226  1.00  0.00    -0.167 F 
ATOM     24  F   UNL A   1      30.501  23.333  23.079  1.00  0.00    -0.167 F 
ENDBRANCH  15  21
ENDBRANCH   3   5
ENDBRANCH   2   3
ENDBRANCH   1   2
BRANCH   1  25
ATOM     25  C   UNL A   1      36.255  20.877  24.996  1.00  0.00     0.275 C 
BRANCH  25  26
ATOM     26  O   UNL A   1      37.385  21.768  25.009  1.00  0.00    -0.458 OA
BRANCH  26  27
ATOM     27  C   UNL A   1      38.451  21.347  25.724  1.00  0.00     0.338 C 
ATOM     28  O   UNL A   1      38.947  20.234  25.741  1.00  0.00    -0.246 OA
BRANCH  27  29
ATOM     29  C   UNL A   1      39.048  22.487  26.436  1.00  0.00     0.060 A 
ATOM     30  C   UNL A   1      40.208  22.357  27.187  1.00  0.00     0.016 A 
ATOM     31  C   UNL A   1      38.531  23.749  26.178  1.00  0.00     0.016 A 
ATOM     32  C   UNL A   1      40.835  23.512  27.673  1.00  0.00     0.010 A 
ATOM     33  C   UNL A   1      39.249  24.893  26.509  1.00  0.00     0.010 A 
ATOM     34  C   UNL A   1      40.400  24.802  27.295  1.00  0.00    -0.014 A 
BRANCH  34  35
ATOM     35  C   UNL A   1      41.149  26.029  27.707  1.00  0.00     0.031 A 
ATOM     36  C   UNL A   1      42.563  26.300  27.233  1.00  0.00     0.074 A 
ATOM     37  C   UNL A   1      40.568  26.907  28.553  1.00  0.00     0.049 A 
ATOM     38  N   UNL A   1      43.320  27.350  27.449  1.00  0.00    -0.248 NA
ATOM     39  C   UNL A   1      43.237  25.242  26.463  1.00  0.00     0.031 C 
ATOM     40  C   UNL A   1      39.271  26.723  29.210  1.00  0.00     0.029 A 
ATOM     41  N   UNL A   1      40.980  28.143  28.989  1.00  0.00    -0.354 N 
ATOM     42  C   UNL A   1      44.551  27.064  26.865  1.00  0.00     0.074 A 
ATOM     43  C   UNL A   1      44.471  25.711  26.365  1.00  0.00     0.031 C 
ATOM     44  C   UNL A   1      38.952  27.840  29.881  1.00  0.00     0.029 A 
ATOM     45  C   UNL A   1      40.035  28.804  29.740  1.00  0.00     0.049 A 
ATOM     46  H   UNL A   1      41.867  28.520  28.784  1.00  0.00     0.167 HD
ATOM     47  C   UNL A   1      45.635  27.862  26.709  1.00  0.00     0.037 A 
ATOM     48  C   UNL A   1      40.029  30.056  30.235  1.00  0.00     0.037 A 
ATOM     49  C   UNL A   1      45.703  29.229  27.152  1.00  0.00     0.049 A 
ATOM     50  C   UNL A   1      41.208  30.953  29.984  1.00  0.00     0.074 A 
ATOM     51  C   UNL A   1      46.713  30.154  26.954  1.00  0.00     0.029 A 
ATOM     52  N   UNL A   1      44.712  29.869  27.879  1.00  0.00    -0.354 N 
ATOM     53  N   UNL A   1      42.313  30.704  29.324  1.00  0.00    -0.248 NA
ATOM     54  C   UNL A   1      41.133  32.311  30.542  1.00  0.00     0.031 C 
ATOM     55  C   UNL A   1      46.347  31.346  27.590  1.00  0.00     0.029 A 
ATOM     56  C   UNL A   1      45.092  31.174  28.149  1.00  0.00     0.049 A 
ATOM     57  H   UNL A   1      43.863  29.458  28.161  1.00  0.00     0.167 HD
ATOM     58  C   UNL A   1      43.057  31.875  29.375  1.00  0.00     0.074 A 
ATOM     59  C   UNL A   1      42.261  32.844  30.100  1.00  0.00     0.031 C 
ATOM     60  C   UNL A   1      44.291  32.124  28.876  1.00  0.00     0.037 A 
BRANCH  47  61
ATOM     61  C   UNL A   1      46.825  27.285  25.991  1.00  0.00     0.057 A 
ATOM     62  C   UNL A   1      46.959  27.404  24.603  1.00  0.00     0.134 A 
ATOM     63  C   UNL A   1      47.832  26.588  26.676  1.00  0.00     0.134 A 
ATOM     64  F   UNL A   1      46.029  28.045  23.879  1.00  0.00    -0.206 F 
ATOM     65  C   UNL A   1      48.053  26.860  23.924  1.00  0.00     0.040 A 
ATOM     66  C   UNL A   1      48.945  26.067  26.013  1.00  0.00     0.040 A 
ATOM     67  F   UNL A   1      47.771  26.442  28.008  1.00  0.00    -0.206 F 
ATOM     68  C   UNL A   1      49.054  26.198  24.631  1.00  0.00     0.006 A 
ENDBRANCH  47  61
BRANCH  48  69
ATOM     69  C   UNL A   1      38.840  30.566  30.967  1.00  0.00     0.057 A 
ATOM     70  C   UNL A   1      38.695  30.392  32.347  1.00  0.00     0.134 A 
ATOM     71  C   UNL A   1      37.829  31.265  30.295  1.00  0.00     0.134 A 
ATOM     72  F   UNL A   1      39.622  29.723  33.046  1.00  0.00    -0.206 F 
ATOM     73  C   UNL A   1      37.589  30.895  33.034  1.00  0.00     0.040 A 
ATOM     74  C   UNL A   1      36.731  31.797  30.973  1.00  0.00     0.040 A 
ATOM     75  F   UNL A   1      37.920  31.479  28.974  1.00  0.00    -0.206 F 
ATOM     76  C   UNL A   1      36.608  31.609  32.348  1.00  0.00     0.006 A 
ENDBRANCH  48  69
BRANCH  60  77
ATOM     77  C   UNL A   1      44.842  33.503  29.089  1.00  0.00     0.057 A 
ATOM     78  C   UNL A   1      44.586  34.526  28.168  1.00  0.00     0.134 A 
ATOM     79  C   UNL A   1      45.625  33.818  30.207  1.00  0.00     0.134 A 
ATOM     80  F   UNL A   1      43.850  34.289  27.072  1.00  0.00    -0.206 F 
ATOM     81  C   UNL A   1      45.082  35.817  28.356  1.00  0.00     0.040 A 
ATOM     82  C   UNL A   1      46.104  35.111  30.420  1.00  0.00     0.040 A 
ATOM     83  F   UNL A   1      45.895  32.886  31.134  1.00  0.00    -0.206 F 
ATOM     84  C   UNL A   1      45.836  36.115  29.491  1.00  0.00     0.006 A 
ENDBRANCH  60  77
ENDBRANCH  34  35
ENDBRANCH  27  29
ENDBRANCH  26  27
ENDBRANCH  25  26
ENDBRANCH   1  25
TORSDOF 15
ENDMDL
MODEL 2
REMARK VINA RESULT:     -12.0      3.933      8.999
REMARK SMILES CC(C)CCc1cc2c(cc1Cl)C=C(C(=O)OCCOC(=O)c1ccc(-c3c4nc(c(-c5c(F)cccc5F)c5ccc([nH]5)c(-c5c(F)cccc5F)c5nc(c(-c6c(F)cccc6F)c6ccc3[nH]6)C=C5)C=C4)cc1)[C@@H](C(F)(F)F)O2
REMARK SMILES IDX 18 1 17 2 15 3 16 4 14 5 6 6 7 7 11 8 8 9 10 10 12 11 9 12
REMARK SMILES IDX 82 13 13 14 77 15 5 16 4 17 2 18 1 19 3 20 78 21 79 22 80 23
REMARK SMILES IDX 81 24 19 25 20 26 21 27 22 28 23 29 24 30 76 31 25 32 75 33
REMARK SMILES IDX 26 34 27 35 28 36 69 37 29 38 74 39 68 40 70 41 30 42 73 43
REMARK SMILES IDX 67 44 66 45 31 47 57 48 40 49 56 50 41 51 44 52 55 53 71 54
REMARK SMILES IDX 42 55 43 56 54 58 72 59 45 60 32 61 33 62 38 63 34 64 35 65
REMARK SMILES IDX 37 66 39 67 36 68 58 69 59 70 64 71 60 72 61 73 63 74 65 75
REMARK SMILES IDX 62 76 46 77 47 78 52 79 48 80 49 81 51 82 53 83 50 84
REMARK H PARENT 70 46 44 57
REMARK Flexibility Score: inf
ROOT
ATOM      1  C   UNL A   1      32.562  29.318  24.642  1.00  0.00     0.275 C 
ENDROOT
BRANCH   1   2
ATOM      2  O   UNL A   1      32.823  27.919  24.898  1.00  0.00    -0.459 OA
BRANCH   2   3
ATOM      3  C   UNL A   1      33.221  27.188  23.832  1.00  0.00     0.338 C 
ATOM      4  O   UNL A   1      33.608  27.618  22.755  1.00  0.00    -0.246 OA
BRANCH   3   5
ATOM      5  C   UNL A   1      33.202  25.749  24.159  1.00  0.00     0.087 C 
ATOM      6  C   UNL A   1      34.477  20.909  24.700  1.00  0.00    -0.026 A 
ATOM      7  C   UNL A   1      33.252  21.613  24.708  1.00  0.00     0.052 A 
ATOM      8  C   UNL A   1      35.669  21.645  24.640  1.00  0.00     0.045 A 
ATOM      9  C   UNL A   1      33.214  23.001  24.578  1.00  0.00     0.128 A 
ATOM     10  C   UNL A   1      35.631  23.029  24.489  1.00  0.00     0.032 A 
ATOM     11  Cl  UNL A   1      37.233  20.920  24.729  1.00  0.00    -0.084 Cl
ATOM     12  C   UNL A   1      34.405  23.696  24.426  1.00  0.00     0.019 A 
ATOM     13  O   UNL A   1      31.987  23.603  24.597  1.00  0.00    -0.475 OA
ATOM     14  C   UNL A   1      34.377  25.113  24.158  1.00  0.00     0.027 C 
ATOM     15  C   UNL A   1      31.891  25.042  24.362  1.00  0.00     0.316 C 
BRANCH   6  16
ATOM     16  C   UNL A   1      34.446  19.396  24.693  1.00  0.00     0.037 C 
BRANCH  16  17
ATOM     17  C   UNL A   1      33.016  18.825  24.717  1.00  0.00     0.008 C 
BRANCH  17  18
ATOM     18  C   UNL A   1      32.733  17.687  23.714  1.00  0.00    -0.017 C 
ATOM     19  C   UNL A   1      32.387  18.210  22.319  1.00  0.00     0.007 C 
ATOM     20  C   UNL A   1      33.953  16.766  23.614  1.00  0.00     0.007 C 
ENDBRANCH  17  18
ENDBRANCH  16  17
ENDBRANCH   6  16
BRANCH  15  21
ATOM     21  C   UNL A   1      30.956  25.266  23.162  1.00  0.00     0.430 C 
ATOM     22  F   UNL A   1      29.988  24.320  23.106  1.00  0.00    -0.167 F 
ATOM     23  F   UNL A   1      30.325  26.461  23.235  1.00  0.00    -0.167 F 
ATOM     24  F   UNL A   1      31.625  25.233  21.986  1.00  0.00    -0.167 F 
ENDBRANCH  15  21
ENDBRANCH   3   5
ENDBRANCH   2   3
ENDBRANCH   1   2
BRANCH   1  25
ATOM     25  C   UNL A   1      31.643  29.917  25.708  1.00  0.00     0.275 C 
BRANCH  25  26
ATOM     26  O   UNL A   1      32.355  30.068  26.949  1.00  0.00    -0.458 OA
BRANCH  26  27
ATOM     27  C   UNL A   1      32.939  31.271  27.144  1.00  0.00     0.338 C 
ATOM     28  O   UNL A   1      32.415  32.371  27.098  1.00  0.00    -0.246 OA
BRANCH  27  29
ATOM     29  C   UNL A   1      34.337  31.081  27.555  1.00  0.00     0.060 A 
ATOM     30  C   UNL A   1      35.138  32.144  27.948  1.00  0.00     0.016 A 
ATOM     31  C   UNL A   1      34.784  29.778  27.731  1.00  0.00     0.016 A 
ATOM     32  C   UNL A   1      36.391  31.877  28.516  1.00  0.00     0.010 A 
ATOM     33  C   UNL A   1      35.944  29.516  28.453  1.00  0.00     0.010 A 
ATOM     34  C   UNL A   1      36.791  30.560  28.832  1.00  0.00    -0.014 A 
BRANCH  34  35
ATOM     35  C   UNL A   1      38.070  30.287  29.558  1.00  0.00     0.031 A 
ATOM     36  C   UNL A   1      38.300  30.760  30.979  1.00  0.00     0.074 A 
ATOM     37  C   UNL A   1      39.066  29.631  28.922  1.00  0.00     0.049 A 
ATOM     38  N   UNL A   1      39.328  30.545  31.766  1.00  0.00    -0.248 NA
ATOM     39  C   UNL A   1      37.275  31.627  31.582  1.00  0.00     0.031 C 
ATOM     40  C   UNL A   1      39.057  29.233  27.512  1.00  0.00     0.029 A 
ATOM     41  N   UNL A   1      40.270  29.159  29.385  1.00  0.00    -0.354 N 
ATOM     42  C   UNL A   1      39.079  31.264  32.931  1.00  0.00     0.074 A 
ATOM     43  C   UNL A   1      37.850  31.993  32.716  1.00  0.00     0.031 C 
ATOM     44  C   UNL A   1      40.149  28.498  27.252  1.00  0.00     0.029 A 
ATOM     45  C   UNL A   1      40.957  28.405  28.461  1.00  0.00     0.049 A 
ATOM     46  H   UNL A   1      40.611  29.343  30.291  1.00  0.00     0.167 HD
ATOM     47  C   UNL A   1      39.773  31.285  34.095  1.00  0.00     0.037 A 
ATOM     48  C   UNL A   1      42.095  27.696  28.580  1.00  0.00     0.037 A 
ATOM     49  C   UNL A   1      40.966  30.517  34.338  1.00  0.00     0.049 A 
ATOM     50  C   UNL A   1      42.809  27.667  29.902  1.00  0.00     0.074 A 
ATOM     51  C   UNL A   1      41.688  30.388  35.512  1.00  0.00     0.029 A 
ATOM     52  N   UNL A   1      41.609  29.742  33.386  1.00  0.00    -0.354 N 
ATOM     53  N   UNL A   1      42.491  28.257  31.029  1.00  0.00    -0.248 NA
ATOM     54  C   UNL A   1      44.038  26.864  29.969  1.00  0.00     0.031 C 
ATOM     55  C   UNL A   1      42.787  29.559  35.261  1.00  0.00     0.029 A 
ATOM     56  C   UNL A   1      42.726  29.141  33.942  1.00  0.00     0.049 A 
ATOM     57  H   UNL A   1      41.314  29.634  32.452  1.00  0.00     0.167 HD
ATOM     58  C   UNL A   1      43.470  27.886  31.940  1.00  0.00     0.074 A 
ATOM     59  C   UNL A   1      44.372  26.992  31.244  1.00  0.00     0.031 C 
ATOM     60  C   UNL A   1      43.617  28.259  33.234  1.00  0.00     0.037 A 
BRANCH  47  61
ATOM     61  C   UNL A   1      39.233  32.137  35.211  1.00  0.00     0.057 A 
ATOM     62  C   UNL A   1      38.367  31.604  36.173  1.00  0.00     0.134 A 
ATOM     63  C   UNL A   1      39.555  33.498  35.320  1.00  0.00     0.134 A 
ATOM     64  F   UNL A   1      38.004  30.313  36.124  1.00  0.00    -0.206 F 
ATOM     65  C   UNL A   1      37.848  32.389  37.206  1.00  0.00     0.040 A 
ATOM     66  C   UNL A   1      39.069  34.286  36.366  1.00  0.00     0.040 A 
ATOM     67  F   UNL A   1      40.386  34.073  34.438  1.00  0.00    -0.206 F 
ATOM     68  C   UNL A   1      38.208  33.732  37.309  1.00  0.00     0.006 A 
ENDBRANCH  47  61
BRANCH  48  69
ATOM     69  C   UNL A   1      42.603  26.897  27.435  1.00  0.00     0.057 A 
ATOM     70  C   UNL A   1      42.152  25.596  27.187  1.00  0.00     0.134 A 
ATOM     71  C   UNL A   1      43.541  27.434  26.545  1.00  0.00     0.134 A 
ATOM     72  F   UNL A   1      41.261  25.021  28.008  1.00  0.00    -0.206 F 
ATOM     73  C   UNL A   1      42.613  24.858  26.096  1.00  0.00     0.040 A 
ATOM     74  C   UNL A   1      43.991  26.718  25.434  1.00  0.00     0.040 A 
ATOM     75  F   UNL A   1      43.999  28.683  26.719  1.00  0.00    -0.206 F 
ATOM     76  C   UNL A   1      43.527  25.424  25.209  1.00  0.00     0.006 A 
ENDBRANCH  48  69
BRANCH  60  77
ATOM     77  C   UNL A   1      44.788  27.685  33.976  1.00  0.00     0.057 A 
ATOM     78  C   UNL A   1      46.025  28.341  33.977  1.00  0.00     0.134 A 
ATOM     79  C   UNL A   1      44.690  26.484  34.689  1.00  0.00     0.134 A 
ATOM     80  F   UNL A   1      46.188  29.491  33.307  1.00  0.00    -0.206 F 
ATOM     81  C   UNL A   1      47.122  27.826  34.670  1.00  0.00     0.040 A 
ATOM     82  C   UNL A   1      45.771  25.973  35.408  1.00  0.00     0.040 A 
ATOM     83  F   UNL A   1      43.528  25.814  34.739  1.00  0.00    -0.206 F 
ATOM     84  C   UNL A   1      46.993  26.643  35.397  1.00  0.00     0.006 A 
ENDBRANCH  60  77
ENDBRANCH  34  35
ENDBRANCH  27  29
ENDBRANCH  26  27
ENDBRANCH  25  26
ENDBRANCH   1  25
TORSDOF 15
ENDMDL
MODEL 3
REMARK VINA RESULT:     -11.8      0.611      1.741
REMARK SMILES CC(C)CCc1cc2c(cc1Cl)C=C(C(=O)OCCOC(=O)c1ccc(-c3c4nc(c(-c5c(F)cccc5F)c5ccc([nH]5)c(-c5c(F)cccc5F)c5nc(c(-c6c(F)cccc6F)c6ccc3[nH]6)C=C5)C=C4)cc1)[C@@H](C(F)(F)F)O2
REMARK SMILES IDX 18 1 17 2 15 3 16 4 14 5 6 6 7 7 11 8 8 9 10 10 12 11 9 12
REMARK SMILES IDX 82 13 13 14 77 15 5 16 4 17 2 18 1 19 3 20 78 21 79 22 80 23
REMARK SMILES IDX 81 24 19 25 20 26 21 27 22 28 23 29 24 30 76 31 25 32 75 33
REMARK SMILES IDX 26 34 27 35 28 36 69 37 29 38 74 39 68 40 70 41 30 42 73 43
REMARK SMILES IDX 67 44 66 45 31 47 57 48 40 49 56 50 41 51 44 52 55 53 71 54
REMARK SMILES IDX 42 55 43 56 54 58 72 59 45 60 32 61 33 62 38 63 34 64 35 65
REMARK SMILES IDX 37 66 39 67 36 68 58 69 59 70 64 71 60 72 61 73 63 74 65 75
REMARK SMILES IDX 62 76 46 77 47 78 52 79 48 80 49 81 51 82 53 83 50 84
REMARK H PARENT 70 46 44 57
REMARK Flexibility Score: inf
ROOT
ATOM      1  C   UNL A   1      36.164  22.796  23.912  1.00  0.00     0.275 C 
ENDROOT
BRANCH   1   2
ATOM      2  O   UNL A   1      34.767  22.480  24.103  1.00  0.00    -0.459 OA
BRANCH   2   3
ATOM      3  C   UNL A   1      34.151  23.120  25.124  1.00  0.00     0.338 C 
ATOM      4  O   UNL A   1      34.208  22.827  26.310  1.00  0.00    -0.246 OA
BRANCH   3   5
ATOM      5  C   UNL A   1      33.428  24.306  24.627  1.00  0.00     0.087 C 
ATOM      6  C   UNL A   1      31.205  28.810  24.293  1.00  0.00    -0.026 A 
ATOM      7  C   UNL A   1      31.143  27.622  23.532  1.00  0.00     0.052 A 
ATOM      8  C   UNL A   1      32.143  28.889  25.333  1.00  0.00     0.045 A 
ATOM      9  C   UNL A   1      31.936  26.519  23.847  1.00  0.00     0.128 A 
ATOM     10  C   UNL A   1      32.919  27.781  25.662  1.00  0.00     0.032 A 
ATOM     11  Cl  UNL A   1      32.396  30.316  26.271  1.00  0.00    -0.084 Cl
ATOM     12  C   UNL A   1      32.789  26.592  24.940  1.00  0.00     0.019 A 
ATOM     13  O   UNL A   1      31.816  25.409  23.059  1.00  0.00    -0.475 OA
ATOM     14  C   UNL A   1      33.516  25.419  25.360  1.00  0.00     0.027 C 
ATOM     15  C   UNL A   1      32.550  24.196  23.412  1.00  0.00     0.316 C 
BRANCH   6  16
ATOM     16  C   UNL A   1      30.216  29.916  23.996  1.00  0.00     0.037 C 
BRANCH  16  17
ATOM     17  C   UNL A   1      29.508  29.739  22.640  1.00  0.00     0.008 C 
BRANCH  17  18
ATOM     18  C   UNL A   1      27.982  29.975  22.645  1.00  0.00    -0.017 C 
ATOM     19  C   UNL A   1      27.204  28.757  23.143  1.00  0.00     0.007 C 
ATOM     20  C   UNL A   1      27.646  31.179  23.529  1.00  0.00     0.007 C 
ENDBRANCH  17  18
ENDBRANCH  16  17
ENDBRANCH   6  16
BRANCH  15  21
ATOM     21  C   UNL A   1      31.531  23.055  23.575  1.00  0.00     0.430 C 
ATOM     22  F   UNL A   1      31.277  22.802  24.881  1.00  0.00    -0.167 F 
ATOM     23  F   UNL A   1      30.342  23.361  23.002  1.00  0.00    -0.167 F 
ATOM     24  F   UNL A   1      31.965  21.904  23.014  1.00  0.00    -0.167 F 
ENDBRANCH  15  21
ENDBRANCH   3   5
ENDBRANCH   2   3
ENDBRANCH   1   2
BRANCH   1  25
ATOM     25  C   UNL A   1      37.063  21.639  24.353  1.00  0.00     0.275 C 
BRANCH  25  26
ATOM     26  O   UNL A   1      37.445  21.806  25.730  1.00  0.00    -0.458 OA
BRANCH  26  27
ATOM     27  C   UNL A   1      38.747  21.569  26.007  1.00  0.00     0.338 C 
ATOM     28  O   UNL A   1      39.410  20.594  25.699  1.00  0.00    -0.246 OA
BRANCH  27  29
ATOM     29  C   UNL A   1      39.334  22.747  26.662  1.00  0.00     0.060 A 
ATOM     30  C   UNL A   1      40.414  22.644  27.527  1.00  0.00     0.016 A 
ATOM     31  C   UNL A   1      38.904  23.999  26.241  1.00  0.00     0.016 A 
ATOM     32  C   UNL A   1      41.052  23.813  27.961  1.00  0.00     0.010 A 
ATOM     33  C   UNL A   1      39.646  25.139  26.531  1.00  0.00     0.010 A 
ATOM     34  C   UNL A   1      40.716  25.077  27.426  1.00  0.00    -0.014 A 
BRANCH  34  35
ATOM     35  C   UNL A   1      41.485  26.307  27.791  1.00  0.00     0.031 A 
ATOM     36  C   UNL A   1      42.890  26.554  27.278  1.00  0.00     0.074 A 
ATOM     37  C   UNL A   1      40.932  27.210  28.629  1.00  0.00     0.049 A 
ATOM     38  N   UNL A   1      43.661  27.602  27.450  1.00  0.00    -0.248 NA
ATOM     39  C   UNL A   1      43.536  25.472  26.517  1.00  0.00     0.031 C 
ATOM     40  C   UNL A   1      39.649  27.053  29.320  1.00  0.00     0.029 A 
ATOM     41  N   UNL A   1      41.365  28.453  29.025  1.00  0.00    -0.354 N 
ATOM     42  C   UNL A   1      44.875  27.291  26.845  1.00  0.00     0.074 A 
ATOM     43  C   UNL A   1      44.772  25.928  26.379  1.00  0.00     0.031 C 
ATOM     44  C   UNL A   1      39.355  28.189  29.972  1.00  0.00     0.029 A 
ATOM     45  C   UNL A   1      40.444  29.140  29.782  1.00  0.00     0.049 A 
ATOM     46  H   UNL A   1      42.249  28.817  28.790  1.00  0.00     0.167 HD
ATOM     47  C   UNL A   1      45.962  28.075  26.644  1.00  0.00     0.037 A 
ATOM     48  C   UNL A   1      40.460  30.403  30.247  1.00  0.00     0.037 A 
ATOM     49  C   UNL A   1      46.052  29.452  27.052  1.00  0.00     0.049 A 
ATOM     50  C   UNL A   1      41.640  31.283  29.948  1.00  0.00     0.074 A 
ATOM     51  C   UNL A   1      47.065  30.363  26.809  1.00  0.00     0.029 A 
ATOM     52  N   UNL A   1      45.084  30.118  27.787  1.00  0.00    -0.354 N 
ATOM     53  N   UNL A   1      42.727  31.009  29.268  1.00  0.00    -0.248 NA
ATOM     54  C   UNL A   1      41.590  32.654  30.474  1.00  0.00     0.031 C 
ATOM     55  C   UNL A   1      46.724  31.573  27.425  1.00  0.00     0.029 A 
ATOM     56  C   UNL A   1      45.481  31.425  28.016  1.00  0.00     0.049 A 
ATOM     57  H   UNL A   1      44.238  29.721  28.098  1.00  0.00     0.167 HD
ATOM     58  C   UNL A   1      43.481  32.173  29.274  1.00  0.00     0.074 A 
ATOM     59  C   UNL A   1      42.712  33.167  29.993  1.00  0.00     0.031 C 
ATOM     60  C   UNL A   1      44.706  32.400  28.740  1.00  0.00     0.037 A 
BRANCH  47  61
ATOM     61  C   UNL A   1      47.129  27.471  25.912  1.00  0.00     0.057 A 
ATOM     62  C   UNL A   1      48.166  26.834  26.605  1.00  0.00     0.134 A 
ATOM     63  C   UNL A   1      47.238  27.540  24.515  1.00  0.00     0.134 A 
ATOM     64  F   UNL A   1      48.137  26.742  27.943  1.00  0.00    -0.206 F 
ATOM     65  C   UNL A   1      49.262  26.282  25.936  1.00  0.00     0.040 A 
ATOM     66  C   UNL A   1      48.312  26.964  23.833  1.00  0.00     0.040 A 
ATOM     67  F   UNL A   1      46.277  28.128  23.787  1.00  0.00    -0.206 F 
ATOM     68  C   UNL A   1      49.331  26.338  24.545  1.00  0.00     0.006 A 
ENDBRANCH  47  61
BRANCH  48  69
ATOM     69  C   UNL A   1      39.293  30.941  30.994  1.00  0.00     0.057 A 
ATOM     70  C   UNL A   1      38.221  31.557  30.340  1.00  0.00     0.134 A 
ATOM     71  C   UNL A   1      39.218  30.826  32.388  1.00  0.00     0.134 A 
ATOM     72  F   UNL A   1      38.236  31.707  29.008  1.00  0.00    -0.206 F 
ATOM     73  C   UNL A   1      37.115  32.038  31.043  1.00  0.00     0.040 A 
ATOM     74  C   UNL A   1      38.106  31.278  33.101  1.00  0.00     0.040 A 
ATOM     75  F   UNL A   1      40.206  30.230  33.071  1.00  0.00    -0.206 F 
ATOM     76  C   UNL A   1      37.051  31.889  32.427  1.00  0.00     0.006 A 
ENDBRANCH  48  69
BRANCH  60  77
ATOM     77  C   UNL A   1      45.273  33.778  28.906  1.00  0.00     0.057 A 
ATOM     78  C   UNL A   1      46.072  34.095  30.012  1.00  0.00     0.134 A 
ATOM     79  C   UNL A   1      45.030  34.792  27.970  1.00  0.00     0.134 A 
ATOM     80  F   UNL A   1      46.336  33.172  30.949  1.00  0.00    -0.206 F 
ATOM     81  C   UNL A   1      46.615  35.370  30.177  1.00  0.00     0.040 A 
ATOM     82  C   UNL A   1      45.590  36.062  28.110  1.00  0.00     0.040 A 
ATOM     83  F   UNL A   1      44.285  34.549  26.882  1.00  0.00    -0.206 F 
ATOM     84  C   UNL A   1      46.383  36.355  29.219  1.00  0.00     0.006 A 
ENDBRANCH  60  77
ENDBRANCH  34  35
ENDBRANCH  27  29
ENDBRANCH  26  27
ENDBRANCH  25  26
ENDBRANCH   1  25
TORSDOF 15
ENDMDL
