MODEL 1
REMARK VINA RESULT:     -11.4      0.000      0.000
REMARK SMILES C#CCN(CC(=O)OCCOC(=O)c1ccc(-c2c3nc(c(-c4c(F)cccc4F)c4ccc([nH]4)c(-c4c(F)cccc4F)c4nc(c(-c5c(F)cccc5F)c5ccc2[nH]5)C=C4)C=C3)cc1)C(=O)N1CC[N@H+]2CCC[C@H]2C1
REMARK SMILES IDX 9 1 8 2 6 3 7 4 5 5 4 6 3 7 2 8 1 9 68 10 69 11 70 12 71 13
REMARK SMILES IDX 78 14 72 15 77 16 73 17 76 18 74 19 75 21 10 22 11 23 12 24
REMARK SMILES IDX 13 25 14 26 15 27 67 28 16 29 66 30 17 31 18 32 19 33 60 34
REMARK SMILES IDX 20 35 65 36 59 37 61 38 21 39 64 40 58 41 57 42 22 44 48 45
REMARK SMILES IDX 31 46 47 47 32 48 35 49 46 50 62 51 33 52 34 53 45 55 63 56
REMARK SMILES IDX 36 57 23 58 24 59 29 60 25 61 26 62 28 63 30 64 27 65 49 66
REMARK SMILES IDX 50 67 55 68 51 69 52 70 54 71 56 72 53 73 37 74 38 75 43 76
REMARK SMILES IDX 39 77 40 78 42 79 44 80 41 81
REMARK H PARENT 73 20 61 43 35 54
REMARK Flexibility Score: inf
ROOT
ATOM      1  C   UNL A   1      33.558  22.039  27.609  1.00  0.00     0.274 C 
ENDROOT
BRANCH   1   2
ATOM      2  O   UNL A   1      32.971  23.270  27.081  1.00  0.00    -0.461 OA
BRANCH   2   3
ATOM      3  C   UNL A   1      31.685  23.152  26.648  1.00  0.00     0.325 C 
ATOM      4  O   UNL A   1      30.737  23.616  27.281  1.00  0.00    -0.250 OA
BRANCH   3   5
ATOM      5  C   UNL A   1      31.474  22.560  25.196  1.00  0.00     0.245 C 
BRANCH   5   6
ATOM      6  N   UNL A   1      31.886  23.156  23.894  1.00  0.00    -0.302 N 
BRANCH   6   7
ATOM      7  C   UNL A   1      32.017  22.081  22.964  1.00  0.00     0.211 C 
BRANCH   7   8
ATOM      8  C   UNL A   1      32.419  20.710  23.481  1.00  0.00    -0.085 C 
ATOM      9  C   UNL A   1      32.763  19.534  23.925  1.00  0.00     0.006 C 
ENDBRANCH   7   8
ENDBRANCH   6   7
BRANCH   6  10
ATOM     10  C   UNL A   1      32.442  24.459  23.518  1.00  0.00     0.321 C 
ATOM     11  O   UNL A   1      33.058  24.618  22.459  1.00  0.00    -0.248 OA
BRANCH  10  12
ATOM     12  N   UNL A   1      32.000  25.630  24.231  1.00  0.00    -0.313 N 
ATOM     13  C   UNL A   1      30.351  26.563  24.078  1.00  0.00     0.183 C 
ATOM     14  C   UNL A   1      33.292  26.183  25.145  1.00  0.00     0.186 C 
ATOM     15  C   UNL A   1      30.434  28.564  24.022  1.00  0.00     0.284 C 
ATOM     16  C   UNL A   1      33.612  28.040  25.085  1.00  0.00     0.204 C 
ATOM     17  N   UNL A   1      32.115  29.418  24.387  1.00  0.00    -0.330 N 
ATOM     18  C   UNL A   1      34.007  28.591  26.989  1.00  0.00     0.073 C 
ATOM     19  C   UNL A   1      31.809  30.702  25.751  1.00  0.00     0.262 C 
ATOM     20  H   UNL A   1      32.459  29.832  23.521  1.00  0.00     0.348 HD
ATOM     21  C   UNL A   1      32.885  30.261  27.359  1.00  0.00     0.068 C 
ENDBRANCH  10  12
ENDBRANCH   6  10
ENDBRANCH   5   6
ENDBRANCH   3   5
ENDBRANCH   2   3
ENDBRANCH   1   2
BRANCH   1  22
ATOM     22  C   UNL A   1      34.494  21.258  26.627  1.00  0.00     0.275 C 
BRANCH  22  23
ATOM     23  O   UNL A   1      35.196  22.091  25.652  1.00  0.00    -0.458 OA
BRANCH  23  24
ATOM     24  C   UNL A   1      36.370  21.473  25.343  1.00  0.00     0.338 C 
ATOM     25  O   UNL A   1      36.281  20.348  24.875  1.00  0.00    -0.246 OA
BRANCH  24  26
ATOM     26  C   UNL A   1      37.759  22.191  25.711  1.00  0.00     0.060 A 
ATOM     27  C   UNL A   1      37.394  23.779  26.121  1.00  0.00     0.016 A 
ATOM     28  C   UNL A   1      39.438  21.331  26.096  1.00  0.00     0.016 A 
ATOM     29  C   UNL A   1      38.455  24.684  26.881  1.00  0.00     0.010 A 
ATOM     30  C   UNL A   1      40.435  22.128  26.995  1.00  0.00     0.010 A 
ATOM     31  C   UNL A   1      39.974  24.039  27.399  1.00  0.00    -0.014 A 
BRANCH  31  32
ATOM     32  C   UNL A   1      40.905  25.451  27.953  1.00  0.00     0.031 A 
ATOM     33  C   UNL A   1      40.401  26.718  28.887  1.00  0.00     0.074 A 
ATOM     34  C   UNL A   1      42.158  25.664  27.466  1.00  0.00     0.049 A 
ATOM     35  N   UNL A   1      40.722  27.998  28.726  1.00  0.00    -0.248 NA
ATOM     36  C   UNL A   1      39.285  26.633  29.863  1.00  0.00     0.031 C 
ATOM     37  C   UNL A   1      42.885  24.824  26.517  1.00  0.00     0.029 A 
ATOM     38  N   UNL A   1      43.065  26.679  27.718  1.00  0.00    -0.354 N 
ATOM     39  C   UNL A   1      39.693  28.714  29.357  1.00  0.00     0.074 A 
ATOM     40  C   UNL A   1      38.656  27.771  29.638  1.00  0.00     0.031 C 
ATOM     41  C   UNL A   1      44.155  25.232  26.416  1.00  0.00     0.029 A 
ATOM     42  C   UNL A   1      44.282  26.509  27.093  1.00  0.00     0.049 A 
ATOM     43  H   UNL A   1      42.859  27.452  28.293  1.00  0.00     0.167 HD
ATOM     44  C   UNL A   1      39.617  29.965  29.880  1.00  0.00     0.037 A 
ATOM     45  C   UNL A   1      45.360  27.310  26.981  1.00  0.00     0.037 A 
ATOM     46  C   UNL A   1      40.720  30.867  29.884  1.00  0.00     0.049 A 
ATOM     47  C   UNL A   1      45.310  28.699  27.551  1.00  0.00     0.074 A 
ATOM     48  C   UNL A   1      40.808  32.137  30.417  1.00  0.00     0.029 A 
ATOM     49  N   UNL A   1      41.958  30.544  29.364  1.00  0.00    -0.354 N 
ATOM     50  N   UNL A   1      44.329  29.312  28.168  1.00  0.00    -0.248 NA
ATOM     51  C   UNL A   1      46.518  29.521  27.380  1.00  0.00     0.031 C 
ATOM     52  C   UNL A   1      42.099  32.610  30.164  1.00  0.00     0.029 A 
ATOM     53  C   UNL A   1      42.819  31.603  29.537  1.00  0.00     0.049 A 
ATOM     54  H   UNL A   1      42.188  29.688  28.935  1.00  0.00     0.167 HD
ATOM     55  C   UNL A   1      44.815  30.575  28.490  1.00  0.00     0.074 A 
ATOM     56  C   UNL A   1      46.179  30.634  28.012  1.00  0.00     0.031 C 
ATOM     57  C   UNL A   1      44.189  31.601  29.114  1.00  0.00     0.037 A 
BRANCH  44  58
ATOM     58  C   UNL A   1      38.319  30.377  30.549  1.00  0.00     0.057 A 
ATOM     59  C   UNL A   1      37.292  31.052  29.862  1.00  0.00     0.134 A 
ATOM     60  C   UNL A   1      38.142  30.191  31.925  1.00  0.00     0.134 A 
ATOM     61  F   UNL A   1      37.393  31.287  28.544  1.00  0.00    -0.206 F 
ATOM     62  C   UNL A   1      36.203  31.617  30.534  1.00  0.00     0.040 A 
ATOM     63  C   UNL A   1      37.030  30.705  32.599  1.00  0.00     0.040 A 
ATOM     64  F   UNL A   1      39.060  29.530  32.646  1.00  0.00    -0.206 F 
ATOM     65  C   UNL A   1      36.073  31.447  31.909  1.00  0.00     0.006 A 
ENDBRANCH  44  58
BRANCH  45  66
ATOM     66  C   UNL A   1      46.581  26.832  26.269  1.00  0.00     0.057 A 
ATOM     67  C   UNL A   1      47.549  26.077  26.946  1.00  0.00     0.134 A 
ATOM     68  C   UNL A   1      46.821  27.107  24.915  1.00  0.00     0.134 A 
ATOM     69  F   UNL A   1      47.391  25.793  28.247  1.00  0.00    -0.206 F 
ATOM     70  C   UNL A   1      48.715  25.640  26.315  1.00  0.00     0.040 A 
ATOM     71  C   UNL A   1      47.963  26.641  24.261  1.00  0.00     0.040 A 
ATOM     72  F   UNL A   1      45.931  27.811  24.199  1.00  0.00    -0.206 F 
ATOM     73  C   UNL A   1      48.920  25.914  24.965  1.00  0.00     0.006 A 
ENDBRANCH  45  66
BRANCH  57  74
ATOM     74  C   UNL A   1      44.985  32.829  29.412  1.00  0.00     0.057 A 
ATOM     75  C   UNL A   1      45.006  33.926  28.546  1.00  0.00     0.134 A 
ATOM     76  C   UNL A   1      45.656  32.942  30.636  1.00  0.00     0.134 A 
ATOM     77  F   UNL A   1      44.384  33.871  27.359  1.00  0.00    -0.206 F 
ATOM     78  C   UNL A   1      45.685  35.096  28.884  1.00  0.00     0.040 A 
ATOM     79  C   UNL A   1      46.308  34.116  30.999  1.00  0.00     0.040 A 
ATOM     80  F   UNL A   1      45.650  31.925  31.513  1.00  0.00    -0.206 F 
ATOM     81  C   UNL A   1      46.327  35.196  30.118  1.00  0.00     0.006 A 
ENDBRANCH  57  74
ENDBRANCH  31  32
ENDBRANCH  24  26
ENDBRANCH  23  24
ENDBRANCH  22  23
ENDBRANCH   1  22
TORSDOF 16
ENDMDL
MODEL 2
REMARK VINA RESULT:     -11.3      2.928      7.856
REMARK SMILES C#CCN(CC(=O)OCCOC(=O)c1ccc(-c2c3nc(c(-c4c(F)cccc4F)c4ccc([nH]4)c(-c4c(F)cccc4F)c4nc(c(-c5c(F)cccc5F)c5ccc2[nH]5)C=C4)C=C3)cc1)C(=O)N1CC[N@H+]2CCC[C@H]2C1
REMARK SMILES IDX 9 1 8 2 6 3 7 4 5 5 4 6 3 7 2 8 1 9 68 10 69 11 70 12 71 13
REMARK SMILES IDX 78 14 72 15 77 16 73 17 76 18 74 19 75 21 10 22 11 23 12 24
REMARK SMILES IDX 13 25 14 26 15 27 67 28 16 29 66 30 17 31 18 32 19 33 60 34
REMARK SMILES IDX 20 35 65 36 59 37 61 38 21 39 64 40 58 41 57 42 22 44 48 45
REMARK SMILES IDX 31 46 47 47 32 48 35 49 46 50 62 51 33 52 34 53 45 55 63 56
REMARK SMILES IDX 36 57 23 58 24 59 29 60 25 61 26 62 28 63 30 64 27 65 49 66
REMARK SMILES IDX 50 67 55 68 51 69 52 70 54 71 56 72 53 73 37 74 38 75 43 76
REMARK SMILES IDX 39 77 40 78 42 79 44 80 41 81
REMARK H PARENT 73 20 61 43 35 54
REMARK Flexibility Score: inf
ROOT
ATOM      1  C   UNL A   1      33.970  33.521  28.043  1.00  0.00     0.274 C 
ENDROOT
BRANCH   1   2
ATOM      2  O   UNL A   1      33.263  32.242  27.998  1.00  0.00    -0.461 OA
BRANCH   2   3
ATOM      3  C   UNL A   1      32.164  32.222  27.194  1.00  0.00     0.325 C 
ATOM      4  O   UNL A   1      31.559  33.249  26.888  1.00  0.00    -0.250 OA
BRANCH   3   5
ATOM      5  C   UNL A   1      31.808  30.841  26.508  1.00  0.00     0.245 C 
BRANCH   5   6
ATOM      6  N   UNL A   1      32.488  29.528  26.687  1.00  0.00    -0.302 N 
BRANCH   6   7
ATOM      7  C   UNL A   1      33.833  29.688  26.239  1.00  0.00     0.211 C 
BRANCH   7   8
ATOM      8  C   UNL A   1      34.963  29.545  27.246  1.00  0.00    -0.085 C 
ATOM      9  C   UNL A   1      35.931  29.423  28.110  1.00  0.00     0.006 C 
ENDBRANCH   7   8
ENDBRANCH   6   7
BRANCH   6  10
ATOM     10  C   UNL A   1      31.996  28.163  26.904  1.00  0.00     0.321 C 
ATOM     11  O   UNL A   1      31.289  27.878  27.874  1.00  0.00    -0.248 OA
BRANCH  10  12
ATOM     12  N   UNL A   1      32.077  27.220  25.818  1.00  0.00    -0.313 N 
ATOM     13  C   UNL A   1      30.794  26.858  24.462  1.00  0.00     0.183 C 
ATOM     14  C   UNL A   1      33.472  26.316  26.035  1.00  0.00     0.186 C 
ATOM     15  C   UNL A   1      30.451  24.934  24.021  1.00  0.00     0.284 C 
ATOM     16  C   UNL A   1      33.293  24.454  25.806  1.00  0.00     0.204 C 
ATOM     17  N   UNL A   1      31.603  23.602  24.786  1.00  0.00    -0.330 N 
ATOM     18  C   UNL A   1      34.913  23.873  24.747  1.00  0.00     0.073 C 
ATOM     19  C   UNL A   1      32.250  22.531  23.358  1.00  0.00     0.262 C 
ATOM     20  H   UNL A   1      31.067  23.069  25.471  1.00  0.00     0.348 HD
ATOM     21  C   UNL A   1      34.227  22.661  23.248  1.00  0.00     0.068 C 
ENDBRANCH  10  12
ENDBRANCH   6  10
ENDBRANCH   5   6
ENDBRANCH   3   5
ENDBRANCH   2   3
ENDBRANCH   1   2
BRANCH   1  22
ATOM     22  C   UNL A   1      33.805  34.342  29.366  1.00  0.00     0.275 C 
BRANCH  22  23
ATOM     23  O   UNL A   1      34.966  34.318  30.254  1.00  0.00    -0.458 OA
BRANCH  23  24
ATOM     24  C   UNL A   1      34.877  33.200  31.028  1.00  0.00     0.338 C 
ATOM     25  O   UNL A   1      34.003  33.205  31.882  1.00  0.00    -0.246 OA
BRANCH  24  26
ATOM     26  C   UNL A   1      35.964  32.032  30.854  1.00  0.00     0.060 A 
ATOM     27  C   UNL A   1      37.151  32.620  29.820  1.00  0.00     0.016 A 
ATOM     28  C   UNL A   1      36.168  30.468  31.959  1.00  0.00     0.016 A 
ATOM     29  C   UNL A   1      38.557  31.890  29.701  1.00  0.00     0.010 A 
ATOM     30  C   UNL A   1      37.593  29.831  32.002  1.00  0.00     0.010 A 
ATOM     31  C   UNL A   1      38.949  30.534  30.700  1.00  0.00    -0.014 A 
BRANCH  31  32
ATOM     32  C   UNL A   1      40.480  29.910  30.044  1.00  0.00     0.031 A 
ATOM     33  C   UNL A   1      41.910  30.709  29.822  1.00  0.00     0.074 A 
ATOM     34  C   UNL A   1      40.519  28.665  29.494  1.00  0.00     0.049 A 
ATOM     35  N   UNL A   1      42.733  30.587  28.785  1.00  0.00    -0.248 NA
ATOM     36  C   UNL A   1      42.329  31.890  30.618  1.00  0.00     0.031 C 
ATOM     37  C   UNL A   1      39.413  27.715  29.393  1.00  0.00     0.029 A 
ATOM     38  N   UNL A   1      41.563  27.968  28.909  1.00  0.00    -0.354 N 
ATOM     39  C   UNL A   1      43.473  31.779  28.765  1.00  0.00     0.074 A 
ATOM     40  C   UNL A   1      42.830  32.671  29.679  1.00  0.00     0.031 C 
ATOM     41  C   UNL A   1      39.861  26.527  28.974  1.00  0.00     0.029 A 
ATOM     42  C   UNL A   1      41.235  26.682  28.535  1.00  0.00     0.049 A 
ATOM     43  H   UNL A   1      42.458  28.356  28.772  1.00  0.00     0.167 HD
ATOM     44  C   UNL A   1      44.683  32.113  28.246  1.00  0.00     0.037 A 
ATOM     45  C   UNL A   1      41.908  25.744  27.839  1.00  0.00     0.037 A 
ATOM     46  C   UNL A   1      45.511  31.180  27.559  1.00  0.00     0.049 A 
ATOM     47  C   UNL A   1      43.250  26.080  27.255  1.00  0.00     0.074 A 
ATOM     48  C   UNL A   1      46.772  31.357  27.026  1.00  0.00     0.029 A 
ATOM     49  N   UNL A   1      45.157  29.859  27.367  1.00  0.00    -0.354 N 
ATOM     50  N   UNL A   1      43.919  27.207  27.296  1.00  0.00    -0.248 NA
ATOM     51  C   UNL A   1      43.920  25.013  26.497  1.00  0.00     0.031 C 
ATOM     52  C   UNL A   1      47.160  30.142  26.454  1.00  0.00     0.029 A 
ATOM     53  C   UNL A   1      46.166  29.206  26.697  1.00  0.00     0.049 A 
ATOM     54  H   UNL A   1      44.313  29.448  27.664  1.00  0.00     0.167 HD
ATOM     55  C   UNL A   1      45.101  26.971  26.603  1.00  0.00     0.074 A 
ATOM     56  C   UNL A   1      45.063  25.593  26.163  1.00  0.00     0.031 C 
ATOM     57  C   UNL A   1      46.125  27.818  26.340  1.00  0.00     0.037 A 
BRANCH  44  58
ATOM     58  C   UNL A   1      45.191  33.523  28.481  1.00  0.00     0.057 A 
ATOM     59  C   UNL A   1      45.953  33.878  29.611  1.00  0.00     0.134 A 
ATOM     60  C   UNL A   1      44.821  34.562  27.619  1.00  0.00     0.134 A 
ATOM     61  F   UNL A   1      46.334  32.943  30.497  1.00  0.00    -0.206 F 
ATOM     62  C   UNL A   1      46.228  35.212  29.927  1.00  0.00     0.040 A 
ATOM     63  C   UNL A   1      45.137  35.896  27.897  1.00  0.00     0.040 A 
ATOM     64  F   UNL A   1      44.122  34.304  26.504  1.00  0.00    -0.206 F 
ATOM     65  C   UNL A   1      45.815  36.227  29.068  1.00  0.00     0.006 A 
ENDBRANCH  44  58
BRANCH  45  66
ATOM     66  C   UNL A   1      41.310  24.394  27.625  1.00  0.00     0.057 A 
ATOM     67  C   UNL A   1      41.756  23.292  28.367  1.00  0.00     0.134 A 
ATOM     68  C   UNL A   1      40.292  24.161  26.689  1.00  0.00     0.134 A 
ATOM     69  F   UNL A   1      42.740  23.442  29.266  1.00  0.00    -0.206 F 
ATOM     70  C   UNL A   1      41.236  22.012  28.168  1.00  0.00     0.040 A 
ATOM     71  C   UNL A   1      39.734  22.893  26.510  1.00  0.00     0.040 A 
ATOM     72  F   UNL A   1      39.803  25.171  25.954  1.00  0.00    -0.206 F 
ATOM     73  C   UNL A   1      40.215  21.811  27.243  1.00  0.00     0.006 A 
ENDBRANCH  45  66
BRANCH  57  74
ATOM     74  C   UNL A   1      47.325  27.270  25.640  1.00  0.00     0.057 A 
ATOM     75  C   UNL A   1      47.525  27.440  24.268  1.00  0.00     0.134 A 
ATOM     76  C   UNL A   1      48.339  26.651  26.383  1.00  0.00     0.134 A 
ATOM     77  F   UNL A   1      46.584  28.023  23.509  1.00  0.00    -0.206 F 
ATOM     78  C   UNL A   1      48.693  26.996  23.650  1.00  0.00     0.040 A 
ATOM     79  C   UNL A   1      49.524  26.234  25.783  1.00  0.00     0.040 A 
ATOM     80  F   UNL A   1      48.207  26.480  27.708  1.00  0.00    -0.206 F 
ATOM     81  C   UNL A   1      49.700  26.403  24.411  1.00  0.00     0.006 A 
ENDBRANCH  57  74
ENDBRANCH  31  32
ENDBRANCH  24  26
ENDBRANCH  23  24
ENDBRANCH  22  23
ENDBRANCH   1  22
TORSDOF 16
ENDMDL
MODEL 3
REMARK VINA RESULT:     -10.8      2.432      7.220
REMARK SMILES C#CCN(CC(=O)OCCOC(=O)c1ccc(-c2c3nc(c(-c4c(F)cccc4F)c4ccc([nH]4)c(-c4c(F)cccc4F)c4nc(c(-c5c(F)cccc5F)c5ccc2[nH]5)C=C4)C=C3)cc1)C(=O)N1CC[N@H+]2CCC[C@H]2C1
REMARK SMILES IDX 9 1 8 2 6 3 7 4 5 5 4 6 3 7 2 8 1 9 68 10 69 11 70 12 71 13
REMARK SMILES IDX 78 14 72 15 77 16 73 17 76 18 74 19 75 21 10 22 11 23 12 24
REMARK SMILES IDX 13 25 14 26 15 27 67 28 16 29 66 30 17 31 18 32 19 33 60 34
REMARK SMILES IDX 20 35 65 36 59 37 61 38 21 39 64 40 58 41 57 42 22 44 48 45
REMARK SMILES IDX 31 46 47 47 32 48 35 49 46 50 62 51 33 52 34 53 45 55 63 56
REMARK SMILES IDX 36 57 23 58 24 59 29 60 25 61 26 62 28 63 30 64 27 65 49 66
REMARK SMILES IDX 50 67 55 68 51 69 52 70 54 71 56 72 53 73 37 74 38 75 43 76
REMARK SMILES IDX 39 77 40 78 42 79 44 80 41 81
REMARK H PARENT 73 20 61 43 35 54
REMARK Flexibility Score: inf
ROOT
ATOM      1  C   UNL A   1      31.823  29.001  26.596  1.00  0.00     0.274 C 
ENDROOT
BRANCH   1   2
ATOM      2  O   UNL A   1      31.669  29.707  25.324  1.00  0.00    -0.461 OA
BRANCH   2   3
ATOM      3  C   UNL A   1      31.904  28.950  24.217  1.00  0.00     0.325 C 
ATOM      4  O   UNL A   1      33.033  28.809  23.749  1.00  0.00    -0.250 OA
BRANCH   3   5
ATOM      5  C   UNL A   1      30.690  28.097  23.666  1.00  0.00     0.245 C 
BRANCH   5   6
ATOM      6  N   UNL A   1      30.172  26.800  24.184  1.00  0.00    -0.302 N 
BRANCH   6   7
ATOM      7  C   UNL A   1      28.793  26.725  23.822  1.00  0.00     0.211 C 
BRANCH   7   8
ATOM      8  C   UNL A   1      28.089  27.988  23.354  1.00  0.00    -0.085 C 
ATOM      9  C   UNL A   1      27.485  29.071  22.953  1.00  0.00     0.006 C 
ENDBRANCH   7   8
ENDBRANCH   6   7
BRANCH   6  10
ATOM     10  C   UNL A   1      30.673  25.841  25.173  1.00  0.00     0.321 C 
ATOM     11  O   UNL A   1      30.131  25.703  26.273  1.00  0.00    -0.248 OA
BRANCH  10  12
ATOM     12  N   UNL A   1      31.608  24.832  24.744  1.00  0.00    -0.313 N 
ATOM     13  C   UNL A   1      31.263  23.217  23.802  1.00  0.00     0.183 C 
ATOM     14  C   UNL A   1      33.108  25.228  25.380  1.00  0.00     0.186 C 
ATOM     15  C   UNL A   1      32.203  21.567  24.444  1.00  0.00     0.284 C 
ATOM     16  C   UNL A   1      34.071  23.812  26.168  1.00  0.00     0.204 C 
ATOM     17  N   UNL A   1      33.573  21.757  25.776  1.00  0.00    -0.330 N 
ATOM     18  C   UNL A   1      35.980  24.034  25.546  1.00  0.00     0.073 C 
ATOM     19  C   UNL A   1      35.126  20.887  25.114  1.00  0.00     0.262 C 
ATOM     20  H   UNL A   1      33.232  21.352  26.647  1.00  0.00     0.348 HD
ATOM     21  C   UNL A   1      36.609  22.191  24.919  1.00  0.00     0.068 C 
ENDBRANCH  10  12
ENDBRANCH   6  10
ENDBRANCH   5   6
ENDBRANCH   3   5
ENDBRANCH   2   3
ENDBRANCH   1   2
BRANCH   1  22
ATOM     22  C   UNL A   1      33.247  29.069  27.241  1.00  0.00     0.275 C 
BRANCH  22  23
ATOM     23  O   UNL A   1      34.061  30.209  26.822  1.00  0.00    -0.458 OA
BRANCH  23  24
ATOM     24  C   UNL A   1      34.696  30.697  27.923  1.00  0.00     0.338 C 
ATOM     25  O   UNL A   1      34.273  31.755  28.365  1.00  0.00    -0.246 OA
BRANCH  24  26
ATOM     26  C   UNL A   1      35.995  29.938  28.486  1.00  0.00     0.060 A 
ATOM     27  C   UNL A   1      37.149  29.976  27.264  1.00  0.00     0.016 A 
ATOM     28  C   UNL A   1      36.375  29.502  30.322  1.00  0.00     0.016 A 
ATOM     29  C   UNL A   1      38.671  29.647  27.578  1.00  0.00     0.010 A 
ATOM     30  C   UNL A   1      37.882  29.348  30.701  1.00  0.00     0.010 A 
ATOM     31  C   UNL A   1      39.207  29.339  29.193  1.00  0.00    -0.014 A 
BRANCH  31  32
ATOM     32  C   UNL A   1      40.886  28.778  29.019  1.00  0.00     0.031 A 
ATOM     33  C   UNL A   1      42.284  29.653  29.134  1.00  0.00     0.074 A 
ATOM     34  C   UNL A   1      41.131  27.510  28.588  1.00  0.00     0.049 A 
ATOM     35  N   UNL A   1      43.363  29.525  28.368  1.00  0.00    -0.248 NA
ATOM     36  C   UNL A   1      42.416  30.900  29.928  1.00  0.00     0.031 C 
ATOM     37  C   UNL A   1      40.139  26.488  28.261  1.00  0.00     0.029 A 
ATOM     38  N   UNL A   1      42.325  26.849  28.357  1.00  0.00    -0.354 N 
ATOM     39  C   UNL A   1      44.025  30.759  28.463  1.00  0.00     0.074 A 
ATOM     40  C   UNL A   1      43.117  31.658  29.106  1.00  0.00     0.031 C 
ATOM     41  C   UNL A   1      40.737  25.309  28.064  1.00  0.00     0.029 A 
ATOM     42  C   UNL A   1      42.171  25.526  28.001  1.00  0.00     0.049 A 
ATOM     43  H   UNL A   1      43.204  27.285  28.439  1.00  0.00     0.167 HD
ATOM     44  C   UNL A   1      45.314  31.140  28.267  1.00  0.00     0.037 A 
ATOM     45  C   UNL A   1      43.050  24.595  27.579  1.00  0.00     0.037 A 
ATOM     46  C   UNL A   1      46.340  30.225  27.896  1.00  0.00     0.049 A 
ATOM     47  C   UNL A   1      44.484  24.983  27.355  1.00  0.00     0.074 A 
ATOM     48  C   UNL A   1      47.689  30.451  27.711  1.00  0.00     0.029 A 
ATOM     49  N   UNL A   1      46.113  28.875  27.710  1.00  0.00    -0.354 N 
ATOM     50  N   UNL A   1      45.064  26.150  27.496  1.00  0.00    -0.248 NA
ATOM     51  C   UNL A   1      45.384  23.919  26.883  1.00  0.00     0.031 C 
ATOM     52  C   UNL A   1      48.274  29.234  27.352  1.00  0.00     0.029 A 
ATOM     53  C   UNL A   1      47.295  28.251  27.384  1.00  0.00     0.049 A 
ATOM     54  H   UNL A   1      45.239  28.429  27.797  1.00  0.00     0.167 HD
ATOM     55  C   UNL A   1      46.400  25.951  27.165  1.00  0.00     0.074 A 
ATOM     56  C   UNL A   1      46.546  24.552  26.829  1.00  0.00     0.031 C 
ATOM     57  C   UNL A   1      47.417  26.845  27.127  1.00  0.00     0.037 A 
BRANCH  44  58
ATOM     58  C   UNL A   1      45.674  32.590  28.531  1.00  0.00     0.057 A 
ATOM     59  C   UNL A   1      46.083  33.054  29.795  1.00  0.00     0.134 A 
ATOM     60  C   UNL A   1      45.504  33.554  27.530  1.00  0.00     0.134 A 
ATOM     61  F   UNL A   1      46.253  32.196  30.814  1.00  0.00    -0.206 F 
ATOM     62  C   UNL A   1      46.200  34.418  30.079  1.00  0.00     0.040 A 
ATOM     63  C   UNL A   1      45.670  34.919  27.788  1.00  0.00     0.040 A 
ATOM     64  F   UNL A   1      45.146  33.192  26.289  1.00  0.00    -0.206 F 
ATOM     65  C   UNL A   1      45.989  35.356  29.072  1.00  0.00     0.006 A 
ENDBRANCH  44  58
BRANCH  45  66
ATOM     66  C   UNL A   1      42.596  23.200  27.308  1.00  0.00     0.057 A 
ATOM     67  C   UNL A   1      42.396  22.760  25.992  1.00  0.00     0.134 A 
ATOM     68  C   UNL A   1      42.348  22.275  28.332  1.00  0.00     0.134 A 
ATOM     69  F   UNL A   1      42.597  23.600  24.965  1.00  0.00    -0.206 F 
ATOM     70  C   UNL A   1      41.944  21.471  25.708  1.00  0.00     0.040 A 
ATOM     71  C   UNL A   1      41.936  20.969  28.060  1.00  0.00     0.040 A 
ATOM     72  F   UNL A   1      42.533  22.620  29.616  1.00  0.00    -0.206 F 
ATOM     73  C   UNL A   1      41.721  20.567  26.744  1.00  0.00     0.006 A 
ENDBRANCH  45  66
BRANCH  57  74
ATOM     74  C   UNL A   1      48.786  26.336  26.817  1.00  0.00     0.057 A 
ATOM     75  C   UNL A   1      49.341  26.435  25.539  1.00  0.00     0.134 A 
ATOM     76  C   UNL A   1      49.590  25.832  27.848  1.00  0.00     0.134 A 
ATOM     77  F   UNL A   1      48.615  26.907  24.514  1.00  0.00    -0.206 F 
ATOM     78  C   UNL A   1      50.652  26.033  25.291  1.00  0.00     0.040 A 
ATOM     79  C   UNL A   1      50.910  25.459  27.620  1.00  0.00     0.040 A 
ATOM     80  F   UNL A   1      49.112  25.735  29.099  1.00  0.00    -0.206 F 
ATOM     81  C   UNL A   1      51.443  25.556  26.335  1.00  0.00     0.006 A 
ENDBRANCH  57  74
ENDBRANCH  31  32
ENDBRANCH  24  26
ENDBRANCH  23  24
ENDBRANCH  22  23
ENDBRANCH   1  22
TORSDOF 16
ENDMDL
